MODEL 1
REMARK VINA RESULT:    -3.838      0.000      0.000
REMARK INTER + INTRA:         -10.070
REMARK INTER:                  -7.427
REMARK INTRA:                  -2.642
REMARK UNBOUND:                -2.642
REMARK SMILES CCCCCCCCCCCCCCCCCC(=O)[O-]
REMARK SMILES IDX 10 1 11 2 12 3 13 4 14 5 15 6 16 7 17 8 18 9 19 10 20 11
REMARK SMILES IDX 9 12 8 13 7 14 6 15 5 16 4 17 3 18 2 19 1 20
REMARK H PARENT
REMARK Flexibility Score: inf
ROOT
ATOM      1  C   UNL     1      26.603 -16.781  25.939  1.00  0.00     0.000 C 
ENDROOT
BRANCH   1   2
ATOM      2  C   UNL     1      26.423 -17.753  24.761  1.00  0.00     0.000 C 
BRANCH   2   3
ATOM      3  C   UNL     1      26.447 -19.227  25.203  1.00  0.00     0.000 C 
BRANCH   3   4
ATOM      4  C   UNL     1      27.756 -19.938  24.826  1.00  0.00     0.000 C 
BRANCH   4   5
ATOM      5  C   UNL     1      28.777 -18.993  24.166  1.00  0.00     0.000 C 
BRANCH   5   6
ATOM      6  C   UNL     1      29.993 -18.718  25.065  1.00  0.00     0.000 C 
BRANCH   6   7
ATOM      7  C   UNL     1      29.989 -19.572  26.345  1.00  0.00     0.006 C 
BRANCH   7   8
ATOM      8  C   UNL     1      29.974 -18.711  27.615  1.00  0.00     0.053 C 
BRANCH   8   9
ATOM      9  C   UNL     1      28.660 -18.798  28.332  1.00  0.00     0.041 C 
ATOM     10  O   UNL     1      28.027 -19.885  28.366  1.00  0.00    -0.550 OA
ATOM     11  O   UNL     1      28.153 -17.683  28.988  1.00  0.00    -0.550 OA
ENDBRANCH   8   9
ENDBRANCH   7   8
ENDBRANCH   6   7
ENDBRANCH   5   6
ENDBRANCH   4   5
ENDBRANCH   3   4
ENDBRANCH   2   3
ENDBRANCH   1   2
BRANCH   1  12
ATOM     12  C   UNL     1      25.907 -15.430  25.700  1.00  0.00     0.000 C 
BRANCH  12  13
ATOM     13  C   UNL     1      24.992 -15.020  26.866  1.00  0.00    -0.000 C 
BRANCH  13  14
ATOM     14  C   UNL     1      23.850 -14.089  26.423  1.00  0.00    -0.000 C 
BRANCH  14  15
ATOM     15  C   UNL     1      22.571 -14.857  26.050  1.00  0.00    -0.000 C 
BRANCH  15  16
ATOM     16  C   UNL     1      22.466 -16.219  26.759  1.00  0.00    -0.000 C 
BRANCH  16  17
ATOM     17  C   UNL     1      22.637 -17.399  25.779  1.00  0.00    -0.000 C 
BRANCH  17  18
ATOM     18  C   UNL     1      23.016 -18.722  26.466  1.00  0.00    -0.000 C 
BRANCH  18  19
ATOM     19  C   UNL     1      23.193 -18.579  27.983  1.00  0.00    -0.003 C 
ATOM     20  C   UNL     1      24.659 -18.717  28.382  1.00  0.00     0.004 C 
ENDBRANCH  18  19
ENDBRANCH  17  18
ENDBRANCH  16  17
ENDBRANCH  15  16
ENDBRANCH  14  15
ENDBRANCH  13  14
ENDBRANCH  12  13
ENDBRANCH   1  12
TORSDOF 16
ENDMDL
MODEL 2
REMARK VINA RESULT:    -3.792      2.621      5.051
REMARK INTER + INTRA:          -9.981
REMARK INTER:                  -8.097
REMARK INTRA:                  -1.885
REMARK UNBOUND:                -2.642
REMARK SMILES CCCCCCCCCCCCCCCCCC(=O)[O-]
REMARK SMILES IDX 10 1 11 2 12 3 13 4 14 5 15 6 16 7 17 8 18 9 19 10 20 11
REMARK SMILES IDX 9 12 8 13 7 14 6 15 5 16 4 17 3 18 2 19 1 20
REMARK H PARENT
REMARK Flexibility Score: inf
ROOT
ATOM      1  C   UNL     1      30.444 -18.796  25.307  1.00  0.00     0.000 C 
ENDROOT
BRANCH   1   2
ATOM      2  C   UNL     1      30.307 -19.374  26.725  1.00  0.00     0.000 C 
BRANCH   2   3
ATOM      3  C   UNL     1      30.681 -18.356  27.816  1.00  0.00     0.000 C 
BRANCH   3   4
ATOM      4  C   UNL     1      29.719 -18.389  29.014  1.00  0.00     0.000 C 
BRANCH   4   5
ATOM      5  C   UNL     1      28.277 -18.008  28.629  1.00  0.00     0.000 C 
BRANCH   5   6
ATOM      6  C   UNL     1      27.695 -16.913  29.536  1.00  0.00     0.000 C 
BRANCH   6   7
ATOM      7  C   UNL     1      28.766 -16.231  30.406  1.00  0.00     0.006 C 
BRANCH   7   8
ATOM      8  C   UNL     1      28.378 -14.795  30.782  1.00  0.00     0.053 C 
BRANCH   8   9
ATOM      9  C   UNL     1      29.439 -14.129  31.606  1.00  0.00     0.041 C 
ATOM     10  O   UNL     1      29.947 -13.041  31.226  1.00  0.00    -0.550 OA
ATOM     11  O   UNL     1      29.843 -14.696  32.807  1.00  0.00    -0.550 OA
ENDBRANCH   8   9
ENDBRANCH   7   8
ENDBRANCH   6   7
ENDBRANCH   5   6
ENDBRANCH   4   5
ENDBRANCH   3   4
ENDBRANCH   2   3
ENDBRANCH   1   2
BRANCH   1  12
ATOM     12  C   UNL     1      29.173 -18.998  24.464  1.00  0.00     0.000 C 
BRANCH  12  13
ATOM     13  C   UNL     1      28.043 -19.685  25.249  1.00  0.00    -0.000 C 
BRANCH  13  14
ATOM     14  C   UNL     1      26.785 -18.807  25.367  1.00  0.00    -0.000 C 
BRANCH  14  15
ATOM     15  C   UNL     1      26.803 -17.615  24.395  1.00  0.00    -0.000 C 
BRANCH  15  16
ATOM     16  C   UNL     1      26.684 -16.259  25.114  1.00  0.00    -0.000 C 
BRANCH  16  17
ATOM     17  C   UNL     1      25.754 -16.333  26.344  1.00  0.00    -0.000 C 
BRANCH  17  18
ATOM     18  C   UNL     1      25.059 -15.001  26.673  1.00  0.00    -0.000 C 
BRANCH  18  19
ATOM     19  C   UNL     1      23.533 -15.131  26.774  1.00  0.00    -0.003 C 
ATOM     20  C   UNL     1      23.044 -16.408  26.099  1.00  0.00     0.004 C 
ENDBRANCH  18  19
ENDBRANCH  17  18
ENDBRANCH  16  17
ENDBRANCH  15  16
ENDBRANCH  14  15
ENDBRANCH  13  14
ENDBRANCH  12  13
ENDBRANCH   1  12
TORSDOF 16
ENDMDL
MODEL 3
REMARK VINA RESULT:    -3.783      3.590      6.279
REMARK INTER + INTRA:          -9.964
REMARK INTER:                  -8.188
REMARK INTRA:                  -1.776
REMARK UNBOUND:                -2.642
REMARK SMILES CCCCCCCCCCCCCCCCCC(=O)[O-]
REMARK SMILES IDX 10 1 11 2 12 3 13 4 14 5 15 6 16 7 17 8 18 9 19 10 20 11
REMARK SMILES IDX 9 12 8 13 7 14 6 15 5 16 4 17 3 18 2 19 1 20
REMARK H PARENT
REMARK Flexibility Score: inf
ROOT
ATOM      1  C   UNL     1      29.951 -18.336  26.355  1.00  0.00     0.000 C 
ENDROOT
BRANCH   1   2
ATOM      2  C   UNL     1      29.189 -19.496  25.694  1.00  0.00     0.000 C 
BRANCH   2   3
ATOM      3  C   UNL     1      28.201 -19.015  24.617  1.00  0.00     0.000 C 
BRANCH   3   4
ATOM      4  C   UNL     1      26.861 -18.546  25.209  1.00  0.00     0.000 C 
BRANCH   4   5
ATOM      5  C   UNL     1      26.516 -17.096  24.821  1.00  0.00     0.000 C 
BRANCH   5   6
ATOM      6  C   UNL     1      26.125 -16.239  26.036  1.00  0.00     0.000 C 
BRANCH   6   7
ATOM      7  C   UNL     1      24.982 -16.861  26.858  1.00  0.00     0.006 C 
BRANCH   7   8
ATOM      8  C   UNL     1      23.627 -16.741  26.149  1.00  0.00     0.053 C 
BRANCH   8   9
ATOM      9  C   UNL     1      22.839 -15.567  26.649  1.00  0.00     0.041 C 
ATOM     10  O   UNL     1      22.795 -14.501  25.980  1.00  0.00    -0.550 OA
ATOM     11  O   UNL     1      22.129 -15.663  27.839  1.00  0.00    -0.550 OA
ENDBRANCH   8   9
ENDBRANCH   7   8
ENDBRANCH   6   7
ENDBRANCH   5   6
ENDBRANCH   4   5
ENDBRANCH   3   4
ENDBRANCH   2   3
ENDBRANCH   1   2
BRANCH   1  12
ATOM     12  C   UNL     1      29.804 -18.332  27.887  1.00  0.00     0.000 C 
BRANCH  12  13
ATOM     13  C   UNL     1      28.578 -19.127  28.367  1.00  0.00    -0.000 C 
BRANCH  13  14
ATOM     14  C   UNL     1      27.498 -18.229  28.994  1.00  0.00    -0.000 C 
BRANCH  14  15
ATOM     15  C   UNL     1      28.081 -16.948  29.614  1.00  0.00    -0.000 C 
BRANCH  15  16
ATOM     16  C   UNL     1      28.148 -17.008  31.151  1.00  0.00    -0.000 C 
BRANCH  16  17
ATOM     17  C   UNL     1      28.786 -15.737  31.754  1.00  0.00    -0.000 C 
BRANCH  17  18
ATOM     18  C   UNL     1      28.668 -14.500  30.849  1.00  0.00    -0.000 C 
BRANCH  18  19
ATOM     19  C   UNL     1      29.657 -13.388  31.223  1.00  0.00    -0.003 C 
ATOM     20  C   UNL     1      29.154 -12.583  32.417  1.00  0.00     0.004 C 
ENDBRANCH  18  19
ENDBRANCH  17  18
ENDBRANCH  16  17
ENDBRANCH  15  16
ENDBRANCH  14  15
ENDBRANCH  13  14
ENDBRANCH  12  13
ENDBRANCH   1  12
TORSDOF 16
ENDMDL
MODEL 4
REMARK VINA RESULT:    -3.753      3.621      6.046
REMARK INTER + INTRA:          -9.905
REMARK INTER:                  -7.574
REMARK INTRA:                  -2.331
REMARK UNBOUND:                -2.642
REMARK SMILES CCCCCCCCCCCCCCCCCC(=O)[O-]
REMARK SMILES IDX 10 1 11 2 12 3 13 4 14 5 15 6 16 7 17 8 18 9 19 10 20 11
REMARK SMILES IDX 9 12 8 13 7 14 6 15 5 16 4 17 3 18 2 19 1 20
REMARK H PARENT
REMARK Flexibility Score: inf
ROOT
ATOM      1  C   UNL     1      27.757 -17.531  28.829  1.00  0.00     0.000 C 
ENDROOT
BRANCH   1   2
ATOM      2  C   UNL     1      29.111 -18.247  28.962  1.00  0.00     0.000 C 
BRANCH   2   3
ATOM      3  C   UNL     1      29.724 -18.607  27.598  1.00  0.00     0.000 C 
BRANCH   3   4
ATOM      4  C   UNL     1      29.232 -19.963  27.065  1.00  0.00     0.000 C 
BRANCH   4   5
ATOM      5  C   UNL     1      28.306 -19.820  25.842  1.00  0.00     0.000 C 
BRANCH   5   6
ATOM      6  C   UNL     1      28.318 -18.398  25.258  1.00  0.00     0.000 C 
BRANCH   6   7
ATOM      7  C   UNL     1      26.910 -17.899  24.885  1.00  0.00     0.006 C 
BRANCH   7   8
ATOM      8  C   UNL     1      26.700 -16.426  25.263  1.00  0.00     0.053 C 
BRANCH   8   9
ATOM      9  C   UNL     1      25.504 -16.244  26.149  1.00  0.00     0.041 C 
ATOM     10  O   UNL     1      24.915 -17.246  26.633  1.00  0.00    -0.550 OA
ATOM     11  O   UNL     1      25.061 -14.965  26.462  1.00  0.00    -0.550 OA
ENDBRANCH   8   9
ENDBRANCH   7   8
ENDBRANCH   6   7
ENDBRANCH   5   6
ENDBRANCH   4   5
ENDBRANCH   3   4
ENDBRANCH   2   3
ENDBRANCH   1   2
BRANCH   1  12
ATOM     12  C   UNL     1      26.630 -18.256  29.585  1.00  0.00     0.000 C 
BRANCH  12  13
ATOM     13  C   UNL     1      27.123 -18.940  30.871  1.00  0.00    -0.000 C 
BRANCH  13  14
ATOM     14  C   UNL     1      26.416 -18.412  32.131  1.00  0.00    -0.000 C 
BRANCH  14  15
ATOM     15  C   UNL     1      27.098 -17.162  32.711  1.00  0.00    -0.000 C 
BRANCH  15  16
ATOM     16  C   UNL     1      28.629 -17.304  32.797  1.00  0.00    -0.000 C 
BRANCH  16  17
ATOM     17  C   UNL     1      29.356 -16.000  32.402  1.00  0.00    -0.000 C 
BRANCH  17  18
ATOM     18  C   UNL     1      28.503 -15.055  31.539  1.00  0.00    -0.000 C 
BRANCH  18  19
ATOM     19  C   UNL     1      29.253 -13.783  31.124  1.00  0.00    -0.003 C 
ATOM     20  C   UNL     1      29.293 -12.771  32.265  1.00  0.00     0.004 C 
ENDBRANCH  18  19
ENDBRANCH  17  18
ENDBRANCH  16  17
ENDBRANCH  15  16
ENDBRANCH  14  15
ENDBRANCH  13  14
ENDBRANCH  12  13
ENDBRANCH   1  12
TORSDOF 16
ENDMDL
MODEL 5
REMARK VINA RESULT:    -3.734      1.738      3.937
REMARK INTER + INTRA:          -9.869
REMARK INTER:                  -7.525
REMARK INTRA:                  -2.345
REMARK UNBOUND:                -2.642
REMARK SMILES CCCCCCCCCCCCCCCCCC(=O)[O-]
REMARK SMILES IDX 10 1 11 2 12 3 13 4 14 5 15 6 16 7 17 8 18 9 19 10 20 11
REMARK SMILES IDX 9 12 8 13 7 14 6 15 5 16 4 17 3 18 2 19 1 20
REMARK H PARENT
REMARK Flexibility Score: inf
ROOT
ATOM      1  C   UNL     1      29.197 -18.752  24.574  1.00  0.00     0.000 C 
ENDROOT
BRANCH   1   2
ATOM      2  C   UNL     1      30.181 -18.396  25.701  1.00  0.00     0.000 C 
BRANCH   2   3
ATOM      3  C   UNL     1      30.705 -19.639  26.441  1.00  0.00     0.000 C 
BRANCH   3   4
ATOM      4  C   UNL     1      30.514 -19.548  27.963  1.00  0.00     0.000 C 
BRANCH   4   5
ATOM      5  C   UNL     1      29.561 -18.410  28.375  1.00  0.00     0.000 C 
BRANCH   5   6
ATOM      6  C   UNL     1      28.179 -18.926  28.806  1.00  0.00     0.000 C 
BRANCH   6   7
ATOM      7  C   UNL     1      27.301 -17.824  29.425  1.00  0.00     0.006 C 
BRANCH   7   8
ATOM      8  C   UNL     1      28.126 -16.612  29.878  1.00  0.00     0.053 C 
BRANCH   8   9
ATOM      9  C   UNL     1      27.932 -16.319  31.336  1.00  0.00     0.041 C 
ATOM     10  O   UNL     1      27.377 -17.166  32.084  1.00  0.00    -0.550 OA
ATOM     11  O   UNL     1      28.391 -15.122  31.870  1.00  0.00    -0.550 OA
ENDBRANCH   8   9
ENDBRANCH   7   8
ENDBRANCH   6   7
ENDBRANCH   5   6
ENDBRANCH   4   5
ENDBRANCH   3   4
ENDBRANCH   2   3
ENDBRANCH   1   2
BRANCH   1  12
ATOM     12  C   UNL     1      28.032 -19.630  25.065  1.00  0.00     0.000 C 
BRANCH  12  13
ATOM     13  C   UNL     1      26.782 -18.809  25.425  1.00  0.00    -0.000 C 
BRANCH  13  14
ATOM     14  C   UNL     1      26.599 -17.580  24.517  1.00  0.00    -0.000 C 
BRANCH  14  15
ATOM     15  C   UNL     1      26.568 -16.261  25.307  1.00  0.00    -0.000 C 
BRANCH  15  16
ATOM     16  C   UNL     1      25.704 -16.348  26.578  1.00  0.00    -0.000 C 
BRANCH  16  17
ATOM     17  C   UNL     1      24.449 -15.453  26.490  1.00  0.00    -0.000 C 
BRANCH  17  18
ATOM     18  C   UNL     1      23.134 -16.208  26.750  1.00  0.00    -0.000 C 
BRANCH  18  19
ATOM     19  C   UNL     1      22.822 -17.255  25.673  1.00  0.00    -0.003 C 
ATOM     20  C   UNL     1      22.805 -18.662  26.262  1.00  0.00     0.004 C 
ENDBRANCH  18  19
ENDBRANCH  17  18
ENDBRANCH  16  17
ENDBRANCH  15  16
ENDBRANCH  14  15
ENDBRANCH  13  14
ENDBRANCH  12  13
ENDBRANCH   1  12
TORSDOF 16
ENDMDL
MODEL 6
REMARK VINA RESULT:    -3.682      2.965      6.366
REMARK INTER + INTRA:          -9.769
REMARK INTER:                  -8.007
REMARK INTRA:                  -1.762
REMARK UNBOUND:                -2.642
REMARK SMILES CCCCCCCCCCCCCCCCCC(=O)[O-]
REMARK SMILES IDX 10 1 11 2 12 3 13 4 14 5 15 6 16 7 17 8 18 9 19 10 20 11
REMARK SMILES IDX 9 12 8 13 7 14 6 15 5 16 4 17 3 18 2 19 1 20
REMARK H PARENT
REMARK Flexibility Score: inf
ROOT
ATOM      1  C   UNL     1      28.329 -19.227  24.652  1.00  0.00     0.000 C 
ENDROOT
BRANCH   1   2
ATOM      2  C   UNL     1      27.344 -18.191  24.086  1.00  0.00     0.000 C 
BRANCH   2   3
ATOM      3  C   UNL     1      26.286 -17.759  25.117  1.00  0.00     0.000 C 
BRANCH   3   4
ATOM      4  C   UNL     1      26.431 -16.286  25.533  1.00  0.00     0.000 C 
BRANCH   4   5
ATOM      5  C   UNL     1      25.194 -15.757  26.283  1.00  0.00     0.000 C 
BRANCH   5   6
ATOM      6  C   UNL     1      24.219 -16.879  26.676  1.00  0.00     0.000 C 
BRANCH   6   7
ATOM      7  C   UNL     1      22.745 -16.464  26.523  1.00  0.00     0.006 C 
BRANCH   7   8
ATOM      8  C   UNL     1      22.337 -15.393  27.544  1.00  0.00     0.053 C 
BRANCH   8   9
ATOM      9  C   UNL     1      21.428 -15.946  28.600  1.00  0.00     0.041 C 
ATOM     10  O   UNL     1      21.420 -17.181  28.846  1.00  0.00    -0.550 OA
ATOM     11  O   UNL     1      20.612 -15.092  29.331  1.00  0.00    -0.550 OA
ENDBRANCH   8   9
ENDBRANCH   7   8
ENDBRANCH   6   7
ENDBRANCH   5   6
ENDBRANCH   4   5
ENDBRANCH   3   4
ENDBRANCH   2   3
ENDBRANCH   1   2
BRANCH   1  12
ATOM     12  C   UNL     1      29.682 -18.604  25.040  1.00  0.00     0.000 C 
BRANCH  12  13
ATOM     13  C   UNL     1      30.467 -19.467  26.041  1.00  0.00    -0.000 C 
BRANCH  13  14
ATOM     14  C   UNL     1      29.626 -19.866  27.266  1.00  0.00    -0.000 C 
BRANCH  14  15
ATOM     15  C   UNL     1      29.279 -18.665  28.161  1.00  0.00    -0.000 C 
BRANCH  15  16
ATOM     16  C   UNL     1      27.764 -18.514  28.393  1.00  0.00    -0.000 C 
BRANCH  16  17
ATOM     17  C   UNL     1      27.408 -17.159  29.042  1.00  0.00    -0.000 C 
BRANCH  17  18
ATOM     18  C   UNL     1      28.026 -16.962  30.436  1.00  0.00    -0.000 C 
BRANCH  18  19
ATOM     19  C   UNL     1      29.100 -15.866  30.466  1.00  0.00    -0.003 C 
ATOM     20  C   UNL     1      28.484 -14.501  30.757  1.00  0.00     0.004 C 
ENDBRANCH  18  19
ENDBRANCH  17  18
ENDBRANCH  16  17
ENDBRANCH  15  16
ENDBRANCH  14  15
ENDBRANCH  13  14
ENDBRANCH  12  13
ENDBRANCH   1  12
TORSDOF 16
ENDMDL
MODEL 7
REMARK VINA RESULT:    -3.593      2.560      6.330
REMARK INTER + INTRA:          -9.595
REMARK INTER:                  -6.963
REMARK INTRA:                  -2.632
REMARK UNBOUND:                -2.642
REMARK SMILES CCCCCCCCCCCCCCCCCC(=O)[O-]
REMARK SMILES IDX 10 1 11 2 12 3 13 4 14 5 15 6 16 7 17 8 18 9 19 10 20 11
REMARK SMILES IDX 9 12 8 13 7 14 6 15 5 16 4 17 3 18 2 19 1 20
REMARK H PARENT
REMARK Flexibility Score: inf
ROOT
ATOM      1  C   UNL     1      26.097 -17.646  24.933  1.00  0.00     0.000 C 
ENDROOT
BRANCH   1   2
ATOM      2  C   UNL     1      26.206 -16.405  25.833  1.00  0.00     0.000 C 
BRANCH   2   3
ATOM      3  C   UNL     1      26.219 -16.761  27.330  1.00  0.00     0.000 C 
BRANCH   3   4
ATOM      4  C   UNL     1      25.914 -18.245  27.589  1.00  0.00     0.000 C 
BRANCH   4   5
ATOM      5  C   UNL     1      24.538 -18.463  28.245  1.00  0.00     0.000 C 
BRANCH   5   6
ATOM      6  C   UNL     1      23.424 -18.698  27.212  1.00  0.00     0.000 C 
BRANCH   6   7
ATOM      7  C   UNL     1      22.373 -17.574  27.206  1.00  0.00     0.006 C 
BRANCH   7   8
ATOM      8  C   UNL     1      22.477 -16.692  25.954  1.00  0.00     0.053 C 
BRANCH   8   9
ATOM      9  C   UNL     1      22.524 -15.234  26.301  1.00  0.00     0.041 C 
ATOM     10  O   UNL     1      22.172 -14.369  25.458  1.00  0.00    -0.550 OA
ATOM     11  O   UNL     1      22.930 -14.836  27.569  1.00  0.00    -0.550 OA
ENDBRANCH   8   9
ENDBRANCH   7   8
ENDBRANCH   6   7
ENDBRANCH   5   6
ENDBRANCH   4   5
ENDBRANCH   3   4
ENDBRANCH   2   3
ENDBRANCH   1   2
BRANCH   1  12
ATOM     12  C   UNL     1      27.371 -17.888  24.104  1.00  0.00     0.000 C 
BRANCH  12  13
ATOM     13  C   UNL     1      28.119 -19.164  24.525  1.00  0.00    -0.000 C 
BRANCH  13  14
ATOM     14  C   UNL     1      29.212 -18.891  25.573  1.00  0.00    -0.000 C 
BRANCH  14  15
ATOM     15  C   UNL     1      29.525 -20.125  26.436  1.00  0.00    -0.000 C 
BRANCH  15  16
ATOM     16  C   UNL     1      29.514 -19.815  27.944  1.00  0.00    -0.000 C 
BRANCH  16  17
ATOM     17  C   UNL     1      29.567 -18.299  28.226  1.00  0.00    -0.000 C 
BRANCH  17  18
ATOM     18  C   UNL     1      29.637 -17.952  29.723  1.00  0.00    -0.000 C 
BRANCH  18  19
ATOM     19  C   UNL     1      28.596 -16.906  30.144  1.00  0.00    -0.003 C 
ATOM     20  C   UNL     1      27.469 -17.545  30.950  1.00  0.00     0.004 C 
ENDBRANCH  18  19
ENDBRANCH  17  18
ENDBRANCH  16  17
ENDBRANCH  15  16
ENDBRANCH  14  15
ENDBRANCH  13  14
ENDBRANCH  12  13
ENDBRANCH   1  12
TORSDOF 16
ENDMDL
MODEL 8
REMARK VINA RESULT:    -3.584      1.316      2.916
REMARK INTER + INTRA:          -9.578
REMARK INTER:                  -7.399
REMARK INTRA:                  -2.179
REMARK UNBOUND:                -2.642
REMARK SMILES CCCCCCCCCCCCCCCCCC(=O)[O-]
REMARK SMILES IDX 10 1 11 2 12 3 13 4 14 5 15 6 16 7 17 8 18 9 19 10 20 11
REMARK SMILES IDX 9 12 8 13 7 14 6 15 5 16 4 17 3 18 2 19 1 20
REMARK H PARENT
REMARK Flexibility Score: inf
ROOT
ATOM      1  C   UNL     1      26.977 -17.445  24.159  1.00  0.00     0.000 C 
ENDROOT
BRANCH   1   2
ATOM      2  C   UNL     1      27.476 -18.820  24.635  1.00  0.00     0.000 C 
BRANCH   2   3
ATOM      3  C   UNL     1      28.987 -19.007  24.412  1.00  0.00     0.000 C 
BRANCH   3   4
ATOM      4  C   UNL     1      29.725 -19.440  25.690  1.00  0.00     0.000 C 
BRANCH   4   5
ATOM      5  C   UNL     1      30.040 -18.257  26.624  1.00  0.00     0.000 C 
BRANCH   5   6
ATOM      6  C   UNL     1      30.861 -18.679  27.853  1.00  0.00     0.000 C 
BRANCH   6   7
ATOM      7  C   UNL     1      30.204 -18.257  29.179  1.00  0.00     0.006 C 
BRANCH   7   8
ATOM      8  C   UNL     1      28.747 -18.729  29.278  1.00  0.00     0.053 C 
BRANCH   8   9
ATOM      9  C   UNL     1      27.900 -17.763  30.052  1.00  0.00     0.041 C 
ATOM     10  O   UNL     1      27.059 -18.186  30.888  1.00  0.00    -0.550 OA
ATOM     11  O   UNL     1      28.064 -16.396  29.871  1.00  0.00    -0.550 OA
ENDBRANCH   8   9
ENDBRANCH   7   8
ENDBRANCH   6   7
ENDBRANCH   5   6
ENDBRANCH   4   5
ENDBRANCH   3   4
ENDBRANCH   2   3
ENDBRANCH   1   2
BRANCH   1  12
ATOM     12  C   UNL     1      26.576 -16.527  25.327  1.00  0.00     0.000 C 
BRANCH  12  13
ATOM     13  C   UNL     1      26.582 -17.256  26.682  1.00  0.00    -0.000 C 
BRANCH  13  14
ATOM     14  C   UNL     1      25.187 -17.312  27.330  1.00  0.00    -0.000 C 
BRANCH  14  15
ATOM     15  C   UNL     1      24.148 -18.007  26.435  1.00  0.00    -0.000 C 
BRANCH  15  16
ATOM     16  C   UNL     1      22.962 -17.092  26.077  1.00  0.00    -0.000 C 
BRANCH  16  17
ATOM     17  C   UNL     1      22.293 -16.492  27.333  1.00  0.00    -0.000 C 
BRANCH  17  18
ATOM     18  C   UNL     1      22.474 -14.970  27.460  1.00  0.00    -0.000 C 
BRANCH  18  19
ATOM     19  C   UNL     1      23.221 -14.354  26.269  1.00  0.00    -0.003 C 
ATOM     20  C   UNL     1      24.515 -13.684  26.719  1.00  0.00     0.004 C 
ENDBRANCH  18  19
ENDBRANCH  17  18
ENDBRANCH  16  17
ENDBRANCH  15  16
ENDBRANCH  14  15
ENDBRANCH  13  14
ENDBRANCH  12  13
ENDBRANCH   1  12
TORSDOF 16
ENDMDL
MODEL 9
REMARK VINA RESULT:    -3.572      2.524      6.411
REMARK INTER + INTRA:          -9.555
REMARK INTER:                  -7.019
REMARK INTRA:                  -2.536
REMARK UNBOUND:                -2.642
REMARK SMILES CCCCCCCCCCCCCCCCCC(=O)[O-]
REMARK SMILES IDX 10 1 11 2 12 3 13 4 14 5 15 6 16 7 17 8 18 9 19 10 20 11
REMARK SMILES IDX 9 12 8 13 7 14 6 15 5 16 4 17 3 18 2 19 1 20
REMARK H PARENT
REMARK Flexibility Score: inf
ROOT
ATOM      1  C   UNL     1      26.707 -17.217  27.106  1.00  0.00     0.000 C 
ENDROOT
BRANCH   1   2
ATOM      2  C   UNL     1      26.489 -18.658  27.597  1.00  0.00     0.000 C 
BRANCH   2   3
ATOM      3  C   UNL     1      25.241 -18.795  28.486  1.00  0.00     0.000 C 
BRANCH   3   4
ATOM      4  C   UNL     1      24.258 -19.858  27.968  1.00  0.00     0.000 C 
BRANCH   4   5
ATOM      5  C   UNL     1      23.731 -19.541  26.556  1.00  0.00     0.000 C 
BRANCH   5   6
ATOM      6  C   UNL     1      22.458 -18.679  26.582  1.00  0.00     0.000 C 
BRANCH   6   7
ATOM      7  C   UNL     1      22.512 -17.511  25.580  1.00  0.00     0.006 C 
BRANCH   7   8
ATOM      8  C   UNL     1      23.361 -16.343  26.099  1.00  0.00     0.053 C 
BRANCH   8   9
ATOM      9  C   UNL     1      22.514 -15.169  26.490  1.00  0.00     0.041 C 
ATOM     10  O   UNL     1      22.193 -14.991  27.694  1.00  0.00    -0.550 OA
ATOM     11  O   UNL     1      22.105 -14.256  25.526  1.00  0.00    -0.550 OA
ENDBRANCH   8   9
ENDBRANCH   7   8
ENDBRANCH   6   7
ENDBRANCH   5   6
ENDBRANCH   4   5
ENDBRANCH   3   4
ENDBRANCH   2   3
ENDBRANCH   1   2
BRANCH   1  12
ATOM     12  C   UNL     1      27.082 -17.153  25.615  1.00  0.00     0.000 C 
BRANCH  12  13
ATOM     13  C   UNL     1      26.882 -18.497  24.895  1.00  0.00    -0.000 C 
BRANCH  13  14
ATOM     14  C   UNL     1      28.149 -18.970  24.160  1.00  0.00    -0.000 C 
BRANCH  14  15
ATOM     15  C   UNL     1      29.421 -18.805  25.009  1.00  0.00    -0.000 C 
BRANCH  15  16
ATOM     16  C   UNL     1      29.586 -19.919  26.058  1.00  0.00    -0.000 C 
BRANCH  16  17
ATOM     17  C   UNL     1      30.724 -19.614  27.055  1.00  0.00    -0.000 C 
BRANCH  17  18
ATOM     18  C   UNL     1      30.485 -18.347  27.894  1.00  0.00    -0.000 C 
BRANCH  18  19
ATOM     19  C   UNL     1      29.866 -18.644  29.266  1.00  0.00    -0.003 C 
ATOM     20  C   UNL     1      29.252 -17.388  29.876  1.00  0.00     0.004 C 
ENDBRANCH  18  19
ENDBRANCH  17  18
ENDBRANCH  16  17
ENDBRANCH  15  16
ENDBRANCH  14  15
ENDBRANCH  13  14
ENDBRANCH  12  13
ENDBRANCH   1  12
TORSDOF 16
ENDMDL
