MODEL 1
REMARK VINA RESULT:    -3.822      0.000      0.000
REMARK INTER + INTRA:          -8.894
REMARK INTER:                  -6.951
REMARK INTRA:                  -1.943
REMARK UNBOUND:                -1.943
REMARK SMILES CCCCCCCCCCCCCCCC(=O)[O-]
REMARK SMILES IDX 9 1 10 2 11 3 12 4 13 5 14 6 15 7 16 8 17 9 18 10 8 11 7 12
REMARK SMILES IDX 6 13 5 14 4 15 3 16 2 17 1 18
REMARK H PARENT
REMARK Flexibility Score: inf
ROOT
ATOM      1  C   UNL     1      28.029 -19.766  24.959  1.00  0.00     0.000 C 
ENDROOT
BRANCH   1   2
ATOM      2  C   UNL     1      26.708 -19.023  25.224  1.00  0.00     0.000 C 
BRANCH   2   3
ATOM      3  C   UNL     1      26.739 -17.569  24.726  1.00  0.00     0.000 C 
BRANCH   3   4
ATOM      4  C   UNL     1      25.924 -16.618  25.615  1.00  0.00     0.000 C 
BRANCH   4   5
ATOM      5  C   UNL     1      24.883 -17.390  26.435  1.00  0.00     0.000 C 
BRANCH   5   6
ATOM      6  C   UNL     1      23.477 -17.225  25.837  1.00  0.00     0.006 C 
BRANCH   6   7
ATOM      7  C   UNL     1      22.565 -16.369  26.726  1.00  0.00     0.053 C 
BRANCH   7   8
ATOM      8  C   UNL     1      22.738 -14.906  26.456  1.00  0.00     0.041 C 
ATOM      9  O   UNL     1      23.510 -14.216  27.172  1.00  0.00    -0.550 OA
ATOM     10  O   UNL     1      22.073 -14.310  25.390  1.00  0.00    -0.550 OA
ENDBRANCH   7   8
ENDBRANCH   6   7
ENDBRANCH   5   6
ENDBRANCH   4   5
ENDBRANCH   3   4
ENDBRANCH   2   3
ENDBRANCH   1   2
BRANCH   1  11
ATOM     11  C   UNL     1      29.098 -18.861  24.322  1.00  0.00     0.000 C 
BRANCH  11  12
ATOM     12  C   UNL     1      30.335 -18.688  25.221  1.00  0.00    -0.000 C 
BRANCH  12  13
ATOM     13  C   UNL     1      30.382 -19.717  26.362  1.00  0.00    -0.000 C 
BRANCH  13  14
ATOM     14  C   UNL     1      30.443 -19.059  27.753  1.00  0.00    -0.000 C 
BRANCH  14  15
ATOM     15  C   UNL     1      29.119 -19.184  28.523  1.00  0.00    -0.000 C 
BRANCH  15  16
ATOM     16  C   UNL     1      28.203 -17.967  28.323  1.00  0.00    -0.000 C 
BRANCH  16  17
ATOM     17  C   UNL     1      27.167 -17.869  29.448  1.00  0.00    -0.003 C 
ATOM     18  C   UNL     1      26.209 -19.056  29.422  1.00  0.00     0.004 C 
ENDBRANCH  16  17
ENDBRANCH  15  16
ENDBRANCH  14  15
ENDBRANCH  13  14
ENDBRANCH  12  13
ENDBRANCH  11  12
ENDBRANCH   1  11
TORSDOF 14
ENDMDL
MODEL 2
REMARK VINA RESULT:    -3.788      2.643      5.326
REMARK INTER + INTRA:          -8.831
REMARK INTER:                  -7.155
REMARK INTRA:                  -1.676
REMARK UNBOUND:                -1.943
REMARK SMILES CCCCCCCCCCCCCCCC(=O)[O-]
REMARK SMILES IDX 9 1 10 2 11 3 12 4 13 5 14 6 15 7 16 8 17 9 18 10 8 11 7 12
REMARK SMILES IDX 6 13 5 14 4 15 3 16 2 17 1 18
REMARK H PARENT
REMARK Flexibility Score: inf
ROOT
ATOM      1  C   UNL     1      29.010 -18.911  24.557  1.00  0.00     0.000 C 
ENDROOT
BRANCH   1   2
ATOM      2  C   UNL     1      29.892 -18.573  25.772  1.00  0.00     0.000 C 
BRANCH   2   3
ATOM      3  C   UNL     1      30.151 -19.794  26.669  1.00  0.00     0.000 C 
BRANCH   3   4
ATOM      4  C   UNL     1      29.672 -19.583  28.113  1.00  0.00     0.000 C 
BRANCH   4   5
ATOM      5  C   UNL     1      28.755 -18.358  28.214  1.00  0.00     0.000 C 
BRANCH   5   6
ATOM      6  C   UNL     1      29.062 -17.542  29.478  1.00  0.00     0.006 C 
BRANCH   6   7
ATOM      7  C   UNL     1      27.878 -16.664  29.905  1.00  0.00     0.053 C 
BRANCH   7   8
ATOM      8  C   UNL     1      28.287 -15.623  30.901  1.00  0.00     0.041 C 
ATOM      9  O   UNL     1      28.657 -14.484  30.511  1.00  0.00    -0.550 OA
ATOM     10  O   UNL     1      28.229 -15.898  32.262  1.00  0.00    -0.550 OA
ENDBRANCH   7   8
ENDBRANCH   6   7
ENDBRANCH   5   6
ENDBRANCH   4   5
ENDBRANCH   3   4
ENDBRANCH   2   3
ENDBRANCH   1   2
BRANCH   1  11
ATOM     11  C   UNL     1      27.732 -19.674  24.948  1.00  0.00     0.000 C 
BRANCH  11  12
ATOM     12  C   UNL     1      26.526 -18.739  25.149  1.00  0.00    -0.000 C 
BRANCH  12  13
ATOM     13  C   UNL     1      26.652 -17.435  24.346  1.00  0.00    -0.000 C 
BRANCH  13  14
ATOM     14  C   UNL     1      26.655 -16.183  25.242  1.00  0.00    -0.000 C 
BRANCH  14  15
ATOM     15  C   UNL     1      25.723 -16.325  26.456  1.00  0.00    -0.000 C 
BRANCH  15  16
ATOM     16  C   UNL     1      24.819 -15.098  26.653  1.00  0.00    -0.000 C 
BRANCH  16  17
ATOM     17  C   UNL     1      23.367 -15.423  26.290  1.00  0.00    -0.003 C 
ATOM     18  C   UNL     1      23.112 -16.927  26.317  1.00  0.00     0.004 C 
ENDBRANCH  16  17
ENDBRANCH  15  16
ENDBRANCH  14  15
ENDBRANCH  13  14
ENDBRANCH  12  13
ENDBRANCH  11  12
ENDBRANCH   1  11
TORSDOF 14
ENDMDL
MODEL 3
REMARK VINA RESULT:    -3.778      2.960      4.287
REMARK INTER + INTRA:          -8.813
REMARK INTER:                  -7.610
REMARK INTRA:                  -1.203
REMARK UNBOUND:                -1.943
REMARK SMILES CCCCCCCCCCCCCCCC(=O)[O-]
REMARK SMILES IDX 9 1 10 2 11 3 12 4 13 5 14 6 15 7 16 8 17 9 18 10 8 11 7 12
REMARK SMILES IDX 6 13 5 14 4 15 3 16 2 17 1 18
REMARK H PARENT
REMARK Flexibility Score: inf
ROOT
ATOM      1  C   UNL     1      25.469 -16.123  26.343  1.00  0.00     0.000 C 
ENDROOT
BRANCH   1   2
ATOM      2  C   UNL     1      24.265 -17.056  26.125  1.00  0.00     0.000 C 
BRANCH   2   3
ATOM      3  C   UNL     1      22.937 -16.290  26.015  1.00  0.00     0.000 C 
BRANCH   3   4
ATOM      4  C   UNL     1      22.577 -15.537  27.305  1.00  0.00     0.000 C 
BRANCH   4   5
ATOM      5  C   UNL     1      21.782 -16.435  28.260  1.00  0.00     0.000 C 
BRANCH   5   6
ATOM      6  C   UNL     1      20.957 -15.596  29.248  1.00  0.00     0.006 C 
BRANCH   6   7
ATOM      7  C   UNL     1      20.513 -16.409  30.471  1.00  0.00     0.053 C 
BRANCH   7   8
ATOM      8  C   UNL     1      19.538 -15.650  31.319  1.00  0.00     0.041 C 
ATOM      9  O   UNL     1      18.873 -14.702  30.826  1.00  0.00    -0.550 OA
ATOM     10  O   UNL     1      19.339 -16.013  32.646  1.00  0.00    -0.550 OA
ENDBRANCH   7   8
ENDBRANCH   6   7
ENDBRANCH   5   6
ENDBRANCH   4   5
ENDBRANCH   3   4
ENDBRANCH   2   3
ENDBRANCH   1   2
BRANCH   1  11
ATOM     11  C   UNL     1      26.609 -16.386  25.345  1.00  0.00     0.000 C 
BRANCH  11  12
ATOM     12  C   UNL     1      26.447 -17.726  24.604  1.00  0.00    -0.000 C 
BRANCH  12  13
ATOM     13  C   UNL     1      27.789 -18.447  24.393  1.00  0.00    -0.000 C 
BRANCH  13  14
ATOM     14  C   UNL     1      27.831 -19.831  25.066  1.00  0.00    -0.000 C 
BRANCH  14  15
ATOM     15  C   UNL     1      29.041 -19.996  25.999  1.00  0.00    -0.000 C 
BRANCH  15  16
ATOM     16  C   UNL     1      29.505 -18.664  26.607  1.00  0.00    -0.000 C 
BRANCH  16  17
ATOM     17  C   UNL     1      29.241 -18.627  28.116  1.00  0.00    -0.003 C 
ATOM     18  C   UNL     1      27.856 -18.064  28.421  1.00  0.00     0.004 C 
ENDBRANCH  16  17
ENDBRANCH  15  16
ENDBRANCH  14  15
ENDBRANCH  13  14
ENDBRANCH  12  13
ENDBRANCH  11  12
ENDBRANCH   1  11
TORSDOF 14
ENDMDL
MODEL 4
REMARK VINA RESULT:    -3.756      2.653      6.005
REMARK INTER + INTRA:          -8.773
REMARK INTER:                  -6.605
REMARK INTRA:                  -2.168
REMARK UNBOUND:                -1.943
REMARK SMILES CCCCCCCCCCCCCCCC(=O)[O-]
REMARK SMILES IDX 9 1 10 2 11 3 12 4 13 5 14 6 15 7 16 8 17 9 18 10 8 11 7 12
REMARK SMILES IDX 6 13 5 14 4 15 3 16 2 17 1 18
REMARK H PARENT
REMARK Flexibility Score: inf
ROOT
ATOM      1  C   UNL     1      26.984 -17.130  25.278  1.00  0.00     0.000 C 
ENDROOT
BRANCH   1   2
ATOM      2  C   UNL     1      27.038 -18.597  24.818  1.00  0.00     0.000 C 
BRANCH   2   3
ATOM      3  C   UNL     1      28.430 -19.006  24.311  1.00  0.00     0.000 C 
BRANCH   3   4
ATOM      4  C   UNL     1      29.554 -18.622  25.284  1.00  0.00     0.000 C 
BRANCH   4   5
ATOM      5  C   UNL     1      29.957 -19.816  26.157  1.00  0.00     0.000 C 
BRANCH   5   6
ATOM      6  C   UNL     1      29.337 -19.708  27.559  1.00  0.00     0.006 C 
BRANCH   6   7
ATOM      7  C   UNL     1      29.690 -18.384  28.249  1.00  0.00     0.053 C 
BRANCH   7   8
ATOM      8  C   UNL     1      28.881 -18.172  29.492  1.00  0.00     0.041 C 
ATOM      9  O   UNL     1      28.402 -17.037  29.750  1.00  0.00    -0.550 OA
ATOM     10  O   UNL     1      28.628 -19.237  30.349  1.00  0.00    -0.550 OA
ENDBRANCH   7   8
ENDBRANCH   6   7
ENDBRANCH   5   6
ENDBRANCH   4   5
ENDBRANCH   3   4
ENDBRANCH   2   3
ENDBRANCH   1   2
BRANCH   1  11
ATOM     11  C   UNL     1      26.542 -16.986  26.744  1.00  0.00     0.000 C 
BRANCH  11  12
ATOM     12  C   UNL     1      25.791 -18.227  27.258  1.00  0.00    -0.000 C 
BRANCH  12  13
ATOM     13  C   UNL     1      24.294 -17.958  27.482  1.00  0.00    -0.000 C 
BRANCH  13  14
ATOM     14  C   UNL     1      23.476 -18.035  26.180  1.00  0.00    -0.000 C 
BRANCH  14  15
ATOM     15  C   UNL     1      22.667 -16.755  25.915  1.00  0.00    -0.000 C 
BRANCH  15  16
ATOM     16  C   UNL     1      22.917 -15.669  26.972  1.00  0.00    -0.000 C 
BRANCH  16  17
ATOM     17  C   UNL     1      23.279 -14.334  26.312  1.00  0.00    -0.003 C 
ATOM     18  C   UNL     1      24.662 -13.859  26.747  1.00  0.00     0.004 C 
ENDBRANCH  16  17
ENDBRANCH  15  16
ENDBRANCH  14  15
ENDBRANCH  13  14
ENDBRANCH  12  13
ENDBRANCH  11  12
ENDBRANCH   1  11
TORSDOF 14
ENDMDL
MODEL 5
REMARK VINA RESULT:    -3.729      2.528      3.704
REMARK INTER + INTRA:          -8.724
REMARK INTER:                  -7.338
REMARK INTRA:                  -1.386
REMARK UNBOUND:                -1.943
REMARK SMILES CCCCCCCCCCCCCCCC(=O)[O-]
REMARK SMILES IDX 9 1 10 2 11 3 12 4 13 5 14 6 15 7 16 8 17 9 18 10 8 11 7 12
REMARK SMILES IDX 6 13 5 14 4 15 3 16 2 17 1 18
REMARK H PARENT
REMARK Flexibility Score: inf
ROOT
ATOM      1  C   UNL     1      29.272 -18.614  26.555  1.00  0.00     0.000 C 
ENDROOT
BRANCH   1   2
ATOM      2  C   UNL     1      28.868 -19.880  25.780  1.00  0.00     0.000 C 
BRANCH   2   3
ATOM      3  C   UNL     1      27.678 -19.640  24.837  1.00  0.00     0.000 C 
BRANCH   3   4
ATOM      4  C   UNL     1      27.453 -18.153  24.530  1.00  0.00     0.000 C 
BRANCH   4   5
ATOM      5  C   UNL     1      26.113 -17.671  25.102  1.00  0.00     0.000 C 
BRANCH   5   6
ATOM      6  C   UNL     1      26.231 -16.242  25.653  1.00  0.00     0.006 C 
BRANCH   6   7
ATOM      7  C   UNL     1      25.270 -15.990  26.822  1.00  0.00     0.053 C 
BRANCH   7   8
ATOM      8  C   UNL     1      24.169 -15.048  26.443  1.00  0.00     0.041 C 
ATOM      9  O   UNL     1      23.046 -15.494  26.089  1.00  0.00    -0.550 OA
ATOM     10  O   UNL     1      24.372 -13.674  26.514  1.00  0.00    -0.550 OA
ENDBRANCH   7   8
ENDBRANCH   6   7
ENDBRANCH   5   6
ENDBRANCH   4   5
ENDBRANCH   3   4
ENDBRANCH   2   3
ENDBRANCH   1   2
BRANCH   1  11
ATOM     11  C   UNL     1      29.062 -18.757  28.072  1.00  0.00     0.000 C 
BRANCH  11  12
ATOM     12  C   UNL     1      27.671 -18.277  28.522  1.00  0.00    -0.000 C 
BRANCH  12  13
ATOM     13  C   UNL     1      27.739 -17.016  29.399  1.00  0.00    -0.000 C 
BRANCH  13  14
ATOM     14  C   UNL     1      29.087 -16.873  30.129  1.00  0.00    -0.000 C 
BRANCH  14  15
ATOM     15  C   UNL     1      28.928 -16.338  31.561  1.00  0.00    -0.000 C 
BRANCH  15  16
ATOM     16  C   UNL     1      28.499 -14.863  31.597  1.00  0.00    -0.000 C 
BRANCH  16  17
ATOM     17  C   UNL     1      29.695 -13.949  31.884  1.00  0.00    -0.003 C 
ATOM     18  C   UNL     1      29.238 -12.560  32.319  1.00  0.00     0.004 C 
ENDBRANCH  16  17
ENDBRANCH  15  16
ENDBRANCH  14  15
ENDBRANCH  13  14
ENDBRANCH  12  13
ENDBRANCH  11  12
ENDBRANCH   1  11
TORSDOF 14
ENDMDL
MODEL 6
REMARK VINA RESULT:    -3.726      1.051      1.903
REMARK INTER + INTRA:          -8.719
REMARK INTER:                  -6.417
REMARK INTRA:                  -2.302
REMARK UNBOUND:                -1.943
REMARK SMILES CCCCCCCCCCCCCCCC(=O)[O-]
REMARK SMILES IDX 9 1 10 2 11 3 12 4 13 5 14 6 15 7 16 8 17 9 18 10 8 11 7 12
REMARK SMILES IDX 6 13 5 14 4 15 3 16 2 17 1 18
REMARK H PARENT
REMARK Flexibility Score: inf
ROOT
ATOM      1  C   UNL     1      29.297 -18.892  24.582  1.00  0.00     0.000 C 
ENDROOT
BRANCH   1   2
ATOM      2  C   UNL     1      27.982 -19.594  24.962  1.00  0.00     0.000 C 
BRANCH   2   3
ATOM      3  C   UNL     1      26.827 -18.603  25.180  1.00  0.00     0.000 C 
BRANCH   3   4
ATOM      4  C   UNL     1      27.312 -17.198  25.564  1.00  0.00     0.000 C 
BRANCH   4   5
ATOM      5  C   UNL     1      26.245 -16.143  25.251  1.00  0.00     0.000 C 
BRANCH   5   6
ATOM      6  C   UNL     1      25.444 -15.778  26.511  1.00  0.00     0.006 C 
BRANCH   6   7
ATOM      7  C   UNL     1      24.067 -16.454  26.540  1.00  0.00     0.053 C 
BRANCH   7   8
ATOM      8  C   UNL     1      22.969 -15.469  26.802  1.00  0.00     0.041 C 
ATOM      9  O   UNL     1      22.779 -14.507  26.013  1.00  0.00    -0.550 OA
ATOM     10  O   UNL     1      22.134 -15.633  27.901  1.00  0.00    -0.550 OA
ENDBRANCH   7   8
ENDBRANCH   6   7
ENDBRANCH   5   6
ENDBRANCH   4   5
ENDBRANCH   3   4
ENDBRANCH   2   3
ENDBRANCH   1   2
BRANCH   1  11
ATOM     11  C   UNL     1      30.434 -19.191  25.574  1.00  0.00     0.000 C 
BRANCH  11  12
ATOM     12  C   UNL     1      29.918 -19.763  26.907  1.00  0.00    -0.000 C 
BRANCH  12  13
ATOM     13  C   UNL     1      29.929 -18.721  28.038  1.00  0.00    -0.000 C 
BRANCH  13  14
ATOM     14  C   UNL     1      28.857 -18.997  29.108  1.00  0.00    -0.000 C 
BRANCH  14  15
ATOM     15  C   UNL     1      27.860 -17.837  29.257  1.00  0.00    -0.000 C 
BRANCH  15  16
ATOM     16  C   UNL     1      26.414 -18.258  28.953  1.00  0.00    -0.000 C 
BRANCH  16  17
ATOM     17  C   UNL     1      26.333 -19.755  28.637  1.00  0.00    -0.003 C 
ATOM     18  C   UNL     1      24.970 -20.125  28.061  1.00  0.00     0.004 C 
ENDBRANCH  16  17
ENDBRANCH  15  16
ENDBRANCH  14  15
ENDBRANCH  13  14
ENDBRANCH  12  13
ENDBRANCH  11  12
ENDBRANCH   1  11
TORSDOF 14
ENDMDL
MODEL 7
REMARK VINA RESULT:    -3.658      1.736      2.319
REMARK INTER + INTRA:          -8.594
REMARK INTER:                  -6.720
REMARK INTRA:                  -1.875
REMARK UNBOUND:                -1.943
REMARK SMILES CCCCCCCCCCCCCCCC(=O)[O-]
REMARK SMILES IDX 9 1 10 2 11 3 12 4 13 5 14 6 15 7 16 8 17 9 18 10 8 11 7 12
REMARK SMILES IDX 6 13 5 14 4 15 3 16 2 17 1 18
REMARK H PARENT
REMARK Flexibility Score: inf
ROOT
ATOM      1  C   UNL     1      26.265 -18.690  25.220  1.00  0.00     0.000 C 
ENDROOT
BRANCH   1   2
ATOM      2  C   UNL     1      26.596 -17.384  24.477  1.00  0.00     0.000 C 
BRANCH   2   3
ATOM      3  C   UNL     1      26.614 -16.163  25.410  1.00  0.00     0.000 C 
BRANCH   3   4
ATOM      4  C   UNL     1      25.544 -16.239  26.509  1.00  0.00     0.000 C 
BRANCH   4   5
ATOM      5  C   UNL     1      24.584 -15.047  26.425  1.00  0.00     0.000 C 
BRANCH   5   6
ATOM      6  C   UNL     1      23.123 -15.518  26.373  1.00  0.00     0.006 C 
BRANCH   6   7
ATOM      7  C   UNL     1      23.004 -17.001  25.998  1.00  0.00     0.053 C 
BRANCH   7   8
ATOM      8  C   UNL     1      22.219 -17.771  27.015  1.00  0.00     0.041 C 
ATOM      9  O   UNL     1      21.860 -18.954  26.777  1.00  0.00    -0.550 OA
ATOM     10  O   UNL     1      21.912 -17.194  28.242  1.00  0.00    -0.550 OA
ENDBRANCH   7   8
ENDBRANCH   6   7
ENDBRANCH   5   6
ENDBRANCH   4   5
ENDBRANCH   3   4
ENDBRANCH   2   3
ENDBRANCH   1   2
BRANCH   1  11
ATOM     11  C   UNL     1      27.366 -19.753  25.066  1.00  0.00     0.000 C 
BRANCH  11  12
ATOM     12  C   UNL     1      28.685 -19.163  24.536  1.00  0.00    -0.000 C 
BRANCH  12  13
ATOM     13  C   UNL     1      29.853 -19.355  25.518  1.00  0.00    -0.000 C 
BRANCH  13  14
ATOM     14  C   UNL     1      29.918 -18.249  26.586  1.00  0.00    -0.000 C 
BRANCH  14  15
ATOM     15  C   UNL     1      29.480 -18.742  27.975  1.00  0.00    -0.000 C 
BRANCH  15  16
ATOM     16  C   UNL     1      28.106 -18.195  28.390  1.00  0.00    -0.000 C 
BRANCH  16  17
ATOM     17  C   UNL     1      28.080 -17.853  29.884  1.00  0.00    -0.003 C 
ATOM     18  C   UNL     1      28.309 -16.362  30.113  1.00  0.00     0.004 C 
ENDBRANCH  16  17
ENDBRANCH  15  16
ENDBRANCH  14  15
ENDBRANCH  13  14
ENDBRANCH  12  13
ENDBRANCH  11  12
ENDBRANCH   1  11
TORSDOF 14
ENDMDL
MODEL 8
REMARK VINA RESULT:    -3.649      1.419      2.599
REMARK INTER + INTRA:          -8.578
REMARK INTER:                  -6.890
REMARK INTRA:                  -1.689
REMARK UNBOUND:                -1.943
REMARK SMILES CCCCCCCCCCCCCCCC(=O)[O-]
REMARK SMILES IDX 9 1 10 2 11 3 12 4 13 5 14 6 15 7 16 8 17 9 18 10 8 11 7 12
REMARK SMILES IDX 6 13 5 14 4 15 3 16 2 17 1 18
REMARK H PARENT
REMARK Flexibility Score: inf
ROOT
ATOM      1  C   UNL     1      26.409 -17.134  25.477  1.00  0.00     0.000 C 
ENDROOT
BRANCH   1   2
ATOM      2  C   UNL     1      26.160 -16.969  26.986  1.00  0.00     0.000 C 
BRANCH   2   3
ATOM      3  C   UNL     1      24.797 -17.528  27.424  1.00  0.00     0.000 C 
BRANCH   3   4
ATOM      4  C   UNL     1      23.644 -17.053  26.528  1.00  0.00     0.000 C 
BRANCH   4   5
ATOM      5  C   UNL     1      22.468 -16.545  27.371  1.00  0.00     0.000 C 
BRANCH   5   6
ATOM      6  C   UNL     1      22.505 -15.015  27.503  1.00  0.00     0.006 C 
BRANCH   6   7
ATOM      7  C   UNL     1      23.128 -14.341  26.274  1.00  0.00     0.053 C 
BRANCH   7   8
ATOM      8  C   UNL     1      24.346 -13.545  26.633  1.00  0.00     0.041 C 
ATOM      9  O   UNL     1      25.437 -13.754  26.042  1.00  0.00    -0.550 OA
ATOM     10  O   UNL     1      24.266 -12.549  27.600  1.00  0.00    -0.550 OA
ENDBRANCH   7   8
ENDBRANCH   6   7
ENDBRANCH   5   6
ENDBRANCH   4   5
ENDBRANCH   3   4
ENDBRANCH   2   3
ENDBRANCH   1   2
BRANCH   1  11
ATOM     11  C   UNL     1      26.683 -18.595  25.080  1.00  0.00     0.000 C 
BRANCH  11  12
ATOM     12  C   UNL     1      28.029 -18.766  24.353  1.00  0.00    -0.000 C 
BRANCH  12  13
ATOM     13  C   UNL     1      29.104 -19.403  25.249  1.00  0.00    -0.000 C 
BRANCH  13  14
ATOM     14  C   UNL     1      30.081 -18.367  25.833  1.00  0.00    -0.000 C 
BRANCH  14  15
ATOM     15  C   UNL     1      30.275 -18.527  27.350  1.00  0.00    -0.000 C 
BRANCH  15  16
ATOM     16  C   UNL     1      29.020 -19.067  28.052  1.00  0.00    -0.000 C 
BRANCH  16  17
ATOM     17  C   UNL     1      28.691 -18.241  29.301  1.00  0.00    -0.003 C 
ATOM     18  C   UNL     1      29.910 -17.459  29.782  1.00  0.00     0.004 C 
ENDBRANCH  16  17
ENDBRANCH  15  16
ENDBRANCH  14  15
ENDBRANCH  13  14
ENDBRANCH  12  13
ENDBRANCH  11  12
ENDBRANCH   1  11
TORSDOF 14
ENDMDL
MODEL 9
REMARK VINA RESULT:    -3.648      3.356      5.476
REMARK INTER + INTRA:          -8.577
REMARK INTER:                  -6.269
REMARK INTRA:                  -2.308
REMARK UNBOUND:                -1.943
REMARK SMILES CCCCCCCCCCCCCCCC(=O)[O-]
REMARK SMILES IDX 9 1 10 2 11 3 12 4 13 5 14 6 15 7 16 8 17 9 18 10 8 11 7 12
REMARK SMILES IDX 6 13 5 14 4 15 3 16 2 17 1 18
REMARK H PARENT
REMARK Flexibility Score: inf
ROOT
ATOM      1  C   UNL     1      30.345 -18.291  25.959  1.00  0.00     0.000 C 
ENDROOT
BRANCH   1   2
ATOM      2  C   UNL     1      30.651 -18.274  27.467  1.00  0.00     0.000 C 
BRANCH   2   3
ATOM      3  C   UNL     1      29.760 -19.242  28.261  1.00  0.00     0.000 C 
BRANCH   3   4
ATOM      4  C   UNL     1      29.485 -18.759  29.692  1.00  0.00     0.000 C 
BRANCH   4   5
ATOM      5  C   UNL     1      29.730 -17.251  29.820  1.00  0.00     0.000 C 
BRANCH   5   6
ATOM      6  C   UNL     1      28.738 -16.612  30.804  1.00  0.00     0.006 C 
BRANCH   6   7
ATOM      7  C   UNL     1      28.581 -15.104  30.574  1.00  0.00     0.053 C 
BRANCH   7   8
ATOM      8  C   UNL     1      29.393 -14.305  31.547  1.00  0.00     0.041 C 
ATOM      9  O   UNL     1      29.796 -14.830  32.618  1.00  0.00    -0.550 OA
ATOM     10  O   UNL     1      29.733 -12.989  31.257  1.00  0.00    -0.550 OA
ENDBRANCH   7   8
ENDBRANCH   6   7
ENDBRANCH   5   6
ENDBRANCH   4   5
ENDBRANCH   3   4
ENDBRANCH   2   3
ENDBRANCH   1   2
BRANCH   1  11
ATOM     11  C   UNL     1      29.123 -19.160  25.614  1.00  0.00     0.000 C 
BRANCH  11  12
ATOM     12  C   UNL     1      28.414 -18.697  24.329  1.00  0.00    -0.000 C 
BRANCH  12  13
ATOM     13  C   UNL     1      26.975 -18.221  24.590  1.00  0.00    -0.000 C 
BRANCH  13  14
ATOM     14  C   UNL     1      26.916 -16.789  25.152  1.00  0.00    -0.000 C 
BRANCH  14  15
ATOM     15  C   UNL     1      26.010 -16.677  26.388  1.00  0.00    -0.000 C 
BRANCH  15  16
ATOM     16  C   UNL     1      26.738 -17.046  27.689  1.00  0.00    -0.000 C 
BRANCH  16  17
ATOM     17  C   UNL     1      25.950 -18.094  28.482  1.00  0.00    -0.003 C 
ATOM     18  C   UNL     1      26.110 -19.483  27.873  1.00  0.00     0.004 C 
ENDBRANCH  16  17
ENDBRANCH  15  16
ENDBRANCH  14  15
ENDBRANCH  13  14
ENDBRANCH  12  13
ENDBRANCH  11  12
ENDBRANCH   1  11
TORSDOF 14
ENDMDL
