MODEL 1
REMARK VINA RESULT:    -3.820      0.000      0.000
REMARK INTER + INTRA:          -5.643
REMARK INTER:                  -5.160
REMARK INTRA:                  -0.484
REMARK UNBOUND:                -0.484
REMARK SMILES CCCCCCC=CC(=O)[O-]
REMARK SMILES IDX 5 1 6 2 7 3 8 4 9 5 10 6 11 7 4 8 3 9 2 10 1 11
REMARK H PARENT
REMARK Flexibility Score: inf
ROOT
ATOM      1  C   UNL     1      -1.304  15.077  -6.034  1.00  0.00     0.004 C 
ENDROOT
BRANCH   1   2
ATOM      2  C   UNL     1      -0.703  16.300  -5.325  1.00  0.00     0.027 C 
BRANCH   2   3
ATOM      3  C   UNL     1      -1.071  16.319  -3.870  1.00  0.00    -0.025 C 
ATOM      4  C   UNL     1      -0.222  15.893  -2.929  1.00  0.00     0.020 C 
BRANCH   4   5
ATOM      5  C   UNL     1      -0.563  15.919  -1.499  1.00  0.00     0.064 C 
ATOM      6  O   UNL     1      -1.768  16.015  -1.150  1.00  0.00    -0.545 OA
ATOM      7  O   UNL     1       0.426  15.841  -0.525  1.00  0.00    -0.545 OA
ENDBRANCH   4   5
ENDBRANCH   2   3
ENDBRANCH   1   2
BRANCH   1   8
ATOM      8  C   UNL     1      -2.839  15.058  -5.983  1.00  0.00     0.000 C 
BRANCH   8   9
ATOM      9  C   UNL     1      -3.399  13.695  -5.549  1.00  0.00    -0.000 C 
BRANCH   9  10
ATOM     10  C   UNL     1      -2.309  12.837  -4.896  1.00  0.00    -0.003 C 
ATOM     11  C   UNL     1      -2.860  11.484  -4.458  1.00  0.00     0.004 C 
ENDBRANCH   9  10
ENDBRANCH   8   9
ENDBRANCH   1   8
TORSDOF 6
ENDMDL
MODEL 2
REMARK VINA RESULT:    -3.648      2.483      4.405
REMARK INTER + INTRA:          -5.412
REMARK INTER:                  -4.907
REMARK INTRA:                  -0.505
REMARK UNBOUND:                -0.484
REMARK SMILES CCCCCCC=CC(=O)[O-]
REMARK SMILES IDX 5 1 6 2 7 3 8 4 9 5 10 6 11 7 4 8 3 9 2 10 1 11
REMARK H PARENT
REMARK Flexibility Score: inf
ROOT
ATOM      1  C   UNL     1      -1.994  17.175  -5.134  1.00  0.00     0.004 C 
ENDROOT
BRANCH   1   2
ATOM      2  C   UNL     1      -2.808  16.231  -6.033  1.00  0.00     0.027 C 
BRANCH   2   3
ATOM      3  C   UNL     1      -2.369  14.805  -5.860  1.00  0.00    -0.025 C 
ATOM      4  C   UNL     1      -2.924  14.011  -4.939  1.00  0.00     0.020 C 
BRANCH   4   5
ATOM      5  C   UNL     1      -2.514  12.609  -4.767  1.00  0.00     0.064 C 
ATOM      6  O   UNL     1      -3.379  11.697  -4.828  1.00  0.00    -0.545 OA
ATOM      7  O   UNL     1      -1.185  12.275  -4.536  1.00  0.00    -0.545 OA
ENDBRANCH   4   5
ENDBRANCH   2   3
ENDBRANCH   1   2
BRANCH   1   8
ATOM      8  C   UNL     1      -0.505  16.802  -5.079  1.00  0.00     0.000 C 
BRANCH   8   9
ATOM      9  C   UNL     1       0.059  16.831  -3.650  1.00  0.00    -0.000 C 
BRANCH   9  10
ATOM     10  C   UNL     1      -0.739  15.903  -2.727  1.00  0.00    -0.003 C 
ATOM     11  C   UNL     1      -0.214  15.963  -1.296  1.00  0.00     0.004 C 
ENDBRANCH   9  10
ENDBRANCH   8   9
ENDBRANCH   1   8
TORSDOF 6
ENDMDL
MODEL 3
REMARK VINA RESULT:    -3.452      3.047      4.841
REMARK INTER + INTRA:          -5.146
REMARK INTER:                  -4.631
REMARK INTRA:                  -0.516
REMARK UNBOUND:                -0.484
REMARK SMILES CCCCCCC=CC(=O)[O-]
REMARK SMILES IDX 5 1 6 2 7 3 8 4 9 5 10 6 11 7 4 8 3 9 2 10 1 11
REMARK H PARENT
REMARK Flexibility Score: inf
ROOT
ATOM      1  C   UNL     1      -0.557  16.765  -4.014  1.00  0.00     0.004 C 
ENDROOT
BRANCH   1   2
ATOM      2  C   UNL     1       0.303  15.602  -4.534  1.00  0.00     0.027 C 
BRANCH   2   3
ATOM      3  C   UNL     1      -0.553  14.446  -4.964  1.00  0.00    -0.025 C 
ATOM      4  C   UNL     1      -1.875  14.442  -4.761  1.00  0.00     0.020 C 
BRANCH   4   5
ATOM      5  C   UNL     1      -2.727  13.322  -5.188  1.00  0.00     0.064 C 
ATOM      6  O   UNL     1      -3.663  13.531  -6.002  1.00  0.00    -0.545 OA
ATOM      7  O   UNL     1      -2.517  12.036  -4.704  1.00  0.00    -0.545 OA
ENDBRANCH   4   5
ENDBRANCH   2   3
ENDBRANCH   1   2
BRANCH   1   8
ATOM      8  C   UNL     1      -0.161  18.115  -4.631  1.00  0.00     0.000 C 
BRANCH   8   9
ATOM      9  C   UNL     1      -1.089  18.534  -5.782  1.00  0.00    -0.000 C 
BRANCH   9  10
ATOM     10  C   UNL     1      -2.522  18.046  -5.536  1.00  0.00    -0.003 C 
ATOM     11  C   UNL     1      -3.514  19.203  -5.588  1.00  0.00     0.004 C 
ENDBRANCH   9  10
ENDBRANCH   8   9
ENDBRANCH   1   8
TORSDOF 6
ENDMDL
MODEL 4
REMARK VINA RESULT:    -3.342      3.326      4.123
REMARK INTER + INTRA:          -4.998
REMARK INTER:                  -4.653
REMARK INTRA:                  -0.344
REMARK UNBOUND:                -0.484
REMARK SMILES CCCCCCC=CC(=O)[O-]
REMARK SMILES IDX 5 1 6 2 7 3 8 4 9 5 10 6 11 7 4 8 3 9 2 10 1 11
REMARK H PARENT
REMARK Flexibility Score: inf
ROOT
ATOM      1  C   UNL     1      -1.443  15.894  -4.222  1.00  0.00     0.004 C 
ENDROOT
BRANCH   1   2
ATOM      2  C   UNL     1      -0.656  16.847  -5.134  1.00  0.00     0.027 C 
BRANCH   2   3
ATOM      3  C   UNL     1      -1.447  18.088  -5.433  1.00  0.00    -0.025 C 
ATOM      4  C   UNL     1      -2.779  18.055  -5.547  1.00  0.00     0.020 C 
BRANCH   4   5
ATOM      5  C   UNL     1      -3.569  19.264  -5.826  1.00  0.00     0.064 C 
ATOM      6  O   UNL     1      -2.980  20.335  -6.125  1.00  0.00    -0.545 OA
ATOM      7  O   UNL     1      -4.957  19.244  -5.762  1.00  0.00    -0.545 OA
ENDBRANCH   4   5
ENDBRANCH   2   3
ENDBRANCH   1   2
BRANCH   1   8
ATOM      8  C   UNL     1      -1.670  14.516  -4.861  1.00  0.00     0.000 C 
BRANCH   8   9
ATOM      9  C   UNL     1      -2.883  14.494  -5.803  1.00  0.00    -0.000 C 
BRANCH   9  10
ATOM     10  C   UNL     1      -3.303  13.054  -6.123  1.00  0.00    -0.003 C 
ATOM     11  C   UNL     1      -2.976  12.115  -4.966  1.00  0.00     0.004 C 
ENDBRANCH   9  10
ENDBRANCH   8   9
ENDBRANCH   1   8
TORSDOF 6
ENDMDL
MODEL 5
REMARK VINA RESULT:    -3.292      2.856      4.799
REMARK INTER + INTRA:          -4.931
REMARK INTER:                  -4.556
REMARK INTRA:                  -0.375
REMARK UNBOUND:                -0.484
REMARK SMILES CCCCCCC=CC(=O)[O-]
REMARK SMILES IDX 5 1 6 2 7 3 8 4 9 5 10 6 11 7 4 8 3 9 2 10 1 11
REMARK H PARENT
REMARK Flexibility Score: inf
ROOT
ATOM      1  C   UNL     1      -2.208  16.979  -5.139  1.00  0.00     0.004 C 
ENDROOT
BRANCH   1   2
ATOM      2  C   UNL     1      -2.742  15.890  -6.083  1.00  0.00     0.027 C 
BRANCH   2   3
ATOM      3  C   UNL     1      -2.196  14.540  -5.717  1.00  0.00    -0.025 C 
ATOM      4  C   UNL     1      -2.916  13.665  -5.007  1.00  0.00     0.020 C 
BRANCH   4   5
ATOM      5  C   UNL     1      -2.400  12.335  -4.653  1.00  0.00     0.064 C 
ATOM      6  O   UNL     1      -3.196  11.366  -4.555  1.00  0.00    -0.545 OA
ATOM      7  O   UNL     1      -1.044  12.130  -4.421  1.00  0.00    -0.545 OA
ENDBRANCH   4   5
ENDBRANCH   2   3
ENDBRANCH   1   2
BRANCH   1   8
ATOM      8  C   UNL     1      -1.674  18.206  -5.893  1.00  0.00     0.000 C 
BRANCH   8   9
ATOM      9  C   UNL     1      -0.143  18.202  -6.018  1.00  0.00    -0.000 C 
BRANCH   9  10
ATOM     10  C   UNL     1       0.519  18.037  -4.645  1.00  0.00    -0.003 C 
ATOM     11  C   UNL     1       1.540  16.904  -4.657  1.00  0.00     0.004 C 
ENDBRANCH   9  10
ENDBRANCH   8   9
ENDBRANCH   1   8
TORSDOF 6
ENDMDL
MODEL 6
REMARK VINA RESULT:    -3.245      3.003      3.294
REMARK INTER + INTRA:          -4.867
REMARK INTER:                  -4.425
REMARK INTRA:                  -0.442
REMARK UNBOUND:                -0.484
REMARK SMILES CCCCCCC=CC(=O)[O-]
REMARK SMILES IDX 5 1 6 2 7 3 8 4 9 5 10 6 11 7 4 8 3 9 2 10 1 11
REMARK H PARENT
REMARK Flexibility Score: inf
ROOT
ATOM      1  C   UNL     1      -2.148  15.212  -4.462  1.00  0.00     0.004 C 
ENDROOT
BRANCH   1   2
ATOM      2  C   UNL     1      -1.356  16.511  -4.675  1.00  0.00     0.027 C 
BRANCH   2   3
ATOM      3  C   UNL     1       0.107  16.229  -4.869  1.00  0.00    -0.025 C 
ATOM      4  C   UNL     1       0.526  15.148  -5.536  1.00  0.00     0.020 C 
BRANCH   4   5
ATOM      5  C   UNL     1       1.954  14.866  -5.745  1.00  0.00     0.064 C 
ATOM      6  O   UNL     1       2.363  13.676  -5.716  1.00  0.00    -0.545 OA
ATOM      7  O   UNL     1       2.862  15.894  -5.972  1.00  0.00    -0.545 OA
ENDBRANCH   4   5
ENDBRANCH   2   3
ENDBRANCH   1   2
BRANCH   1   8
ATOM      8  C   UNL     1      -3.049  14.866  -5.657  1.00  0.00     0.000 C 
BRANCH   8   9
ATOM      9  C   UNL     1      -3.272  13.354  -5.811  1.00  0.00    -0.000 C 
BRANCH   9  10
ATOM     10  C   UNL     1      -2.250  12.563  -4.985  1.00  0.00    -0.003 C 
ATOM     11  C   UNL     1      -2.856  11.269  -4.450  1.00  0.00     0.004 C 
ENDBRANCH   9  10
ENDBRANCH   8   9
ENDBRANCH   1   8
TORSDOF 6
ENDMDL
MODEL 7
REMARK VINA RESULT:    -3.169      2.740      3.148
REMARK INTER + INTRA:          -4.764
REMARK INTER:                  -4.473
REMARK INTRA:                  -0.291
REMARK UNBOUND:                -0.484
REMARK SMILES CCCCCCC=CC(=O)[O-]
REMARK SMILES IDX 5 1 6 2 7 3 8 4 9 5 10 6 11 7 4 8 3 9 2 10 1 11
REMARK H PARENT
REMARK Flexibility Score: inf
ROOT
ATOM      1  C   UNL     1      -1.782  15.833  -4.044  1.00  0.00     0.004 C 
ENDROOT
BRANCH   1   2
ATOM      2  C   UNL     1      -1.849  17.049  -4.980  1.00  0.00     0.027 C 
BRANCH   2   3
ATOM      3  C   UNL     1      -0.473  17.517  -5.359  1.00  0.00    -0.025 C 
ATOM      4  C   UNL     1       0.571  17.349  -4.541  1.00  0.00     0.020 C 
BRANCH   4   5
ATOM      5  C   UNL     1       1.926  17.790  -4.905  1.00  0.00     0.064 C 
ATOM      6  O   UNL     1       2.075  18.804  -5.634  1.00  0.00    -0.545 OA
ATOM      7  O   UNL     1       3.048  17.100  -4.457  1.00  0.00    -0.545 OA
ENDBRANCH   4   5
ENDBRANCH   2   3
ENDBRANCH   1   2
BRANCH   1   8
ATOM      8  C   UNL     1      -1.758  14.500  -4.807  1.00  0.00     0.000 C 
BRANCH   8   9
ATOM      9  C   UNL     1      -3.150  14.075  -5.299  1.00  0.00    -0.000 C 
BRANCH   9  10
ATOM     10  C   UNL     1      -3.179  12.580  -5.639  1.00  0.00    -0.003 C 
ATOM     11  C   UNL     1      -2.265  11.786  -4.711  1.00  0.00     0.004 C 
ENDBRANCH   9  10
ENDBRANCH   8   9
ENDBRANCH   1   8
TORSDOF 6
ENDMDL
MODEL 8
REMARK VINA RESULT:    -3.148     10.951     11.955
REMARK INTER + INTRA:          -4.736
REMARK INTER:                  -4.009
REMARK INTRA:                  -0.727
REMARK UNBOUND:                -0.484
REMARK SMILES CCCCCCC=CC(=O)[O-]
REMARK SMILES IDX 5 1 6 2 7 3 8 4 9 5 10 6 11 7 4 8 3 9 2 10 1 11
REMARK H PARENT
REMARK Flexibility Score: inf
ROOT
ATOM      1  C   UNL     1      -9.818  23.257  -1.917  1.00  0.00     0.004 C 
ENDROOT
BRANCH   1   2
ATOM      2  C   UNL     1      -8.973  23.880  -3.038  1.00  0.00     0.027 C 
BRANCH   2   3
ATOM      3  C   UNL     1      -8.914  22.979  -4.238  1.00  0.00    -0.025 C 
ATOM      4  C   UNL     1      -8.822  21.651  -4.110  1.00  0.00     0.020 C 
BRANCH   4   5
ATOM      5  C   UNL     1      -8.778  20.756  -5.276  1.00  0.00     0.064 C 
ATOM      6  O   UNL     1      -9.711  20.789  -6.119  1.00  0.00    -0.545 OA
ATOM      7  O   UNL     1      -7.722  19.871  -5.460  1.00  0.00    -0.545 OA
ENDBRANCH   4   5
ENDBRANCH   2   3
ENDBRANCH   1   2
BRANCH   1   8
ATOM      8  C   UNL     1     -11.182  23.945  -1.752  1.00  0.00     0.000 C 
BRANCH   8   9
ATOM      9  C   UNL     1     -12.358  22.968  -1.896  1.00  0.00    -0.000 C 
BRANCH   9  10
ATOM     10  C   UNL     1     -12.751  22.795  -3.368  1.00  0.00    -0.003 C 
ATOM     11  C   UNL     1     -12.489  21.370  -3.845  1.00  0.00     0.004 C 
ENDBRANCH   9  10
ENDBRANCH   8   9
ENDBRANCH   1   8
TORSDOF 6
ENDMDL
MODEL 9
REMARK VINA RESULT:    -3.138      2.684      3.115
REMARK INTER + INTRA:          -4.723
REMARK INTER:                  -4.480
REMARK INTRA:                  -0.243
REMARK UNBOUND:                -0.484
REMARK SMILES CCCCCCC=CC(=O)[O-]
REMARK SMILES IDX 5 1 6 2 7 3 8 4 9 5 10 6 11 7 4 8 3 9 2 10 1 11
REMARK H PARENT
REMARK Flexibility Score: inf
ROOT
ATOM      1  C   UNL     1      -2.850  16.686  -6.125  1.00  0.00     0.004 C 
ENDROOT
BRANCH   1   2
ATOM      2  C   UNL     1      -2.118  17.934  -5.607  1.00  0.00     0.027 C 
BRANCH   2   3
ATOM      3  C   UNL     1      -0.629  17.754  -5.670  1.00  0.00    -0.025 C 
ATOM      4  C   UNL     1       0.165  18.140  -4.665  1.00  0.00     0.020 C 
BRANCH   4   5
ATOM      5  C   UNL     1       1.623  17.957  -4.707  1.00  0.00     0.064 C 
ATOM      6  O   UNL     1       2.125  16.877  -4.305  1.00  0.00    -0.545 OA
ATOM      7  O   UNL     1       2.457  18.963  -5.183  1.00  0.00    -0.545 OA
ENDBRANCH   4   5
ENDBRANCH   2   3
ENDBRANCH   1   2
BRANCH   1   8
ATOM      8  C   UNL     1      -2.127  15.381  -5.759  1.00  0.00     0.000 C 
BRANCH   8   9
ATOM      9  C   UNL     1      -3.019  14.143  -5.931  1.00  0.00    -0.000 C 
BRANCH   9  10
ATOM     10  C   UNL     1      -3.064  13.316  -4.640  1.00  0.00    -0.003 C 
ATOM     11  C   UNL     1      -2.338  11.985  -4.812  1.00  0.00     0.004 C 
ENDBRANCH   9  10
ENDBRANCH   8   9
ENDBRANCH   1   8
TORSDOF 6
ENDMDL
