MODEL 1
REMARK VINA RESULT:    -4.380      0.000      0.000
REMARK INTER + INTRA:          -5.748
REMARK INTER:                  -6.172
REMARK INTRA:                   0.424
REMARK UNBOUND:                 0.424
REMARK SMILES CC1=CCC(=C(C)C)C(=O)CC(C)=CCC1
REMARK SMILES IDX 12 1 14 2 13 3 15 4 16 5 2 6 1 7 3 8 11 10 9 11 10 12 5 13
REMARK SMILES IDX 6 14 7 15 8 16 4 17
REMARK H PARENT
REMARK Flexibility Score: 60.00
ROOT
ATOM      1  C   UNL     1      -6.539  -3.919   2.516  1.00  0.00    -0.070 C 
ATOM      2  C   UNL     1      -6.162  -2.632   2.297  1.00  0.00    -0.027 C 
ATOM      3  C   UNL     1      -7.643  -4.473   1.648  1.00  0.00     0.039 C 
ENDROOT
BRANCH   2   4
ATOM      4  C   UNL     1      -5.020  -1.911   2.971  1.00  0.00     0.032 C 
BRANCH   4   5
ATOM      5  C   UNL     1      -3.666  -2.149   2.289  1.00  0.00     0.034 C 
BRANCH   5   6
ATOM      6  C   UNL     1      -2.692  -2.782   3.264  1.00  0.00    -0.077 C 
ATOM      7  C   UNL     1      -1.992  -1.889   4.256  1.00  0.00     0.039 C 
ATOM      8  C   UNL     1      -2.359  -4.095   3.240  1.00  0.00    -0.023 CG0
ATOM      9  G   UNL     1      -2.964  -5.140   2.333  1.00  0.00     0.000 G0
ENDBRANCH   5   6
ENDBRANCH   4   5
ENDBRANCH   2   4
BRANCH   1  10
ATOM     10  C   UNL     1      -5.979  -4.805   3.625  1.00  0.00     0.111 C 
BRANCH  10  11
ATOM     11  C   UNL     1      -5.279  -6.044   3.124  1.00  0.00     0.163 C 
ATOM     12  O   UNL     1      -5.999  -7.012   2.755  1.00  0.00    -0.294 OA
BRANCH  11  13
ATOM     13  C   UNL     1      -3.785  -6.182   3.109  1.00  0.00    -0.002 C 
ATOM     14  C   UNL     1      -3.173  -7.238   3.730  1.00  0.00    -0.069 C 
ATOM     15  C   UNL     1      -1.677  -7.452   3.646  1.00  0.00     0.039 C 
ATOM     16  C   UNL     1      -3.949  -8.221   4.578  1.00  0.00     0.039 C 
BRANCH  13  17
ATOM     17  C   UNL     1      -2.960  -5.152   2.336  1.00  0.00     0.066 CG0
ATOM     18  G   UNL     1      -2.386  -4.088   3.242  1.00  0.00     0.000 G0
ENDBRANCH  13  17
ENDBRANCH  11  13
ENDBRANCH  10  11
ENDBRANCH   1  10
TORSDOF 0
ENDMDL
MODEL 2
REMARK VINA RESULT:    -3.874      1.581      2.020
REMARK INTER + INTRA:          -5.035
REMARK INTER:                  -5.158
REMARK INTRA:                   0.123
REMARK UNBOUND:                 0.424
REMARK SMILES CC1=CCC(=C(C)C)C(=O)CC(C)=CCC1
REMARK SMILES IDX 12 1 14 2 13 3 15 4 16 5 2 6 1 7 3 8 11 10 9 11 10 12 5 13
REMARK SMILES IDX 6 14 7 15 8 16 4 17
REMARK H PARENT
REMARK Flexibility Score: 60.00
ROOT
ATOM      1  C   UNL     1      -4.991  -2.057   2.741  1.00  0.00    -0.070 C 
ATOM      2  C   UNL     1      -4.254  -0.988   3.141  1.00  0.00    -0.027 C 
ATOM      3  C   UNL     1      -6.105  -1.798   1.755  1.00  0.00     0.039 C 
ENDROOT
BRANCH   2   4
ATOM      4  C   UNL     1      -3.038  -1.029   4.034  1.00  0.00     0.032 C 
BRANCH   4   5
ATOM      5  C   UNL     1      -1.796  -1.608   3.341  1.00  0.00     0.034 C 
BRANCH   5   6
ATOM      6  C   UNL     1      -1.154  -2.668   4.215  1.00  0.00    -0.077 C 
ATOM      7  C   UNL     1      -0.585  -2.249   5.546  1.00  0.00     0.039 C 
ATOM      8  C   UNL     1      -0.996  -3.957   3.830  1.00  0.00    -0.023 CG0
ATOM      9  G   UNL     1      -1.513  -4.563   2.546  1.00  0.00     0.000 G0
ENDBRANCH   5   6
ENDBRANCH   4   5
ENDBRANCH   2   4
BRANCH   1  10
ATOM     10  C   UNL     1      -4.820  -3.474   3.281  1.00  0.00     0.111 C 
BRANCH  10  11
ATOM     11  C   UNL     1      -4.121  -4.412   2.328  1.00  0.00     0.163 C 
ATOM     12  O   UNL     1      -4.618  -4.554   1.178  1.00  0.00    -0.294 OA
BRANCH  11  13
ATOM     13  C   UNL     1      -2.912  -5.211   2.718  1.00  0.00    -0.002 C 
ATOM     14  C   UNL     1      -3.040  -6.497   3.171  1.00  0.00    -0.069 C 
ATOM     15  C   UNL     1      -1.832  -7.357   3.476  1.00  0.00     0.039 C 
ATOM     16  C   UNL     1      -4.394  -7.116   3.440  1.00  0.00     0.039 C 
BRANCH  13  17
ATOM     17  C   UNL     1      -1.529  -4.583   2.545  1.00  0.00     0.066 CG0
ATOM     18  G   UNL     1      -1.018  -3.972   3.828  1.00  0.00     0.000 G0
ENDBRANCH  13  17
ENDBRANCH  11  13
ENDBRANCH  10  11
ENDBRANCH   1  10
TORSDOF 0
ENDMDL
MODEL 3
REMARK VINA RESULT:    -3.737      3.267      5.887
REMARK INTER + INTRA:          -4.843
REMARK INTER:                  -5.013
REMARK INTRA:                   0.170
REMARK UNBOUND:                 0.424
REMARK SMILES CC1=CCC(=C(C)C)C(=O)CC(C)=CCC1
REMARK SMILES IDX 12 1 14 2 13 3 15 4 16 5 2 6 1 7 3 8 11 10 9 11 10 12 5 13
REMARK SMILES IDX 6 14 7 15 8 16 4 17
REMARK H PARENT
REMARK Flexibility Score: 60.00
ROOT
ATOM      1  C   UNL     1      -1.365  -5.683   3.716  1.00  0.00    -0.070 C 
ATOM      2  C   UNL     1      -0.624  -6.358   4.632  1.00  0.00    -0.027 C 
ATOM      3  C   UNL     1      -2.627  -6.348   3.222  1.00  0.00     0.039 C 
ENDROOT
BRANCH   2   4
ATOM      4  C   UNL     1       0.610  -5.845   5.334  1.00  0.00     0.032 C 
BRANCH   4   5
ATOM      5  C   UNL     1       0.298  -4.843   6.454  1.00  0.00     0.034 C 
BRANCH   5   6
ATOM      6  C   UNL     1       1.125  -3.584   6.277  1.00  0.00    -0.077 C 
ATOM      7  C   UNL     1       2.614  -3.670   6.489  1.00  0.00     0.039 C 
ATOM      8  C   UNL     1       0.585  -2.369   6.015  1.00  0.00    -0.023 CG0
ATOM      9  G   UNL     1      -0.876  -2.091   5.756  1.00  0.00     0.000 G0
ENDBRANCH   5   6
ENDBRANCH   4   5
ENDBRANCH   2   4
BRANCH   1  10
ATOM     10  C   UNL     1      -0.965  -4.345   3.100  1.00  0.00     0.111 C 
BRANCH  10  11
ATOM     11  C   UNL     1      -1.799  -3.180   3.571  1.00  0.00     0.163 C 
ATOM     12  O   UNL     1      -3.036  -3.210   3.325  1.00  0.00    -0.294 OA
BRANCH  11  13
ATOM     13  C   UNL     1      -1.208  -1.983   4.256  1.00  0.00    -0.002 C 
ATOM     14  C   UNL     1      -1.000  -0.816   3.570  1.00  0.00    -0.069 C 
ATOM     15  C   UNL     1      -0.498   0.434   4.260  1.00  0.00     0.039 C 
ATOM     16  C   UNL     1      -1.214  -0.722   2.075  1.00  0.00     0.039 C 
BRANCH  13  17
ATOM     17  C   UNL     1      -0.893  -2.072   5.749  1.00  0.00     0.066 CG0
ATOM     18  G   UNL     1       0.567  -2.358   6.007  1.00  0.00     0.000 G0
ENDBRANCH  13  17
ENDBRANCH  11  13
ENDBRANCH  10  11
ENDBRANCH   1  10
TORSDOF 0
ENDMDL
MODEL 4
REMARK VINA RESULT:    -3.628     15.611     17.510
REMARK INTER + INTRA:          -4.689
REMARK INTER:                  -4.850
REMARK INTRA:                   0.161
REMARK UNBOUND:                 0.424
REMARK SMILES CC1=CCC(=C(C)C)C(=O)CC(C)=CCC1
REMARK SMILES IDX 12 1 14 2 13 3 15 4 16 5 2 6 1 7 3 8 11 10 9 11 10 12 5 13
REMARK SMILES IDX 6 14 7 15 8 16 4 17
REMARK H PARENT
REMARK Flexibility Score: 60.00
ROOT
ATOM      1  C   UNL     1       3.822   4.278  15.660  1.00  0.00    -0.070 C 
ATOM      2  C   UNL     1       3.452   5.337  16.427  1.00  0.00    -0.027 C 
ATOM      3  C   UNL     1       4.200   4.561  14.226  1.00  0.00     0.039 C 
ENDROOT
BRANCH   2   4
ATOM      4  C   UNL     1       3.135   5.302  17.901  1.00  0.00     0.032 C 
BRANCH   4   5
ATOM      5  C   UNL     1       1.774   4.665  18.214  1.00  0.00     0.034 C 
BRANCH   5   6
ATOM      6  C   UNL     1       1.927   3.599  19.282  1.00  0.00    -0.077 C 
ATOM      7  C   UNL     1       2.566   3.985  20.591  1.00  0.00     0.039 C 
ATOM      8  C   UNL     1       1.590   2.301  19.093  1.00  0.00    -0.023 CG0
ATOM      9  G   UNL     1       0.926   1.733  17.862  1.00  0.00     0.000 G0
ENDBRANCH   5   6
ENDBRANCH   4   5
ENDBRANCH   2   4
BRANCH   1  10
ATOM     10  C   UNL     1       3.802   2.825  16.128  1.00  0.00     0.111 C 
BRANCH  10  11
ATOM     11  C   UNL     1       2.504   2.109  15.847  1.00  0.00     0.163 C 
ATOM     12  O   UNL     1       1.921   2.364  14.757  1.00  0.00    -0.294 OA
BRANCH  11  13
ATOM     13  C   UNL     1       1.868   1.169  16.827  1.00  0.00    -0.002 C 
ATOM     14  C   UNL     1       2.187  -0.162  16.829  1.00  0.00    -0.069 C 
ATOM     15  C   UNL     1       1.634  -1.112  17.870  1.00  0.00     0.039 C 
ATOM     16  C   UNL     1       3.072  -0.771  15.763  1.00  0.00     0.039 C 
BRANCH  13  17
ATOM     17  C   UNL     1       0.896   1.736  17.863  1.00  0.00     0.066 CG0
ATOM     18  G   UNL     1       1.611   2.273  19.080  1.00  0.00     0.000 G0
ENDBRANCH  13  17
ENDBRANCH  11  13
ENDBRANCH  10  11
ENDBRANCH   1  10
TORSDOF 0
ENDMDL
MODEL 5
REMARK VINA RESULT:    -3.620      4.625      7.145
REMARK INTER + INTRA:          -4.678
REMARK INTER:                  -4.872
REMARK INTRA:                   0.194
REMARK UNBOUND:                 0.424
REMARK SMILES CC1=CCC(=C(C)C)C(=O)CC(C)=CCC1
REMARK SMILES IDX 12 1 14 2 13 3 15 4 16 5 2 6 1 7 3 8 11 10 9 11 10 12 5 13
REMARK SMILES IDX 6 14 7 15 8 16 4 17
REMARK H PARENT
REMARK Flexibility Score: 60.00
ROOT
ATOM      1  C   UNL     1       0.596  -4.619   5.511  1.00  0.00    -0.070 C 
ATOM      2  C   UNL     1      -0.378  -4.643   4.564  1.00  0.00    -0.027 C 
ATOM      3  C   UNL     1       0.806  -5.876   6.320  1.00  0.00     0.039 C 
ENDROOT
BRANCH   2   4
ATOM      4  C   UNL     1      -0.690  -3.544   3.578  1.00  0.00     0.032 C 
BRANCH   4   5
ATOM      5  C   UNL     1      -1.681  -2.505   4.122  1.00  0.00     0.034 C 
BRANCH   5   6
ATOM      6  C   UNL     1      -1.241  -1.107   3.730  1.00  0.00    -0.077 C 
ATOM      7  C   UNL     1      -1.257  -0.735   2.270  1.00  0.00     0.039 C 
ATOM      8  C   UNL     1      -0.761  -0.202   4.615  1.00  0.00    -0.023 CG0
ATOM      9  G   UNL     1      -0.684  -0.387   6.112  1.00  0.00     0.000 G0
ENDBRANCH   5   6
ENDBRANCH   4   5
ENDBRANCH   2   4
BRANCH   1  10
ATOM     10  C   UNL     1       1.428  -3.388   5.860  1.00  0.00     0.111 C 
BRANCH  10  11
ATOM     11  C   UNL     1       0.749  -2.441   6.818  1.00  0.00     0.163 C 
ATOM     12  O   UNL     1       0.193  -2.938   7.835  1.00  0.00    -0.294 OA
BRANCH  11  13
ATOM     13  C   UNL     1       0.663  -0.963   6.573  1.00  0.00    -0.002 C 
ATOM     14  C   UNL     1       1.769  -0.166   6.704  1.00  0.00    -0.069 C 
ATOM     15  C   UNL     1       1.731   1.309   6.368  1.00  0.00     0.039 C 
ATOM     16  C   UNL     1       3.078  -0.703   7.239  1.00  0.00     0.039 C 
BRANCH  13  17
ATOM     17  C   UNL     1      -0.671  -0.371   6.118  1.00  0.00     0.066 CG0
ATOM     18  G   UNL     1      -0.737  -0.200   4.619  1.00  0.00     0.000 G0
ENDBRANCH  13  17
ENDBRANCH  11  13
ENDBRANCH  10  11
ENDBRANCH   1  10
TORSDOF 0
ENDMDL
MODEL 6
REMARK VINA RESULT:    -3.560      3.850      6.576
REMARK INTER + INTRA:          -4.593
REMARK INTER:                  -4.797
REMARK INTRA:                   0.204
REMARK UNBOUND:                 0.424
REMARK SMILES CC1=CCC(=C(C)C)C(=O)CC(C)=CCC1
REMARK SMILES IDX 12 1 14 2 13 3 15 4 16 5 2 6 1 7 3 8 11 10 9 11 10 12 5 13
REMARK SMILES IDX 6 14 7 15 8 16 4 17
REMARK H PARENT
REMARK Flexibility Score: 60.00
ROOT
ATOM      1  C   UNL     1       0.673  -5.507   6.079  1.00  0.00    -0.070 C 
ATOM      2  C   UNL     1      -0.142  -6.341   5.382  1.00  0.00    -0.027 C 
ATOM      3  C   UNL     1       1.121  -5.961   7.447  1.00  0.00     0.039 C 
ENDROOT
BRANCH   2   4
ATOM      4  C   UNL     1      -0.625  -6.138   3.967  1.00  0.00     0.032 C 
BRANCH   4   5
ATOM      5  C   UNL     1      -1.741  -5.089   3.851  1.00  0.00     0.034 C 
BRANCH   5   6
ATOM      6  C   UNL     1      -1.370  -4.040   2.820  1.00  0.00    -0.077 C 
ATOM      7  C   UNL     1      -1.060  -4.495   1.418  1.00  0.00     0.039 C 
ATOM      8  C   UNL     1      -1.226  -2.726   3.113  1.00  0.00    -0.023 CG0
ATOM      9  G   UNL     1      -1.507  -2.085   4.451  1.00  0.00     0.000 G0
ENDBRANCH   5   6
ENDBRANCH   4   5
ENDBRANCH   2   4
BRANCH   1  10
ATOM     10  C   UNL     1       1.094  -4.118   5.606  1.00  0.00     0.111 C 
BRANCH  10  11
ATOM     11  C   UNL     1       0.235  -3.001   6.142  1.00  0.00     0.163 C 
ATOM     12  O   UNL     1      -0.123  -3.067   7.350  1.00  0.00    -0.294 OA
BRANCH  11  13
ATOM     13  C   UNL     1      -0.250  -1.867   5.286  1.00  0.00    -0.002 C 
ATOM     14  C   UNL     1       0.451  -0.692   5.219  1.00  0.00    -0.069 C 
ATOM     15  C   UNL     1       0.037   0.428   4.289  1.00  0.00     0.039 C 
ATOM     16  C   UNL     1       1.648  -0.427   6.105  1.00  0.00     0.039 C 
BRANCH  13  17
ATOM     17  C   UNL     1      -1.511  -2.069   4.446  1.00  0.00     0.066 CG0
ATOM     18  G   UNL     1      -1.213  -2.736   3.124  1.00  0.00     0.000 G0
ENDBRANCH  13  17
ENDBRANCH  11  13
ENDBRANCH  10  11
ENDBRANCH   1  10
TORSDOF 0
ENDMDL
MODEL 7
REMARK VINA RESULT:    -3.549      6.146      8.422
REMARK INTER + INTRA:          -4.577
REMARK INTER:                  -4.851
REMARK INTRA:                   0.274
REMARK UNBOUND:                 0.424
REMARK SMILES CC1=CCC(=C(C)C)C(=O)CC(C)=CCC1
REMARK SMILES IDX 12 1 14 2 13 3 15 4 16 5 2 6 1 7 3 8 11 10 9 11 10 12 5 13
REMARK SMILES IDX 6 14 7 15 8 16 4 17
REMARK H PARENT
REMARK Flexibility Score: 60.00
ROOT
ATOM      1  C   UNL     1      -2.883   5.170   4.079  1.00  0.00    -0.070 C 
ATOM      2  C   UNL     1      -3.433   5.752   5.176  1.00  0.00    -0.027 C 
ATOM      3  C   UNL     1      -1.736   5.893   3.415  1.00  0.00     0.039 C 
ENDROOT
BRANCH   2   4
ATOM      4  C   UNL     1      -4.512   5.163   6.051  1.00  0.00     0.032 C 
BRANCH   4   5
ATOM      5  C   UNL     1      -3.997   4.067   6.994  1.00  0.00     0.034 C 
BRANCH   5   6
ATOM      6  C   UNL     1      -4.789   2.788   6.795  1.00  0.00    -0.077 C 
ATOM      7  C   UNL     1      -6.225   2.759   7.250  1.00  0.00     0.039 C 
ATOM      8  C   UNL     1      -4.250   1.648   6.301  1.00  0.00    -0.023 CG0
ATOM      9  G   UNL     1      -2.841   1.491   5.782  1.00  0.00     0.000 G0
ENDBRANCH   5   6
ENDBRANCH   4   5
ENDBRANCH   2   4
BRANCH   1  10
ATOM     10  C   UNL     1      -3.397   3.886   3.433  1.00  0.00     0.111 C 
BRANCH  10  11
ATOM     11  C   UNL     1      -2.438   2.726   3.526  1.00  0.00     0.163 C 
ATOM     12  O   UNL     1      -1.336   2.830   2.921  1.00  0.00    -0.294 OA
BRANCH  11  13
ATOM     13  C   UNL     1      -2.770   1.455   4.250  1.00  0.00    -0.002 C 
ATOM     14  C   UNL     1      -2.965   0.288   3.561  1.00  0.00    -0.069 C 
ATOM     15  C   UNL     1      -3.203  -1.027   4.273  1.00  0.00     0.039 C 
ATOM     16  C   UNL     1      -3.003   0.253   2.048  1.00  0.00     0.039 C 
BRANCH  13  17
ATOM     17  C   UNL     1      -2.830   1.473   5.778  1.00  0.00     0.066 CG0
ATOM     18  G   UNL     1      -4.240   1.648   6.289  1.00  0.00     0.000 G0
ENDBRANCH  13  17
ENDBRANCH  11  13
ENDBRANCH  10  11
ENDBRANCH   1  10
TORSDOF 0
ENDMDL
MODEL 8
REMARK VINA RESULT:    -3.454      2.107      4.104
REMARK INTER + INTRA:          -4.444
REMARK INTER:                  -5.056
REMARK INTRA:                   0.611
REMARK UNBOUND:                 0.424
REMARK SMILES CC1=CCC(=C(C)C)C(=O)CC(C)=CCC1
REMARK SMILES IDX 12 1 14 2 13 3 15 4 16 5 2 6 1 7 3 8 11 10 9 11 10 12 5 13
REMARK SMILES IDX 6 14 7 15 8 16 4 17
REMARK H PARENT
REMARK Flexibility Score: 60.00
ROOT
ATOM      1  C   UNL     1      -5.021  -2.655   4.244  1.00  0.00    -0.070 C 
ATOM      2  C   UNL     1      -5.748  -3.799   4.322  1.00  0.00    -0.027 C 
ATOM      3  C   UNL     1      -4.688  -1.957   5.540  1.00  0.00     0.039 C 
ENDROOT
BRANCH   2   4
ATOM      4  C   UNL     1      -6.105  -4.708   3.172  1.00  0.00     0.032 C 
BRANCH   4   5
ATOM      5  C   UNL     1      -4.962  -4.887   2.162  1.00  0.00     0.034 C 
BRANCH   5   6
ATOM      6  C   UNL     1      -3.841  -5.701   2.779  1.00  0.00    -0.077 C 
ATOM      7  C   UNL     1      -4.190  -6.999   3.460  1.00  0.00     0.039 C 
ATOM      8  C   UNL     1      -2.553  -5.284   2.819  1.00  0.00    -0.023 CG0
ATOM      9  G   UNL     1      -2.013  -4.026   2.180  1.00  0.00     0.000 G0
ENDBRANCH   5   6
ENDBRANCH   4   5
ENDBRANCH   2   4
BRANCH   1  10
ATOM     10  C   UNL     1      -4.592  -1.993   2.937  1.00  0.00     0.111 C 
BRANCH  10  11
ATOM     11  C   UNL     1      -3.108  -1.741   2.836  1.00  0.00     0.163 C 
ATOM     12  O   UNL     1      -2.735  -0.600   2.445  1.00  0.00    -0.294 OA
BRANCH  11  13
ATOM     13  C   UNL     1      -2.084  -2.799   3.121  1.00  0.00    -0.002 C 
ATOM     14  C   UNL     1      -1.276  -2.713   4.223  1.00  0.00    -0.069 C 
ATOM     15  C   UNL     1      -0.304  -3.815   4.585  1.00  0.00     0.039 C 
ATOM     16  C   UNL     1      -1.271  -1.489   5.113  1.00  0.00     0.039 C 
BRANCH  13  17
ATOM     17  C   UNL     1      -1.998  -4.008   2.188  1.00  0.00     0.066 CG0
ATOM     18  G   UNL     1      -2.557  -5.258   2.823  1.00  0.00     0.000 G0
ENDBRANCH  13  17
ENDBRANCH  11  13
ENDBRANCH  10  11
ENDBRANCH   1  10
TORSDOF 0
ENDMDL
MODEL 9
REMARK VINA RESULT:    -3.341     13.407     15.642
REMARK INTER + INTRA:          -4.285
REMARK INTER:                  -4.442
REMARK INTRA:                   0.156
REMARK UNBOUND:                 0.424
REMARK SMILES CC1=CCC(=C(C)C)C(=O)CC(C)=CCC1
REMARK SMILES IDX 12 1 14 2 13 3 15 4 16 5 2 6 1 7 3 8 11 10 9 11 10 12 5 13
REMARK SMILES IDX 6 14 7 15 8 16 4 17
REMARK H PARENT
REMARK Flexibility Score: 60.00
ROOT
ATOM      1  C   UNL     1       2.859   2.004  15.592  1.00  0.00    -0.070 C 
ATOM      2  C   UNL     1       3.713   0.960  15.429  1.00  0.00    -0.027 C 
ATOM      3  C   UNL     1       3.458   3.335  15.976  1.00  0.00     0.039 C 
ENDROOT
BRANCH   2   4
ATOM      4  C   UNL     1       3.349  -0.424  14.952  1.00  0.00     0.032 C 
BRANCH   4   5
ATOM      5  C   UNL     1       2.631  -1.264  16.017  1.00  0.00     0.034 C 
BRANCH   5   6
ATOM      6  C   UNL     1       1.352  -1.849  15.449  1.00  0.00    -0.077 C 
ATOM      7  C   UNL     1       1.440  -2.673  14.191  1.00  0.00     0.039 C 
ATOM      8  C   UNL     1       0.125  -1.605  15.969  1.00  0.00    -0.023 CG0
ATOM      9  G   UNL     1      -0.159  -0.820  17.227  1.00  0.00     0.000 G0
ENDBRANCH   5   6
ENDBRANCH   4   5
ENDBRANCH   2   4
BRANCH   1  10
ATOM     10  C   UNL     1       1.339   1.898  15.491  1.00  0.00     0.111 C 
BRANCH  10  11
ATOM     11  C   UNL     1       0.654   1.632  16.808  1.00  0.00     0.163 C 
ATOM     12  O   UNL     1       1.105   2.220  17.829  1.00  0.00    -0.294 OA
BRANCH  11  13
ATOM     13  C   UNL     1      -0.483   0.664  16.951  1.00  0.00    -0.002 C 
ATOM     14  C   UNL     1      -1.778   1.075  16.783  1.00  0.00    -0.069 C 
ATOM     15  C   UNL     1      -2.934   0.100  16.824  1.00  0.00     0.039 C 
ATOM     16  C   UNL     1      -2.131   2.535  16.595  1.00  0.00     0.039 C 
BRANCH  13  17
ATOM     17  C   UNL     1      -0.165  -0.805  17.232  1.00  0.00     0.066 CG0
ATOM     18  G   UNL     1       0.124  -1.577  15.966  1.00  0.00     0.000 G0
ENDBRANCH  13  17
ENDBRANCH  11  13
ENDBRANCH  10  11
ENDBRANCH   1  10
TORSDOF 0
ENDMDL
