MODEL 1
REMARK VINA RESULT:    -3.714      0.000      0.000
REMARK INTER + INTRA:          -5.051
REMARK INTER:                  -5.234
REMARK INTRA:                   0.183
REMARK UNBOUND:                 0.183
REMARK SMILES CC1=CCC(=C(C)C)C(=O)CC(C)=CCC1
REMARK SMILES IDX 12 1 14 2 13 3 15 4 16 5 2 6 1 7 3 8 11 10 9 11 10 12 5 13
REMARK SMILES IDX 6 14 7 15 8 16 4 17
REMARK H PARENT
REMARK Flexibility Score: 60.00
ROOT
ATOM      1  C   UNL     1      19.856  24.217  26.905  1.00  0.00    -0.070 C 
ATOM      2  C   UNL     1      19.479  23.054  26.329  1.00  0.00    -0.027 C 
ATOM      3  C   UNL     1      21.222  24.279  27.541  1.00  0.00     0.039 C 
ENDROOT
BRANCH   2   4
ATOM      4  C   UNL     1      18.119  22.766  25.728  1.00  0.00     0.032 C 
BRANCH   4   5
ATOM      5  C   UNL     1      17.017  22.431  26.753  1.00  0.00     0.034 C 
BRANCH   5   6
ATOM      6  C   UNL     1      15.767  23.276  26.584  1.00  0.00    -0.077 C 
ATOM      7  C   UNL     1      14.947  23.072  25.335  1.00  0.00     0.039 C 
ATOM      8  C   UNL     1      15.378  24.246  27.447  1.00  0.00    -0.023 CG0
ATOM      9  G   UNL     1      16.030  24.611  28.767  1.00  0.00     0.000 G0
ENDBRANCH   5   6
ENDBRANCH   4   5
ENDBRANCH   2   4
BRANCH   1  10
ATOM     10  C   UNL     1      18.943  25.421  27.024  1.00  0.00     0.111 C 
BRANCH  10  11
ATOM     11  C   UNL     1      18.389  25.563  28.416  1.00  0.00     0.163 C 
ATOM     12  O   UNL     1      19.176  25.404  29.388  1.00  0.00    -0.294 OA
BRANCH  11  13
ATOM     13  C   UNL     1      16.942  25.820  28.681  1.00  0.00    -0.002 C 
ATOM     14  C   UNL     1      16.487  27.089  28.910  1.00  0.00    -0.069 C 
ATOM     15  C   UNL     1      15.062  27.365  29.335  1.00  0.00     0.039 C 
ATOM     16  C   UNL     1      17.396  28.288  28.749  1.00  0.00     0.039 C 
BRANCH  13  17
ATOM     17  C   UNL     1      16.026  24.610  28.779  1.00  0.00     0.066 CG0
ATOM     18  G   UNL     1      15.394  24.257  27.447  1.00  0.00     0.000 G0
ENDBRANCH  13  17
ENDBRANCH  11  13
ENDBRANCH  10  11
ENDBRANCH   1  10
TORSDOF 0
ENDMDL
MODEL 2
REMARK VINA RESULT:    -3.701      1.959      3.793
REMARK INTER + INTRA:          -5.032
REMARK INTER:                  -5.299
REMARK INTRA:                   0.267
REMARK UNBOUND:                 0.183
REMARK SMILES CC1=CCC(=C(C)C)C(=O)CC(C)=CCC1
REMARK SMILES IDX 12 1 14 2 13 3 15 4 16 5 2 6 1 7 3 8 11 10 9 11 10 12 5 13
REMARK SMILES IDX 6 14 7 15 8 16 4 17
REMARK H PARENT
REMARK Flexibility Score: 60.00
ROOT
ATOM      1  C   UNL     1      16.156  23.810  27.073  1.00  0.00    -0.070 C 
ATOM      2  C   UNL     1      16.809  22.794  26.467  1.00  0.00    -0.027 C 
ATOM      3  C   UNL     1      14.793  23.525  27.653  1.00  0.00     0.039 C 
ENDROOT
BRANCH   2   4
ATOM      4  C   UNL     1      18.135  22.903  25.743  1.00  0.00     0.032 C 
BRANCH   4   5
ATOM      5  C   UNL     1      19.372  22.950  26.663  1.00  0.00     0.034 C 
BRANCH   5   6
ATOM      6  C   UNL     1      20.261  24.154  26.407  1.00  0.00    -0.077 C 
ATOM      7  C   UNL     1      21.009  24.208  25.098  1.00  0.00     0.039 C 
ATOM      8  C   UNL     1      20.480  25.146  27.303  1.00  0.00    -0.023 CG0
ATOM      9  G   UNL     1      19.829  25.311  28.663  1.00  0.00     0.000 G0
ENDBRANCH   5   6
ENDBRANCH   4   5
ENDBRANCH   2   4
BRANCH   1  10
ATOM     10  C   UNL     1      16.681  25.231  27.114  1.00  0.00     0.111 C 
BRANCH  10  11
ATOM     11  C   UNL     1      17.264  25.568  28.459  1.00  0.00     0.163 C 
ATOM     12  O   UNL     1      16.568  25.335  29.484  1.00  0.00    -0.294 OA
BRANCH  11  13
ATOM     13  C   UNL     1      18.599  26.220  28.615  1.00  0.00    -0.002 C 
ATOM     14  C   UNL     1      18.716  27.582  28.629  1.00  0.00    -0.069 C 
ATOM     15  C   UNL     1      20.062  28.271  28.626  1.00  0.00     0.039 C 
ATOM     16  C   UNL     1      17.493  28.473  28.648  1.00  0.00     0.039 C 
BRANCH  13  17
ATOM     17  C   UNL     1      19.817  25.309  28.658  1.00  0.00     0.066 CG0
ATOM     18  G   UNL     1      20.468  25.154  27.297  1.00  0.00     0.000 G0
ENDBRANCH  13  17
ENDBRANCH  11  13
ENDBRANCH  10  11
ENDBRANCH   1  10
TORSDOF 0
ENDMDL
MODEL 3
REMARK VINA RESULT:    -3.654      1.902      3.822
REMARK INTER + INTRA:          -4.967
REMARK INTER:                  -5.240
REMARK INTRA:                   0.273
REMARK UNBOUND:                 0.183
REMARK SMILES CC1=CCC(=C(C)C)C(=O)CC(C)=CCC1
REMARK SMILES IDX 12 1 14 2 13 3 15 4 16 5 2 6 1 7 3 8 11 10 9 11 10 12 5 13
REMARK SMILES IDX 6 14 7 15 8 16 4 17
REMARK H PARENT
REMARK Flexibility Score: 60.00
ROOT
ATOM      1  C   UNL     1      16.917  23.169  26.411  1.00  0.00    -0.070 C 
ATOM      2  C   UNL     1      18.181  22.937  25.991  1.00  0.00    -0.027 C 
ATOM      3  C   UNL     1      15.791  22.875  25.453  1.00  0.00     0.039 C 
ENDROOT
BRANCH   2   4
ATOM      4  C   UNL     1      19.442  23.259  26.766  1.00  0.00     0.032 C 
BRANCH   4   5
ATOM      5  C   UNL     1      20.018  24.666  26.508  1.00  0.00     0.034 C 
BRANCH   5   6
ATOM      6  C   UNL     1      20.170  25.490  27.774  1.00  0.00    -0.077 C 
ATOM      7  C   UNL     1      21.368  25.217  28.649  1.00  0.00     0.039 C 
ATOM      8  C   UNL     1      19.267  26.405  28.203  1.00  0.00    -0.023 CG0
ATOM      9  G   UNL     1      18.010  26.856  27.484  1.00  0.00     0.000 G0
ENDBRANCH   5   6
ENDBRANCH   4   5
ENDBRANCH   2   4
BRANCH   1  10
ATOM     10  C   UNL     1      16.587  23.794  27.752  1.00  0.00     0.111 C 
BRANCH  10  11
ATOM     11  C   UNL     1      16.052  25.192  27.596  1.00  0.00     0.163 C 
ATOM     12  O   UNL     1      15.018  25.358  26.895  1.00  0.00    -0.294 OA
BRANCH  11  13
ATOM     13  C   UNL     1      16.734  26.382  28.187  1.00  0.00    -0.002 C 
ATOM     14  C   UNL     1      16.187  27.048  29.249  1.00  0.00    -0.069 C 
ATOM     15  C   UNL     1      16.768  28.344  29.768  1.00  0.00     0.039 C 
ATOM     16  C   UNL     1      14.962  26.516  29.960  1.00  0.00     0.039 C 
BRANCH  13  17
ATOM     17  C   UNL     1      18.001  26.870  27.500  1.00  0.00     0.066 CG0
ATOM     18  G   UNL     1      19.257  26.401  28.208  1.00  0.00     0.000 G0
ENDBRANCH  13  17
ENDBRANCH  11  13
ENDBRANCH  10  11
ENDBRANCH   1  10
TORSDOF 0
ENDMDL
MODEL 4
REMARK VINA RESULT:    -3.585      3.265      5.496
REMARK INTER + INTRA:          -4.869
REMARK INTER:                  -5.024
REMARK INTRA:                   0.155
REMARK UNBOUND:                 0.183
REMARK SMILES CC1=CCC(=C(C)C)C(=O)CC(C)=CCC1
REMARK SMILES IDX 12 1 14 2 13 3 15 4 16 5 2 6 1 7 3 8 11 10 9 11 10 12 5 13
REMARK SMILES IDX 6 14 7 15 8 16 4 17
REMARK H PARENT
REMARK Flexibility Score: 60.00
ROOT
ATOM      1  C   UNL     1      19.537  25.436  28.126  1.00  0.00    -0.070 C 
ATOM      2  C   UNL     1      20.884  25.548  28.132  1.00  0.00    -0.027 C 
ATOM      3  C   UNL     1      18.913  24.491  27.129  1.00  0.00     0.039 C 
ENDROOT
BRANCH   2   4
ATOM      4  C   UNL     1      21.686  26.509  28.985  1.00  0.00     0.032 C 
BRANCH   4   5
ATOM      5  C   UNL     1      21.691  27.968  28.485  1.00  0.00     0.034 C 
BRANCH   5   6
ATOM      6  C   UNL     1      21.339  28.972  29.568  1.00  0.00    -0.077 C 
ATOM      7  C   UNL     1      22.282  29.101  30.738  1.00  0.00     0.039 C 
ATOM      8  C   UNL     1      20.202  29.708  29.587  1.00  0.00    -0.023 CG0
ATOM      9  G   UNL     1      19.127  29.758  28.518  1.00  0.00     0.000 G0
ENDBRANCH   5   6
ENDBRANCH   4   5
ENDBRANCH   2   4
BRANCH   1  10
ATOM     10  C   UNL     1      18.628  26.275  29.000  1.00  0.00     0.111 C 
BRANCH  10  11
ATOM     11  C   UNL     1      18.035  27.430  28.237  1.00  0.00     0.163 C 
ATOM     12  O   UNL     1      17.645  27.224  27.056  1.00  0.00    -0.294 OA
BRANCH  11  13
ATOM     13  C   UNL     1      17.953  28.809  28.805  1.00  0.00    -0.002 C 
ATOM     14  C   UNL     1      16.840  29.222  29.483  1.00  0.00    -0.069 C 
ATOM     15  C   UNL     1      16.661  30.655  29.932  1.00  0.00     0.039 C 
ATOM     16  C   UNL     1      15.724  28.257  29.818  1.00  0.00     0.039 C 
BRANCH  13  17
ATOM     17  C   UNL     1      19.112  29.751  28.515  1.00  0.00     0.066 CG0
ATOM     18  G   UNL     1      20.181  29.697  29.589  1.00  0.00     0.000 G0
ENDBRANCH  13  17
ENDBRANCH  11  13
ENDBRANCH  10  11
ENDBRANCH   1  10
TORSDOF 0
ENDMDL
MODEL 5
REMARK VINA RESULT:    -3.561      3.449      5.469
REMARK INTER + INTRA:          -4.836
REMARK INTER:                  -5.003
REMARK INTRA:                   0.168
REMARK UNBOUND:                 0.183
REMARK SMILES CC1=CCC(=C(C)C)C(=O)CC(C)=CCC1
REMARK SMILES IDX 12 1 14 2 13 3 15 4 16 5 2 6 1 7 3 8 11 10 9 11 10 12 5 13
REMARK SMILES IDX 6 14 7 15 8 16 4 17
REMARK H PARENT
REMARK Flexibility Score: 60.00
ROOT
ATOM      1  C   UNL     1      20.618  30.586  29.664  1.00  0.00    -0.070 C 
ATOM      2  C   UNL     1      21.236  29.403  29.450  1.00  0.00    -0.027 C 
ATOM      3  C   UNL     1      21.330  31.610  30.512  1.00  0.00     0.039 C 
ENDROOT
BRANCH   2   4
ATOM      4  C   UNL     1      20.647  28.219  28.712  1.00  0.00     0.032 C 
BRANCH   4   5
ATOM      5  C   UNL     1      19.592  27.422  29.506  1.00  0.00     0.034 C 
BRANCH   5   6
ATOM      6  C   UNL     1      18.307  27.195  28.730  1.00  0.00    -0.077 C 
ATOM      7  C   UNL     1      18.387  26.381  27.463  1.00  0.00     0.039 C 
ATOM      8  C   UNL     1      17.108  27.732  29.064  1.00  0.00    -0.023 CG0
ATOM      9  G   UNL     1      16.787  28.559  30.294  1.00  0.00     0.000 G0
ENDBRANCH   5   6
ENDBRANCH   4   5
ENDBRANCH   2   4
BRANCH   1  10
ATOM     10  C   UNL     1      19.217  30.893  29.175  1.00  0.00     0.111 C 
BRANCH  10  11
ATOM     11  C   UNL     1      18.196  30.714  30.267  1.00  0.00     0.163 C 
ATOM     12  O   UNL     1      18.504  31.078  31.433  1.00  0.00    -0.294 OA
BRANCH  11  13
ATOM     13  C   UNL     1      16.870  30.069  30.027  1.00  0.00    -0.002 C 
ATOM     14  C   UNL     1      15.782  30.818  29.675  1.00  0.00    -0.069 C 
ATOM     15  C   UNL     1      14.396  30.220  29.580  1.00  0.00     0.039 C 
ATOM     16  C   UNL     1      15.912  32.292  29.363  1.00  0.00     0.039 C 
BRANCH  13  17
ATOM     17  C   UNL     1      16.768  28.573  30.284  1.00  0.00     0.066 CG0
ATOM     18  G   UNL     1      17.100  27.753  29.052  1.00  0.00     0.000 G0
ENDBRANCH  13  17
ENDBRANCH  11  13
ENDBRANCH  10  11
ENDBRANCH   1  10
TORSDOF 0
ENDMDL
MODEL 6
REMARK VINA RESULT:    -3.542      3.292      5.417
REMARK INTER + INTRA:          -4.809
REMARK INTER:                  -5.111
REMARK INTRA:                   0.302
REMARK UNBOUND:                 0.183
REMARK SMILES CC1=CCC(=C(C)C)C(=O)CC(C)=CCC1
REMARK SMILES IDX 12 1 14 2 13 3 15 4 16 5 2 6 1 7 3 8 11 10 9 11 10 12 5 13
REMARK SMILES IDX 6 14 7 15 8 16 4 17
REMARK H PARENT
REMARK Flexibility Score: 60.00
ROOT
ATOM      1  C   UNL     1      19.435  25.165  27.225  1.00  0.00    -0.070 C 
ATOM      2  C   UNL     1      18.214  25.663  27.522  1.00  0.00    -0.027 C 
ATOM      3  C   UNL     1      19.555  23.679  27.001  1.00  0.00     0.039 C 
ENDROOT
BRANCH   2   4
ATOM      4  C   UNL     1      17.910  27.104  27.875  1.00  0.00     0.032 C 
BRANCH   4   5
ATOM      5  C   UNL     1      17.701  27.372  29.379  1.00  0.00     0.034 C 
BRANCH   5   6
ATOM      6  C   UNL     1      18.320  28.677  29.846  1.00  0.00    -0.077 C 
ATOM      7  C   UNL     1      17.476  29.924  29.760  1.00  0.00     0.039 C 
ATOM      8  C   UNL     1      19.601  28.807  30.270  1.00  0.00    -0.023 CG0
ATOM      9  G   UNL     1      20.619  27.698  30.456  1.00  0.00     0.000 G0
ENDBRANCH   5   6
ENDBRANCH   4   5
ENDBRANCH   2   4
BRANCH   1  10
ATOM     10  C   UNL     1      20.694  26.008  27.200  1.00  0.00     0.111 C 
BRANCH  10  11
ATOM     11  C   UNL     1      21.312  26.126  28.568  1.00  0.00     0.163 C 
ATOM     12  O   UNL     1      21.642  25.064  29.163  1.00  0.00    -0.294 OA
BRANCH  11  13
ATOM     13  C   UNL     1      21.487  27.438  29.259  1.00  0.00    -0.002 C 
ATOM     14  C   UNL     1      22.446  28.322  28.849  1.00  0.00    -0.069 C 
ATOM     15  C   UNL     1      22.753  29.586  29.621  1.00  0.00     0.039 C 
ATOM     16  C   UNL     1      23.252  28.077  27.592  1.00  0.00     0.039 C 
BRANCH  13  17
ATOM     17  C   UNL     1      20.625  27.699  30.484  1.00  0.00     0.066 CG0
ATOM     18  G   UNL     1      19.619  28.810  30.254  1.00  0.00     0.000 G0
ENDBRANCH  13  17
ENDBRANCH  11  13
ENDBRANCH  10  11
ENDBRANCH   1  10
TORSDOF 0
ENDMDL
MODEL 7
REMARK VINA RESULT:    -3.540      3.055      5.149
REMARK INTER + INTRA:          -4.806
REMARK INTER:                  -5.122
REMARK INTRA:                   0.317
REMARK UNBOUND:                 0.183
REMARK SMILES CC1=CCC(=C(C)C)C(=O)CC(C)=CCC1
REMARK SMILES IDX 12 1 14 2 13 3 15 4 16 5 2 6 1 7 3 8 11 10 9 11 10 12 5 13
REMARK SMILES IDX 6 14 7 15 8 16 4 17
REMARK H PARENT
REMARK Flexibility Score: 60.00
ROOT
ATOM      1  C   UNL     1      18.041  25.665  27.645  1.00  0.00    -0.070 C 
ATOM      2  C   UNL     1      19.154  24.911  27.511  1.00  0.00    -0.027 C 
ATOM      3  C   UNL     1      16.707  24.961  27.627  1.00  0.00     0.039 C 
ENDROOT
BRANCH   2   4
ATOM      4  C   UNL     1      20.570  25.438  27.408  1.00  0.00     0.032 C 
BRANCH   4   5
ATOM      5  C   UNL     1      21.201  25.866  28.748  1.00  0.00     0.034 C 
BRANCH   5   6
ATOM      6  C   UNL     1      21.671  27.310  28.754  1.00  0.00    -0.077 C 
ATOM      7  C   UNL     1      22.865  27.662  27.904  1.00  0.00     0.039 C 
ATOM      8  C   UNL     1      21.131  28.286  29.524  1.00  0.00    -0.023 CG0
ATOM      9  G   UNL     1      19.923  28.170  30.434  1.00  0.00     0.000 G0
ENDBRANCH   5   6
ENDBRANCH   4   5
ENDBRANCH   2   4
BRANCH   1  10
ATOM     10  C   UNL     1      18.063  27.179  27.715  1.00  0.00     0.111 C 
BRANCH  10  11
ATOM     11  C   UNL     1      17.778  27.674  29.108  1.00  0.00     0.163 C 
ATOM     12  O   UNL     1      16.738  27.257  29.685  1.00  0.00    -0.294 OA
BRANCH  11  13
ATOM     13  C   UNL     1      18.644  28.678  29.795  1.00  0.00    -0.002 C 
ATOM     14  C   UNL     1      18.337  30.010  29.756  1.00  0.00    -0.069 C 
ATOM     15  C   UNL     1      19.272  31.064  30.305  1.00  0.00     0.039 C 
ATOM     16  C   UNL     1      17.036  30.497  29.157  1.00  0.00     0.039 C 
BRANCH  13  17
ATOM     17  C   UNL     1      19.918  28.167  30.449  1.00  0.00     0.066 CG0
ATOM     18  G   UNL     1      21.123  28.290  29.536  1.00  0.00     0.000 G0
ENDBRANCH  13  17
ENDBRANCH  11  13
ENDBRANCH  10  11
ENDBRANCH   1  10
TORSDOF 0
ENDMDL
MODEL 8
REMARK VINA RESULT:    -3.371      3.023      4.655
REMARK INTER + INTRA:          -4.568
REMARK INTER:                  -4.841
REMARK INTRA:                   0.273
REMARK UNBOUND:                 0.183
REMARK SMILES CC1=CCC(=C(C)C)C(=O)CC(C)=CCC1
REMARK SMILES IDX 12 1 14 2 13 3 15 4 16 5 2 6 1 7 3 8 11 10 9 11 10 12 5 13
REMARK SMILES IDX 6 14 7 15 8 16 4 17
REMARK H PARENT
REMARK Flexibility Score: 60.00
ROOT
ATOM      1  C   UNL     1      20.121  25.225  28.149  1.00  0.00    -0.070 C 
ATOM      2  C   UNL     1      18.835  25.001  27.801  1.00  0.00    -0.027 C 
ATOM      3  C   UNL     1      21.193  24.446  27.429  1.00  0.00     0.039 C 
ENDROOT
BRANCH   2   4
ATOM      4  C   UNL     1      17.619  25.608  28.470  1.00  0.00     0.032 C 
BRANCH   4   5
ATOM      5  C   UNL     1      17.161  26.956  27.879  1.00  0.00     0.034 C 
BRANCH   5   6
ATOM      6  C   UNL     1      16.954  28.031  28.931  1.00  0.00    -0.077 C 
ATOM      7  C   UNL     1      15.682  27.984  29.740  1.00  0.00     0.039 C 
ATOM      8  C   UNL     1      17.802  29.066  29.143  1.00  0.00    -0.023 CG0
ATOM      9  G   UNL     1      19.139  29.306  28.468  1.00  0.00     0.000 G0
ENDBRANCH   5   6
ENDBRANCH   4   5
ENDBRANCH   2   4
BRANCH   1  10
ATOM     10  C   UNL     1      20.528  26.144  29.284  1.00  0.00     0.111 C 
BRANCH  10  11
ATOM     11  C   UNL     1      20.934  27.503  28.780  1.00  0.00     0.163 C 
ATOM     12  O   UNL     1      21.876  27.569  27.945  1.00  0.00    -0.294 OA
BRANCH  11  13
ATOM     13  C   UNL     1      20.305  28.763  29.277  1.00  0.00    -0.002 C 
ATOM     14  C   UNL     1      20.716  29.335  30.449  1.00  0.00    -0.069 C 
ATOM     15  C   UNL     1      19.998  30.519  31.057  1.00  0.00     0.039 C 
ATOM     16  C   UNL     1      21.919  28.807  31.199  1.00  0.00     0.039 C 
BRANCH  13  17
ATOM     17  C   UNL     1      19.137  29.320  28.478  1.00  0.00     0.066 CG0
ATOM     18  G   UNL     1      17.803  29.060  29.151  1.00  0.00     0.000 G0
ENDBRANCH  13  17
ENDBRANCH  11  13
ENDBRANCH  10  11
ENDBRANCH   1  10
TORSDOF 0
ENDMDL
MODEL 9
REMARK VINA RESULT:    -3.316      4.140      7.076
REMARK INTER + INTRA:          -4.489
REMARK INTER:                  -4.626
REMARK INTRA:                   0.137
REMARK UNBOUND:                 0.183
REMARK SMILES CC1=CCC(=C(C)C)C(=O)CC(C)=CCC1
REMARK SMILES IDX 12 1 14 2 13 3 15 4 16 5 2 6 1 7 3 8 11 10 9 11 10 12 5 13
REMARK SMILES IDX 6 14 7 15 8 16 4 17
REMARK H PARENT
REMARK Flexibility Score: 60.00
ROOT
ATOM      1  C   UNL     1      17.772  27.775  28.546  1.00  0.00    -0.070 C 
ATOM      2  C   UNL     1      16.869  28.597  29.127  1.00  0.00    -0.027 C 
ATOM      3  C   UNL     1      17.345  26.360  28.246  1.00  0.00     0.039 C 
ENDROOT
BRANCH   2   4
ATOM      4  C   UNL     1      17.136  30.014  29.592  1.00  0.00     0.032 C 
BRANCH   4   5
ATOM      5  C   UNL     1      17.810  30.124  30.975  1.00  0.00     0.034 C 
BRANCH   5   6
ATOM      6  C   UNL     1      19.017  31.046  30.979  1.00  0.00    -0.077 C 
ATOM      7  C   UNL     1      18.772  32.523  30.796  1.00  0.00     0.039 C 
ATOM      8  C   UNL     1      20.301  30.623  31.068  1.00  0.00    -0.023 CG0
ATOM      9  G   UNL     1      20.783  29.200  31.276  1.00  0.00     0.000 G0
ENDBRANCH   5   6
ENDBRANCH   4   5
ENDBRANCH   2   4
BRANCH   1  10
ATOM     10  C   UNL     1      19.207  28.177  28.271  1.00  0.00     0.111 C 
BRANCH  10  11
ATOM     11  C   UNL     1      20.141  27.660  29.333  1.00  0.00     0.163 C 
ATOM     12  O   UNL     1      19.997  26.470  29.723  1.00  0.00    -0.294 OA
BRANCH  11  13
ATOM     13  C   UNL     1      21.179  28.520  29.975  1.00  0.00    -0.002 C 
ATOM     14  C   UNL     1      22.439  28.608  29.450  1.00  0.00    -0.069 C 
ATOM     15  C   UNL     1      23.554  29.342  30.160  1.00  0.00     0.039 C 
ATOM     16  C   UNL     1      22.780  27.969  28.122  1.00  0.00     0.039 C 
BRANCH  13  17
ATOM     17  C   UNL     1      20.803  29.209  31.278  1.00  0.00     0.066 CG0
ATOM     18  G   UNL     1      20.299  30.622  31.059  1.00  0.00     0.000 G0
ENDBRANCH  13  17
ENDBRANCH  11  13
ENDBRANCH  10  11
ENDBRANCH   1  10
TORSDOF 0
ENDMDL
