MODEL 1
REMARK VINA RESULT:    -4.971      0.000      0.000
REMARK INTER + INTRA:          -5.624
REMARK INTER:                  -5.407
REMARK INTRA:                  -0.217
REMARK UNBOUND:                -0.217
REMARK SMILES O=C([O-])c1ccccc1O
REMARK SMILES IDX 4 1 9 2 5 3 8 4 6 5 7 6 2 7 1 8 3 9 10 10
REMARK H PARENT 10 11
REMARK Flexibility Score: inf
ROOT
ATOM      1  C   UNL     1       8.045  24.305 -11.799  1.00  0.00     0.039 A 
ATOM      2  C   UNL     1       7.047  24.915 -12.597  1.00  0.00     0.124 A 
ATOM      3  C   UNL     1       9.290  24.948 -11.660  1.00  0.00     0.014 A 
ATOM      4  C   UNL     1       7.312  26.139 -13.233  1.00  0.00     0.047 A 
ATOM      5  C   UNL     1       9.540  26.166 -12.297  1.00  0.00     0.001 A 
ATOM      6  C   UNL     1       8.552  26.760 -13.082  1.00  0.00     0.004 A 
ENDROOT
BRANCH   1   7
ATOM      7  C   UNL     1       7.814  23.012 -11.106  1.00  0.00     0.075 C 
ATOM      8  O   UNL     1       8.496  21.992 -11.390  1.00  0.00    -0.545 OA
ATOM      9  O   UNL     1       6.833  22.906 -10.126  1.00  0.00    -0.545 OA
ENDBRANCH   1   7
BRANCH   2  10
ATOM     10  O   UNL     1       5.799  24.316 -12.763  1.00  0.00    -0.507 OA
ATOM     11  H   UNL     1       5.235  24.478 -13.589  1.00  0.00     0.293 HD
ENDBRANCH   2  10
TORSDOF 2
ENDMDL
MODEL 2
REMARK VINA RESULT:    -4.964      1.708      2.240
REMARK INTER + INTRA:          -5.616
REMARK INTER:                  -5.425
REMARK INTRA:                  -0.191
REMARK UNBOUND:                -0.217
REMARK SMILES O=C([O-])c1ccccc1O
REMARK SMILES IDX 4 1 9 2 5 3 8 4 6 5 7 6 2 7 1 8 3 9 10 10
REMARK H PARENT 10 11
REMARK Flexibility Score: inf
ROOT
ATOM      1  C   UNL     1       8.609  25.830 -13.076  1.00  0.00     0.039 A 
ATOM      2  C   UNL     1       7.263  26.264 -13.127  1.00  0.00     0.124 A 
ATOM      3  C   UNL     1       9.632  26.795 -13.001  1.00  0.00     0.014 A 
ATOM      4  C   UNL     1       6.970  27.637 -13.104  1.00  0.00     0.047 A 
ATOM      5  C   UNL     1       9.326  28.158 -12.978  1.00  0.00     0.001 A 
ATOM      6  C   UNL     1       7.997  28.578 -13.029  1.00  0.00     0.004 A 
ENDROOT
BRANCH   1   7
ATOM      7  C   UNL     1       8.972  24.389 -13.099  1.00  0.00     0.075 C 
ATOM      8  O   UNL     1       9.578  23.887 -14.081  1.00  0.00    -0.545 OA
ATOM      9  O   UNL     1       8.643  23.567 -12.026  1.00  0.00    -0.545 OA
ENDBRANCH   1   7
BRANCH   2  10
ATOM     10  O   UNL     1       6.218  25.343 -13.202  1.00  0.00    -0.507 OA
ATOM     11  H   UNL     1       5.306  25.537 -12.804  1.00  0.00     0.293 HD
ENDBRANCH   2  10
TORSDOF 2
ENDMDL
MODEL 3
REMARK VINA RESULT:    -4.927     16.063     17.517
REMARK INTER + INTRA:          -5.576
REMARK INTER:                  -5.360
REMARK INTRA:                  -0.216
REMARK UNBOUND:                -0.217
REMARK SMILES O=C([O-])c1ccccc1O
REMARK SMILES IDX 4 1 9 2 5 3 8 4 6 5 7 6 2 7 1 8 3 9 10 10
REMARK H PARENT 10 11
REMARK Flexibility Score: inf
ROOT
ATOM      1  C   UNL     1      -6.672  32.439 -17.127  1.00  0.00     0.039 A 
ATOM      2  C   UNL     1      -6.780  32.651 -18.522  1.00  0.00     0.124 A 
ATOM      3  C   UNL     1      -5.509  31.827 -16.621  1.00  0.00     0.014 A 
ATOM      4  C   UNL     1      -5.737  32.251 -19.373  1.00  0.00     0.047 A 
ATOM      5  C   UNL     1      -4.478  31.435 -17.479  1.00  0.00     0.001 A 
ATOM      6  C   UNL     1      -4.593  31.647 -18.853  1.00  0.00     0.004 A 
ENDROOT
BRANCH   1   7
ATOM      7  C   UNL     1      -7.747  32.843 -16.185  1.00  0.00     0.075 C 
ATOM      8  O   UNL     1      -8.547  33.772 -16.472  1.00  0.00    -0.545 OA
ATOM      9  O   UNL     1      -7.886  32.197 -14.962  1.00  0.00    -0.545 OA
ENDBRANCH   1   7
BRANCH   2  10
ATOM     10  O   UNL     1      -7.913  33.253 -19.068  1.00  0.00    -0.507 OA
ATOM     11  H   UNL     1      -8.231  33.042 -20.007  1.00  0.00     0.293 HD
ENDBRANCH   2  10
TORSDOF 2
ENDMDL
MODEL 4
REMARK VINA RESULT:    -4.886      2.368      3.627
REMARK INTER + INTRA:          -5.531
REMARK INTER:                  -5.283
REMARK INTRA:                  -0.249
REMARK UNBOUND:                -0.217
REMARK SMILES O=C([O-])c1ccccc1O
REMARK SMILES IDX 4 1 9 2 5 3 8 4 6 5 7 6 2 7 1 8 3 9 10 10
REMARK H PARENT 10 11
REMARK Flexibility Score: inf
ROOT
ATOM      1  C   UNL     1       8.535  25.476 -12.567  1.00  0.00     0.039 A 
ATOM      2  C   UNL     1       7.147  25.226 -12.684  1.00  0.00     0.124 A 
ATOM      3  C   UNL     1       9.272  24.777 -11.592  1.00  0.00     0.014 A 
ATOM      4  C   UNL     1       6.531  24.294 -11.833  1.00  0.00     0.047 A 
ATOM      5  C   UNL     1       8.646  23.851 -10.753  1.00  0.00     0.001 A 
ATOM      6  C   UNL     1       7.278  23.610 -10.874  1.00  0.00     0.004 A 
ENDROOT
BRANCH   1   7
ATOM      7  C   UNL     1       9.233  26.452 -13.442  1.00  0.00     0.075 C 
ATOM      8  O   UNL     1       8.811  27.632 -13.567  1.00  0.00    -0.545 OA
ATOM      9  O   UNL     1      10.374  26.075 -14.143  1.00  0.00    -0.545 OA
ENDBRANCH   1   7
BRANCH   2  10
ATOM     10  O   UNL     1       6.377  25.895 -13.635  1.00  0.00    -0.507 OA
ATOM     11  H   UNL     1       6.573  26.852 -13.903  1.00  0.00     0.293 HD
ENDBRANCH   2  10
TORSDOF 2
ENDMDL
MODEL 5
REMARK VINA RESULT:    -4.882     15.403     17.197
REMARK INTER + INTRA:          -5.527
REMARK INTER:                  -5.277
REMARK INTRA:                  -0.249
REMARK UNBOUND:                -0.217
REMARK SMILES O=C([O-])c1ccccc1O
REMARK SMILES IDX 4 1 9 2 5 3 8 4 6 5 7 6 2 7 1 8 3 9 10 10
REMARK H PARENT 10 11
REMARK Flexibility Score: inf
ROOT
ATOM      1  C   UNL     1      -6.263  32.833 -17.503  1.00  0.00     0.039 A 
ATOM      2  C   UNL     1      -5.748  31.671 -16.879  1.00  0.00     0.124 A 
ATOM      3  C   UNL     1      -5.363  33.751 -18.077  1.00  0.00     0.014 A 
ATOM      4  C   UNL     1      -4.362  31.454 -16.842  1.00  0.00     0.047 A 
ATOM      5  C   UNL     1      -3.985  33.521 -18.034  1.00  0.00     0.001 A 
ATOM      6  C   UNL     1      -3.486  32.375 -17.417  1.00  0.00     0.004 A 
ENDROOT
BRANCH   1   7
ATOM      7  C   UNL     1      -7.721  33.109 -17.568  1.00  0.00     0.075 C 
ATOM      8  O   UNL     1      -8.437  33.070 -16.534  1.00  0.00    -0.545 OA
ATOM      9  O   UNL     1      -8.322  33.416 -18.785  1.00  0.00    -0.545 OA
ENDBRANCH   1   7
BRANCH   2  10
ATOM     10  O   UNL     1      -6.602  30.734 -16.297  1.00  0.00    -0.507 OA
ATOM     11  H   UNL     1      -7.545  30.975 -16.013  1.00  0.00     0.293 HD
ENDBRANCH   2  10
TORSDOF 2
ENDMDL
MODEL 6
REMARK VINA RESULT:    -4.856     16.151     17.393
REMARK INTER + INTRA:          -5.499
REMARK INTER:                  -5.244
REMARK INTRA:                  -0.255
REMARK UNBOUND:                -0.217
REMARK SMILES O=C([O-])c1ccccc1O
REMARK SMILES IDX 4 1 9 2 5 3 8 4 6 5 7 6 2 7 1 8 3 9 10 10
REMARK H PARENT 10 11
REMARK Flexibility Score: inf
ROOT
ATOM      1  C   UNL     1      -6.043  32.580 -17.893  1.00  0.00     0.039 A 
ATOM      2  C   UNL     1      -6.197  31.771 -16.742  1.00  0.00     0.124 A 
ATOM      3  C   UNL     1      -6.997  33.583 -18.151  1.00  0.00     0.014 A 
ATOM      4  C   UNL     1      -7.289  31.977 -15.884  1.00  0.00     0.047 A 
ATOM      5  C   UNL     1      -8.078  33.778 -17.288  1.00  0.00     0.001 A 
ATOM      6  C   UNL     1      -8.223  32.976 -16.156  1.00  0.00     0.004 A 
ENDROOT
BRANCH   1   7
ATOM      7  C   UNL     1      -4.906  32.402 -18.832  1.00  0.00     0.075 C 
ATOM      8  O   UNL     1      -4.234  33.388 -19.235  1.00  0.00    -0.545 OA
ATOM      9  O   UNL     1      -4.563  31.132 -19.285  1.00  0.00    -0.545 OA
ENDBRANCH   1   7
BRANCH   2  10
ATOM     10  O   UNL     1      -5.276  30.766 -16.446  1.00  0.00    -0.507 OA
ATOM     11  H   UNL     1      -5.172  29.948 -17.035  1.00  0.00     0.293 HD
ENDBRANCH   2  10
TORSDOF 2
ENDMDL
MODEL 7
REMARK VINA RESULT:    -4.788      2.442      4.124
REMARK INTER + INTRA:          -5.425
REMARK INTER:                  -5.178
REMARK INTRA:                  -0.246
REMARK UNBOUND:                -0.217
REMARK SMILES O=C([O-])c1ccccc1O
REMARK SMILES IDX 4 1 9 2 5 3 8 4 6 5 7 6 2 7 1 8 3 9 10 10
REMARK H PARENT 10 11
REMARK Flexibility Score: inf
ROOT
ATOM      1  C   UNL     1       8.226  27.138 -13.041  1.00  0.00     0.039 A 
ATOM      2  C   UNL     1       7.629  25.855 -13.045  1.00  0.00     0.124 A 
ATOM      3  C   UNL     1       9.578  27.257 -12.666  1.00  0.00     0.014 A 
ATOM      4  C   UNL     1       8.386  24.731 -12.678  1.00  0.00     0.047 A 
ATOM      5  C   UNL     1      10.320  26.130 -12.304  1.00  0.00     0.001 A 
ATOM      6  C   UNL     1       9.724  24.869 -12.311  1.00  0.00     0.004 A 
ENDROOT
BRANCH   1   7
ATOM      7  C   UNL     1       7.468  28.358 -13.420  1.00  0.00     0.075 C 
ATOM      8  O   UNL     1       7.644  29.447 -12.813  1.00  0.00    -0.545 OA
ATOM      9  O   UNL     1       6.545  28.315 -14.460  1.00  0.00    -0.545 OA
ENDBRANCH   1   7
BRANCH   2  10
ATOM     10  O   UNL     1       6.293  25.689 -13.409  1.00  0.00    -0.507 OA
ATOM     11  H   UNL     1       5.825  24.793 -13.331  1.00  0.00     0.293 HD
ENDBRANCH   2  10
TORSDOF 2
ENDMDL
MODEL 8
REMARK VINA RESULT:    -4.744      1.633      2.510
REMARK INTER + INTRA:          -5.376
REMARK INTER:                  -5.131
REMARK INTRA:                  -0.246
REMARK UNBOUND:                -0.217
REMARK SMILES O=C([O-])c1ccccc1O
REMARK SMILES IDX 4 1 9 2 5 3 8 4 6 5 7 6 2 7 1 8 3 9 10 10
REMARK H PARENT 10 11
REMARK Flexibility Score: inf
ROOT
ATOM      1  C   UNL     1       8.150  25.424 -12.406  1.00  0.00     0.039 A 
ATOM      2  C   UNL     1       9.413  26.058 -12.471  1.00  0.00     0.124 A 
ATOM      3  C   UNL     1       7.012  26.129 -12.843  1.00  0.00     0.014 A 
ATOM      4  C   UNL     1       9.512  27.370 -12.962  1.00  0.00     0.047 A 
ATOM      5  C   UNL     1       7.125  27.433 -13.331  1.00  0.00     0.001 A 
ATOM      6  C   UNL     1       8.374  28.052 -13.390  1.00  0.00     0.004 A 
ENDROOT
BRANCH   1   7
ATOM      7  C   UNL     1       7.992  24.038 -11.894  1.00  0.00     0.075 C 
ATOM      8  O   UNL     1       8.824  23.139 -12.184  1.00  0.00    -0.545 OA
ATOM      9  O   UNL     1       6.913  23.711 -11.080  1.00  0.00    -0.545 OA
ENDBRANCH   1   7
BRANCH   2  10
ATOM     10  O   UNL     1      10.567  25.398 -12.050  1.00  0.00    -0.507 OA
ATOM     11  H   UNL     1      11.437  25.892 -11.890  1.00  0.00     0.293 HD
ENDBRANCH   2  10
TORSDOF 2
ENDMDL
MODEL 9
REMARK VINA RESULT:    -4.727     15.827     17.359
REMARK INTER + INTRA:          -5.358
REMARK INTER:                  -5.108
REMARK INTRA:                  -0.250
REMARK UNBOUND:                -0.217
REMARK SMILES O=C([O-])c1ccccc1O
REMARK SMILES IDX 4 1 9 2 5 3 8 4 6 5 7 6 2 7 1 8 3 9 10 10
REMARK H PARENT 10 11
REMARK Flexibility Score: inf
ROOT
ATOM      1  C   UNL     1      -6.253  32.740 -17.892  1.00  0.00     0.039 A 
ATOM      2  C   UNL     1      -5.254  33.373 -17.115  1.00  0.00     0.124 A 
ATOM      3  C   UNL     1      -5.867  31.755 -18.822  1.00  0.00     0.014 A 
ATOM      4  C   UNL     1      -3.906  33.015 -17.282  1.00  0.00     0.047 A 
ATOM      5  C   UNL     1      -4.523  31.407 -18.976  1.00  0.00     0.001 A 
ATOM      6  C   UNL     1      -3.545  32.036 -18.207  1.00  0.00     0.004 A 
ENDROOT
BRANCH   1   7
ATOM      7  C   UNL     1      -7.691  33.084 -17.753  1.00  0.00     0.075 C 
ATOM      8  O   UNL     1      -8.383  33.401 -18.756  1.00  0.00    -0.545 OA
ATOM      9  O   UNL     1      -8.300  33.060 -16.503  1.00  0.00    -0.545 OA
ENDBRANCH   1   7
BRANCH   2  10
ATOM     10  O   UNL     1      -5.589  34.354 -16.182  1.00  0.00    -0.507 OA
ATOM     11  H   UNL     1      -5.005  34.547 -15.376  1.00  0.00     0.293 HD
ENDBRANCH   2  10
TORSDOF 2
ENDMDL
