MODEL 1
REMARK VINA RESULT:    -4.680      0.000      0.000
REMARK INTER + INTRA:          -5.764
REMARK INTER:                  -5.501
REMARK INTRA:                  -0.264
REMARK UNBOUND:                -0.264
REMARK SMILES O=c1cc(-c2ccc(O)c(O)c2)oc2cc(O)cc(O)c12
REMARK SMILES IDX 4 1 3 2 2 3 1 4 21 5 19 6 18 7 16 8 15 9 14 10 13 11 5 12
REMARK SMILES IDX 6 13 7 14 8 15 12 16 10 17 9 18 11 20 20 22 17 24
REMARK H PARENT 9 19 11 21 20 23 17 25
REMARK Flexibility Score: inf
ROOT
ATOM      1  C   UNL     1       5.365  11.712   8.475  1.00  0.00     0.138 A 
ATOM      2  C   UNL     1       6.459  12.292   9.134  1.00  0.00     0.100 A 
ATOM      3  C   UNL     1       7.634  12.548   8.426  1.00  0.00     0.197 A 
ATOM      4  O   UNL     1       8.576  13.125   9.029  1.00  0.00    -0.289 OA
ATOM      5  C   UNL     1       7.724  12.193   7.059  1.00  0.00     0.107 A 
ATOM      6  C   UNL     1       8.885  12.369   6.249  1.00  0.00     0.134 A 
ATOM      7  C   UNL     1       8.819  12.086   4.878  1.00  0.00     0.093 A 
ATOM      8  C   UNL     1       7.655  11.579   4.302  1.00  0.00     0.123 A 
ATOM      9  C   UNL     1       6.530  11.352   5.096  1.00  0.00     0.094 A 
ATOM     10  C   UNL     1       6.554  11.656   6.460  1.00  0.00     0.146 A 
ATOM     11  O   UNL     1       5.457  11.439   7.179  1.00  0.00    -0.456 OA
ENDROOT
BRANCH   1  12
ATOM     12  C   UNL     1       4.091  11.418   9.180  1.00  0.00     0.021 A 
ATOM     13  C   UNL     1       3.880  10.195   9.845  1.00  0.00     0.016 A 
ATOM     14  C   UNL     1       2.667   9.941  10.491  1.00  0.00     0.051 A 
ATOM     15  C   UNL     1       1.644  10.897  10.478  1.00  0.00     0.157 A 
ATOM     16  C   UNL     1       3.055  12.367   9.160  1.00  0.00     0.062 A 
ATOM     17  C   UNL     1       1.840  12.114   9.807  1.00  0.00     0.158 A 
BRANCH  15  18
ATOM     18  O   UNL     1       0.436  10.640  11.125  1.00  0.00    -0.504 OA
ATOM     19  H   UNL     1      -0.431  11.065  10.818  1.00  0.00     0.293 HD
ENDBRANCH  15  18
BRANCH  17  20
ATOM     20  O   UNL     1       0.839  13.086   9.773  1.00  0.00    -0.504 OA
ATOM     21  H   UNL     1       0.596  13.637  10.588  1.00  0.00     0.293 HD
ENDBRANCH  17  20
ENDBRANCH   1  12
BRANCH   6  22
ATOM     22  O   UNL     1      10.125  12.790   6.740  1.00  0.00    -0.507 OA
ATOM     23  H   UNL     1      10.897  13.096   6.169  1.00  0.00     0.293 HD
ENDBRANCH   6  22
BRANCH   8  24
ATOM     24  O   UNL     1       7.631  11.296   2.938  1.00  0.00    -0.508 OA
ATOM     25  H   UNL     1       7.029  11.805   2.302  1.00  0.00     0.293 HD
ENDBRANCH   8  24
TORSDOF 5
ENDMDL
MODEL 2
REMARK VINA RESULT:    -4.451      0.602      1.454
REMARK INTER + INTRA:          -5.495
REMARK INTER:                  -5.230
REMARK INTRA:                  -0.265
REMARK UNBOUND:                -0.264
REMARK SMILES O=c1cc(-c2ccc(O)c(O)c2)oc2cc(O)cc(O)c12
REMARK SMILES IDX 4 1 3 2 2 3 1 4 21 5 19 6 18 7 16 8 15 9 14 10 13 11 5 12
REMARK SMILES IDX 6 13 7 14 8 15 12 16 10 17 9 18 11 20 20 22 17 24
REMARK H PARENT 9 19 11 21 20 23 17 25
REMARK Flexibility Score: inf
ROOT
ATOM      1  C   UNL     1       5.282  11.925   8.397  1.00  0.00     0.138 A 
ATOM      2  C   UNL     1       6.409  12.433   9.058  1.00  0.00     0.100 A 
ATOM      3  C   UNL     1       7.602  12.606   8.356  1.00  0.00     0.197 A 
ATOM      4  O   UNL     1       8.578  13.121   8.960  1.00  0.00    -0.289 OA
ATOM      5  C   UNL     1       7.675  12.239   6.991  1.00  0.00     0.107 A 
ATOM      6  C   UNL     1       8.848  12.332   6.185  1.00  0.00     0.134 A 
ATOM      7  C   UNL     1       8.770  12.047   4.816  1.00  0.00     0.093 A 
ATOM      8  C   UNL     1       7.577  11.617   4.236  1.00  0.00     0.123 A 
ATOM      9  C   UNL     1       6.436  11.470   5.026  1.00  0.00     0.094 A 
ATOM     10  C   UNL     1       6.473  11.779   6.388  1.00  0.00     0.146 A 
ATOM     11  O   UNL     1       5.361  11.639   7.102  1.00  0.00    -0.456 OA
ENDROOT
BRANCH   1  12
ATOM     12  C   UNL     1       3.988  11.721   9.097  1.00  0.00     0.021 A 
ATOM     13  C   UNL     1       3.080  12.778   9.295  1.00  0.00     0.016 A 
ATOM     14  C   UNL     1       1.874  12.559   9.966  1.00  0.00     0.051 A 
ATOM     15  C   UNL     1       1.558  11.286  10.457  1.00  0.00     0.157 A 
ATOM     16  C   UNL     1       3.669  10.449   9.604  1.00  0.00     0.062 A 
ATOM     17  C   UNL     1       2.462  10.228  10.276  1.00  0.00     0.158 A 
BRANCH  15  18
ATOM     18  O   UNL     1       0.353  11.072  11.125  1.00  0.00    -0.504 OA
ATOM     19  H   UNL     1      -0.145  10.192  11.051  1.00  0.00     0.293 HD
ENDBRANCH  15  18
BRANCH  17  20
ATOM     20  O   UNL     1       2.178   8.949  10.756  1.00  0.00    -0.504 OA
ATOM     21  H   UNL     1       2.188   8.134  10.154  1.00  0.00     0.293 HD
ENDBRANCH  17  20
ENDBRANCH   1  12
BRANCH   6  22
ATOM     22  O   UNL     1      10.111  12.671   6.681  1.00  0.00    -0.507 OA
ATOM     23  H   UNL     1      10.958  12.692   6.134  1.00  0.00     0.293 HD
ENDBRANCH   6  22
BRANCH   8  24
ATOM     24  O   UNL     1       7.540  11.329   2.874  1.00  0.00    -0.508 OA
ATOM     25  H   UNL     1       6.669  11.118   2.400  1.00  0.00     0.293 HD
ENDBRANCH   8  24
TORSDOF 5
ENDMDL
MODEL 3
REMARK VINA RESULT:    -2.705      1.866      6.930
REMARK INTER + INTRA:          -3.443
REMARK INTER:                  -3.152
REMARK INTRA:                  -0.290
REMARK UNBOUND:                -0.264
REMARK SMILES O=c1cc(-c2ccc(O)c(O)c2)oc2cc(O)cc(O)c12
REMARK SMILES IDX 4 1 3 2 2 3 1 4 21 5 19 6 18 7 16 8 15 9 14 10 13 11 5 12
REMARK SMILES IDX 6 13 7 14 8 15 12 16 10 17 9 18 11 20 20 22 17 24
REMARK H PARENT 9 19 11 21 20 23 17 25
REMARK Flexibility Score: inf
ROOT
ATOM      1  C   UNL     1       5.993  11.727   7.214  1.00  0.00     0.138 A 
ATOM      2  C   UNL     1       5.460  12.663   8.111  1.00  0.00     0.100 A 
ATOM      3  C   UNL     1       4.434  12.282   8.977  1.00  0.00     0.197 A 
ATOM      4  O   UNL     1       4.018  13.125   9.812  1.00  0.00    -0.289 OA
ATOM      5  C   UNL     1       3.919  10.964   8.921  1.00  0.00     0.107 A 
ATOM      6  C   UNL     1       2.847  10.476   9.725  1.00  0.00     0.134 A 
ATOM      7  C   UNL     1       2.499   9.121   9.664  1.00  0.00     0.093 A 
ATOM      8  C   UNL     1       3.144   8.251   8.785  1.00  0.00     0.123 A 
ATOM      9  C   UNL     1       4.157   8.729   7.953  1.00  0.00     0.094 A 
ATOM     10  C   UNL     1       4.550  10.069   8.017  1.00  0.00     0.146 A 
ATOM     11  O   UNL     1       5.530  10.482   7.219  1.00  0.00    -0.456 OA
ENDROOT
BRANCH   1  12
ATOM     12  C   UNL     1       7.085  12.079   6.270  1.00  0.00     0.021 A 
ATOM     13  C   UNL     1       8.222  12.798   6.690  1.00  0.00     0.016 A 
ATOM     14  C   UNL     1       9.228  13.125   5.778  1.00  0.00     0.051 A 
ATOM     15  C   UNL     1       9.117  12.748   4.434  1.00  0.00     0.157 A 
ATOM     16  C   UNL     1       6.975  11.716   4.917  1.00  0.00     0.062 A 
ATOM     17  C   UNL     1       7.983  12.042   4.002  1.00  0.00     0.158 A 
BRANCH  15  18
ATOM     18  O   UNL     1      10.125  13.075   3.528  1.00  0.00    -0.504 OA
ATOM     19  H   UNL     1      11.037  12.635   3.568  1.00  0.00     0.293 HD
ENDBRANCH  15  18
BRANCH  17  20
ATOM     20  O   UNL     1       7.839  11.655   2.670  1.00  0.00    -0.504 OA
ATOM     21  H   UNL     1       7.139  12.065   2.063  1.00  0.00     0.293 HD
ENDBRANCH  17  20
ENDBRANCH   1  12
BRANCH   6  22
ATOM     22  O   UNL     1       2.080  11.279  10.576  1.00  0.00    -0.507 OA
ATOM     23  H   UNL     1       2.013  12.283  10.516  1.00  0.00     0.293 HD
ENDBRANCH   6  22
BRANCH   8  24
ATOM     24  O   UNL     1       2.762   6.912   8.740  1.00  0.00    -0.508 OA
ATOM     25  H   UNL     1       3.402   6.169   8.996  1.00  0.00     0.293 HD
ENDBRANCH   8  24
TORSDOF 5
ENDMDL
MODEL 4
REMARK VINA RESULT:    -2.304      1.103      2.777
REMARK INTER + INTRA:          -2.972
REMARK INTER:                  -2.708
REMARK INTRA:                  -0.263
REMARK UNBOUND:                -0.264
REMARK SMILES O=c1cc(-c2ccc(O)c(O)c2)oc2cc(O)cc(O)c12
REMARK SMILES IDX 4 1 3 2 2 3 1 4 21 5 19 6 18 7 16 8 15 9 14 10 13 11 5 12
REMARK SMILES IDX 6 13 7 14 8 15 12 16 10 17 9 18 11 20 20 22 17 24
REMARK H PARENT 9 19 11 21 20 23 17 25
REMARK Flexibility Score: inf
ROOT
ATOM      1  C   UNL     1       4.465  11.156   7.272  1.00  0.00     0.138 A 
ATOM      2  C   UNL     1       4.283  10.773   5.936  1.00  0.00     0.100 A 
ATOM      3  C   UNL     1       5.316  10.960   5.017  1.00  0.00     0.197 A 
ATOM      4  O   UNL     1       5.146  10.550   3.840  1.00  0.00    -0.289 OA
ATOM      5  C   UNL     1       6.527  11.564   5.434  1.00  0.00     0.107 A 
ATOM      6  C   UNL     1       7.633  11.842   4.577  1.00  0.00     0.134 A 
ATOM      7  C   UNL     1       8.823  12.337   5.124  1.00  0.00     0.093 A 
ATOM      8  C   UNL     1       8.928  12.619   6.486  1.00  0.00     0.123 A 
ATOM      9  C   UNL     1       7.834  12.402   7.325  1.00  0.00     0.094 A 
ATOM     10  C   UNL     1       6.644  11.876   6.814  1.00  0.00     0.146 A 
ATOM     11  O   UNL     1       5.630  11.670   7.649  1.00  0.00    -0.456 OA
ENDROOT
BRANCH   1  12
ATOM     12  C   UNL     1       3.399  10.979   8.291  1.00  0.00     0.021 A 
ATOM     13  C   UNL     1       3.466   9.963   9.264  1.00  0.00     0.016 A 
ATOM     14  C   UNL     1       2.443   9.814  10.203  1.00  0.00     0.051 A 
ATOM     15  C   UNL     1       1.334  10.668  10.185  1.00  0.00     0.157 A 
ATOM     16  C   UNL     1       2.276  11.825   8.271  1.00  0.00     0.062 A 
ATOM     17  C   UNL     1       1.250  11.677   9.212  1.00  0.00     0.158 A 
BRANCH  15  18
ATOM     18  O   UNL     1       0.316  10.517  11.125  1.00  0.00    -0.504 OA
ATOM     19  H   UNL     1       0.216   9.666  11.667  1.00  0.00     0.293 HD
ENDBRANCH  15  18
BRANCH  17  20
ATOM     20  O   UNL     1       0.157  12.542   9.163  1.00  0.00    -0.504 OA
ATOM     21  H   UNL     1      -0.119  13.106   9.959  1.00  0.00     0.293 HD
ENDBRANCH  17  20
ENDBRANCH   1  12
BRANCH   6  22
ATOM     22  O   UNL     1       7.607  11.677   3.188  1.00  0.00    -0.507 OA
ATOM     23  H   UNL     1       8.289  11.159   2.657  1.00  0.00     0.293 HD
ENDBRANCH   6  22
BRANCH   8  24
ATOM     24  O   UNL     1      10.123  13.124   6.994  1.00  0.00    -0.508 OA
ATOM     25  H   UNL     1      10.947  12.543   7.085  1.00  0.00     0.293 HD
ENDBRANCH   8  24
TORSDOF 5
ENDMDL
