MODEL 1
REMARK VINA RESULT:    -4.980      0.000      0.000
REMARK INTER + INTRA:          -5.784
REMARK INTER:                  -5.708
REMARK INTRA:                  -0.076
REMARK UNBOUND:                -0.076
REMARK SMILES COc1cc(C(=O)[O-])ccc1O
REMARK SMILES IDX 5 1 9 2 4 3 10 4 3 5 11 6 6 7 7 8 8 9 2 10 1 11 12 12
REMARK H PARENT 12 13
REMARK Flexibility Score: inf
ROOT
ATOM      1  C   UNL     1       2.941  11.414   8.852  1.00  0.00     0.001 A 
ATOM      2  C   UNL     1       2.736  10.524   7.785  1.00  0.00     0.014 A 
ATOM      3  C   UNL     1       4.255  11.801   9.175  1.00  0.00     0.060 A 
ATOM      4  C   UNL     1       3.819  10.031   7.056  1.00  0.00     0.051 A 
ATOM      5  C   UNL     1       5.353  11.306   8.443  1.00  0.00     0.161 A 
ATOM      6  C   UNL     1       5.123  10.415   7.378  1.00  0.00     0.157 A 
ENDROOT
BRANCH   1   7
ATOM      7  C   UNL     1       1.789  11.934   9.621  1.00  0.00     0.072 C 
ATOM      8  O   UNL     1       1.405  13.125   9.475  1.00  0.00    -0.545 OA
ATOM      9  O   UNL     1       1.112  11.113  10.516  1.00  0.00    -0.545 OA
ENDBRANCH   1   7
BRANCH   5  10
ATOM     10  O   UNL     1       6.675  11.673   8.743  1.00  0.00    -0.493 OA
ATOM     11  C   UNL     1       7.058  12.926   9.302  1.00  0.00     0.278 C 
ENDBRANCH   5  10
BRANCH   6  12
ATOM     12  O   UNL     1       6.181   9.901   6.627  1.00  0.00    -0.504 OA
ATOM     13  H   UNL     1       7.140  10.190   6.776  1.00  0.00     0.293 HD
ENDBRANCH   6  12
TORSDOF 3
ENDMDL
MODEL 2
REMARK VINA RESULT:    -4.885      2.650      3.446
REMARK INTER + INTRA:          -5.675
REMARK INTER:                  -5.576
REMARK INTRA:                  -0.099
REMARK UNBOUND:                -0.076
REMARK SMILES COc1cc(C(=O)[O-])ccc1O
REMARK SMILES IDX 5 1 9 2 4 3 10 4 3 5 11 6 6 7 7 8 8 9 2 10 1 11 12 12
REMARK H PARENT 12 13
REMARK Flexibility Score: inf
ROOT
ATOM      1  C   UNL     1       5.161  10.439   6.663  1.00  0.00     0.001 A 
ATOM      2  C   UNL     1       4.933  10.881   5.350  1.00  0.00     0.014 A 
ATOM      3  C   UNL     1       6.461  10.516   7.194  1.00  0.00     0.060 A 
ATOM      4  C   UNL     1       5.982  11.390   4.583  1.00  0.00     0.051 A 
ATOM      5  C   UNL     1       7.525  11.029   6.424  1.00  0.00     0.161 A 
ATOM      6  C   UNL     1       7.274  11.467   5.111  1.00  0.00     0.157 A 
ENDROOT
BRANCH   1   7
ATOM      7  C   UNL     1       4.045   9.899   7.472  1.00  0.00     0.072 C 
ATOM      8  O   UNL     1       2.962  10.534   7.575  1.00  0.00    -0.545 OA
ATOM      9  O   UNL     1       4.176   8.681   8.128  1.00  0.00    -0.545 OA
ENDBRANCH   1   7
BRANCH   5  10
ATOM     10  O   UNL     1       8.834  11.118   6.927  1.00  0.00    -0.493 OA
ATOM     11  C   UNL     1       9.314  12.181   7.744  1.00  0.00     0.278 C 
ENDBRANCH   5  10
BRANCH   6  12
ATOM     12  O   UNL     1       8.296  11.981   4.314  1.00  0.00    -0.504 OA
ATOM     13  H   UNL     1       8.160  12.199   3.334  1.00  0.00     0.293 HD
ENDBRANCH   6  12
TORSDOF 3
ENDMDL
MODEL 3
REMARK VINA RESULT:    -4.819      1.469      4.290
REMARK INTER + INTRA:          -5.599
REMARK INTER:                  -5.553
REMARK INTRA:                  -0.046
REMARK UNBOUND:                -0.076
REMARK SMILES COc1cc(C(=O)[O-])ccc1O
REMARK SMILES IDX 5 1 9 2 4 3 10 4 3 5 11 6 6 7 7 8 8 9 2 10 1 11 12 12
REMARK H PARENT 12 13
REMARK Flexibility Score: inf
ROOT
ATOM      1  C   UNL     1       5.800  11.340   8.124  1.00  0.00     0.001 A 
ATOM      2  C   UNL     1       5.497  10.864   6.838  1.00  0.00     0.014 A 
ATOM      3  C   UNL     1       4.778  11.399   9.089  1.00  0.00     0.060 A 
ATOM      4  C   UNL     1       4.201  10.455   6.522  1.00  0.00     0.051 A 
ATOM      5  C   UNL     1       3.467  10.988   8.776  1.00  0.00     0.161 A 
ATOM      6  C   UNL     1       3.186  10.514   7.482  1.00  0.00     0.157 A 
ENDROOT
BRANCH   1   7
ATOM      7  C   UNL     1       7.176  11.772   8.453  1.00  0.00     0.072 C 
ATOM      8  O   UNL     1       7.377  12.702   9.279  1.00  0.00    -0.545 OA
ATOM      9  O   UNL     1       8.270  11.157   7.855  1.00  0.00    -0.545 OA
ENDBRANCH   1   7
BRANCH   5  10
ATOM     10  O   UNL     1       2.426  11.036   9.718  1.00  0.00    -0.493 OA
ATOM     11  C   UNL     1       1.465  12.084   9.808  1.00  0.00     0.278 C 
ENDBRANCH   5  10
BRANCH   6  12
ATOM     12  O   UNL     1       1.902  10.098   7.129  1.00  0.00    -0.504 OA
ATOM     13  H   UNL     1       1.562  10.143   6.176  1.00  0.00     0.293 HD
ENDBRANCH   6  12
TORSDOF 3
ENDMDL
MODEL 4
REMARK VINA RESULT:    -4.603      3.230      5.829
REMARK INTER + INTRA:          -5.351
REMARK INTER:                  -5.255
REMARK INTRA:                  -0.096
REMARK UNBOUND:                -0.076
REMARK SMILES COc1cc(C(=O)[O-])ccc1O
REMARK SMILES IDX 5 1 9 2 4 3 10 4 3 5 11 6 6 7 7 8 8 9 2 10 1 11 12 12
REMARK H PARENT 12 13
REMARK Flexibility Score: inf
ROOT
ATOM      1  C   UNL     1       8.080  11.786   5.573  1.00  0.00     0.001 A 
ATOM      2  C   UNL     1       7.298  12.097   4.449  1.00  0.00     0.014 A 
ATOM      3  C   UNL     1       7.515  11.014   6.605  1.00  0.00     0.060 A 
ATOM      4  C   UNL     1       5.980  11.647   4.357  1.00  0.00     0.051 A 
ATOM      5  C   UNL     1       6.185  10.557   6.518  1.00  0.00     0.161 A 
ATOM      6  C   UNL     1       5.420  10.881   5.383  1.00  0.00     0.157 A 
ENDROOT
BRANCH   1   7
ATOM      7  C   UNL     1       9.476  12.266   5.665  1.00  0.00     0.072 C 
ATOM      8  O   UNL     1      10.097  12.637   4.633  1.00  0.00    -0.545 OA
ATOM      9  O   UNL     1      10.125  12.315   6.894  1.00  0.00    -0.545 OA
ENDBRANCH   1   7
BRANCH   5  10
ATOM     10  O   UNL     1       5.594   9.786   7.533  1.00  0.00    -0.493 OA
ATOM     11  C   UNL     1       4.928  10.323   8.671  1.00  0.00     0.278 C 
ENDBRANCH   5  10
BRANCH   6  12
ATOM     12  O   UNL     1       4.099  10.450   5.255  1.00  0.00    -0.504 OA
ATOM     13  H   UNL     1       3.487  10.793   4.525  1.00  0.00     0.293 HD
ENDBRANCH   6  12
TORSDOF 3
ENDMDL
MODEL 5
REMARK VINA RESULT:    -4.590      2.521      5.010
REMARK INTER + INTRA:          -5.336
REMARK INTER:                  -5.321
REMARK INTRA:                  -0.015
REMARK UNBOUND:                -0.076
REMARK SMILES COc1cc(C(=O)[O-])ccc1O
REMARK SMILES IDX 5 1 9 2 4 3 10 4 3 5 11 6 6 7 7 8 8 9 2 10 1 11 12 12
REMARK H PARENT 12 13
REMARK Flexibility Score: inf
ROOT
ATOM      1  C   UNL     1       6.740  10.876   6.295  1.00  0.00     0.001 A 
ATOM      2  C   UNL     1       5.794  11.027   5.268  1.00  0.00     0.014 A 
ATOM      3  C   UNL     1       6.308  10.443   7.562  1.00  0.00     0.060 A 
ATOM      4  C   UNL     1       4.446  10.749   5.500  1.00  0.00     0.051 A 
ATOM      5  C   UNL     1       4.948  10.162   7.803  1.00  0.00     0.161 A 
ATOM      6  C   UNL     1       4.019  10.318   6.759  1.00  0.00     0.157 A 
ENDROOT
BRANCH   1   7
ATOM      7  C   UNL     1       8.167  11.173   6.043  1.00  0.00     0.072 C 
ATOM      8  O   UNL     1       8.965  11.345   7.002  1.00  0.00    -0.545 OA
ATOM      9  O   UNL     1       8.649  11.263   4.742  1.00  0.00    -0.545 OA
ENDBRANCH   1   7
BRANCH   5  10
ATOM     10  O   UNL     1       4.488   9.728   9.058  1.00  0.00    -0.493 OA
ATOM     11  C   UNL     1       3.811  10.554  10.000  1.00  0.00     0.278 C 
ENDBRANCH   5  10
BRANCH   6  12
ATOM     12  O   UNL     1       2.663  10.051   6.954  1.00  0.00    -0.504 OA
ATOM     13  H   UNL     1       1.961  10.782   6.940  1.00  0.00     0.293 HD
ENDBRANCH   6  12
TORSDOF 3
ENDMDL
MODEL 6
REMARK VINA RESULT:    -4.560      2.409      4.911
REMARK INTER + INTRA:          -5.302
REMARK INTER:                  -5.222
REMARK INTRA:                  -0.080
REMARK UNBOUND:                -0.076
REMARK SMILES COc1cc(C(=O)[O-])ccc1O
REMARK SMILES IDX 5 1 9 2 4 3 10 4 3 5 11 6 6 7 7 8 8 9 2 10 1 11 12 12
REMARK H PARENT 12 13
REMARK Flexibility Score: inf
ROOT
ATOM      1  C   UNL     1       6.198  12.037   6.688  1.00  0.00     0.001 A 
ATOM      2  C   UNL     1       5.988  12.970   7.716  1.00  0.00     0.014 A 
ATOM      3  C   UNL     1       5.826  10.696   6.897  1.00  0.00     0.060 A 
ATOM      4  C   UNL     1       5.417  12.574   8.926  1.00  0.00     0.051 A 
ATOM      5  C   UNL     1       5.249  10.290   8.117  1.00  0.00     0.161 A 
ATOM      6  C   UNL     1       5.047  11.242   9.132  1.00  0.00     0.157 A 
ENDROOT
BRANCH   1   7
ATOM      7  C   UNL     1       6.803  12.463   5.407  1.00  0.00     0.072 C 
ATOM      8  O   UNL     1       7.875  13.125   5.393  1.00  0.00    -0.545 OA
ATOM      9  O   UNL     1       6.199  12.136   4.199  1.00  0.00    -0.545 OA
ENDBRANCH   1   7
BRANCH   5  10
ATOM     10  O   UNL     1       4.868   8.959   8.354  1.00  0.00    -0.493 OA
ATOM     11  C   UNL     1       3.573   8.429   8.086  1.00  0.00     0.278 C 
ENDBRANCH   5  10
BRANCH   6  12
ATOM     12  O   UNL     1       4.481  10.883  10.356  1.00  0.00    -0.504 OA
ATOM     13  H   UNL     1       4.581   9.954  10.746  1.00  0.00     0.293 HD
ENDBRANCH   6  12
TORSDOF 3
ENDMDL
MODEL 7
REMARK VINA RESULT:    -4.528      1.701      4.414
REMARK INTER + INTRA:          -5.266
REMARK INTER:                  -5.293
REMARK INTRA:                   0.027
REMARK UNBOUND:                -0.076
REMARK SMILES COc1cc(C(=O)[O-])ccc1O
REMARK SMILES IDX 5 1 9 2 4 3 10 4 3 5 11 6 6 7 7 8 8 9 2 10 1 11 12 12
REMARK H PARENT 12 13
REMARK Flexibility Score: inf
ROOT
ATOM      1  C   UNL     1       5.148  10.690   7.085  1.00  0.00     0.001 A 
ATOM      2  C   UNL     1       4.841   9.359   7.411  1.00  0.00     0.014 A 
ATOM      3  C   UNL     1       4.544  11.728   7.817  1.00  0.00     0.060 A 
ATOM      4  C   UNL     1       3.950   9.071   8.446  1.00  0.00     0.051 A 
ATOM      5  C   UNL     1       3.643  11.444   8.863  1.00  0.00     0.161 A 
ATOM      6  C   UNL     1       3.351  10.103   9.173  1.00  0.00     0.157 A 
ENDROOT
BRANCH   1   7
ATOM      7  C   UNL     1       6.093  10.989   5.987  1.00  0.00     0.072 C 
ATOM      8  O   UNL     1       5.668  11.335   4.852  1.00  0.00    -0.545 OA
ATOM      9  O   UNL     1       7.465  10.895   6.192  1.00  0.00    -0.545 OA
ENDBRANCH   1   7
BRANCH   5  10
ATOM     10  O   UNL     1       3.025  12.460   9.611  1.00  0.00    -0.493 OA
ATOM     11  C   UNL     1       1.655  12.831   9.492  1.00  0.00     0.278 C 
ENDBRANCH   5  10
BRANCH   6  12
ATOM     12  O   UNL     1       2.465   9.777  10.200  1.00  0.00    -0.504 OA
ATOM     13  H   UNL     1       2.573   8.940  10.761  1.00  0.00     0.293 HD
ENDBRANCH   6  12
TORSDOF 3
ENDMDL
MODEL 8
REMARK VINA RESULT:    -4.497      1.984      3.227
REMARK INTER + INTRA:          -5.230
REMARK INTER:                  -5.130
REMARK INTRA:                  -0.100
REMARK UNBOUND:                -0.076
REMARK SMILES COc1cc(C(=O)[O-])ccc1O
REMARK SMILES IDX 5 1 9 2 4 3 10 4 3 5 11 6 6 7 7 8 8 9 2 10 1 11 12 12
REMARK H PARENT 12 13
REMARK Flexibility Score: inf
ROOT
ATOM      1  C   UNL     1       4.779  11.188   8.247  1.00  0.00     0.001 A 
ATOM      2  C   UNL     1       5.152  12.204   9.142  1.00  0.00     0.014 A 
ATOM      3  C   UNL     1       5.766  10.591   7.442  1.00  0.00     0.060 A 
ATOM      4  C   UNL     1       6.482  12.615   9.232  1.00  0.00     0.051 A 
ATOM      5  C   UNL     1       7.112  11.002   7.528  1.00  0.00     0.161 A 
ATOM      6  C   UNL     1       7.463  12.021   8.432  1.00  0.00     0.157 A 
ENDROOT
BRANCH   1   7
ATOM      7  C   UNL     1       3.366  10.757   8.156  1.00  0.00     0.072 C 
ATOM      8  O   UNL     1       2.931  10.202   7.113  1.00  0.00    -0.545 OA
ATOM      9  O   UNL     1       2.498  10.958   9.224  1.00  0.00    -0.545 OA
ENDBRANCH   1   7
BRANCH   5  10
ATOM     10  O   UNL     1       8.119  10.424   6.737  1.00  0.00    -0.493 OA
ATOM     11  C   UNL     1       8.433  10.829   5.408  1.00  0.00     0.278 C 
ENDBRANCH   5  10
BRANCH   6  12
ATOM     12  O   UNL     1       8.782  12.459   8.548  1.00  0.00    -0.504 OA
ATOM     13  H   UNL     1       9.571  11.856   8.349  1.00  0.00     0.293 HD
ENDBRANCH   6  12
TORSDOF 3
ENDMDL
MODEL 9
REMARK VINA RESULT:    -4.359      2.760      5.910
REMARK INTER + INTRA:          -5.072
REMARK INTER:                  -5.064
REMARK INTRA:                  -0.008
REMARK UNBOUND:                -0.076
REMARK SMILES COc1cc(C(=O)[O-])ccc1O
REMARK SMILES IDX 5 1 9 2 4 3 10 4 3 5 11 6 6 7 7 8 8 9 2 10 1 11 12 12
REMARK H PARENT 12 13
REMARK Flexibility Score: inf
ROOT
ATOM      1  C   UNL     1       7.940  11.772   6.165  1.00  0.00     0.001 A 
ATOM      2  C   UNL     1       8.369  12.321   7.384  1.00  0.00     0.014 A 
ATOM      3  C   UNL     1       6.688  11.134   6.107  1.00  0.00     0.060 A 
ATOM      4  C   UNL     1       7.565  12.236   8.521  1.00  0.00     0.051 A 
ATOM      5  C   UNL     1       5.871  11.044   7.252  1.00  0.00     0.161 A 
ATOM      6  C   UNL     1       6.321  11.601   8.463  1.00  0.00     0.157 A 
ENDROOT
BRANCH   1   7
ATOM      7  C   UNL     1       8.797  11.866   4.963  1.00  0.00     0.072 C 
ATOM      8  O   UNL     1      10.052  11.810   5.064  1.00  0.00    -0.545 OA
ATOM      9  O   UNL     1       8.230  12.016   3.703  1.00  0.00    -0.545 OA
ENDBRANCH   1   7
BRANCH   5  10
ATOM     10  O   UNL     1       4.616  10.412   7.224  1.00  0.00    -0.493 OA
ATOM     11  C   UNL     1       4.355   9.112   7.743  1.00  0.00     0.278 C 
ENDBRANCH   5  10
BRANCH   6  12
ATOM     12  O   UNL     1       5.545  11.534   9.620  1.00  0.00    -0.504 OA
ATOM     13  H   UNL     1       4.537  11.638   9.602  1.00  0.00     0.293 HD
ENDBRANCH   6  12
TORSDOF 3
ENDMDL
