MODEL 1
REMARK VINA RESULT:    -3.754      0.000      0.000
REMARK INTER + INTRA:          -5.536
REMARK INTER:                  -5.070
REMARK INTRA:                  -0.465
REMARK UNBOUND:                -0.465
REMARK SMILES CCCCCCC=CC(=O)[O-]
REMARK SMILES IDX 5 1 6 2 7 3 8 4 9 5 10 6 11 7 4 8 3 9 2 10 1 11
REMARK H PARENT
REMARK Flexibility Score: inf
ROOT
ATOM      1  C   UNL     1      28.467  12.546 -16.247  1.00  0.00     0.004 C 
ENDROOT
BRANCH   1   2
ATOM      2  C   UNL     1      28.869  12.846 -14.794  1.00  0.00     0.027 C 
BRANCH   2   3
ATOM      3  C   UNL     1      29.269  14.284 -14.595  1.00  0.00    -0.025 C 
ATOM      4  C   UNL     1      28.819  15.105 -13.633  1.00  0.00     0.020 C 
BRANCH   4   5
ATOM      5  C   UNL     1      27.884  14.754 -12.544  1.00  0.00     0.064 C 
ATOM      6  O   UNL     1      26.765  15.329 -12.494  1.00  0.00    -0.545 OA
ATOM      7  O   UNL     1      28.207  13.834 -11.555  1.00  0.00    -0.545 OA
ENDBRANCH   4   5
ENDBRANCH   2   3
ENDBRANCH   1   2
BRANCH   1   8
ATOM      8  C   UNL     1      28.812  13.708 -17.193  1.00  0.00     0.000 C 
BRANCH   8   9
ATOM      9  C   UNL     1      29.633  13.212 -18.393  1.00  0.00    -0.000 C 
BRANCH   9  10
ATOM     10  C   UNL     1      30.747  12.236 -17.984  1.00  0.00    -0.003 C 
ATOM     11  C   UNL     1      30.740  10.951 -18.811  1.00  0.00     0.004 C 
ENDBRANCH   9  10
ENDBRANCH   8   9
ENDBRANCH   1   8
TORSDOF 6
ENDMDL
MODEL 2
REMARK VINA RESULT:    -3.668      1.947      2.516
REMARK INTER + INTRA:          -5.420
REMARK INTER:                  -4.730
REMARK INTRA:                  -0.690
REMARK UNBOUND:                -0.465
REMARK SMILES CCCCCCC=CC(=O)[O-]
REMARK SMILES IDX 5 1 6 2 7 3 8 4 9 5 10 6 11 7 4 8 3 9 2 10 1 11
REMARK H PARENT
REMARK Flexibility Score: inf
ROOT
ATOM      1  C   UNL     1      29.492  15.021 -17.612  1.00  0.00     0.004 C 
ENDROOT
BRANCH   1   2
ATOM      2  C   UNL     1      30.505  15.355 -16.505  1.00  0.00     0.027 C 
BRANCH   2   3
ATOM      3  C   UNL     1      29.836  15.770 -15.222  1.00  0.00    -0.025 C 
ATOM      4  C   UNL     1      29.368  14.945 -14.270  1.00  0.00     0.020 C 
BRANCH   4   5
ATOM      5  C   UNL     1      29.461  13.471 -14.261  1.00  0.00     0.064 C 
ATOM      6  O   UNL     1      30.493  12.929 -13.787  1.00  0.00    -0.545 OA
ATOM      7  O   UNL     1      28.461  12.660 -14.784  1.00  0.00    -0.545 OA
ENDBRANCH   4   5
ENDBRANCH   2   3
ENDBRANCH   1   2
BRANCH   1   8
ATOM      8  C   UNL     1      29.592  13.555 -18.062  1.00  0.00     0.000 C 
BRANCH   8   9
ATOM      9  C   UNL     1      30.929  12.937 -17.624  1.00  0.00    -0.000 C 
BRANCH   9  10
ATOM     10  C   UNL     1      30.858  11.408 -17.495  1.00  0.00    -0.003 C 
ATOM     11  C   UNL     1      30.771  10.703 -18.849  1.00  0.00     0.004 C 
ENDBRANCH   9  10
ENDBRANCH   8   9
ENDBRANCH   1   8
TORSDOF 6
ENDMDL
MODEL 3
REMARK VINA RESULT:    -3.629     19.412     20.398
REMARK INTER + INTRA:          -5.367
REMARK INTER:                  -4.578
REMARK INTRA:                  -0.789
REMARK UNBOUND:                -0.465
REMARK SMILES CCCCCCC=CC(=O)[O-]
REMARK SMILES IDX 5 1 6 2 7 3 8 4 9 5 10 6 11 7 4 8 3 9 2 10 1 11
REMARK H PARENT
REMARK Flexibility Score: inf
ROOT
ATOM      1  C   UNL     1      15.266   0.074 -11.941  1.00  0.00     0.004 C 
ENDROOT
BRANCH   1   2
ATOM      2  C   UNL     1      13.844  -0.293 -12.398  1.00  0.00     0.027 C 
BRANCH   2   3
ATOM      3  C   UNL     1      13.827  -1.485 -13.318  1.00  0.00    -0.025 C 
ATOM      4  C   UNL     1      13.290  -1.527 -14.548  1.00  0.00     0.020 C 
BRANCH   4   5
ATOM      5  C   UNL     1      12.655  -0.406 -15.270  1.00  0.00     0.064 C 
ATOM      6  O   UNL     1      13.350   0.274 -16.070  1.00  0.00    -0.545 OA
ATOM      7  O   UNL     1      11.325  -0.055 -15.075  1.00  0.00    -0.545 OA
ENDBRANCH   4   5
ENDBRANCH   2   3
ENDBRANCH   1   2
BRANCH   1   8
ATOM      8  C   UNL     1      16.259  -1.078 -12.167  1.00  0.00     0.000 C 
BRANCH   8   9
ATOM      9  C   UNL     1      17.442  -0.619 -13.033  1.00  0.00    -0.000 C 
BRANCH   9  10
ATOM     10  C   UNL     1      17.059   0.506 -14.007  1.00  0.00    -0.003 C 
ATOM     11  C   UNL     1      16.754  -0.008 -15.414  1.00  0.00     0.004 C 
ENDBRANCH   9  10
ENDBRANCH   8   9
ENDBRANCH   1   8
TORSDOF 6
ENDMDL
MODEL 4
REMARK VINA RESULT:    -3.614      1.674      2.344
REMARK INTER + INTRA:          -5.347
REMARK INTER:                  -4.834
REMARK INTRA:                  -0.513
REMARK UNBOUND:                -0.465
REMARK SMILES CCCCCCC=CC(=O)[O-]
REMARK SMILES IDX 5 1 6 2 7 3 8 4 9 5 10 6 11 7 4 8 3 9 2 10 1 11
REMARK H PARENT
REMARK Flexibility Score: inf
ROOT
ATOM      1  C   UNL     1      29.191  12.907 -14.936  1.00  0.00     0.004 C 
ENDROOT
BRANCH   1   2
ATOM      2  C   UNL     1      28.177  13.233 -13.828  1.00  0.00     0.027 C 
BRANCH   2   3
ATOM      3  C   UNL     1      28.429  14.577 -13.198  1.00  0.00    -0.025 C 
ATOM      4  C   UNL     1      27.606  15.223 -12.356  1.00  0.00     0.020 C 
BRANCH   4   5
ATOM      5  C   UNL     1      26.315  14.729 -11.836  1.00  0.00     0.064 C 
ATOM      6  O   UNL     1      25.251  15.092 -12.402  1.00  0.00    -0.545 OA
ATOM      7  O   UNL     1      26.230  13.900 -10.724  1.00  0.00    -0.545 OA
ENDBRANCH   4   5
ENDBRANCH   2   3
ENDBRANCH   1   2
BRANCH   1   8
ATOM      8  C   UNL     1      28.507  12.665 -16.291  1.00  0.00     0.000 C 
BRANCH   8   9
ATOM      9  C   UNL     1      28.952  13.711 -17.324  1.00  0.00    -0.000 C 
BRANCH   9  10
ATOM     10  C   UNL     1      30.183  14.508 -16.864  1.00  0.00    -0.003 C 
ATOM     11  C   UNL     1      29.941  16.017 -16.854  1.00  0.00     0.004 C 
ENDBRANCH   9  10
ENDBRANCH   8   9
ENDBRANCH   1   8
TORSDOF 6
ENDMDL
MODEL 5
REMARK VINA RESULT:    -3.583      1.628      2.945
REMARK INTER + INTRA:          -5.306
REMARK INTER:                  -4.552
REMARK INTRA:                  -0.753
REMARK UNBOUND:                -0.465
REMARK SMILES CCCCCCC=CC(=O)[O-]
REMARK SMILES IDX 5 1 6 2 7 3 8 4 9 5 10 6 11 7 4 8 3 9 2 10 1 11
REMARK H PARENT
REMARK Flexibility Score: inf
ROOT
ATOM      1  C   UNL     1      29.946  13.141 -18.375  1.00  0.00     0.004 C 
ENDROOT
BRANCH   1   2
ATOM      2  C   UNL     1      29.221  13.784 -17.182  1.00  0.00     0.027 C 
BRANCH   2   3
ATOM      3  C   UNL     1      28.397  12.790 -16.407  1.00  0.00    -0.025 C 
ATOM      4  C   UNL     1      28.526  12.501 -15.102  1.00  0.00     0.020 C 
BRANCH   4   5
ATOM      5  C   UNL     1      29.462  13.133 -14.150  1.00  0.00     0.064 C 
ATOM      6  O   UNL     1      30.473  12.486 -13.770  1.00  0.00    -0.545 OA
ATOM      7  O   UNL     1      29.250  14.405 -13.634  1.00  0.00    -0.545 OA
ENDBRANCH   4   5
ENDBRANCH   2   3
ENDBRANCH   1   2
BRANCH   1   8
ATOM      8  C   UNL     1      30.972  12.088 -17.927  1.00  0.00     0.000 C 
BRANCH   8   9
ATOM      9  C   UNL     1      30.829  10.799 -18.750  1.00  0.00    -0.000 C 
BRANCH   9  10
ATOM     10  C   UNL     1      30.375   9.603 -17.899  1.00  0.00    -0.003 C 
ATOM     11  C   UNL     1      30.674   9.788 -16.411  1.00  0.00     0.004 C 
ENDBRANCH   9  10
ENDBRANCH   8   9
ENDBRANCH   1   8
TORSDOF 6
ENDMDL
MODEL 6
REMARK VINA RESULT:    -3.580     19.268     20.301
REMARK INTER + INTRA:          -5.302
REMARK INTER:                  -4.591
REMARK INTRA:                  -0.711
REMARK UNBOUND:                -0.465
REMARK SMILES CCCCCCC=CC(=O)[O-]
REMARK SMILES IDX 5 1 6 2 7 3 8 4 9 5 10 6 11 7 4 8 3 9 2 10 1 11
REMARK H PARENT
REMARK Flexibility Score: inf
ROOT
ATOM      1  C   UNL     1      16.786   0.191 -13.685  1.00  0.00     0.004 C 
ENDROOT
BRANCH   1   2
ATOM      2  C   UNL     1      15.873  -0.047 -14.899  1.00  0.00     0.027 C 
BRANCH   2   3
ATOM      3  C   UNL     1      15.294  -1.436 -14.917  1.00  0.00    -0.025 C 
ATOM      4  C   UNL     1      14.032  -1.771 -14.601  1.00  0.00     0.020 C 
BRANCH   4   5
ATOM      5  C   UNL     1      12.944  -0.846 -14.224  1.00  0.00     0.064 C 
ATOM      6  O   UNL     1      12.266  -0.301 -15.133  1.00  0.00    -0.545 OA
ATOM      7  O   UNL     1      12.662  -0.533 -12.900  1.00  0.00    -0.545 OA
ENDBRANCH   4   5
ENDBRANCH   2   3
ENDBRANCH   1   2
BRANCH   1   8
ATOM      8  C   UNL     1      15.982   0.490 -12.409  1.00  0.00     0.000 C 
BRANCH   8   9
ATOM      9  C   UNL     1      16.153  -0.634 -11.377  1.00  0.00    -0.000 C 
BRANCH   9  10
ATOM     10  C   UNL     1      17.232  -1.649 -11.784  1.00  0.00    -0.003 C 
ATOM     11  C   UNL     1      18.402  -1.694 -10.801  1.00  0.00     0.004 C 
ENDBRANCH   9  10
ENDBRANCH   8   9
ENDBRANCH   1   8
TORSDOF 6
ENDMDL
MODEL 7
REMARK VINA RESULT:    -3.578      2.933      5.713
REMARK INTER + INTRA:          -5.299
REMARK INTER:                  -4.838
REMARK INTRA:                  -0.461
REMARK UNBOUND:                -0.465
REMARK SMILES CCCCCCC=CC(=O)[O-]
REMARK SMILES IDX 5 1 6 2 7 3 8 4 9 5 10 6 11 7 4 8 3 9 2 10 1 11
REMARK H PARENT
REMARK Flexibility Score: inf
ROOT
ATOM      1  C   UNL     1      29.113  13.475 -13.139  1.00  0.00     0.004 C 
ENDROOT
BRANCH   1   2
ATOM      2  C   UNL     1      29.647  12.885 -14.454  1.00  0.00     0.027 C 
BRANCH   2   3
ATOM      3  C   UNL     1      28.541  12.501 -15.401  1.00  0.00    -0.025 C 
ATOM      4  C   UNL     1      28.410  12.913 -16.673  1.00  0.00     0.020 C 
BRANCH   4   5
ATOM      5  C   UNL     1      29.346  13.779 -17.418  1.00  0.00     0.064 C 
ATOM      6  O   UNL     1      29.989  13.291 -18.384  1.00  0.00    -0.545 OA
ATOM      7  O   UNL     1      29.565  15.107 -17.073  1.00  0.00    -0.545 OA
ENDBRANCH   4   5
ENDBRANCH   2   3
ENDBRANCH   1   2
BRANCH   1   8
ATOM      8  C   UNL     1      28.532  14.885 -13.333  1.00  0.00     0.000 C 
BRANCH   8   9
ATOM      9  C   UNL     1      27.398  15.153 -12.332  1.00  0.00    -0.000 C 
BRANCH   9  10
ATOM     10  C   UNL     1      26.727  13.861 -11.841  1.00  0.00    -0.003 C 
ATOM     11  C   UNL     1      25.654  14.117 -10.782  1.00  0.00     0.004 C 
ENDBRANCH   9  10
ENDBRANCH   8   9
ENDBRANCH   1   8
TORSDOF 6
ENDMDL
MODEL 8
REMARK VINA RESULT:    -3.576      2.590      4.242
REMARK INTER + INTRA:          -5.296
REMARK INTER:                  -4.686
REMARK INTRA:                  -0.610
REMARK UNBOUND:                -0.465
REMARK SMILES CCCCCCC=CC(=O)[O-]
REMARK SMILES IDX 5 1 6 2 7 3 8 4 9 5 10 6 11 7 4 8 3 9 2 10 1 11
REMARK H PARENT
REMARK Flexibility Score: inf
ROOT
ATOM      1  C   UNL     1      30.757  11.018 -18.757  1.00  0.00     0.004 C 
ENDROOT
BRANCH   1   2
ATOM      2  C   UNL     1      30.766  12.379 -18.042  1.00  0.00     0.027 C 
BRANCH   2   3
ATOM      3  C   UNL     1      29.555  13.210 -18.374  1.00  0.00    -0.025 C 
ATOM      4  C   UNL     1      29.153  14.317 -17.729  1.00  0.00     0.020 C 
BRANCH   4   5
ATOM      5  C   UNL     1      29.842  14.976 -16.600  1.00  0.00     0.064 C 
ATOM      6  O   UNL     1      30.785  15.773 -16.845  1.00  0.00    -0.545 OA
ATOM      7  O   UNL     1      29.506  14.725 -15.276  1.00  0.00    -0.545 OA
ENDBRANCH   4   5
ENDBRANCH   2   3
ENDBRANCH   1   2
BRANCH   1   8
ATOM      8  C   UNL     1      30.448   9.862 -17.792  1.00  0.00     0.000 C 
BRANCH   8   9
ATOM      9  C   UNL     1      30.746  10.266 -16.341  1.00  0.00    -0.000 C 
BRANCH   9  10
ATOM     10  C   UNL     1      29.528  10.098 -15.419  1.00  0.00    -0.003 C 
ATOM     11  C   UNL     1      29.214  11.361 -14.617  1.00  0.00     0.004 C 
ENDBRANCH   9  10
ENDBRANCH   8   9
ENDBRANCH   1   8
TORSDOF 6
ENDMDL
MODEL 9
REMARK VINA RESULT:    -3.535      2.916      4.301
REMARK INTER + INTRA:          -5.240
REMARK INTER:                  -4.545
REMARK INTRA:                  -0.695
REMARK UNBOUND:                -0.465
REMARK SMILES CCCCCCC=CC(=O)[O-]
REMARK SMILES IDX 5 1 6 2 7 3 8 4 9 5 10 6 11 7 4 8 3 9 2 10 1 11
REMARK H PARENT
REMARK Flexibility Score: inf
ROOT
ATOM      1  C   UNL     1      29.701  13.099 -17.974  1.00  0.00     0.004 C 
ENDROOT
BRANCH   1   2
ATOM      2  C   UNL     1      29.595  14.594 -17.635  1.00  0.00     0.027 C 
BRANCH   2   3
ATOM      3  C   UNL     1      30.815  15.106 -16.915  1.00  0.00    -0.025 C 
ATOM      4  C   UNL     1      30.958  16.325 -16.369  1.00  0.00     0.020 C 
BRANCH   4   5
ATOM      5  C   UNL     1      29.937  17.391 -16.316  1.00  0.00     0.064 C 
ATOM      6  O   UNL     1      29.358  17.626 -15.224  1.00  0.00    -0.545 OA
ATOM      7  O   UNL     1      29.571  18.125 -17.438  1.00  0.00    -0.545 OA
ENDBRANCH   4   5
ENDBRANCH   2   3
ENDBRANCH   1   2
BRANCH   1   8
ATOM      8  C   UNL     1      29.744  12.223 -16.712  1.00  0.00     0.000 C 
BRANCH   8   9
ATOM      9  C   UNL     1      28.488  12.436 -15.854  1.00  0.00    -0.000 C 
BRANCH   9  10
ATOM     10  C   UNL     1      28.816  12.618 -14.364  1.00  0.00    -0.003 C 
ATOM     11  C   UNL     1      28.931  14.088 -13.959  1.00  0.00     0.004 C 
ENDBRANCH   9  10
ENDBRANCH   8   9
ENDBRANCH   1   8
TORSDOF 6
ENDMDL
