MODEL 1
REMARK VINA RESULT:    -2.719      0.000      0.000
REMARK INTER + INTRA:          -2.719
REMARK INTER:                  -2.719
REMARK INTRA:                   0.000
REMARK UNBOUND:                 0.000
REMARK SMILES CC(=O)[O-]
REMARK SMILES IDX 1 1 2 2 3 3 4 4
REMARK H PARENT
REMARK Flexibility Score: inf
ROOT
ATOM      1  C   UNL     1      -8.791  16.189   9.637  1.00  0.00     0.063 C 
ATOM      2  C   UNL     1      -7.594  16.998   9.263  1.00  0.00     0.038 C 
ATOM      3  O   UNL     1      -6.586  17.018  10.016  1.00  0.00    -0.550 OA
ATOM      4  O   UNL     1      -7.610  17.771   8.110  1.00  0.00    -0.550 OA
ENDROOT
TORSDOF 0
ENDMDL
MODEL 2
REMARK VINA RESULT:    -2.481     16.018     16.572
REMARK INTER + INTRA:          -2.481
REMARK INTER:                  -2.481
REMARK INTRA:                   0.000
REMARK UNBOUND:                 0.000
REMARK SMILES CC(=O)[O-]
REMARK SMILES IDX 1 1 2 2 3 3 4 4
REMARK H PARENT
REMARK Flexibility Score: inf
ROOT
ATOM      1  C   UNL     1       9.884  15.953   8.475  1.00  0.00     0.063 C 
ATOM      2  C   UNL     1       8.633  15.163   8.284  1.00  0.00     0.038 C 
ATOM      3  O   UNL     1       7.727  15.196   9.156  1.00  0.00    -0.550 OA
ATOM      4  O   UNL     1       8.490  14.347   7.170  1.00  0.00    -0.550 OA
ENDROOT
TORSDOF 0
ENDMDL
MODEL 3
REMARK VINA RESULT:    -2.461      1.432      1.770
REMARK INTER + INTRA:          -2.461
REMARK INTER:                  -2.461
REMARK INTRA:                   0.000
REMARK UNBOUND:                 0.000
REMARK SMILES CC(=O)[O-]
REMARK SMILES IDX 1 1 2 2 3 3 4 4
REMARK H PARENT
REMARK Flexibility Score: inf
ROOT
ATOM      1  C   UNL     1      -7.614  17.845   8.261  1.00  0.00     0.063 C 
ATOM      2  C   UNL     1      -7.623  16.929   9.437  1.00  0.00     0.038 C 
ATOM      3  O   UNL     1      -6.640  16.900  10.222  1.00  0.00    -0.550 OA
ATOM      4  O   UNL     1      -8.694  16.069   9.640  1.00  0.00    -0.550 OA
ENDROOT
TORSDOF 0
ENDMDL
MODEL 4
REMARK VINA RESULT:    -2.335     16.086     16.571
REMARK INTER + INTRA:          -2.335
REMARK INTER:                  -2.335
REMARK INTRA:                   0.000
REMARK UNBOUND:                 0.000
REMARK SMILES CC(=O)[O-]
REMARK SMILES IDX 1 1 2 2 3 3 4 4
REMARK H PARENT
REMARK Flexibility Score: inf
ROOT
ATOM      1  C   UNL     1       8.462  14.392   7.131  1.00  0.00     0.063 C 
ATOM      2  C   UNL     1       8.715  15.225   8.341  1.00  0.00     0.038 C 
ATOM      3  O   UNL     1       7.854  15.285   9.257  1.00  0.00    -0.550 OA
ATOM      4  O   UNL     1       9.877  15.979   8.437  1.00  0.00    -0.550 OA
ENDROOT
TORSDOF 0
ENDMDL
MODEL 5
REMARK VINA RESULT:    -2.160     16.017     16.533
REMARK INTER + INTRA:          -2.160
REMARK INTER:                  -2.160
REMARK INTRA:                   0.000
REMARK UNBOUND:                 0.000
REMARK SMILES CC(=O)[O-]
REMARK SMILES IDX 1 1 2 2 3 3 4 4
REMARK H PARENT
REMARK Flexibility Score: inf
ROOT
ATOM      1  C   UNL     1       7.672  15.112   9.271  1.00  0.00     0.063 C 
ATOM      2  C   UNL     1       8.687  15.118   8.178  1.00  0.00     0.038 C 
ATOM      3  O   UNL     1       8.542  14.368   7.179  1.00  0.00    -0.550 OA
ATOM      4  O   UNL     1       9.819  15.913   8.286  1.00  0.00    -0.550 OA
ENDROOT
TORSDOF 0
ENDMDL
MODEL 6
REMARK VINA RESULT:    -1.866     11.746     12.165
REMARK INTER + INTRA:          -1.866
REMARK INTER:                  -1.866
REMARK INTRA:                   0.000
REMARK UNBOUND:                 0.000
REMARK SMILES CC(=O)[O-]
REMARK SMILES IDX 1 1 2 2 3 3 4 4
REMARK H PARENT
REMARK Flexibility Score: inf
ROOT
ATOM      1  C   UNL     1      -5.648  15.251  21.509  1.00  0.00     0.063 C 
ATOM      2  C   UNL     1      -7.091  15.458  21.194  1.00  0.00     0.038 C 
ATOM      3  O   UNL     1      -7.926  14.547  21.431  1.00  0.00    -0.550 OA
ATOM      4  O   UNL     1      -7.509  16.637  20.592  1.00  0.00    -0.550 OA
ENDROOT
TORSDOF 0
ENDMDL
MODEL 7
REMARK VINA RESULT:    -1.849     12.472     12.944
REMARK INTER + INTRA:          -1.849
REMARK INTER:                  -1.849
REMARK INTRA:                   0.000
REMARK UNBOUND:                 0.000
REMARK SMILES CC(=O)[O-]
REMARK SMILES IDX 1 1 2 2 3 3 4 4
REMARK H PARENT
REMARK Flexibility Score: inf
ROOT
ATOM      1  C   UNL     1      -7.245  14.723  21.480  1.00  0.00     0.063 C 
ATOM      2  C   UNL     1      -6.040  15.480  21.926  1.00  0.00     0.038 C 
ATOM      3  O   UNL     1      -4.934  15.299  21.354  1.00  0.00    -0.550 OA
ATOM      4  O   UNL     1      -6.124  16.347  23.007  1.00  0.00    -0.550 OA
ENDROOT
TORSDOF 0
ENDMDL
MODEL 8
REMARK VINA RESULT:    -1.832     20.332     20.506
REMARK INTER + INTRA:          -1.832
REMARK INTER:                  -1.832
REMARK INTRA:                   0.000
REMARK UNBOUND:                 0.000
REMARK SMILES CC(=O)[O-]
REMARK SMILES IDX 1 1 2 2 3 3 4 4
REMARK H PARENT
REMARK Flexibility Score: inf
ROOT
ATOM      1  C   UNL     1       9.663  17.519  20.374  1.00  0.00     0.063 C 
ATOM      2  C   UNL     1       8.925  16.448  21.104  1.00  0.00     0.038 C 
ATOM      3  O   UNL     1       8.049  16.753  21.954  1.00  0.00    -0.550 OA
ATOM      4  O   UNL     1       9.241  15.114  20.886  1.00  0.00    -0.550 OA
ENDROOT
TORSDOF 0
ENDMDL
MODEL 9
REMARK VINA RESULT:    -1.812     20.242     20.451
REMARK INTER + INTRA:          -1.812
REMARK INTER:                  -1.812
REMARK INTRA:                   0.000
REMARK UNBOUND:                 0.000
REMARK SMILES CC(=O)[O-]
REMARK SMILES IDX 1 1 2 2 3 3 4 4
REMARK H PARENT
REMARK Flexibility Score: inf
ROOT
ATOM      1  C   UNL     1       9.622  17.509  20.373  1.00  0.00     0.063 C 
ATOM      2  C   UNL     1       8.927  16.393  21.078  1.00  0.00     0.038 C 
ATOM      3  O   UNL     1       9.281  15.202  20.877  1.00  0.00    -0.550 OA
ATOM      4  O   UNL     1       7.854  16.662  21.917  1.00  0.00    -0.550 OA
ENDROOT
TORSDOF 0
ENDMDL
