MODEL 1
REMARK VINA RESULT:    -3.910      0.000      0.000
REMARK INTER + INTRA:          -9.666
REMARK INTER:                  -7.567
REMARK INTRA:                  -2.099
REMARK UNBOUND:                -2.099
REMARK SMILES CCCCCCCCCCCCCCCCCC(=O)[O-]
REMARK SMILES IDX 10 1 11 2 12 3 13 4 14 5 15 6 16 7 17 8 18 9 19 10 20 11
REMARK SMILES IDX 9 12 8 13 7 14 6 15 5 16 4 17 3 18 2 19 1 20
REMARK H PARENT
REMARK Flexibility Score: inf
ROOT
ATOM      1  C   UNL     1       2.649  17.399  12.746  1.00  0.00     0.000 C 
ENDROOT
BRANCH   1   2
ATOM      2  C   UNL     1       2.031  18.165  11.563  1.00  0.00     0.000 C 
BRANCH   2   3
ATOM      3  C   UNL     1       2.386  17.544  10.201  1.00  0.00     0.000 C 
BRANCH   3   4
ATOM      4  C   UNL     1       2.711  18.605   9.136  1.00  0.00     0.000 C 
BRANCH   4   5
ATOM      5  C   UNL     1       3.955  18.248   8.304  1.00  0.00     0.000 C 
BRANCH   5   6
ATOM      6  C   UNL     1       4.800  17.139   8.952  1.00  0.00     0.000 C 
BRANCH   6   7
ATOM      7  C   UNL     1       4.745  15.819   8.164  1.00  0.00     0.006 C 
BRANCH   7   8
ATOM      8  C   UNL     1       5.839  15.739   7.090  1.00  0.00     0.053 C 
BRANCH   8   9
ATOM      9  C   UNL     1       5.266  15.513   5.725  1.00  0.00     0.041 C 
ATOM     10  O   UNL     1       4.228  16.128   5.364  1.00  0.00    -0.550 OA
ATOM     11  O   UNL     1       5.860  14.600   4.862  1.00  0.00    -0.550 OA
ENDBRANCH   8   9
ENDBRANCH   7   8
ENDBRANCH   6   7
ENDBRANCH   5   6
ENDBRANCH   4   5
ENDBRANCH   3   4
ENDBRANCH   2   3
ENDBRANCH   1   2
BRANCH   1  12
ATOM     12  C   UNL     1       3.488  16.174  12.323  1.00  0.00     0.000 C 
BRANCH  12  13
ATOM     13  C   UNL     1       4.974  16.340  12.677  1.00  0.00    -0.000 C 
BRANCH  13  14
ATOM     14  C   UNL     1       5.436  15.236  13.640  1.00  0.00    -0.000 C 
BRANCH  14  15
ATOM     15  C   UNL     1       4.282  14.656  14.473  1.00  0.00    -0.000 C 
BRANCH  15  16
ATOM     16  C   UNL     1       4.165  15.308  15.860  1.00  0.00    -0.000 C 
BRANCH  16  17
ATOM     17  C   UNL     1       5.497  15.950  16.276  1.00  0.00    -0.000 C 
BRANCH  17  18
ATOM     18  C   UNL     1       5.324  17.379  16.815  1.00  0.00    -0.000 C 
BRANCH  18  19
ATOM     19  C   UNL     1       4.169  18.129  16.137  1.00  0.00    -0.003 C 
ATOM     20  C   UNL     1       4.694  19.177  15.158  1.00  0.00     0.004 C 
ENDBRANCH  18  19
ENDBRANCH  17  18
ENDBRANCH  16  17
ENDBRANCH  15  16
ENDBRANCH  14  15
ENDBRANCH  13  14
ENDBRANCH  12  13
ENDBRANCH   1  12
TORSDOF 16
ENDMDL
MODEL 2
REMARK VINA RESULT:    -3.717      1.410      2.245
REMARK INTER + INTRA:          -9.293
REMARK INTER:                  -7.641
REMARK INTRA:                  -1.652
REMARK UNBOUND:                -2.099
REMARK SMILES CCCCCCCCCCCCCCCCCC(=O)[O-]
REMARK SMILES IDX 10 1 11 2 12 3 13 4 14 5 15 6 16 7 17 8 18 9 19 10 20 11
REMARK SMILES IDX 9 12 8 13 7 14 6 15 5 16 4 17 3 18 2 19 1 20
REMARK H PARENT
REMARK Flexibility Score: inf
ROOT
ATOM      1  C   UNL     1       2.600  16.798   9.931  1.00  0.00     0.000 C 
ENDROOT
BRANCH   1   2
ATOM      2  C   UNL     1       2.272  17.630   8.679  1.00  0.00     0.000 C 
BRANCH   2   3
ATOM      3  C   UNL     1       3.301  18.741   8.415  1.00  0.00     0.000 C 
BRANCH   3   4
ATOM      4  C   UNL     1       3.359  19.152   6.934  1.00  0.00     0.000 C 
BRANCH   4   5
ATOM      5  C   UNL     1       2.606  18.172   6.017  1.00  0.00     0.000 C 
BRANCH   5   6
ATOM      6  C   UNL     1       3.554  17.277   5.202  1.00  0.00     0.000 C 
BRANCH   6   7
ATOM      7  C   UNL     1       3.266  15.779   5.398  1.00  0.00     0.006 C 
BRANCH   7   8
ATOM      8  C   UNL     1       4.105  15.170   6.530  1.00  0.00     0.053 C 
BRANCH   8   9
ATOM      9  C   UNL     1       5.574  15.322   6.281  1.00  0.00     0.041 C 
ATOM     10  O   UNL     1       6.103  14.788   5.271  1.00  0.00    -0.550 OA
ATOM     11  O   UNL     1       6.363  16.028   7.180  1.00  0.00    -0.550 OA
ENDBRANCH   8   9
ENDBRANCH   7   8
ENDBRANCH   6   7
ENDBRANCH   5   6
ENDBRANCH   4   5
ENDBRANCH   3   4
ENDBRANCH   2   3
ENDBRANCH   1   2
BRANCH   1  12
ATOM     12  C   UNL     1       4.072  16.336  10.001  1.00  0.00     0.000 C 
BRANCH  12  13
ATOM     13  C   UNL     1       4.324  15.381  11.178  1.00  0.00    -0.000 C 
BRANCH  13  14
ATOM     14  C   UNL     1       4.766  16.155  12.429  1.00  0.00    -0.000 C 
BRANCH  14  15
ATOM     15  C   UNL     1       5.379  15.242  13.504  1.00  0.00    -0.000 C 
BRANCH  15  16
ATOM     16  C   UNL     1       4.324  14.646  14.448  1.00  0.00    -0.000 C 
BRANCH  16  17
ATOM     17  C   UNL     1       4.239  15.453  15.753  1.00  0.00    -0.000 C 
BRANCH  17  18
ATOM     18  C   UNL     1       5.513  16.268  16.029  1.00  0.00    -0.000 C 
BRANCH  18  19
ATOM     19  C   UNL     1       5.208  17.672  16.573  1.00  0.00    -0.003 C 
ATOM     20  C   UNL     1       4.431  18.499  15.552  1.00  0.00     0.004 C 
ENDBRANCH  18  19
ENDBRANCH  17  18
ENDBRANCH  16  17
ENDBRANCH  15  16
ENDBRANCH  14  15
ENDBRANCH  13  14
ENDBRANCH  12  13
ENDBRANCH   1  12
TORSDOF 16
ENDMDL
MODEL 3
REMARK VINA RESULT:    -3.702      3.659      8.255
REMARK INTER + INTRA:          -9.264
REMARK INTER:                  -7.009
REMARK INTRA:                  -2.255
REMARK UNBOUND:                -2.099
REMARK SMILES CCCCCCCCCCCCCCCCCC(=O)[O-]
REMARK SMILES IDX 10 1 11 2 12 3 13 4 14 5 15 6 16 7 17 8 18 9 19 10 20 11
REMARK SMILES IDX 9 12 8 13 7 14 6 15 5 16 4 17 3 18 2 19 1 20
REMARK H PARENT
REMARK Flexibility Score: inf
ROOT
ATOM      1  C   UNL     1       4.295  15.979   8.501  1.00  0.00     0.000 C 
ENDROOT
BRANCH   1   2
ATOM      2  C   UNL     1       2.793  15.663   8.403  1.00  0.00     0.000 C 
BRANCH   2   3
ATOM      3  C   UNL     1       2.366  14.504   9.320  1.00  0.00     0.000 C 
BRANCH   3   4
ATOM      4  C   UNL     1       3.077  14.539  10.683  1.00  0.00     0.000 C 
BRANCH   4   5
ATOM      5  C   UNL     1       2.353  15.431  11.707  1.00  0.00     0.000 C 
BRANCH   5   6
ATOM      6  C   UNL     1       3.177  16.667  12.101  1.00  0.00     0.000 C 
BRANCH   6   7
ATOM      7  C   UNL     1       4.616  16.310  12.514  1.00  0.00     0.006 C 
BRANCH   7   8
ATOM      8  C   UNL     1       5.071  17.086  13.758  1.00  0.00     0.053 C 
BRANCH   8   9
ATOM      9  C   UNL     1       5.914  16.243  14.664  1.00  0.00     0.041 C 
ATOM     10  O   UNL     1       6.724  15.408  14.181  1.00  0.00    -0.550 OA
ATOM     11  O   UNL     1       5.784  16.358  16.042  1.00  0.00    -0.550 OA
ENDBRANCH   8   9
ENDBRANCH   7   8
ENDBRANCH   6   7
ENDBRANCH   5   6
ENDBRANCH   4   5
ENDBRANCH   3   4
ENDBRANCH   2   3
ENDBRANCH   1   2
BRANCH   1  12
ATOM     12  C   UNL     1       4.605  17.484   8.643  1.00  0.00     0.000 C 
BRANCH  12  13
ATOM     13  C   UNL     1       3.353  18.354   8.446  1.00  0.00    -0.000 C 
BRANCH  13  14
ATOM     14  C   UNL     1       3.383  19.061   7.082  1.00  0.00    -0.000 C 
BRANCH  14  15
ATOM     15  C   UNL     1       2.127  18.780   6.242  1.00  0.00    -0.000 C 
BRANCH  15  16
ATOM     16  C   UNL     1       2.452  18.129   4.889  1.00  0.00    -0.000 C 
BRANCH  16  17
ATOM     17  C   UNL     1       3.838  17.468   4.919  1.00  0.00    -0.000 C 
BRANCH  17  18
ATOM     18  C   UNL     1       3.766  15.935   4.838  1.00  0.00    -0.000 C 
BRANCH  18  19
ATOM     19  C   UNL     1       5.155  15.281   4.785  1.00  0.00    -0.003 C 
ATOM     20  C   UNL     1       5.667  15.196   3.349  1.00  0.00     0.004 C 
ENDBRANCH  18  19
ENDBRANCH  17  18
ENDBRANCH  16  17
ENDBRANCH  15  16
ENDBRANCH  14  15
ENDBRANCH  13  14
ENDBRANCH  12  13
ENDBRANCH   1  12
TORSDOF 16
ENDMDL
MODEL 4
REMARK VINA RESULT:    -3.692      3.684      8.098
REMARK INTER + INTRA:          -9.244
REMARK INTER:                  -6.947
REMARK INTRA:                  -2.297
REMARK UNBOUND:                -2.099
REMARK SMILES CCCCCCCCCCCCCCCCCC(=O)[O-]
REMARK SMILES IDX 10 1 11 2 12 3 13 4 14 5 15 6 16 7 17 8 18 9 19 10 20 11
REMARK SMILES IDX 9 12 8 13 7 14 6 15 5 16 4 17 3 18 2 19 1 20
REMARK H PARENT
REMARK Flexibility Score: inf
ROOT
ATOM      1  C   UNL     1       4.131  16.109   9.326  1.00  0.00     0.000 C 
ENDROOT
BRANCH   1   2
ATOM      2  C   UNL     1       2.672  16.035   9.807  1.00  0.00     0.000 C 
BRANCH   2   3
ATOM      3  C   UNL     1       2.459  14.983  10.908  1.00  0.00     0.000 C 
BRANCH   3   4
ATOM      4  C   UNL     1       3.767  14.283  11.316  1.00  0.00     0.000 C 
BRANCH   4   5
ATOM      5  C   UNL     1       3.969  14.249  12.841  1.00  0.00     0.000 C 
BRANCH   5   6
ATOM      6  C   UNL     1       5.279  14.925  13.278  1.00  0.00     0.000 C 
BRANCH   6   7
ATOM      7  C   UNL     1       5.283  16.438  13.001  1.00  0.00     0.006 C 
BRANCH   7   8
ATOM      8  C   UNL     1       4.147  17.165  13.733  1.00  0.00     0.053 C 
BRANCH   8   9
ATOM      9  C   UNL     1       4.631  17.850  14.974  1.00  0.00     0.041 C 
ATOM     10  O   UNL     1       4.720  17.212  16.056  1.00  0.00    -0.550 OA
ATOM     11  O   UNL     1       4.953  19.201  14.943  1.00  0.00    -0.550 OA
ENDBRANCH   8   9
ENDBRANCH   7   8
ENDBRANCH   6   7
ENDBRANCH   5   6
ENDBRANCH   4   5
ENDBRANCH   3   4
ENDBRANCH   2   3
ENDBRANCH   1   2
BRANCH   1  12
ATOM     12  C   UNL     1       4.564  17.519   8.870  1.00  0.00     0.000 C 
BRANCH  12  13
ATOM     13  C   UNL     1       3.364  18.462   8.686  1.00  0.00    -0.000 C 
BRANCH  13  14
ATOM     14  C   UNL     1       3.353  19.070   7.276  1.00  0.00    -0.000 C 
BRANCH  14  15
ATOM     15  C   UNL     1       2.245  18.482   6.386  1.00  0.00    -0.000 C 
BRANCH  15  16
ATOM     16  C   UNL     1       2.736  18.153   4.968  1.00  0.00    -0.000 C 
BRANCH  16  17
ATOM     17  C   UNL     1       3.846  17.091   5.006  1.00  0.00    -0.000 C 
BRANCH  17  18
ATOM     18  C   UNL     1       3.376  15.763   5.621  1.00  0.00    -0.000 C 
BRANCH  18  19
ATOM     19  C   UNL     1       4.493  14.710   5.675  1.00  0.00    -0.003 C 
ATOM     20  C   UNL     1       5.813  15.332   6.122  1.00  0.00     0.004 C 
ENDBRANCH  18  19
ENDBRANCH  17  18
ENDBRANCH  16  17
ENDBRANCH  15  16
ENDBRANCH  14  15
ENDBRANCH  13  14
ENDBRANCH  12  13
ENDBRANCH   1  12
TORSDOF 16
ENDMDL
MODEL 5
REMARK VINA RESULT:    -3.641      3.420      8.145
REMARK INTER + INTRA:          -9.145
REMARK INTER:                  -6.982
REMARK INTRA:                  -2.164
REMARK UNBOUND:                -2.099
REMARK SMILES CCCCCCCCCCCCCCCCCC(=O)[O-]
REMARK SMILES IDX 10 1 11 2 12 3 13 4 14 5 15 6 16 7 17 8 18 9 19 10 20 11
REMARK SMILES IDX 9 12 8 13 7 14 6 15 5 16 4 17 3 18 2 19 1 20
REMARK H PARENT
REMARK Flexibility Score: inf
ROOT
ATOM      1  C   UNL     1       3.376  18.888   6.898  1.00  0.00     0.000 C 
ENDROOT
BRANCH   1   2
ATOM      2  C   UNL     1       3.497  18.467   8.373  1.00  0.00     0.000 C 
BRANCH   2   3
ATOM      3  C   UNL     1       2.713  17.183   8.693  1.00  0.00     0.000 C 
BRANCH   3   4
ATOM      4  C   UNL     1       2.827  16.775  10.171  1.00  0.00     0.000 C 
BRANCH   4   5
ATOM      5  C   UNL     1       4.221  16.232  10.530  1.00  0.00     0.000 C 
BRANCH   5   6
ATOM      6  C   UNL     1       4.158  15.010  11.460  1.00  0.00     0.000 C 
BRANCH   6   7
ATOM      7  C   UNL     1       3.496  15.329  12.811  1.00  0.00     0.006 C 
BRANCH   7   8
ATOM      8  C   UNL     1       4.430  15.049  13.996  1.00  0.00     0.053 C 
BRANCH   8   9
ATOM      9  C   UNL     1       5.585  16.001  14.034  1.00  0.00     0.041 C 
ATOM     10  O   UNL     1       6.746  15.579  14.279  1.00  0.00    -0.550 OA
ATOM     11  O   UNL     1       5.375  17.359  13.830  1.00  0.00    -0.550 OA
ENDBRANCH   8   9
ENDBRANCH   7   8
ENDBRANCH   6   7
ENDBRANCH   5   6
ENDBRANCH   4   5
ENDBRANCH   3   4
ENDBRANCH   2   3
ENDBRANCH   1   2
BRANCH   1  12
ATOM     12  C   UNL     1       2.143  18.296   6.183  1.00  0.00     0.000 C 
BRANCH  12  13
ATOM     13  C   UNL     1       2.142  18.606   4.677  1.00  0.00    -0.000 C 
BRANCH  13  14
ATOM     14  C   UNL     1       2.428  17.341   3.854  1.00  0.00    -0.000 C 
BRANCH  14  15
ATOM     15  C   UNL     1       3.912  17.202   3.479  1.00  0.00    -0.000 C 
BRANCH  15  16
ATOM     16  C   UNL     1       4.500  15.841   3.884  1.00  0.00    -0.000 C 
BRANCH  16  17
ATOM     17  C   UNL     1       3.623  15.160   4.946  1.00  0.00    -0.000 C 
BRANCH  17  18
ATOM     18  C   UNL     1       4.359  14.952   6.279  1.00  0.00    -0.000 C 
BRANCH  18  19
ATOM     19  C   UNL     1       5.844  15.333   6.199  1.00  0.00    -0.003 C 
ATOM     20  C   UNL     1       6.285  16.094   7.448  1.00  0.00     0.004 C 
ENDBRANCH  18  19
ENDBRANCH  17  18
ENDBRANCH  16  17
ENDBRANCH  15  16
ENDBRANCH  14  15
ENDBRANCH  13  14
ENDBRANCH  12  13
ENDBRANCH   1  12
TORSDOF 16
ENDMDL
MODEL 6
REMARK VINA RESULT:    -3.635      1.841      2.961
REMARK INTER + INTRA:          -9.133
REMARK INTER:                  -7.847
REMARK INTRA:                  -1.287
REMARK UNBOUND:                -2.099
REMARK SMILES CCCCCCCCCCCCCCCCCC(=O)[O-]
REMARK SMILES IDX 10 1 11 2 12 3 13 4 14 5 15 6 16 7 17 8 18 9 19 10 20 11
REMARK SMILES IDX 9 12 8 13 7 14 6 15 5 16 4 17 3 18 2 19 1 20
REMARK H PARENT
REMARK Flexibility Score: inf
ROOT
ATOM      1  C   UNL     1       4.307  17.596   8.555  1.00  0.00     0.000 C 
ENDROOT
BRANCH   1   2
ATOM      2  C   UNL     1       3.344  18.760   8.267  1.00  0.00     0.000 C 
BRANCH   2   3
ATOM      3  C   UNL     1       3.284  19.129   6.775  1.00  0.00     0.000 C 
BRANCH   3   4
ATOM      4  C   UNL     1       2.246  18.297   6.003  1.00  0.00     0.000 C 
BRANCH   4   5
ATOM      5  C   UNL     1       2.794  17.753   4.672  1.00  0.00     0.000 C 
BRANCH   5   6
ATOM      6  C   UNL     1       4.246  17.263   4.788  1.00  0.00     0.000 C 
BRANCH   6   7
ATOM      7  C   UNL     1       4.347  15.851   5.391  1.00  0.00     0.006 C 
BRANCH   7   8
ATOM      8  C   UNL     1       5.478  15.029   4.758  1.00  0.00     0.053 C 
BRANCH   8   9
ATOM      9  C   UNL     1       5.397  15.027   3.262  1.00  0.00     0.041 C 
ATOM     10  O   UNL     1       4.346  14.643   2.685  1.00  0.00    -0.550 OA
ATOM     11  O   UNL     1       6.494  15.420   2.506  1.00  0.00    -0.550 OA
ENDBRANCH   8   9
ENDBRANCH   7   8
ENDBRANCH   6   7
ENDBRANCH   5   6
ENDBRANCH   4   5
ENDBRANCH   3   4
ENDBRANCH   2   3
ENDBRANCH   1   2
BRANCH   1  12
ATOM     12  C   UNL     1       3.602  16.312   9.042  1.00  0.00     0.000 C 
BRANCH  12  13
ATOM     13  C   UNL     1       3.585  16.207  10.576  1.00  0.00    -0.000 C 
BRANCH  13  14
ATOM     14  C   UNL     1       4.135  14.850  11.040  1.00  0.00    -0.000 C 
BRANCH  14  15
ATOM     15  C   UNL     1       4.475  14.831  12.539  1.00  0.00    -0.000 C 
BRANCH  15  16
ATOM     16  C   UNL     1       5.264  16.072  12.984  1.00  0.00    -0.000 C 
BRANCH  16  17
ATOM     17  C   UNL     1       6.089  15.773  14.245  1.00  0.00    -0.000 C 
BRANCH  17  18
ATOM     18  C   UNL     1       5.637  16.598  15.460  1.00  0.00    -0.000 C 
BRANCH  18  19
ATOM     19  C   UNL     1       4.372  17.421  15.177  1.00  0.00    -0.003 C 
ATOM     20  C   UNL     1       4.665  18.918  15.235  1.00  0.00     0.004 C 
ENDBRANCH  18  19
ENDBRANCH  17  18
ENDBRANCH  16  17
ENDBRANCH  15  16
ENDBRANCH  14  15
ENDBRANCH  13  14
ENDBRANCH  12  13
ENDBRANCH   1  12
TORSDOF 16
ENDMDL
MODEL 7
REMARK VINA RESULT:    -3.477      3.471      8.280
REMARK INTER + INTRA:          -8.828
REMARK INTER:                  -7.098
REMARK INTRA:                  -1.730
REMARK UNBOUND:                -2.099
REMARK SMILES CCCCCCCCCCCCCCCCCC(=O)[O-]
REMARK SMILES IDX 10 1 11 2 12 3 13 4 14 5 15 6 16 7 17 8 18 9 19 10 20 11
REMARK SMILES IDX 9 12 8 13 7 14 6 15 5 16 4 17 3 18 2 19 1 20
REMARK H PARENT
REMARK Flexibility Score: inf
ROOT
ATOM      1  C   UNL     1       3.943  16.099   9.599  1.00  0.00     0.000 C 
ENDROOT
BRANCH   1   2
ATOM      2  C   UNL     1       4.208  16.142  11.114  1.00  0.00     0.000 C 
BRANCH   2   3
ATOM      3  C   UNL     1       4.085  14.761  11.779  1.00  0.00     0.000 C 
BRANCH   3   4
ATOM      4  C   UNL     1       4.835  14.684  13.120  1.00  0.00     0.000 C 
BRANCH   4   5
ATOM      5  C   UNL     1       5.661  15.949  13.410  1.00  0.00     0.000 C 
BRANCH   5   6
ATOM      6  C   UNL     1       6.049  16.074  14.893  1.00  0.00     0.000 C 
BRANCH   6   7
ATOM      7  C   UNL     1       5.072  16.959  15.686  1.00  0.00     0.006 C 
BRANCH   7   8
ATOM      8  C   UNL     1       4.770  18.280  14.967  1.00  0.00     0.053 C 
BRANCH   8   9
ATOM      9  C   UNL     1       3.304  18.459  14.717  1.00  0.00     0.041 C 
ATOM     10  O   UNL     1       2.667  17.603  14.048  1.00  0.00    -0.550 OA
ATOM     11  O   UNL     1       2.649  19.586  15.196  1.00  0.00    -0.550 OA
ENDBRANCH   8   9
ENDBRANCH   7   8
ENDBRANCH   6   7
ENDBRANCH   5   6
ENDBRANCH   4   5
ENDBRANCH   3   4
ENDBRANCH   2   3
ENDBRANCH   1   2
BRANCH   1  12
ATOM     12  C   UNL     1       4.312  17.408   8.867  1.00  0.00     0.000 C 
BRANCH  12  13
ATOM     13  C   UNL     1       3.168  18.433   8.903  1.00  0.00    -0.000 C 
BRANCH  13  14
ATOM     14  C   UNL     1       2.335  18.374   7.613  1.00  0.00    -0.000 C 
BRANCH  14  15
ATOM     15  C   UNL     1       2.961  19.185   6.467  1.00  0.00    -0.000 C 
BRANCH  15  16
ATOM     16  C   UNL     1       3.005  18.405   5.144  1.00  0.00    -0.000 C 
BRANCH  16  17
ATOM     17  C   UNL     1       3.057  16.892   5.402  1.00  0.00    -0.000 C 
BRANCH  17  18
ATOM     18  C   UNL     1       4.487  16.329   5.345  1.00  0.00    -0.000 C 
BRANCH  18  19
ATOM     19  C   UNL     1       4.543  14.828   5.661  1.00  0.00    -0.003 C 
ATOM     20  C   UNL     1       3.291  14.377   6.409  1.00  0.00     0.004 C 
ENDBRANCH  18  19
ENDBRANCH  17  18
ENDBRANCH  16  17
ENDBRANCH  15  16
ENDBRANCH  14  15
ENDBRANCH  13  14
ENDBRANCH  12  13
ENDBRANCH   1  12
TORSDOF 16
ENDMDL
MODEL 8
REMARK VINA RESULT:    -3.471      3.754      8.264
REMARK INTER + INTRA:          -8.816
REMARK INTER:                  -6.769
REMARK INTRA:                  -2.048
REMARK UNBOUND:                -2.099
REMARK SMILES CCCCCCCCCCCCCCCCCC(=O)[O-]
REMARK SMILES IDX 10 1 11 2 12 3 13 4 14 5 15 6 16 7 17 8 18 9 19 10 20 11
REMARK SMILES IDX 9 12 8 13 7 14 6 15 5 16 4 17 3 18 2 19 1 20
REMARK H PARENT
REMARK Flexibility Score: inf
ROOT
ATOM      1  C   UNL     1       3.940  15.197   7.345  1.00  0.00     0.000 C 
ENDROOT
BRANCH   1   2
ATOM      2  C   UNL     1       2.501  15.269   7.883  1.00  0.00     0.000 C 
BRANCH   2   3
ATOM      3  C   UNL     1       2.443  15.378   9.416  1.00  0.00     0.000 C 
BRANCH   3   4
ATOM      4  C   UNL     1       3.776  15.005  10.086  1.00  0.00     0.000 C 
BRANCH   4   5
ATOM      5  C   UNL     1       4.312  16.120  11.001  1.00  0.00     0.000 C 
BRANCH   5   6
ATOM      6  C   UNL     1       3.237  16.669  11.953  1.00  0.00     0.000 C 
BRANCH   6   7
ATOM      7  C   UNL     1       3.546  16.367  13.430  1.00  0.00     0.006 C 
BRANCH   7   8
ATOM      8  C   UNL     1       4.723  17.197  13.958  1.00  0.00     0.053 C 
BRANCH   8   9
ATOM      9  C   UNL     1       5.689  16.363  14.741  1.00  0.00     0.041 C 
ATOM     10  O   UNL     1       6.516  15.623  14.145  1.00  0.00    -0.550 OA
ATOM     11  O   UNL     1       5.656  16.378  16.130  1.00  0.00    -0.550 OA
ENDBRANCH   8   9
ENDBRANCH   7   8
ENDBRANCH   6   7
ENDBRANCH   5   6
ENDBRANCH   4   5
ENDBRANCH   3   4
ENDBRANCH   2   3
ENDBRANCH   1   2
BRANCH   1  12
ATOM     12  C   UNL     1       4.040  14.628   5.913  1.00  0.00     0.000 C 
BRANCH  12  13
ATOM     13  C   UNL     1       5.304  15.111   5.184  1.00  0.00    -0.000 C 
BRANCH  13  14
ATOM     14  C   UNL     1       4.961  15.651   3.788  1.00  0.00    -0.000 C 
BRANCH  14  15
ATOM     15  C   UNL     1       3.468  15.981   3.631  1.00  0.00    -0.000 C 
BRANCH  15  16
ATOM     16  C   UNL     1       3.211  17.482   3.423  1.00  0.00    -0.000 C 
BRANCH  16  17
ATOM     17  C   UNL     1       2.470  18.082   4.628  1.00  0.00    -0.000 C 
BRANCH  17  18
ATOM     18  C   UNL     1       3.409  18.403   5.802  1.00  0.00    -0.000 C 
BRANCH  18  19
ATOM     19  C   UNL     1       2.657  18.940   7.028  1.00  0.00    -0.003 C 
ATOM     20  C   UNL     1       3.484  18.764   8.300  1.00  0.00     0.004 C 
ENDBRANCH  18  19
ENDBRANCH  17  18
ENDBRANCH  16  17
ENDBRANCH  15  16
ENDBRANCH  14  15
ENDBRANCH  13  14
ENDBRANCH  12  13
ENDBRANCH   1  12
TORSDOF 16
ENDMDL
MODEL 9
REMARK VINA RESULT:    -3.460      1.429      2.259
REMARK INTER + INTRA:          -8.796
REMARK INTER:                  -6.869
REMARK INTRA:                  -1.926
REMARK UNBOUND:                -2.099
REMARK SMILES CCCCCCCCCCCCCCCCCC(=O)[O-]
REMARK SMILES IDX 10 1 11 2 12 3 13 4 14 5 15 6 16 7 17 8 18 9 19 10 20 11
REMARK SMILES IDX 9 12 8 13 7 14 6 15 5 16 4 17 3 18 2 19 1 20
REMARK H PARENT
REMARK Flexibility Score: inf
ROOT
ATOM      1  C   UNL     1       4.487  16.092  11.323  1.00  0.00     0.000 C 
ENDROOT
BRANCH   1   2
ATOM      2  C   UNL     1       3.558  16.351  10.124  1.00  0.00     0.000 C 
BRANCH   2   3
ATOM      3  C   UNL     1       2.456  17.378  10.435  1.00  0.00     0.000 C 
BRANCH   3   4
ATOM      4  C   UNL     1       2.587  18.657   9.591  1.00  0.00     0.000 C 
BRANCH   4   5
ATOM      5  C   UNL     1       3.561  18.491   8.411  1.00  0.00     0.000 C 
BRANCH   5   6
ATOM      6  C   UNL     1       2.850  18.531   7.049  1.00  0.00     0.000 C 
BRANCH   6   7
ATOM      7  C   UNL     1       2.983  17.208   6.274  1.00  0.00     0.006 C 
BRANCH   7   8
ATOM      8  C   UNL     1       4.416  16.964   5.785  1.00  0.00     0.053 C 
BRANCH   8   9
ATOM      9  C   UNL     1       4.933  15.625   6.213  1.00  0.00     0.041 C 
ATOM     10  O   UNL     1       6.059  15.528   6.767  1.00  0.00    -0.550 OA
ATOM     11  O   UNL     1       4.183  14.480   5.972  1.00  0.00    -0.550 OA
ENDBRANCH   8   9
ENDBRANCH   7   8
ENDBRANCH   6   7
ENDBRANCH   5   6
ENDBRANCH   4   5
ENDBRANCH   3   4
ENDBRANCH   2   3
ENDBRANCH   1   2
BRANCH   1  12
ATOM     12  C   UNL     1       4.404  14.651  11.872  1.00  0.00     0.000 C 
BRANCH  12  13
ATOM     13  C   UNL     1       4.663  14.592  13.386  1.00  0.00    -0.000 C 
BRANCH  13  14
ATOM     14  C   UNL     1       3.352  14.388  14.160  1.00  0.00    -0.000 C 
BRANCH  14  15
ATOM     15  C   UNL     1       2.912  15.648  14.922  1.00  0.00    -0.000 C 
BRANCH  15  16
ATOM     16  C   UNL     1       2.138  16.637  14.036  1.00  0.00    -0.000 C 
BRANCH  16  17
ATOM     17  C   UNL     1       2.771  18.035  14.094  1.00  0.00    -0.000 C 
BRANCH  17  18
ATOM     18  C   UNL     1       4.255  17.998  14.493  1.00  0.00    -0.000 C 
BRANCH  18  19
ATOM     19  C   UNL     1       4.546  18.815  15.761  1.00  0.00    -0.003 C 
ATOM     20  C   UNL     1       5.216  17.953  16.828  1.00  0.00     0.004 C 
ENDBRANCH  18  19
ENDBRANCH  17  18
ENDBRANCH  16  17
ENDBRANCH  15  16
ENDBRANCH  14  15
ENDBRANCH  13  14
ENDBRANCH  12  13
ENDBRANCH   1  12
TORSDOF 16
ENDMDL
