MODEL 1
REMARK VINA RESULT:    -4.679      0.000      0.000
REMARK INTER + INTRA:          -4.679
REMARK INTER:                  -4.679
REMARK INTRA:                   0.000
REMARK UNBOUND:                 0.000
REMARK SMILES CC1=CC(=O)[C@H]2C[C@@H]1C2(C)C
REMARK SMILES IDX 1 1 2 2 3 3 4 4 5 5 6 6 7 7 8 8 9 9 10 10 11 11
REMARK H PARENT
REMARK Flexibility Score: inf
ROOT
ATOM      1  C   UNL     1     -15.470  13.087 -28.246  1.00  0.00     0.040 C 
ATOM      2  C   UNL     1     -14.992  13.715 -29.516  1.00  0.00    -0.066 C 
ATOM      3  C   UNL     1     -15.545  13.420 -30.727  1.00  0.00     0.047 C 
ATOM      4  C   UNL     1     -14.959  14.127 -31.912  1.00  0.00     0.159 C 
ATOM      5  O   UNL     1     -15.354  13.908 -33.087  1.00  0.00    -0.295 OA
ATOM      6  C   UNL     1     -13.851  15.131 -31.595  1.00  0.00     0.067 C 
ATOM      7  C   UNL     1     -14.400  15.929 -30.391  1.00  0.00     0.021 C 
ATOM      8  C   UNL     1     -13.876  14.780 -29.501  1.00  0.00     0.022 C 
ATOM      9  C   UNL     1     -12.841  14.462 -30.619  1.00  0.00    -0.019 C 
ATOM     10  C   UNL     1     -12.455  12.975 -30.862  1.00  0.00     0.012 C 
ATOM     11  C   UNL     1     -11.536  15.283 -30.466  1.00  0.00     0.012 C 
ENDROOT
TORSDOF 0
ENDMDL
MODEL 2
REMARK VINA RESULT:    -4.344      1.929      3.173
REMARK INTER + INTRA:          -4.344
REMARK INTER:                  -4.344
REMARK INTRA:                   0.000
REMARK UNBOUND:                 0.000
REMARK SMILES CC1=CC(=O)[C@H]2C[C@@H]1C2(C)C
REMARK SMILES IDX 1 1 2 2 3 3 4 4 5 5 6 6 7 7 8 8 9 9 10 10 11 11
REMARK H PARENT
REMARK Flexibility Score: inf
ROOT
ATOM      1  C   UNL     1     -15.742  13.421 -32.983  1.00  0.00     0.040 C 
ATOM      2  C   UNL     1     -15.578  13.517 -31.499  1.00  0.00    -0.066 C 
ATOM      3  C   UNL     1     -16.645  13.560 -30.650  1.00  0.00     0.047 C 
ATOM      4  C   UNL     1     -16.324  13.658 -29.189  1.00  0.00     0.159 C 
ATOM      5  O   UNL     1     -17.221  13.748 -28.310  1.00  0.00    -0.295 OA
ATOM      6  C   UNL     1     -14.836  13.640 -28.842  1.00  0.00     0.067 C 
ATOM      7  C   UNL     1     -14.262  12.491 -29.701  1.00  0.00     0.021 C 
ATOM      8  C   UNL     1     -14.176  13.513 -30.856  1.00  0.00     0.022 C 
ATOM      9  C   UNL     1     -14.096  14.636 -29.781  1.00  0.00    -0.019 C 
ATOM     10  C   UNL     1     -14.776  16.000 -30.091  1.00  0.00     0.012 C 
ATOM     11  C   UNL     1     -12.642  14.911 -29.321  1.00  0.00     0.012 C 
ENDROOT
TORSDOF 0
ENDMDL
MODEL 3
REMARK VINA RESULT:    -4.268      1.473      2.198
REMARK INTER + INTRA:          -4.268
REMARK INTER:                  -4.268
REMARK INTRA:                   0.000
REMARK UNBOUND:                 0.000
REMARK SMILES CC1=CC(=O)[C@H]2C[C@@H]1C2(C)C
REMARK SMILES IDX 1 1 2 2 3 3 4 4 5 5 6 6 7 7 8 8 9 9 10 10 11 11
REMARK H PARENT
REMARK Flexibility Score: inf
ROOT
ATOM      1  C   UNL     1     -16.534  13.131 -31.679  1.00  0.00     0.040 C 
ATOM      2  C   UNL     1     -15.272  13.868 -31.364  1.00  0.00    -0.066 C 
ATOM      3  C   UNL     1     -14.375  14.221 -32.329  1.00  0.00     0.047 C 
ATOM      4  C   UNL     1     -13.155  14.956 -31.861  1.00  0.00     0.159 C 
ATOM      5  O   UNL     1     -12.234  15.297 -32.649  1.00  0.00    -0.295 OA
ATOM      6  C   UNL     1     -13.107  15.261 -30.364  1.00  0.00     0.067 C 
ATOM      7  C   UNL     1     -14.521  15.795 -30.043  1.00  0.00     0.021 C 
ATOM      8  C   UNL     1     -14.956  14.317 -29.922  1.00  0.00     0.022 C 
ATOM      9  C   UNL     1     -13.478  13.968 -29.583  1.00  0.00    -0.019 C 
ATOM     10  C   UNL     1     -12.909  12.612 -30.088  1.00  0.00     0.012 C 
ATOM     11  C   UNL     1     -13.176  14.088 -28.068  1.00  0.00     0.012 C 
ENDROOT
TORSDOF 0
ENDMDL
MODEL 4
REMARK VINA RESULT:    -4.266     12.837     14.202
REMARK INTER + INTRA:          -4.266
REMARK INTER:                  -4.266
REMARK INTRA:                   0.000
REMARK UNBOUND:                 0.000
REMARK SMILES CC1=CC(=O)[C@H]2C[C@@H]1C2(C)C
REMARK SMILES IDX 1 1 2 2 3 3 4 4 5 5 6 6 7 7 8 8 9 9 10 10 11 11
REMARK H PARENT
REMARK Flexibility Score: inf
ROOT
ATOM      1  C   UNL     1     -30.304  10.879 -30.437  1.00  0.00     0.040 C 
ATOM      2  C   UNL     1     -29.212  11.736 -29.879  1.00  0.00    -0.066 C 
ATOM      3  C   UNL     1     -28.797  12.879 -30.495  1.00  0.00     0.047 C 
ATOM      4  C   UNL     1     -27.692  13.632 -29.818  1.00  0.00     0.159 C 
ATOM      5  O   UNL     1     -27.193  14.678 -30.310  1.00  0.00    -0.295 OA
ATOM      6  C   UNL     1     -27.214  13.042 -28.491  1.00  0.00     0.067 C 
ATOM      7  C   UNL     1     -28.520  12.708 -27.736  1.00  0.00     0.021 C 
ATOM      8  C   UNL     1     -28.541  11.386 -28.535  1.00  0.00     0.022 C 
ATOM      9  C   UNL     1     -26.996  11.514 -28.679  1.00  0.00    -0.019 C 
ATOM     10  C   UNL     1     -26.338  11.018 -29.998  1.00  0.00     0.012 C 
ATOM     11  C   UNL     1     -26.238  10.875 -27.487  1.00  0.00     0.012 C 
ENDROOT
TORSDOF 0
ENDMDL
MODEL 5
REMARK VINA RESULT:    -4.263      2.096      4.160
REMARK INTER + INTRA:          -4.263
REMARK INTER:                  -4.263
REMARK INTRA:                   0.000
REMARK UNBOUND:                 0.000
REMARK SMILES CC1=CC(=O)[C@H]2C[C@@H]1C2(C)C
REMARK SMILES IDX 1 1 2 2 3 3 4 4 5 5 6 6 7 7 8 8 9 9 10 10 11 11
REMARK H PARENT
REMARK Flexibility Score: inf
ROOT
ATOM      1  C   UNL     1     -14.039  13.140 -27.529  1.00  0.00     0.040 C 
ATOM      2  C   UNL     1     -15.037  13.221 -28.641  1.00  0.00    -0.066 C 
ATOM      3  C   UNL     1     -14.967  14.173 -29.614  1.00  0.00     0.047 C 
ATOM      4  C   UNL     1     -16.039  14.130 -30.661  1.00  0.00     0.159 C 
ATOM      5  O   UNL     1     -16.108  14.980 -31.587  1.00  0.00    -0.295 OA
ATOM      6  C   UNL     1     -17.040  12.983 -30.527  1.00  0.00     0.067 C 
ATOM      7  C   UNL     1     -16.159  11.744 -30.247  1.00  0.00     0.021 C 
ATOM      8  C   UNL     1     -16.169  12.180 -28.765  1.00  0.00     0.022 C 
ATOM      9  C   UNL     1     -17.514  12.910 -29.047  1.00  0.00    -0.019 C 
ATOM     10  C   UNL     1     -17.799  14.243 -28.297  1.00  0.00     0.012 C 
ATOM     11  C   UNL     1     -18.740  11.980 -28.866  1.00  0.00     0.012 C 
ENDROOT
TORSDOF 0
ENDMDL
MODEL 6
REMARK VINA RESULT:    -4.201      2.068      3.711
REMARK INTER + INTRA:          -4.201
REMARK INTER:                  -4.201
REMARK INTRA:                   0.000
REMARK UNBOUND:                 0.000
REMARK SMILES CC1=CC(=O)[C@H]2C[C@@H]1C2(C)C
REMARK SMILES IDX 1 1 2 2 3 3 4 4 5 5 6 6 7 7 8 8 9 9 10 10 11 11
REMARK H PARENT
REMARK Flexibility Score: inf
ROOT
ATOM      1  C   UNL     1     -11.491  15.115 -32.737  1.00  0.00     0.040 C 
ATOM      2  C   UNL     1     -12.429  15.003 -31.578  1.00  0.00    -0.066 C 
ATOM      3  C   UNL     1     -12.030  15.234 -30.294  1.00  0.00     0.047 C 
ATOM      4  C   UNL     1     -13.082  15.082 -29.237  1.00  0.00     0.159 C 
ATOM      5  O   UNL     1     -12.829  15.227 -28.012  1.00  0.00    -0.295 OA
ATOM      6  C   UNL     1     -14.481  14.738 -29.749  1.00  0.00     0.067 C 
ATOM      7  C   UNL     1     -14.693  15.700 -30.940  1.00  0.00     0.021 C 
ATOM      8  C   UNL     1     -13.919  14.671 -31.795  1.00  0.00     0.022 C 
ATOM      9  C   UNL     1     -14.360  13.578 -30.778  1.00  0.00    -0.019 C 
ATOM     10  C   UNL     1     -13.371  12.418 -30.470  1.00  0.00     0.012 C 
ATOM     11  C   UNL     1     -15.736  12.961 -31.135  1.00  0.00     0.012 C 
ENDROOT
TORSDOF 0
ENDMDL
MODEL 7
REMARK VINA RESULT:    -4.175      1.889      3.380
REMARK INTER + INTRA:          -4.175
REMARK INTER:                  -4.175
REMARK INTRA:                   0.000
REMARK UNBOUND:                 0.000
REMARK SMILES CC1=CC(=O)[C@H]2C[C@@H]1C2(C)C
REMARK SMILES IDX 1 1 2 2 3 3 4 4 5 5 6 6 7 7 8 8 9 9 10 10 11 11
REMARK H PARENT
REMARK Flexibility Score: inf
ROOT
ATOM      1  C   UNL     1     -13.158  15.372 -31.969  1.00  0.00     0.040 C 
ATOM      2  C   UNL     1     -14.129  14.676 -31.070  1.00  0.00    -0.066 C 
ATOM      3  C   UNL     1     -15.177  15.326 -30.488  1.00  0.00     0.047 C 
ATOM      4  C   UNL     1     -16.065  14.496 -29.610  1.00  0.00     0.159 C 
ATOM      5  O   UNL     1     -17.039  14.988 -28.983  1.00  0.00    -0.295 OA
ATOM      6  C   UNL     1     -15.706  13.012 -29.530  1.00  0.00     0.067 C 
ATOM      7  C   UNL     1     -15.447  12.607 -30.999  1.00  0.00     0.021 C 
ATOM      8  C   UNL     1     -14.017  13.160 -30.807  1.00  0.00     0.022 C 
ATOM      9  C   UNL     1     -14.176  12.885 -29.284  1.00  0.00    -0.019 C 
ATOM     10  C   UNL     1     -13.505  13.872 -28.285  1.00  0.00     0.012 C 
ATOM     11  C   UNL     1     -13.758  11.444 -28.897  1.00  0.00     0.012 C 
ENDROOT
TORSDOF 0
ENDMDL
MODEL 8
REMARK VINA RESULT:    -4.102      1.718      2.343
REMARK INTER + INTRA:          -4.102
REMARK INTER:                  -4.102
REMARK INTRA:                   0.000
REMARK UNBOUND:                 0.000
REMARK SMILES CC1=CC(=O)[C@H]2C[C@@H]1C2(C)C
REMARK SMILES IDX 1 1 2 2 3 3 4 4 5 5 6 6 7 7 8 8 9 9 10 10 11 11
REMARK H PARENT
REMARK Flexibility Score: inf
ROOT
ATOM      1  C   UNL     1     -13.442  11.487 -28.994  1.00  0.00     0.040 C 
ATOM      2  C   UNL     1     -14.011  12.822 -29.354  1.00  0.00    -0.066 C 
ATOM      3  C   UNL     1     -15.272  13.197 -28.994  1.00  0.00     0.047 C 
ATOM      4  C   UNL     1     -15.706  14.565 -29.427  1.00  0.00     0.159 C 
ATOM      5  O   UNL     1     -16.860  15.009 -29.193  1.00  0.00    -0.295 OA
ATOM      6  C   UNL     1     -14.649  15.382 -30.170  1.00  0.00     0.067 C 
ATOM      7  C   UNL     1     -13.365  15.189 -29.332  1.00  0.00     0.021 C 
ATOM      8  C   UNL     1     -13.163  13.867 -30.107  1.00  0.00     0.022 C 
ATOM      9  C   UNL     1     -14.005  14.482 -31.263  1.00  0.00    -0.019 C 
ATOM     10  C   UNL     1     -14.931  13.537 -32.081  1.00  0.00     0.012 C 
ATOM     11  C   UNL     1     -13.137  15.292 -32.259  1.00  0.00     0.012 C 
ENDROOT
TORSDOF 0
ENDMDL
MODEL 9
REMARK VINA RESULT:    -4.035      2.178      3.141
REMARK INTER + INTRA:          -4.035
REMARK INTER:                  -4.035
REMARK INTRA:                   0.000
REMARK UNBOUND:                 0.000
REMARK SMILES CC1=CC(=O)[C@H]2C[C@@H]1C2(C)C
REMARK SMILES IDX 1 1 2 2 3 3 4 4 5 5 6 6 7 7 8 8 9 9 10 10 11 11
REMARK H PARENT
REMARK Flexibility Score: inf
ROOT
ATOM      1  C   UNL     1     -16.425  12.056 -30.118  1.00  0.00     0.040 C 
ATOM      2  C   UNL     1     -15.183  12.820 -29.784  1.00  0.00    -0.066 C 
ATOM      3  C   UNL     1     -14.829  13.107 -28.499  1.00  0.00     0.047 C 
ATOM      4  C   UNL     1     -13.557  13.880 -28.319  1.00  0.00     0.159 C 
ATOM      5  O   UNL     1     -13.147  14.243 -27.186  1.00  0.00    -0.295 OA
ATOM      6  C   UNL     1     -12.796  14.197 -29.606  1.00  0.00     0.067 C 
ATOM      7  C   UNL     1     -12.805  12.864 -30.387  1.00  0.00     0.021 C 
ATOM      8  C   UNL     1     -14.208  13.270 -30.892  1.00  0.00     0.022 C 
ATOM      9  C   UNL     1     -13.803  14.753 -30.653  1.00  0.00    -0.019 C 
ATOM     10  C   UNL     1     -14.898  15.746 -30.169  1.00  0.00     0.012 C 
ATOM     11  C   UNL     1     -13.093  15.376 -31.882  1.00  0.00     0.012 C 
ENDROOT
TORSDOF 0
ENDMDL
