MODEL 1
REMARK VINA RESULT:    -3.459      0.000      0.000
REMARK INTER + INTRA:          -5.516
REMARK INTER:                  -5.076
REMARK INTRA:                  -0.440
REMARK UNBOUND:                -0.440
REMARK SMILES O=C([O-])CCCCCCCC(=O)[O-]
REMARK SMILES IDX 7 1 6 2 5 3 4 4 2 5 1 6 3 7 8 8 9 9 10 10 11 11 12 12 13 13
REMARK H PARENT
REMARK Flexibility Score: inf
ROOT
ATOM      1  C   UNL     1      62.008  32.888  60.189  1.00  0.00     0.000 C 
ENDROOT
BRANCH   1   2
ATOM      2  C   UNL     1      61.191  31.893  61.035  1.00  0.00     0.000 C 
BRANCH   2   3
ATOM      3  C   UNL     1      61.968  30.649  61.512  1.00  0.00     0.006 C 
BRANCH   3   4
ATOM      4  C   UNL     1      63.496  30.778  61.410  1.00  0.00     0.053 C 
BRANCH   4   5
ATOM      5  C   UNL     1      64.153  29.463  61.125  1.00  0.00     0.041 C 
ATOM      6  O   UNL     1      65.378  29.415  60.838  1.00  0.00    -0.550 OA
ATOM      7  O   UNL     1      63.419  28.286  61.210  1.00  0.00    -0.550 OA
ENDBRANCH   4   5
ENDBRANCH   3   4
ENDBRANCH   2   3
ENDBRANCH   1   2
BRANCH   1   8
ATOM      8  C   UNL     1      61.540  34.354  60.266  1.00  0.00     0.000 C 
BRANCH   8   9
ATOM      9  C   UNL     1      62.512  35.312  60.985  1.00  0.00     0.006 C 
BRANCH   9  10
ATOM     10  C   UNL     1      63.935  34.758  61.161  1.00  0.00     0.053 C 
BRANCH  10  11
ATOM     11  C   UNL     1      64.944  35.851  61.339  1.00  0.00     0.041 C 
ATOM     12  O   UNL     1      65.836  36.034  60.469  1.00  0.00    -0.550 OA
ATOM     13  O   UNL     1      64.878  36.687  62.445  1.00  0.00    -0.550 OA
ENDBRANCH  10  11
ENDBRANCH   9  10
ENDBRANCH   8   9
ENDBRANCH   1   8
TORSDOF 8
ENDMDL
MODEL 2
REMARK VINA RESULT:    -3.450      0.465      5.920
REMARK INTER + INTRA:          -5.504
REMARK INTER:                  -5.189
REMARK INTRA:                  -0.315
REMARK UNBOUND:                -0.440
REMARK SMILES O=C([O-])CCCCCCCC(=O)[O-]
REMARK SMILES IDX 7 1 6 2 5 3 4 4 2 5 1 6 3 7 8 8 9 9 10 10 11 11 12 12 13 13
REMARK H PARENT
REMARK Flexibility Score: inf
ROOT
ATOM      1  C   UNL     1      62.187  32.866  60.692  1.00  0.00     0.000 C 
ENDROOT
BRANCH   1   2
ATOM      2  C   UNL     1      61.689  34.301  60.437  1.00  0.00     0.000 C 
BRANCH   2   3
ATOM      3  C   UNL     1      62.742  35.406  60.661  1.00  0.00     0.006 C 
BRANCH   3   4
ATOM      4  C   UNL     1      64.044  34.918  61.315  1.00  0.00     0.053 C 
BRANCH   4   5
ATOM      5  C   UNL     1      65.045  36.022  61.465  1.00  0.00     0.041 C 
ATOM      6  O   UNL     1      65.979  36.149  60.630  1.00  0.00    -0.550 OA
ATOM      7  O   UNL     1      64.926  36.933  62.508  1.00  0.00    -0.550 OA
ENDBRANCH   4   5
ENDBRANCH   3   4
ENDBRANCH   2   3
ENDBRANCH   1   2
BRANCH   1   8
ATOM      8  C   UNL     1      61.097  31.860  61.114  1.00  0.00     0.000 C 
BRANCH   8   9
ATOM      9  C   UNL     1      61.624  30.489  61.586  1.00  0.00     0.006 C 
BRANCH   9  10
ATOM     10  C   UNL     1      63.156  30.377  61.628  1.00  0.00     0.053 C 
BRANCH  10  11
ATOM     11  C   UNL     1      63.629  29.009  61.243  1.00  0.00     0.041 C 
ATOM     12  O   UNL     1      62.908  28.003  61.477  1.00  0.00    -0.550 OA
ATOM     13  O   UNL     1      64.847  28.848  60.598  1.00  0.00    -0.550 OA
ENDBRANCH  10  11
ENDBRANCH   9  10
ENDBRANCH   8   9
ENDBRANCH   1   8
TORSDOF 8
ENDMDL
MODEL 3
REMARK VINA RESULT:    -3.413     13.157     14.566
REMARK INTER + INTRA:          -5.449
REMARK INTER:                  -5.058
REMARK INTRA:                  -0.391
REMARK UNBOUND:                -0.440
REMARK SMILES O=C([O-])CCCCCCCC(=O)[O-]
REMARK SMILES IDX 7 1 6 2 5 3 4 4 2 5 1 6 3 7 8 8 9 9 10 10 11 11 12 12 13 13
REMARK H PARENT
REMARK Flexibility Score: inf
ROOT
ATOM      1  C   UNL     1      57.401  28.170  50.510  1.00  0.00     0.000 C 
ENDROOT
BRANCH   1   2
ATOM      2  C   UNL     1      56.005  28.814  50.603  1.00  0.00     0.000 C 
BRANCH   2   3
ATOM      3  C   UNL     1      54.829  27.878  50.256  1.00  0.00     0.006 C 
BRANCH   3   4
ATOM      4  C   UNL     1      55.250  26.464  49.826  1.00  0.00     0.053 C 
BRANCH   4   5
ATOM      5  C   UNL     1      54.160  25.461  50.050  1.00  0.00     0.041 C 
ATOM      6  O   UNL     1      53.949  25.000  51.202  1.00  0.00    -0.550 OA
ATOM      7  O   UNL     1      53.353  25.063  48.991  1.00  0.00    -0.550 OA
ENDBRANCH   4   5
ENDBRANCH   3   4
ENDBRANCH   2   3
ENDBRANCH   1   2
BRANCH   1   8
ATOM      8  C   UNL     1      58.443  28.975  49.709  1.00  0.00     0.000 C 
BRANCH   8   9
ATOM      9  C   UNL     1      59.696  28.181  49.287  1.00  0.00     0.006 C 
BRANCH   9  10
ATOM     10  C   UNL     1      59.556  26.656  49.419  1.00  0.00     0.053 C 
BRANCH  10  11
ATOM     11  C   UNL     1      60.789  26.027  49.992  1.00  0.00     0.041 C 
ATOM     12  O   UNL     1      60.696  25.005  50.722  1.00  0.00    -0.550 OA
ATOM     13  O   UNL     1      62.040  26.549  49.694  1.00  0.00    -0.550 OA
ENDBRANCH  10  11
ENDBRANCH   9  10
ENDBRANCH   8   9
ENDBRANCH   1   8
TORSDOF 8
ENDMDL
MODEL 4
REMARK VINA RESULT:    -3.367      1.348      1.932
REMARK INTER + INTRA:          -5.381
REMARK INTER:                  -4.762
REMARK INTRA:                  -0.619
REMARK UNBOUND:                -0.440
REMARK SMILES O=C([O-])CCCCCCCC(=O)[O-]
REMARK SMILES IDX 7 1 6 2 5 3 4 4 2 5 1 6 3 7 8 8 9 9 10 10 11 11 12 12 13 13
REMARK H PARENT
REMARK Flexibility Score: inf
ROOT
ATOM      1  C   UNL     1      61.255  33.992  59.286  1.00  0.00     0.000 C 
ENDROOT
BRANCH   1   2
ATOM      2  C   UNL     1      61.456  32.494  59.584  1.00  0.00     0.000 C 
BRANCH   2   3
ATOM      3  C   UNL     1      61.348  32.105  61.072  1.00  0.00     0.006 C 
BRANCH   3   4
ATOM      4  C   UNL     1      61.030  30.621  61.318  1.00  0.00     0.053 C 
BRANCH   4   5
ATOM      5  C   UNL     1      62.262  29.828  61.632  1.00  0.00     0.041 C 
ATOM      6  O   UNL     1      62.194  28.578  61.767  1.00  0.00    -0.550 OA
ATOM      7  O   UNL     1      63.491  30.467  61.741  1.00  0.00    -0.550 OA
ENDBRANCH   4   5
ENDBRANCH   3   4
ENDBRANCH   2   3
ENDBRANCH   1   2
BRANCH   1   8
ATOM      8  C   UNL     1      61.268  34.914  60.521  1.00  0.00     0.000 C 
BRANCH   8   9
ATOM      9  C   UNL     1      62.327  36.035  60.486  1.00  0.00     0.006 C 
BRANCH   9  10
ATOM     10  C   UNL     1      63.730  35.572  60.062  1.00  0.00     0.053 C 
BRANCH  10  11
ATOM     11  C   UNL     1      64.449  34.873  61.175  1.00  0.00     0.041 C 
ATOM     12  O   UNL     1      64.499  33.615  61.204  1.00  0.00    -0.550 OA
ATOM     13  O   UNL     1      65.091  35.611  62.161  1.00  0.00    -0.550 OA
ENDBRANCH  10  11
ENDBRANCH   9  10
ENDBRANCH   8   9
ENDBRANCH   1   8
TORSDOF 8
ENDMDL
MODEL 5
REMARK VINA RESULT:    -3.364     12.663     14.452
REMARK INTER + INTRA:          -5.378
REMARK INTER:                  -4.694
REMARK INTRA:                  -0.684
REMARK UNBOUND:                -0.440
REMARK SMILES O=C([O-])CCCCCCCC(=O)[O-]
REMARK SMILES IDX 7 1 6 2 5 3 4 4 2 5 1 6 3 7 8 8 9 9 10 10 11 11 12 12 13 13
REMARK H PARENT
REMARK Flexibility Score: inf
ROOT
ATOM      1  C   UNL     1      58.270  29.078  50.527  1.00  0.00     0.000 C 
ENDROOT
BRANCH   1   2
ATOM      2  C   UNL     1      59.060  28.896  49.216  1.00  0.00     0.000 C 
BRANCH   2   3
ATOM      3  C   UNL     1      60.168  27.824  49.266  1.00  0.00     0.006 C 
BRANCH   3   4
ATOM      4  C   UNL     1      59.652  26.385  49.422  1.00  0.00     0.053 C 
BRANCH   4   5
ATOM      5  C   UNL     1      60.161  25.740  50.675  1.00  0.00     0.041 C 
ATOM      6  O   UNL     1      59.842  26.204  51.801  1.00  0.00    -0.550 OA
ATOM      7  O   UNL     1      60.960  24.606  50.599  1.00  0.00    -0.550 OA
ENDBRANCH   4   5
ENDBRANCH   3   4
ENDBRANCH   2   3
ENDBRANCH   1   2
BRANCH   1   8
ATOM      8  C   UNL     1      56.776  28.709  50.448  1.00  0.00     0.000 C 
BRANCH   8   9
ATOM      9  C   UNL     1      56.419  27.317  51.010  1.00  0.00     0.006 C 
BRANCH   9  10
ATOM     10  C   UNL     1      56.009  26.288  49.944  1.00  0.00     0.053 C 
BRANCH  10  11
ATOM     11  C   UNL     1      54.521  26.199  49.794  1.00  0.00     0.041 C 
ATOM     12  O   UNL     1      53.769  26.894  50.528  1.00  0.00    -0.550 OA
ATOM     13  O   UNL     1      53.966  25.374  48.825  1.00  0.00    -0.550 OA
ENDBRANCH  10  11
ENDBRANCH   9  10
ENDBRANCH   8   9
ENDBRANCH   1   8
TORSDOF 8
ENDMDL
MODEL 6
REMARK VINA RESULT:    -3.351      1.460      5.278
REMARK INTER + INTRA:          -5.358
REMARK INTER:                  -4.762
REMARK INTRA:                  -0.596
REMARK UNBOUND:                -0.440
REMARK SMILES O=C([O-])CCCCCCCC(=O)[O-]
REMARK SMILES IDX 7 1 6 2 5 3 4 4 2 5 1 6 3 7 8 8 9 9 10 10 11 11 12 12 13 13
REMARK H PARENT
REMARK Flexibility Score: inf
ROOT
ATOM      1  C   UNL     1      61.555  32.967  58.577  1.00  0.00     0.000 C 
ENDROOT
BRANCH   1   2
ATOM      2  C   UNL     1      61.257  34.372  59.135  1.00  0.00     0.000 C 
BRANCH   2   3
ATOM      3  C   UNL     1      62.501  35.235  59.429  1.00  0.00     0.006 C 
BRANCH   3   4
ATOM      4  C   UNL     1      62.815  35.406  60.923  1.00  0.00     0.053 C 
BRANCH   4   5
ATOM      5  C   UNL     1      64.127  34.786  61.295  1.00  0.00     0.041 C 
ATOM      6  O   UNL     1      64.359  33.580  61.018  1.00  0.00    -0.550 OA
ATOM      7  O   UNL     1      65.108  35.550  61.916  1.00  0.00    -0.550 OA
ENDBRANCH   4   5
ENDBRANCH   3   4
ENDBRANCH   2   3
ENDBRANCH   1   2
BRANCH   1   8
ATOM      8  C   UNL     1      61.115  31.797  59.478  1.00  0.00     0.000 C 
BRANCH   8   9
ATOM      9  C   UNL     1      61.224  32.065  60.993  1.00  0.00     0.006 C 
BRANCH   9  10
ATOM     10  C   UNL     1      61.101  30.809  61.871  1.00  0.00     0.053 C 
BRANCH  10  11
ATOM     11  C   UNL     1      62.305  29.925  61.756  1.00  0.00     0.041 C 
ATOM     12  O   UNL     1      63.459  30.428  61.745  1.00  0.00    -0.550 OA
ATOM     13  O   UNL     1      62.154  28.546  61.697  1.00  0.00    -0.550 OA
ENDBRANCH  10  11
ENDBRANCH   9  10
ENDBRANCH   8   9
ENDBRANCH   1   8
TORSDOF 8
ENDMDL
MODEL 7
REMARK VINA RESULT:    -3.279     12.831     14.336
REMARK INTER + INTRA:          -5.254
REMARK INTER:                  -4.727
REMARK INTRA:                  -0.527
REMARK UNBOUND:                -0.440
REMARK SMILES O=C([O-])CCCCCCCC(=O)[O-]
REMARK SMILES IDX 7 1 6 2 5 3 4 4 2 5 1 6 3 7 8 8 9 9 10 10 11 11 12 12 13 13
REMARK H PARENT
REMARK Flexibility Score: inf
ROOT
ATOM      1  C   UNL     1      56.322  28.778  51.678  1.00  0.00     0.000 C 
ENDROOT
BRANCH   1   2
ATOM      2  C   UNL     1      54.807  28.515  51.585  1.00  0.00     0.000 C 
BRANCH   2   3
ATOM      3  C   UNL     1      54.227  28.538  50.156  1.00  0.00     0.006 C 
BRANCH   3   4
ATOM      4  C   UNL     1      53.457  27.266  49.764  1.00  0.00     0.053 C 
BRANCH   4   5
ATOM      5  C   UNL     1      54.288  26.032  49.935  1.00  0.00     0.041 C 
ATOM      6  O   UNL     1      55.355  25.891  49.281  1.00  0.00    -0.550 OA
ATOM      7  O   UNL     1      53.902  25.053  50.842  1.00  0.00    -0.550 OA
ENDBRANCH   4   5
ENDBRANCH   3   4
ENDBRANCH   2   3
ENDBRANCH   1   2
BRANCH   1   8
ATOM      8  C   UNL     1      57.060  28.845  50.327  1.00  0.00     0.000 C 
BRANCH   8   9
ATOM      9  C   UNL     1      58.209  27.831  50.161  1.00  0.00     0.006 C 
BRANCH   9  10
ATOM     10  C   UNL     1      59.404  28.352  49.346  1.00  0.00     0.053 C 
BRANCH  10  11
ATOM     11  C   UNL     1      60.580  27.427  49.421  1.00  0.00     0.041 C 
ATOM     12  O   UNL     1      60.401  26.182  49.490  1.00  0.00    -0.550 OA
ATOM     13  O   UNL     1      61.871  27.936  49.383  1.00  0.00    -0.550 OA
ENDBRANCH  10  11
ENDBRANCH   9  10
ENDBRANCH   8   9
ENDBRANCH   1   8
TORSDOF 8
ENDMDL
MODEL 8
REMARK VINA RESULT:    -3.273      1.589      2.056
REMARK INTER + INTRA:          -5.245
REMARK INTER:                  -4.656
REMARK INTRA:                  -0.589
REMARK UNBOUND:                -0.440
REMARK SMILES O=C([O-])CCCCCCCC(=O)[O-]
REMARK SMILES IDX 7 1 6 2 5 3 4 4 2 5 1 6 3 7 8 8 9 9 10 10 11 11 12 12 13 13
REMARK H PARENT
REMARK Flexibility Score: inf
ROOT
ATOM      1  C   UNL     1      61.168  31.073  59.748  1.00  0.00     0.000 C 
ENDROOT
BRANCH   1   2
ATOM      2  C   UNL     1      61.036  30.712  61.240  1.00  0.00     0.000 C 
BRANCH   2   3
ATOM      3  C   UNL     1      62.292  30.075  61.871  1.00  0.00     0.006 C 
BRANCH   3   4
ATOM      4  C   UNL     1      63.314  29.546  60.853  1.00  0.00     0.053 C 
BRANCH   4   5
ATOM      5  C   UNL     1      64.593  30.323  60.886  1.00  0.00     0.041 C 
ATOM      6  O   UNL     1      64.572  31.572  61.043  1.00  0.00    -0.550 OA
ATOM      7  O   UNL     1      65.812  29.663  60.780  1.00  0.00    -0.550 OA
ENDBRANCH   4   5
ENDBRANCH   3   4
ENDBRANCH   2   3
ENDBRANCH   1   2
BRANCH   1   8
ATOM      8  C   UNL     1      61.539  32.542  59.459  1.00  0.00     0.000 C 
BRANCH   8   9
ATOM      9  C   UNL     1      61.560  33.463  60.696  1.00  0.00     0.006 C 
BRANCH   9  10
ATOM     10  C   UNL     1      61.557  34.965  60.369  1.00  0.00     0.053 C 
BRANCH  10  11
ATOM     11  C   UNL     1      62.677  35.689  61.051  1.00  0.00     0.041 C 
ATOM     12  O   UNL     1      63.737  35.077  61.348  1.00  0.00    -0.550 OA
ATOM     13  O   UNL     1      62.564  37.045  61.328  1.00  0.00    -0.550 OA
ENDBRANCH  10  11
ENDBRANCH   9  10
ENDBRANCH   8   9
ENDBRANCH   1   8
TORSDOF 8
ENDMDL
MODEL 9
REMARK VINA RESULT:    -3.219      1.397      5.186
REMARK INTER + INTRA:          -5.164
REMARK INTER:                  -4.519
REMARK INTRA:                  -0.646
REMARK UNBOUND:                -0.440
REMARK SMILES O=C([O-])CCCCCCCC(=O)[O-]
REMARK SMILES IDX 7 1 6 2 5 3 4 4 2 5 1 6 3 7 8 8 9 9 10 10 11 11 12 12 13 13
REMARK H PARENT
REMARK Flexibility Score: inf
ROOT
ATOM      1  C   UNL     1      61.378  30.757  60.758  1.00  0.00     0.000 C 
ENDROOT
BRANCH   1   2
ATOM      2  C   UNL     1      61.222  32.265  61.033  1.00  0.00     0.000 C 
BRANCH   2   3
ATOM      3  C   UNL     1      62.151  33.179  60.206  1.00  0.00     0.006 C 
BRANCH   3   4
ATOM      4  C   UNL     1      63.542  33.391  60.822  1.00  0.00     0.053 C 
BRANCH   4   5
ATOM      5  C   UNL     1      63.780  34.823  61.191  1.00  0.00     0.041 C 
ATOM      6  O   UNL     1      62.822  35.640  61.210  1.00  0.00    -0.550 OA
ATOM      7  O   UNL     1      65.054  35.248  61.548  1.00  0.00    -0.550 OA
ENDBRANCH   4   5
ENDBRANCH   3   4
ENDBRANCH   2   3
ENDBRANCH   1   2
BRANCH   1   8
ATOM      8  C   UNL     1      62.240  29.991  61.781  1.00  0.00     0.000 C 
BRANCH   8   9
ATOM      9  C   UNL     1      63.379  29.148  61.171  1.00  0.00     0.006 C 
BRANCH   9  10
ATOM     10  C   UNL     1      63.940  29.700  59.850  1.00  0.00     0.053 C 
BRANCH  10  11
ATOM     11  C   UNL     1      65.363  30.150  59.990  1.00  0.00     0.041 C 
ATOM     12  O   UNL     1      65.789  31.119  59.308  1.00  0.00    -0.550 OA
ATOM     13  O   UNL     1      66.206  29.521  60.897  1.00  0.00    -0.550 OA
ENDBRANCH  10  11
ENDBRANCH   9  10
ENDBRANCH   8   9
ENDBRANCH   1   8
TORSDOF 8
ENDMDL
