MODEL 1
REMARK VINA RESULT:   114.564      0.000      0.000
REMARK INTER + INTRA:         168.734
REMARK INTER:                 168.143
REMARK INTRA:                   0.590
REMARK UNBOUND:                 0.590
REMARK SMILES Cc1cc2c(C(C)C)c(O)c(O)c(C=O)c2c(O)c1-c1c(C)cc2c(C(C)C)c(O)c(O)c(C=O)c2c1O
REMARK SMILES IDX 1 1 2 2 3 3 4 4 16 5 13 6 11 7 9 8 5 9 17 10 19 11 20 12
REMARK SMILES IDX 37 13 21 14 36 15 23 16 22 17 24 18 33 19 25 20 31 21 29 22
REMARK SMILES IDX 38 23 34 25 35 26 26 27 27 28 28 29 32 30 30 32 18 34 6 36
REMARK SMILES IDX 7 37 8 38 14 39 15 40 10 41 12 43
REMARK H PARENT 38 24 32 31 30 33 18 35 10 42 12 44
REMARK Flexibility Score: inf
ROOT
ATOM      1  C   UNL     1     -13.907 -14.917 -11.277  1.00  0.00     0.045 C 
ATOM      2  C   UNL     1     -14.637 -15.955 -10.459  1.00  0.00    -0.039 A 
ATOM      3  C   UNL     1     -14.170 -16.270  -9.182  1.00  0.00     0.013 A 
ATOM      4  C   UNL     1     -14.792 -17.253  -8.380  1.00  0.00    -0.006 A 
ATOM      5  C   UNL     1     -15.978 -17.886  -8.865  1.00  0.00     0.039 A 
ATOM      6  C   UNL     1     -16.636 -18.843  -8.036  1.00  0.00     0.072 A 
ATOM      7  C   UNL     1     -16.225 -19.009  -6.699  1.00  0.00     0.169 A 
ATOM      8  C   UNL     1     -15.082 -18.359  -6.223  1.00  0.00     0.162 A 
ATOM      9  C   UNL     1     -14.277 -17.587  -7.088  1.00  0.00     0.008 A 
ATOM     10  C   UNL     1     -16.494 -17.503 -10.139  1.00  0.00     0.132 A 
ATOM     11  C   UNL     1     -15.808 -16.563 -10.938  1.00  0.00     0.031 A 
ENDROOT
BRANCH  11  12
ATOM     12  C   UNL     1     -16.346 -16.181 -12.271  1.00  0.00     0.031 A 
ATOM     13  C   UNL     1     -16.022 -16.947 -13.411  1.00  0.00     0.132 A 
ATOM     14  C   UNL     1     -17.165 -15.047 -12.394  1.00  0.00    -0.039 A 
ATOM     15  C   UNL     1     -16.501 -16.561 -14.700  1.00  0.00     0.039 A 
ATOM     16  C   UNL     1     -17.717 -14.729 -13.636  1.00  0.00     0.013 A 
ATOM     17  C   UNL     1     -17.503 -14.195 -11.194  1.00  0.00     0.045 C 
ATOM     18  C   UNL     1     -17.455 -15.503 -14.788  1.00  0.00    -0.006 A 
ATOM     19  C   UNL     1     -16.071 -17.203 -15.900  1.00  0.00     0.072 A 
ATOM     20  C   UNL     1     -18.107 -15.226 -16.027  1.00  0.00     0.008 A 
ATOM     21  C   UNL     1     -16.588 -16.781 -17.143  1.00  0.00     0.169 A 
ATOM     22  C   UNL     1     -17.596 -15.813 -17.203  1.00  0.00     0.162 A 
BRANCH  13  23
ATOM     23  O   UNL     1     -15.250 -18.105 -13.261  1.00  0.00    -0.507 OA
ATOM     24  H   UNL     1     -14.614 -18.264 -12.490  1.00  0.00     0.293 HD
ENDBRANCH  13  23
BRANCH  19  25
ATOM     25  C   UNL     1     -15.019 -18.240 -15.897  1.00  0.00     0.264 C 
ATOM     26  O   UNL     1     -13.836 -17.953 -16.218  1.00  0.00    -0.298 OA
ENDBRANCH  19  25
BRANCH  20  27
ATOM     27  C   UNL     1     -19.332 -14.297 -16.105  1.00  0.00     0.017 C 
ATOM     28  C   UNL     1     -20.492 -14.849 -15.272  1.00  0.00     0.012 C 
ATOM     29  C   UNL     1     -19.024 -12.834 -15.736  1.00  0.00     0.012 C 
ENDBRANCH  20  27
BRANCH  21  30
ATOM     30  O   UNL     1     -16.101 -17.296 -18.351  1.00  0.00    -0.504 OA
ATOM     31  H   UNL     1     -16.241 -16.860 -19.252  1.00  0.00     0.293 HD
ENDBRANCH  21  30
BRANCH  22  32
ATOM     32  O   UNL     1     -18.080 -15.408 -18.450  1.00  0.00    -0.504 OA
ATOM     33  H   UNL     1     -18.727 -15.961 -18.999  1.00  0.00     0.293 HD
ENDBRANCH  22  32
ENDBRANCH  11  12
BRANCH  10  34
ATOM     34  O   UNL     1     -17.711 -18.025 -10.593  1.00  0.00    -0.507 OA
ATOM     35  H   UNL     1     -18.403 -18.456  -9.993  1.00  0.00     0.293 HD
ENDBRANCH  10  34
BRANCH   9  36
ATOM     36  C   UNL     1     -12.898 -17.097  -6.612  1.00  0.00     0.017 C 
ATOM     37  C   UNL     1     -12.238 -16.211  -7.671  1.00  0.00     0.012 C 
ATOM     38  C   UNL     1     -12.924 -16.400  -5.238  1.00  0.00     0.012 C 
ENDBRANCH   9  36
BRANCH   6  39
ATOM     39  C   UNL     1     -17.722 -19.710  -8.535  1.00  0.00     0.264 C 
ATOM     40  O   UNL     1     -18.895 -19.264  -8.641  1.00  0.00    -0.298 OA
ENDBRANCH   6  39
BRANCH   8  41
ATOM     41  O   UNL     1     -14.736 -18.485  -4.875  1.00  0.00    -0.504 OA
ATOM     42  H   UNL     1     -14.243 -19.288  -4.505  1.00  0.00     0.293 HD
ENDBRANCH   8  41
BRANCH   7  43
ATOM     43  O   UNL     1     -16.919 -19.847  -5.818  1.00  0.00    -0.504 OA
ATOM     44  H   UNL     1     -17.207 -19.577  -4.887  1.00  0.00     0.293 HD
ENDBRANCH   7  43
TORSDOF 11
ENDMDL
MODEL 2
REMARK VINA RESULT:   114.740      1.218      1.779
REMARK INTER + INTRA:         168.993
REMARK INTER:                 166.504
REMARK INTRA:                   2.489
REMARK UNBOUND:                 0.590
REMARK SMILES Cc1cc2c(C(C)C)c(O)c(O)c(C=O)c2c(O)c1-c1c(C)cc2c(C(C)C)c(O)c(O)c(C=O)c2c1O
REMARK SMILES IDX 1 1 2 2 3 3 4 4 16 5 13 6 11 7 9 8 5 9 17 10 19 11 20 12
REMARK SMILES IDX 37 13 21 14 36 15 23 16 22 17 24 18 33 19 25 20 31 21 29 22
REMARK SMILES IDX 38 23 34 25 35 26 26 27 27 28 28 29 32 30 30 32 18 34 6 36
REMARK SMILES IDX 7 37 8 38 14 39 15 40 10 41 12 43
REMARK H PARENT 38 24 32 31 30 33 18 35 10 42 12 44
REMARK Flexibility Score: inf
ROOT
ATOM      1  C   UNL     1     -13.257 -14.258 -12.160  1.00  0.00     0.045 C 
ATOM      2  C   UNL     1     -13.703 -15.154 -11.029  1.00  0.00    -0.039 A 
ATOM      3  C   UNL     1     -12.975 -15.165  -9.839  1.00  0.00     0.013 A 
ATOM      4  C   UNL     1     -13.324 -16.004  -8.756  1.00  0.00    -0.006 A 
ATOM      5  C   UNL     1     -14.502 -16.806  -8.862  1.00  0.00     0.039 A 
ATOM      6  C   UNL     1     -14.885 -17.615  -7.750  1.00  0.00     0.072 A 
ATOM      7  C   UNL     1     -14.217 -17.473  -6.519  1.00  0.00     0.169 A 
ATOM      8  C   UNL     1     -13.084 -16.659  -6.417  1.00  0.00     0.162 A 
ATOM      9  C   UNL     1     -12.545 -16.027  -7.558  1.00  0.00     0.008 A 
ATOM     10  C   UNL     1     -15.286 -16.731 -10.052  1.00  0.00     0.132 A 
ATOM     11  C   UNL     1     -14.868 -15.931 -11.136  1.00  0.00     0.031 A 
ENDROOT
BRANCH  11  12
ATOM     12  C   UNL     1     -15.683 -15.870 -12.379  1.00  0.00     0.031 A 
ATOM     13  C   UNL     1     -15.167 -16.382 -13.589  1.00  0.00     0.132 A 
ATOM     14  C   UNL     1     -16.961 -15.291 -12.348  1.00  0.00    -0.039 A 
ATOM     15  C   UNL     1     -15.927 -16.290 -14.794  1.00  0.00     0.039 A 
ATOM     16  C   UNL     1     -17.745 -15.293 -13.502  1.00  0.00     0.013 A 
ATOM     17  C   UNL     1     -17.524 -14.712 -11.072  1.00  0.00     0.045 C 
ATOM     18  C   UNL     1     -17.280 -15.842 -14.718  1.00  0.00    -0.006 A 
ATOM     19  C   UNL     1     -15.388 -16.641 -16.068  1.00  0.00     0.072 A 
ATOM     20  C   UNL     1     -18.131 -15.930 -15.861  1.00  0.00     0.008 A 
ATOM     21  C   UNL     1     -16.194 -16.536 -17.222  1.00  0.00     0.169 A 
ATOM     22  C   UNL     1     -17.546 -16.193 -17.117  1.00  0.00     0.162 A 
BRANCH  13  23
ATOM     23  O   UNL     1     -13.914 -17.006 -13.589  1.00  0.00    -0.507 OA
ATOM     24  H   UNL     1     -13.704 -17.852 -14.104  1.00  0.00     0.293 HD
ENDBRANCH  13  23
BRANCH  19  25
ATOM     25  C   UNL     1     -13.971 -17.021 -16.238  1.00  0.00     0.264 C 
ATOM     26  O   UNL     1     -13.648 -18.222 -16.429  1.00  0.00    -0.298 OA
ENDBRANCH  19  25
BRANCH  20  27
ATOM     27  C   UNL     1     -19.653 -15.729 -15.753  1.00  0.00     0.017 C 
ATOM     28  C   UNL     1     -20.367 -17.065 -15.533  1.00  0.00     0.012 C 
ATOM     29  C   UNL     1     -20.067 -14.691 -14.693  1.00  0.00     0.012 C 
ENDBRANCH  20  27
BRANCH  21  30
ATOM     30  O   UNL     1     -15.668 -16.748 -18.503  1.00  0.00    -0.504 OA
ATOM     31  H   UNL     1     -16.035 -16.324 -19.344  1.00  0.00     0.293 HD
ENDBRANCH  21  30
BRANCH  22  32
ATOM     32  O   UNL     1     -18.315 -16.087 -18.279  1.00  0.00    -0.504 OA
ATOM     33  H   UNL     1     -19.055 -15.405 -18.392  1.00  0.00     0.293 HD
ENDBRANCH  22  32
ENDBRANCH  11  12
BRANCH  10  34
ATOM     34  O   UNL     1     -16.500 -17.421 -10.142  1.00  0.00    -0.507 OA
ATOM     35  H   UNL     1     -16.779 -18.163  -9.512  1.00  0.00     0.293 HD
ENDBRANCH  10  34
BRANCH   9  36
ATOM     36  C   UNL     1     -11.163 -15.352  -7.474  1.00  0.00     0.017 C 
ATOM     37  C   UNL     1     -10.968 -14.364  -8.627  1.00  0.00     0.012 C 
ATOM     38  C   UNL     1     -10.875 -14.688  -6.114  1.00  0.00     0.012 C 
ENDBRANCH   9  36
BRANCH   6  39
ATOM     39  C   UNL     1     -15.942 -18.642  -7.845  1.00  0.00     0.264 C 
ATOM     40  O   UNL     1     -16.293 -19.290  -6.825  1.00  0.00    -0.298 OA
ENDBRANCH   6  39
BRANCH   8  41
ATOM     41  O   UNL     1     -12.482 -16.479  -5.169  1.00  0.00    -0.504 OA
ATOM     42  H   UNL     1     -12.620 -17.114  -4.393  1.00  0.00     0.293 HD
ENDBRANCH   8  41
BRANCH   7  43
ATOM     43  O   UNL     1     -14.638 -18.158  -5.373  1.00  0.00    -0.504 OA
ATOM     44  H   UNL     1     -15.159 -19.025  -5.390  1.00  0.00     0.293 HD
ENDBRANCH   7  43
TORSDOF 11
ENDMDL
MODEL 3
REMARK VINA RESULT:   115.626      2.153      3.056
REMARK INTER + INTRA:         170.292
REMARK INTER:                 169.165
REMARK INTRA:                   1.128
REMARK UNBOUND:                 0.590
REMARK SMILES Cc1cc2c(C(C)C)c(O)c(O)c(C=O)c2c(O)c1-c1c(C)cc2c(C(C)C)c(O)c(O)c(C=O)c2c1O
REMARK SMILES IDX 1 1 2 2 3 3 4 4 16 5 13 6 11 7 9 8 5 9 17 10 19 11 20 12
REMARK SMILES IDX 37 13 21 14 36 15 23 16 22 17 24 18 33 19 25 20 31 21 29 22
REMARK SMILES IDX 38 23 34 25 35 26 26 27 27 28 28 29 32 30 30 32 18 34 6 36
REMARK SMILES IDX 7 37 8 38 14 39 15 40 10 41 12 43
REMARK H PARENT 38 24 32 31 30 33 18 35 10 42 12 44
REMARK Flexibility Score: inf
ROOT
ATOM      1  C   UNL     1     -16.251 -14.281 -11.304  1.00  0.00     0.045 C 
ATOM      2  C   UNL     1     -15.959 -15.658 -10.756  1.00  0.00    -0.039 A 
ATOM      3  C   UNL     1     -15.771 -15.820  -9.384  1.00  0.00     0.013 A 
ATOM      4  C   UNL     1     -15.466 -17.077  -8.814  1.00  0.00    -0.006 A 
ATOM      5  C   UNL     1     -15.424 -18.225  -9.665  1.00  0.00     0.039 A 
ATOM      6  C   UNL     1     -15.167 -19.503  -9.085  1.00  0.00     0.072 A 
ATOM      7  C   UNL     1     -15.144 -19.642  -7.684  1.00  0.00     0.169 A 
ATOM      8  C   UNL     1     -15.219 -18.516  -6.857  1.00  0.00     0.162 A 
ATOM      9  C   UNL     1     -15.241 -17.217  -7.409  1.00  0.00     0.008 A 
ATOM     10  C   UNL     1     -15.696 -18.064 -11.057  1.00  0.00     0.132 A 
ATOM     11  C   UNL     1     -15.933 -16.782 -11.597  1.00  0.00     0.031 A 
ENDROOT
BRANCH  11  12
ATOM     12  C   UNL     1     -16.199 -16.621 -13.051  1.00  0.00     0.031 A 
ATOM     13  C   UNL     1     -17.450 -16.997 -13.588  1.00  0.00     0.132 A 
ATOM     14  C   UNL     1     -15.199 -16.108 -13.892  1.00  0.00    -0.039 A 
ATOM     15  C   UNL     1     -17.698 -16.884 -14.990  1.00  0.00     0.039 A 
ATOM     16  C   UNL     1     -15.476 -15.901 -15.244  1.00  0.00     0.013 A 
ATOM     17  C   UNL     1     -13.844 -15.724 -13.347  1.00  0.00     0.045 C 
ATOM     18  C   UNL     1     -16.733 -16.218 -15.804  1.00  0.00    -0.006 A 
ATOM     19  C   UNL     1     -18.879 -17.400 -15.602  1.00  0.00     0.072 A 
ATOM     20  C   UNL     1     -17.035 -15.906 -17.164  1.00  0.00     0.008 A 
ATOM     21  C   UNL     1     -19.070 -17.249 -16.992  1.00  0.00     0.169 A 
ATOM     22  C   UNL     1     -18.165 -16.506 -17.758  1.00  0.00     0.162 A 
BRANCH  13  23
ATOM     23  O   UNL     1     -18.454 -17.455 -12.727  1.00  0.00    -0.507 OA
ATOM     24  H   UNL     1     -18.533 -18.413 -12.410  1.00  0.00     0.293 HD
ENDBRANCH  13  23
BRANCH  19  25
ATOM     25  C   UNL     1     -19.874 -18.182 -14.841  1.00  0.00     0.264 C 
ATOM     26  O   UNL     1     -21.090 -18.163 -15.169  1.00  0.00    -0.298 OA
ENDBRANCH  19  25
BRANCH  20  27
ATOM     27  C   UNL     1     -16.153 -14.951 -17.989  1.00  0.00     0.017 C 
ATOM     28  C   UNL     1     -14.788 -14.754 -17.323  1.00  0.00     0.012 C 
ATOM     29  C   UNL     1     -16.002 -15.368 -19.464  1.00  0.00     0.012 C 
ENDBRANCH  20  27
BRANCH  21  30
ATOM     30  O   UNL     1     -20.149 -17.849 -17.652  1.00  0.00    -0.504 OA
ATOM     31  H   UNL     1     -20.921 -17.339 -18.059  1.00  0.00     0.293 HD
ENDBRANCH  21  30
BRANCH  22  32
ATOM     32  O   UNL     1     -18.375 -16.384 -19.134  1.00  0.00    -0.504 OA
ATOM     33  H   UNL     1     -18.114 -15.561 -19.663  1.00  0.00     0.293 HD
ENDBRANCH  22  32
ENDBRANCH  11  12
BRANCH  10  34
ATOM     34  O   UNL     1     -15.770 -19.182 -11.895  1.00  0.00    -0.507 OA
ATOM     35  H   UNL     1     -15.383 -20.090 -11.666  1.00  0.00     0.293 HD
ENDBRANCH  10  34
BRANCH   9  36
ATOM     36  C   UNL     1     -15.063 -15.995  -6.489  1.00  0.00     0.017 C 
ATOM     37  C   UNL     1     -16.394 -15.600  -5.844  1.00  0.00     0.012 C 
ATOM     38  C   UNL     1     -13.958 -16.169  -5.429  1.00  0.00     0.012 C 
ENDBRANCH   9  36
BRANCH   6  39
ATOM     39  C   UNL     1     -14.878 -20.699  -9.901  1.00  0.00     0.264 C 
ATOM     40  O   UNL     1     -14.016 -21.534  -9.522  1.00  0.00    -0.298 OA
ENDBRANCH   6  39
BRANCH   8  41
ATOM     41  O   UNL     1     -15.265 -18.687  -5.472  1.00  0.00    -0.504 OA
ATOM     42  H   UNL     1     -15.415 -19.586  -5.032  1.00  0.00     0.293 HD
ENDBRANCH   8  41
BRANCH   7  43
ATOM     43  O   UNL     1     -15.015 -20.896  -7.074  1.00  0.00    -0.504 OA
ATOM     44  H   UNL     1     -14.652 -21.718  -7.538  1.00  0.00     0.293 HD
ENDBRANCH   7  43
TORSDOF 11
ENDMDL
