MODEL 1
REMARK VINA RESULT:   141.939      0.000      0.000
REMARK INTER + INTRA:         162.718
REMARK INTER:                 162.684
REMARK INTRA:                   0.034
REMARK UNBOUND:                 0.034
REMARK SMILES C=C(C)[C@H]1CC[C@@]2(C(=O)[O-])CC[C@]3(C)[C@H](CC[C@@H]4[C@@]5(C)CC[C@@H](O)C(C)(C)[C@@H]5CC[C@@]43C)[C@@H]12
REMARK SMILES IDX 7 1 6 2 33 3 11 4 5 5 15 6 4 7 12 8 16 9 13 10 17 11 31 12
REMARK SMILES IDX 14 13 18 14 30 15 32 16 19 17 29 18 21 19 20 20 28 21 22 22
REMARK SMILES IDX 25 23 23 24 26 25 27 26 8 27 9 28 10 29 2 30 3 31 1 32 24 33
REMARK H PARENT 24 34
REMARK Flexibility Score: inf
ROOT
ATOM      1  C   UNL     1     -44.674  32.182 -22.478  1.00  0.00     0.014 C 
ATOM      2  C   UNL     1     -44.819  32.751 -23.915  1.00  0.00     0.014 C 
ATOM      3  C   UNL     1     -43.221  32.624 -22.023  1.00  0.00     0.012 C 
ATOM      4  C   UNL     1     -44.954  30.647 -22.475  1.00  0.00     0.014 C 
ATOM      5  C   UNL     1     -43.869  33.928 -24.016  1.00  0.00     0.009 C 
ATOM      6  C   UNL     1     -42.195  31.532 -21.492  1.00  0.00     0.000 C 
ATOM      7  C   UNL     1     -42.668  33.583 -23.131  1.00  0.00     0.018 C 
ATOM      8  C   UNL     1     -43.707  29.769 -22.399  1.00  0.00     0.008 C 
ATOM      9  C   UNL     1     -41.407  32.082 -20.286  1.00  0.00     0.005 C 
ATOM     10  C   UNL     1     -42.765  30.115 -21.205  1.00  0.00    -0.024 C 
ATOM     11  C   UNL     1     -40.565  31.044 -19.529  1.00  0.00     0.005 C 
ATOM     12  C   UNL     1     -41.532  29.067 -21.086  1.00  0.00    -0.024 C 
ATOM     13  C   UNL     1     -43.626  30.124 -19.895  1.00  0.00     0.012 C 
ATOM     14  C   UNL     1     -40.313  29.654 -20.212  1.00  0.00     0.002 C 
ATOM     15  C   UNL     1     -41.020  28.646 -22.510  1.00  0.00     0.008 C 
ATOM     16  C   UNL     1     -42.047  27.740 -20.424  1.00  0.00     0.012 C 
ATOM     17  C   UNL     1     -38.843  29.499 -20.831  1.00  0.00    -0.026 C 
ATOM     18  C   UNL     1     -39.751  27.773 -22.545  1.00  0.00     0.005 C 
ATOM     19  C   UNL     1     -37.786  29.654 -19.677  1.00  0.00     0.010 C 
ATOM     20  C   UNL     1     -38.561  30.590 -21.917  1.00  0.00     0.012 C 
ATOM     21  C   UNL     1     -38.733  28.040 -21.410  1.00  0.00     0.003 C 
ATOM     22  C   UNL     1     -36.373  29.154 -20.008  1.00  0.00     0.033 C 
ATOM     23  C   UNL     1     -37.278  27.499 -21.725  1.00  0.00    -0.006 C 
ATOM     24  C   UNL     1     -36.372  27.698 -20.470  1.00  0.00     0.120 C 
ATOM     25  C   UNL     1     -37.350  25.977 -22.034  1.00  0.00     0.014 C 
ATOM     26  C   UNL     1     -36.602  28.164 -22.956  1.00  0.00     0.014 C 
ENDROOT
BRANCH   1  27
ATOM     27  C   UNL     1     -45.763  32.830 -21.606  1.00  0.00     0.048 C 
ATOM     28  O   UNL     1     -46.435  33.816 -22.012  1.00  0.00    -0.550 OA
ATOM     29  O   UNL     1     -45.920  32.438 -20.276  1.00  0.00    -0.550 OA
ENDBRANCH   1  27
BRANCH   7  30
ATOM     30  C   UNL     1     -41.474  33.113 -23.979  1.00  0.00    -0.077 C 
ATOM     31  C   UNL     1     -40.733  34.102 -24.844  1.00  0.00     0.039 C 
ATOM     32  C   UNL     1     -41.069  31.833 -24.000  1.00  0.00     0.008 C 
ENDBRANCH   7  30
BRANCH  24  33
ATOM     33  O   UNL     1     -36.796  26.888 -19.396  1.00  0.00    -0.393 OA
ATOM     34  H   UNL     1     -36.541  25.952 -19.613  1.00  0.00     0.210 HD
ENDBRANCH  24  33
TORSDOF 3
ENDMDL
MODEL 2
REMARK VINA RESULT:   142.684     10.247     15.377
REMARK INTER + INTRA:         163.571
REMARK INTER:                 162.961
REMARK INTRA:                   0.610
REMARK UNBOUND:                 0.034
REMARK SMILES C=C(C)[C@H]1CC[C@@]2(C(=O)[O-])CC[C@]3(C)[C@H](CC[C@@H]4[C@@]5(C)CC[C@@H](O)C(C)(C)[C@@H]5CC[C@@]43C)[C@@H]12
REMARK SMILES IDX 7 1 6 2 33 3 11 4 5 5 15 6 4 7 12 8 16 9 13 10 17 11 31 12
REMARK SMILES IDX 14 13 18 14 30 15 32 16 19 17 29 18 21 19 20 20 28 21 22 22
REMARK SMILES IDX 25 23 23 24 26 25 27 26 8 27 9 28 10 29 2 30 3 31 1 32 24 33
REMARK H PARENT 24 34
REMARK Flexibility Score: inf
ROOT
ATOM      1  C   UNL     1     -28.747  22.270 -13.665  1.00  0.00     0.014 C 
ATOM      2  C   UNL     1     -29.307  20.943 -14.243  1.00  0.00     0.014 C 
ATOM      3  C   UNL     1     -30.019  23.206 -13.519  1.00  0.00     0.012 C 
ATOM      4  C   UNL     1     -27.601  22.813 -14.574  1.00  0.00     0.014 C 
ATOM      5  C   UNL     1     -30.768  20.877 -13.845  1.00  0.00     0.009 C 
ATOM      6  C   UNL     1     -30.017  24.649 -14.185  1.00  0.00     0.000 C 
ATOM      7  C   UNL     1     -31.273  22.322 -13.834  1.00  0.00     0.018 C 
ATOM      8  C   UNL     1     -28.000  23.972 -15.485  1.00  0.00     0.008 C 
ATOM      9  C   UNL     1     -30.678  25.673 -13.240  1.00  0.00     0.005 C 
ATOM     10  C   UNL     1     -28.656  25.168 -14.729  1.00  0.00    -0.024 C 
ATOM     11  C   UNL     1     -30.517  27.143 -13.657  1.00  0.00     0.005 C 
ATOM     12  C   UNL     1     -28.932  26.427 -15.716  1.00  0.00    -0.024 C 
ATOM     13  C   UNL     1     -27.710  25.574 -13.548  1.00  0.00     0.012 C 
ATOM     14  C   UNL     1     -30.019  27.450 -15.113  1.00  0.00     0.002 C 
ATOM     15  C   UNL     1     -29.389  25.931 -17.135  1.00  0.00     0.008 C 
ATOM     16  C   UNL     1     -27.584  27.193 -15.960  1.00  0.00     0.012 C 
ATOM     17  C   UNL     1     -31.185  27.930 -16.103  1.00  0.00    -0.026 C 
ATOM     18  C   UNL     1     -29.833  27.024 -18.126  1.00  0.00     0.005 C 
ATOM     19  C   UNL     1     -31.822  29.250 -15.535  1.00  0.00     0.010 C 
ATOM     20  C   UNL     1     -32.308  26.848 -16.232  1.00  0.00     0.012 C 
ATOM     21  C   UNL     1     -30.513  28.259 -17.487  1.00  0.00     0.003 C 
ATOM     22  C   UNL     1     -32.669  30.052 -16.533  1.00  0.00     0.033 C 
ATOM     23  C   UNL     1     -31.363  29.115 -18.514  1.00  0.00    -0.006 C 
ATOM     24  C   UNL     1     -31.890  30.400 -17.801  1.00  0.00     0.120 C 
ATOM     25  C   UNL     1     -30.454  29.555 -19.695  1.00  0.00     0.014 C 
ATOM     26  C   UNL     1     -32.561  28.350 -19.144  1.00  0.00     0.014 C 
ENDROOT
BRANCH   1  27
ATOM     27  C   UNL     1     -28.114  21.957 -12.299  1.00  0.00     0.048 C 
ATOM     28  O   UNL     1     -28.350  20.876 -11.694  1.00  0.00    -0.550 OA
ATOM     29  O   UNL     1     -27.387  22.936 -11.622  1.00  0.00    -0.550 OA
ENDBRANCH   1  27
BRANCH   7  30
ATOM     30  C   UNL     1     -32.089  22.632 -15.101  1.00  0.00    -0.077 C 
ATOM     31  C   UNL     1     -33.112  21.640 -15.594  1.00  0.00     0.039 C 
ATOM     32  C   UNL     1     -31.910  23.756 -15.812  1.00  0.00     0.008 C 
ENDBRANCH   7  30
BRANCH  24  33
ATOM     33  O   UNL     1     -30.832  31.264 -17.453  1.00  0.00    -0.393 OA
ATOM     34  H   UNL     1     -31.114  31.765 -16.642  1.00  0.00     0.210 HD
ENDBRANCH  24  33
TORSDOF 3
ENDMDL
