MODEL 1
REMARK VINA RESULT:    -4.185      0.000      0.000
REMARK INTER + INTRA:          -5.041
REMARK INTER:                  -5.041
REMARK INTRA:                   0.001
REMARK UNBOUND:                 0.001
REMARK SMILES [NH3+][C@H](Cc1c[nH]c2ccccc12)C(=O)[O-]
REMARK SMILES IDX 3 1 2 2 1 3 13 7 14 8 15 9 4 10 12 11 5 12 7 13 11 14 6 15
REMARK SMILES IDX 8 16 10 17 9 19
REMARK H PARENT 1 4 1 5 1 6 6 18
REMARK Flexibility Score: inf
ROOT
ATOM      1  C   UNL     1       6.876 -32.884 -12.358  1.00  0.00     0.109 C 
ENDROOT
BRANCH   1   2
ATOM      2  C   UNL     1       8.353 -33.059 -11.953  1.00  0.00     0.232 C 
BRANCH   2   3
ATOM      3  N   UNL     1       9.169 -33.398 -13.125  1.00  0.00    -0.350 N 
ATOM      4  H   UNL     1      10.158 -33.572 -12.830  1.00  0.00     0.345 HD
ATOM      5  H   UNL     1       9.166 -32.601 -13.802  1.00  0.00     0.345 HD
ATOM      6  H   UNL     1       8.800 -34.255 -13.599  1.00  0.00     0.345 HD
ENDBRANCH   2   3
BRANCH   2   7
ATOM      7  C   UNL     1       8.882 -31.810 -11.295  1.00  0.00     0.099 C 
ATOM      8  O   UNL     1      10.119 -31.671 -11.106  1.00  0.00    -0.544 OA
ATOM      9  O   UNL     1       8.007 -30.819 -10.865  1.00  0.00    -0.544 OA
ENDBRANCH   2   7
ENDBRANCH   1   2
BRANCH   1  10
ATOM     10  C   UNL     1       6.162 -34.204 -12.431  1.00  0.00    -0.016 A 
ATOM     11  C   UNL     1       5.014 -34.586 -11.761  1.00  0.00     0.003 A 
ATOM     12  C   UNL     1       6.585 -35.333 -13.125  1.00  0.00     0.087 A 
ATOM     13  C   UNL     1       4.788 -35.901 -12.082  1.00  0.00     0.046 A 
ATOM     14  C   UNL     1       4.172 -33.887 -10.897  1.00  0.00     0.010 A 
ATOM     15  N   UNL     1       5.738 -36.365 -12.913  1.00  0.00    -0.361 N 
ATOM     16  C   UNL     1       3.703 -36.605 -11.562  1.00  0.00     0.026 A 
ATOM     17  C   UNL     1       3.068 -34.572 -10.358  1.00  0.00     0.001 A 
ATOM     18  H   UNL     1       5.816 -37.330 -13.304  1.00  0.00     0.166 HD
ATOM     19  C   UNL     1       2.834 -35.924 -10.690  1.00  0.00     0.002 A 
ENDBRANCH   1  10
TORSDOF 4
ENDMDL
MODEL 2
REMARK VINA RESULT:    -2.841      2.934      4.943
REMARK INTER + INTRA:          -3.422
REMARK INTER:                  -3.449
REMARK INTRA:                   0.027
REMARK UNBOUND:                 0.001
REMARK SMILES [NH3+][C@H](Cc1c[nH]c2ccccc12)C(=O)[O-]
REMARK SMILES IDX 3 1 2 2 1 3 13 7 14 8 15 9 4 10 12 11 5 12 7 13 11 14 6 15
REMARK SMILES IDX 8 16 10 17 9 19
REMARK H PARENT 1 4 1 5 1 6 6 18
REMARK Flexibility Score: inf
ROOT
ATOM      1  C   UNL     1       3.220 -35.704 -11.807  1.00  0.00     0.109 C 
ENDROOT
BRANCH   1   2
ATOM      2  C   UNL     1       3.023 -36.003 -10.307  1.00  0.00     0.232 C 
BRANCH   2   3
ATOM      3  N   UNL     1       4.190 -36.710  -9.768  1.00  0.00    -0.350 N 
ATOM      4  H   UNL     1       3.912 -37.672  -9.463  1.00  0.00     0.345 HD
ATOM      5  H   UNL     1       4.562 -36.199  -8.935  1.00  0.00     0.345 HD
ATOM      6  H   UNL     1       4.944 -36.787 -10.491  1.00  0.00     0.345 HD
ENDBRANCH   2   3
BRANCH   2   7
ATOM      7  C   UNL     1       2.782 -34.732  -9.533  1.00  0.00     0.099 C 
ATOM      8  O   UNL     1       3.591 -34.376  -8.635  1.00  0.00    -0.544 OA
ATOM      9  O   UNL     1       1.652 -33.961  -9.781  1.00  0.00    -0.544 OA
ENDBRANCH   2   7
ENDBRANCH   1   2
BRANCH   1  10
ATOM     10  C   UNL     1       4.645 -35.920 -12.232  1.00  0.00    -0.016 A 
ATOM     11  C   UNL     1       5.641 -34.972 -12.370  1.00  0.00     0.003 A 
ATOM     12  C   UNL     1       5.204 -37.119 -12.661  1.00  0.00     0.087 A 
ATOM     13  C   UNL     1       6.745 -35.627 -12.855  1.00  0.00     0.046 A 
ATOM     14  C   UNL     1       5.654 -33.600 -12.119  1.00  0.00     0.010 A 
ATOM     15  N   UNL     1       6.490 -36.935 -13.035  1.00  0.00    -0.361 N 
ATOM     16  C   UNL     1       7.937 -34.955 -13.121  1.00  0.00     0.026 A 
ATOM     17  C   UNL     1       6.845 -32.897 -12.376  1.00  0.00     0.001 A 
ATOM     18  H   UNL     1       7.145 -37.660 -13.403  1.00  0.00     0.166 HD
ATOM     19  C   UNL     1       7.981 -33.571 -12.874  1.00  0.00     0.002 A 
ENDBRANCH   1  10
TORSDOF 4
ENDMDL
MODEL 3
REMARK VINA RESULT:    -2.581      2.944      5.500
REMARK INTER + INTRA:          -3.108
REMARK INTER:                  -2.815
REMARK INTRA:                  -0.293
REMARK UNBOUND:                 0.001
REMARK SMILES [NH3+][C@H](Cc1c[nH]c2ccccc12)C(=O)[O-]
REMARK SMILES IDX 3 1 2 2 1 3 13 7 14 8 15 9 4 10 12 11 5 12 7 13 11 14 6 15
REMARK SMILES IDX 8 16 10 17 9 19
REMARK H PARENT 1 4 1 5 1 6 6 18
REMARK Flexibility Score: inf
ROOT
ATOM      1  C   UNL     1       6.146 -33.911 -12.934  1.00  0.00     0.109 C 
ENDROOT
BRANCH   1   2
ATOM      2  C   UNL     1       5.478 -34.770 -11.842  1.00  0.00     0.232 C 
BRANCH   2   3
ATOM      3  N   UNL     1       4.256 -34.118 -11.354  1.00  0.00    -0.350 N 
ATOM      4  H   UNL     1       3.457 -34.793 -11.387  1.00  0.00     0.345 HD
ATOM      5  H   UNL     1       4.019 -33.304 -11.966  1.00  0.00     0.345 HD
ATOM      6  H   UNL     1       4.381 -33.785 -10.370  1.00  0.00     0.345 HD
ENDBRANCH   2   3
BRANCH   2   7
ATOM      7  C   UNL     1       5.160 -36.148 -12.362  1.00  0.00     0.099 C 
ATOM      8  O   UNL     1       6.056 -36.834 -12.922  1.00  0.00    -0.544 OA
ATOM      9  O   UNL     1       3.871 -36.658 -12.257  1.00  0.00    -0.544 OA
ENDBRANCH   2   7
ENDBRANCH   1   2
BRANCH   1  10
ATOM     10  C   UNL     1       7.599 -33.667 -12.636  1.00  0.00    -0.016 A 
ATOM     11  C   UNL     1       8.152 -32.630 -11.908  1.00  0.00     0.003 A 
ATOM     12  C   UNL     1       8.675 -34.400 -13.124  1.00  0.00     0.087 A 
ATOM     13  C   UNL     1       9.514 -32.784 -11.974  1.00  0.00     0.046 A 
ATOM     14  C   UNL     1       7.566 -31.572 -11.213  1.00  0.00     0.010 A 
ATOM     15  N   UNL     1       9.843 -33.859 -12.711  1.00  0.00    -0.361 N 
ATOM     16  C   UNL     1      10.383 -31.891 -11.348  1.00  0.00     0.026 A 
ATOM     17  C   UNL     1       8.419 -30.656 -10.570  1.00  0.00     0.001 A 
ATOM     18  H   UNL     1      10.805 -34.200 -12.933  1.00  0.00     0.166 HD
ATOM     19  C   UNL     1       9.820 -30.815 -10.637  1.00  0.00     0.002 A 
ENDBRANCH   1  10
TORSDOF 4
ENDMDL
MODEL 4
REMARK VINA RESULT:    -1.265      3.038      5.819
REMARK INTER + INTRA:          -1.523
REMARK INTER:                  -1.214
REMARK INTRA:                  -0.309
REMARK UNBOUND:                 0.001
REMARK SMILES [NH3+][C@H](Cc1c[nH]c2ccccc12)C(=O)[O-]
REMARK SMILES IDX 3 1 2 2 1 3 13 7 14 8 15 9 4 10 12 11 5 12 7 13 11 14 6 15
REMARK SMILES IDX 8 16 10 17 9 19
REMARK H PARENT 1 4 1 5 1 6 6 18
REMARK Flexibility Score: inf
ROOT
ATOM      1  C   UNL     1       6.256 -33.794 -13.046  1.00  0.00     0.109 C 
ENDROOT
BRANCH   1   2
ATOM      2  C   UNL     1       5.586 -34.717 -12.009  1.00  0.00     0.232 C 
BRANCH   2   3
ATOM      3  N   UNL     1       4.260 -34.204 -11.647  1.00  0.00    -0.350 N 
ATOM      4  H   UNL     1       3.602 -35.002 -11.488  1.00  0.00     0.345 HD
ATOM      5  H   UNL     1       3.880 -33.620 -12.427  1.00  0.00     0.345 HD
ATOM      6  H   UNL     1       4.310 -33.625 -10.776  1.00  0.00     0.345 HD
ENDBRANCH   2   3
BRANCH   2   7
ATOM      7  C   UNL     1       5.472 -36.124 -12.537  1.00  0.00     0.099 C 
ATOM      8  O   UNL     1       6.450 -36.660 -13.125  1.00  0.00    -0.544 OA
ATOM      9  O   UNL     1       4.281 -36.828 -12.410  1.00  0.00    -0.544 OA
ENDBRANCH   2   7
ENDBRANCH   1   2
BRANCH   1  10
ATOM     10  C   UNL     1       7.341 -32.960 -12.424  1.00  0.00    -0.016 A 
ATOM     11  C   UNL     1       8.672 -33.291 -12.253  1.00  0.00     0.003 A 
ATOM     12  C   UNL     1       7.181 -31.720 -11.814  1.00  0.00     0.087 A 
ATOM     13  C   UNL     1       9.254 -32.252 -11.571  1.00  0.00     0.046 A 
ATOM     14  C   UNL     1       9.401 -34.419 -12.631  1.00  0.00     0.010 A 
ATOM     15  N   UNL     1       8.355 -31.290 -11.300  1.00  0.00    -0.361 N 
ATOM     16  C   UNL     1      10.603 -32.270 -11.221  1.00  0.00     0.026 A 
ATOM     17  C   UNL     1      10.765 -34.463 -12.293  1.00  0.00     0.001 A 
ATOM     18  H   UNL     1       8.523 -30.398 -10.784  1.00  0.00     0.166 HD
ATOM     19  C   UNL     1      11.364 -33.394 -11.593  1.00  0.00     0.002 A 
ENDBRANCH   1  10
TORSDOF 4
ENDMDL
