MODEL 1
REMARK VINA RESULT:    -8.955      0.000      0.000
REMARK INTER + INTRA:          -9.754
REMARK INTER:                  -9.740
REMARK INTRA:                  -0.014
REMARK UNBOUND:                -0.014
REMARK SMILES C[C@@H]1[C@@H](C)CC[C@@]2(C(=O)[O-])CC[C@@]3(C)C(=CC[C@@H]4[C@]5(C)CC[C@H](O)C(C)(C)[C@H]5CC[C@@]43C)[C@@H]12
REMARK SMILES IDX 7 1 6 2 11 3 33 4 5 5 12 6 15 7 2 8 3 9 13 10 16 11 1 12
REMARK SMILES IDX 4 13 14 14 31 15 17 16 18 17 30 18 32 19 19 20 29 21 28 22
REMARK SMILES IDX 21 23 20 24 25 25 22 26 23 27 26 28 27 29 8 30 9 31 10 32
REMARK SMILES IDX 24 33
REMARK H PARENT 24 34
REMARK Flexibility Score: inf
ROOT
ATOM      1  C   UNL     1     -15.576 -39.311 -17.244  1.00  0.00     0.017 C 
ATOM      2  C   UNL     1     -16.601 -39.487 -16.091  1.00  0.00     0.014 C 
ATOM      3  C   UNL     1     -14.104 -39.554 -16.738  1.00  0.00     0.014 C 
ATOM      4  C   UNL     1     -15.948 -40.250 -18.457  1.00  0.00     0.030 C 
ATOM      5  C   UNL     1     -16.853 -40.947 -15.731  1.00  0.00     0.004 C 
ATOM      6  C   UNL     1     -13.345 -40.715 -17.423  1.00  0.00     0.013 C 
ATOM      7  C   UNL     1     -14.771 -40.249 -19.447  1.00  0.00    -0.063 C 
ATOM      8  C   UNL     1     -16.450 -41.702 -18.105  1.00  0.00    -0.003 C 
ATOM      9  C   UNL     1     -17.464 -41.691 -16.929  1.00  0.00    -0.011 C 
ATOM     10  C   UNL     1     -13.340 -40.683 -19.018  1.00  0.00    -0.006 C 
ATOM     11  C   UNL     1     -14.992 -39.672 -20.636  1.00  0.00    -0.027 C 
ATOM     12  C   UNL     1     -17.055 -42.366 -19.367  1.00  0.00     0.008 C 
ATOM     13  C   UNL     1     -17.862 -43.117 -16.489  1.00  0.00     0.008 C 
ATOM     14  C   UNL     1     -13.202 -42.174 -19.462  1.00  0.00     0.017 C 
ATOM     15  C   UNL     1     -12.137 -39.757 -19.714  1.00  0.00    -0.020 C 
ATOM     16  C   UNL     1     -13.893 -39.136 -21.468  1.00  0.00     0.032 C 
ATOM     17  C   UNL     1     -12.755 -38.550 -20.570  1.00  0.00     0.006 C 
ATOM     18  C   UNL     1     -11.214 -40.578 -20.697  1.00  0.00     0.008 C 
ATOM     19  C   UNL     1     -11.162 -39.245 -18.600  1.00  0.00     0.012 C 
ATOM     20  C   UNL     1     -11.704 -37.661 -21.406  1.00  0.00    -0.025 C 
ATOM     21  C   UNL     1     -10.175 -39.750 -21.486  1.00  0.00     0.005 C 
ATOM     22  C   UNL     1     -10.828 -38.614 -22.308  1.00  0.00     0.003 C 
ATOM     23  C   UNL     1     -12.428 -36.655 -22.373  1.00  0.00     0.010 C 
ATOM     24  C   UNL     1     -10.866 -36.784 -20.406  1.00  0.00     0.012 C 
ATOM     25  C   UNL     1      -9.853 -37.901 -23.344  1.00  0.00    -0.006 C 
ATOM     26  C   UNL     1     -11.481 -35.883 -23.305  1.00  0.00     0.033 C 
ATOM     27  C   UNL     1     -10.645 -36.838 -24.180  1.00  0.00     0.120 C 
ATOM     28  C   UNL     1      -9.275 -38.944 -24.344  1.00  0.00     0.014 C 
ATOM     29  C   UNL     1      -8.630 -37.220 -22.675  1.00  0.00     0.014 C 
ENDROOT
BRANCH   1  30
ATOM     30  C   UNL     1     -15.687 -37.833 -17.645  1.00  0.00     0.048 C 
ATOM     31  O   UNL     1     -15.261 -36.938 -16.857  1.00  0.00    -0.550 OA
ATOM     32  O   UNL     1     -16.353 -37.440 -18.809  1.00  0.00    -0.550 OA
ENDBRANCH   1  30
BRANCH  27  33
ATOM     33  O   UNL     1     -11.502 -37.480 -25.101  1.00  0.00    -0.393 OA
ATOM     34  H   UNL     1     -10.924 -37.966 -25.754  1.00  0.00     0.210 HD
ENDBRANCH  27  33
TORSDOF 2
ENDMDL
MODEL 2
REMARK VINA RESULT:    -7.333      3.150      6.038
REMARK INTER + INTRA:          -7.989
REMARK INTER:                  -7.660
REMARK INTRA:                  -0.330
REMARK UNBOUND:                -0.014
REMARK SMILES C[C@@H]1[C@@H](C)CC[C@@]2(C(=O)[O-])CC[C@@]3(C)C(=CC[C@@H]4[C@]5(C)CC[C@H](O)C(C)(C)[C@H]5CC[C@@]43C)[C@@H]12
REMARK SMILES IDX 7 1 6 2 11 3 33 4 5 5 12 6 15 7 2 8 3 9 13 10 16 11 1 12
REMARK SMILES IDX 4 13 14 14 31 15 17 16 18 17 30 18 32 19 19 20 29 21 28 22
REMARK SMILES IDX 21 23 20 24 25 25 22 26 23 27 26 28 27 29 8 30 9 31 10 32
REMARK SMILES IDX 24 33
REMARK H PARENT 24 34
REMARK Flexibility Score: inf
ROOT
ATOM      1  C   UNL     1     -12.062 -39.723 -20.692  1.00  0.00     0.017 C 
ATOM      2  C   UNL     1     -13.367 -40.240 -20.027  1.00  0.00     0.014 C 
ATOM      3  C   UNL     1     -11.890 -40.314 -22.142  1.00  0.00     0.014 C 
ATOM      4  C   UNL     1     -12.033 -38.145 -20.688  1.00  0.00     0.030 C 
ATOM      5  C   UNL     1     -14.622 -39.565 -20.567  1.00  0.00     0.004 C 
ATOM      6  C   UNL     1     -11.840 -39.274 -23.286  1.00  0.00     0.013 C 
ATOM      7  C   UNL     1     -10.875 -37.681 -21.589  1.00  0.00    -0.063 C 
ATOM      8  C   UNL     1     -13.389 -37.408 -21.007  1.00  0.00    -0.003 C 
ATOM      9  C   UNL     1     -14.587 -38.058 -20.263  1.00  0.00    -0.011 C 
ATOM     10  C   UNL     1     -10.791 -38.088 -23.087  1.00  0.00    -0.006 C 
ATOM     11  C   UNL     1      -9.847 -37.079 -20.976  1.00  0.00    -0.027 C 
ATOM     12  C   UNL     1     -13.260 -35.903 -20.662  1.00  0.00     0.008 C 
ATOM     13  C   UNL     1     -15.937 -37.428 -20.669  1.00  0.00     0.008 C 
ATOM     14  C   UNL     1     -11.377 -36.880 -23.885  1.00  0.00     0.017 C 
ATOM     15  C   UNL     1      -9.233 -38.416 -23.592  1.00  0.00    -0.020 C 
ATOM     16  C   UNL     1      -8.492 -37.041 -21.566  1.00  0.00     0.032 C 
ATOM     17  C   UNL     1      -8.200 -38.352 -22.367  1.00  0.00     0.006 C 
ATOM     18  C   UNL     1      -8.706 -37.396 -24.677  1.00  0.00     0.008 C 
ATOM     19  C   UNL     1      -9.199 -39.806 -24.315  1.00  0.00     0.012 C 
ATOM     20  C   UNL     1      -6.643 -38.514 -22.743  1.00  0.00    -0.025 C 
ATOM     21  C   UNL     1      -7.223 -37.554 -25.077  1.00  0.00     0.005 C 
ATOM     22  C   UNL     1      -6.271 -37.465 -23.860  1.00  0.00     0.003 C 
ATOM     23  C   UNL     1      -5.711 -38.219 -21.510  1.00  0.00     0.010 C 
ATOM     24  C   UNL     1      -6.367 -40.006 -23.154  1.00  0.00     0.012 C 
ATOM     25  C   UNL     1      -4.728 -37.351 -24.232  1.00  0.00    -0.006 C 
ATOM     26  C   UNL     1      -4.210 -38.212 -21.842  1.00  0.00     0.033 C 
ATOM     27  C   UNL     1      -3.876 -37.172 -22.929  1.00  0.00     0.120 C 
ATOM     28  C   UNL     1      -4.482 -36.100 -25.125  1.00  0.00     0.014 C 
ATOM     29  C   UNL     1      -4.193 -38.565 -25.033  1.00  0.00     0.014 C 
ENDROOT
BRANCH   1  30
ATOM     30  C   UNL     1     -10.928 -40.291 -19.825  1.00  0.00     0.048 C 
ATOM     31  O   UNL     1      -9.876 -40.724 -20.380  1.00  0.00    -0.550 OA
ATOM     32  O   UNL     1     -11.074 -40.449 -18.444  1.00  0.00    -0.550 OA
ENDBRANCH   1  30
BRANCH  27  33
ATOM     33  O   UNL     1      -4.062 -35.878 -22.396  1.00  0.00    -0.393 OA
ATOM     34  H   UNL     1      -3.929 -35.228 -23.142  1.00  0.00     0.210 HD
ENDBRANCH  27  33
TORSDOF 2
ENDMDL
MODEL 3
REMARK VINA RESULT:    -6.298      1.878      7.876
REMARK INTER + INTRA:          -6.865
REMARK INTER:                  -6.524
REMARK INTRA:                  -0.340
REMARK UNBOUND:                -0.014
REMARK SMILES C[C@@H]1[C@@H](C)CC[C@@]2(C(=O)[O-])CC[C@@]3(C)C(=CC[C@@H]4[C@]5(C)CC[C@H](O)C(C)(C)[C@H]5CC[C@@]43C)[C@@H]12
REMARK SMILES IDX 7 1 6 2 11 3 33 4 5 5 12 6 15 7 2 8 3 9 13 10 16 11 1 12
REMARK SMILES IDX 4 13 14 14 31 15 17 16 18 17 30 18 32 19 19 20 29 21 28 22
REMARK SMILES IDX 21 23 20 24 25 25 22 26 23 27 26 28 27 29 8 30 9 31 10 32
REMARK SMILES IDX 24 33
REMARK H PARENT 24 34
REMARK Flexibility Score: inf
ROOT
ATOM      1  C   UNL     1     -10.055 -40.178 -22.742  1.00  0.00     0.017 C 
ATOM      2  C   UNL     1      -8.886 -40.225 -23.764  1.00  0.00     0.014 C 
ATOM      3  C   UNL     1      -9.520 -39.997 -21.273  1.00  0.00     0.014 C 
ATOM      4  C   UNL     1     -11.086 -39.051 -23.141  1.00  0.00     0.030 C 
ATOM      5  C   UNL     1      -8.277 -38.856 -24.041  1.00  0.00     0.004 C 
ATOM      6  C   UNL     1      -9.996 -38.719 -20.541  1.00  0.00     0.013 C 
ATOM      7  C   UNL     1     -12.065 -38.857 -21.971  1.00  0.00    -0.063 C 
ATOM      8  C   UNL     1     -10.486 -37.693 -23.669  1.00  0.00    -0.003 C 
ATOM      9  C   UNL     1      -9.326 -37.928 -24.675  1.00  0.00    -0.011 C 
ATOM     10  C   UNL     1     -11.572 -38.475 -20.546  1.00  0.00    -0.006 C 
ATOM     11  C   UNL     1     -13.335 -39.223 -22.189  1.00  0.00    -0.027 C 
ATOM     12  C   UNL     1     -11.611 -36.832 -24.295  1.00  0.00     0.008 C 
ATOM     13  C   UNL     1      -8.644 -36.608 -25.097  1.00  0.00     0.008 C 
ATOM     14  C   UNL     1     -11.751 -36.926 -20.440  1.00  0.00     0.017 C 
ATOM     15  C   UNL     1     -12.422 -39.242 -19.330  1.00  0.00    -0.020 C 
ATOM     16  C   UNL     1     -14.251 -39.584 -21.086  1.00  0.00     0.032 C 
ATOM     17  C   UNL     1     -13.472 -40.294 -19.930  1.00  0.00     0.006 C 
ATOM     18  C   UNL     1     -13.251 -38.244 -18.429  1.00  0.00     0.008 C 
ATOM     19  C   UNL     1     -11.417 -39.919 -18.337  1.00  0.00     0.012 C 
ATOM     20  C   UNL     1     -14.453 -41.003 -18.868  1.00  0.00    -0.025 C 
ATOM     21  C   UNL     1     -14.174 -38.901 -17.380  1.00  0.00     0.005 C 
ATOM     22  C   UNL     1     -15.180 -39.891 -18.017  1.00  0.00     0.003 C 
ATOM     23  C   UNL     1     -15.578 -41.841 -19.579  1.00  0.00     0.010 C 
ATOM     24  C   UNL     1     -13.624 -42.023 -18.006  1.00  0.00     0.012 C 
ATOM     25  C   UNL     1     -16.326 -40.393 -17.035  1.00  0.00    -0.006 C 
ATOM     26  C   UNL     1     -16.633 -42.419 -18.623  1.00  0.00     0.033 C 
ATOM     27  C   UNL     1     -17.332 -41.311 -17.812  1.00  0.00     0.120 C 
ATOM     28  C   UNL     1     -17.132 -39.181 -16.485  1.00  0.00     0.014 C 
ATOM     29  C   UNL     1     -15.790 -41.155 -15.795  1.00  0.00     0.014 C 
ENDROOT
BRANCH   1  30
ATOM     30  C   UNL     1     -10.707 -41.567 -22.828  1.00  0.00     0.048 C 
ATOM     31  O   UNL     1     -10.936 -42.215 -21.765  1.00  0.00    -0.550 OA
ATOM     32  O   UNL     1     -10.950 -42.185 -24.057  1.00  0.00    -0.550 OA
ENDBRANCH   1  30
BRANCH  27  33
ATOM     33  O   UNL     1     -18.125 -40.536 -18.687  1.00  0.00    -0.393 OA
ATOM     34  H   UNL     1     -18.243 -39.640 -18.264  1.00  0.00     0.210 HD
ENDBRANCH  27  33
TORSDOF 2
ENDMDL
MODEL 4
REMARK VINA RESULT:    -6.286      2.059      3.721
REMARK INTER + INTRA:          -6.851
REMARK INTER:                  -7.113
REMARK INTRA:                   0.262
REMARK UNBOUND:                -0.014
REMARK SMILES C[C@@H]1[C@@H](C)CC[C@@]2(C(=O)[O-])CC[C@@]3(C)C(=CC[C@@H]4[C@]5(C)CC[C@H](O)C(C)(C)[C@H]5CC[C@@]43C)[C@@H]12
REMARK SMILES IDX 7 1 6 2 11 3 33 4 5 5 12 6 15 7 2 8 3 9 13 10 16 11 1 12
REMARK SMILES IDX 4 13 14 14 31 15 17 16 18 17 30 18 32 19 19 20 29 21 28 22
REMARK SMILES IDX 21 23 20 24 25 25 22 26 23 27 26 28 27 29 8 30 9 31 10 32
REMARK SMILES IDX 24 33
REMARK H PARENT 24 34
REMARK Flexibility Score: inf
ROOT
ATOM      1  C   UNL     1     -15.891 -40.932 -18.859  1.00  0.00     0.017 C 
ATOM      2  C   UNL     1     -17.046 -41.659 -18.119  1.00  0.00     0.014 C 
ATOM      3  C   UNL     1     -16.415 -40.196 -20.149  1.00  0.00     0.014 C 
ATOM      4  C   UNL     1     -15.146 -39.946 -17.876  1.00  0.00     0.030 C 
ATOM      5  C   UNL     1     -17.950 -40.711 -17.340  1.00  0.00     0.004 C 
ATOM      6  C   UNL     1     -16.215 -38.662 -20.171  1.00  0.00     0.013 C 
ATOM      7  C   UNL     1     -14.204 -39.058 -18.706  1.00  0.00    -0.063 C 
ATOM      8  C   UNL     1     -16.045 -39.122 -16.879  1.00  0.00    -0.003 C 
ATOM      9  C   UNL     1     -17.149 -40.003 -16.235  1.00  0.00    -0.011 C 
ATOM     10  C   UNL     1     -14.732 -38.161 -19.861  1.00  0.00    -0.006 C 
ATOM     11  C   UNL     1     -12.890 -39.242 -18.517  1.00  0.00    -0.027 C 
ATOM     12  C   UNL     1     -15.154 -38.455 -15.801  1.00  0.00     0.008 C 
ATOM     13  C   UNL     1     -18.117 -39.178 -15.359  1.00  0.00     0.008 C 
ATOM     14  C   UNL     1     -14.898 -36.734 -19.245  1.00  0.00     0.017 C 
ATOM     15  C   UNL     1     -13.703 -38.109 -21.176  1.00  0.00    -0.020 C 
ATOM     16  C   UNL     1     -11.889 -38.877 -19.543  1.00  0.00     0.032 C 
ATOM     17  C   UNL     1     -12.462 -39.105 -20.981  1.00  0.00     0.006 C 
ATOM     18  C   UNL     1     -13.092 -36.674 -21.428  1.00  0.00     0.008 C 
ATOM     19  C   UNL     1     -14.507 -38.425 -22.482  1.00  0.00     0.012 C 
ATOM     20  C   UNL     1     -11.321 -39.049 -22.116  1.00  0.00    -0.025 C 
ATOM     21  C   UNL     1     -12.019 -36.591 -22.537  1.00  0.00     0.005 C 
ATOM     22  C   UNL     1     -10.837 -37.558 -22.287  1.00  0.00     0.003 C 
ATOM     23  C   UNL     1     -10.058 -39.897 -21.718  1.00  0.00     0.010 C 
ATOM     24  C   UNL     1     -11.882 -39.691 -23.437  1.00  0.00     0.012 C 
ATOM     25  C   UNL     1      -9.583 -37.330 -23.238  1.00  0.00    -0.006 C 
ATOM     26  C   UNL     1      -8.876 -39.764 -22.692  1.00  0.00     0.033 C 
ATOM     27  C   UNL     1      -8.420 -38.299 -22.832  1.00  0.00     0.120 C 
ATOM     28  C   UNL     1      -9.051 -35.875 -23.088  1.00  0.00     0.014 C 
ATOM     29  C   UNL     1      -9.905 -37.518 -24.744  1.00  0.00     0.014 C 
ENDROOT
BRANCH   1  30
ATOM     30  C   UNL     1     -14.950 -42.056 -19.319  1.00  0.00     0.048 C 
ATOM     31  O   UNL     1     -15.413 -43.013 -20.008  1.00  0.00    -0.550 OA
ATOM     32  O   UNL     1     -13.619 -42.113 -18.899  1.00  0.00    -0.550 OA
ENDBRANCH   1  30
BRANCH  27  33
ATOM     33  O   UNL     1      -7.840 -37.883 -21.613  1.00  0.00    -0.393 OA
ATOM     34  H   UNL     1      -7.181 -38.583 -21.344  1.00  0.00     0.210 HD
ENDBRANCH  27  33
TORSDOF 2
ENDMDL
MODEL 5
REMARK VINA RESULT:    -6.004      1.648      8.040
REMARK INTER + INTRA:          -6.545
REMARK INTER:                  -6.383
REMARK INTRA:                  -0.161
REMARK UNBOUND:                -0.014
REMARK SMILES C[C@@H]1[C@@H](C)CC[C@@]2(C(=O)[O-])CC[C@@]3(C)C(=CC[C@@H]4[C@]5(C)CC[C@H](O)C(C)(C)[C@H]5CC[C@@]43C)[C@@H]12
REMARK SMILES IDX 7 1 6 2 11 3 33 4 5 5 12 6 15 7 2 8 3 9 13 10 16 11 1 12
REMARK SMILES IDX 4 13 14 14 31 15 17 16 18 17 30 18 32 19 19 20 29 21 28 22
REMARK SMILES IDX 21 23 20 24 25 25 22 26 23 27 26 28 27 29 8 30 9 31 10 32
REMARK SMILES IDX 24 33
REMARK H PARENT 24 34
REMARK Flexibility Score: inf
ROOT
ATOM      1  C   UNL     1      -9.696 -39.869 -23.974  1.00  0.00     0.017 C 
ATOM      2  C   UNL     1      -8.669 -40.044 -25.125  1.00  0.00     0.014 C 
ATOM      3  C   UNL     1      -9.183 -40.542 -22.646  1.00  0.00     0.014 C 
ATOM      4  C   UNL     1     -10.037 -38.341 -23.771  1.00  0.00     0.030 C 
ATOM      5  C   UNL     1      -7.463 -39.121 -24.997  1.00  0.00     0.004 C 
ATOM      6  C   UNL     1      -8.999 -39.588 -21.442  1.00  0.00     0.013 C 
ATOM      7  C   UNL     1     -10.832 -38.194 -22.463  1.00  0.00    -0.063 C 
ATOM      8  C   UNL     1      -8.837 -37.325 -23.877  1.00  0.00    -0.003 C 
ATOM      9  C   UNL     1      -7.910 -37.652 -25.079  1.00  0.00    -0.011 C 
ATOM     10  C   UNL     1     -10.257 -38.669 -21.098  1.00  0.00    -0.006 C 
ATOM     11  C   UNL     1     -12.113 -37.820 -22.582  1.00  0.00    -0.027 C 
ATOM     12  C   UNL     1      -9.384 -35.878 -23.962  1.00  0.00     0.008 C 
ATOM     13  C   UNL     1      -6.660 -36.744 -25.114  1.00  0.00     0.008 C 
ATOM     14  C   UNL     1      -9.664 -37.391 -20.423  1.00  0.00     0.017 C 
ATOM     15  C   UNL     1     -11.407 -39.367 -20.109  1.00  0.00    -0.020 C 
ATOM     16  C   UNL     1     -13.121 -38.120 -21.542  1.00  0.00     0.032 C 
ATOM     17  C   UNL     1     -12.819 -39.493 -20.858  1.00  0.00     0.006 C 
ATOM     18  C   UNL     1     -11.672 -38.540 -18.789  1.00  0.00     0.008 C 
ATOM     19  C   UNL     1     -10.887 -40.755 -19.601  1.00  0.00     0.012 C 
ATOM     20  C   UNL     1     -14.051 -40.024 -19.968  1.00  0.00    -0.025 C 
ATOM     21  C   UNL     1     -12.829 -39.052 -17.902  1.00  0.00     0.005 C 
ATOM     22  C   UNL     1     -14.170 -39.135 -18.670  1.00  0.00     0.003 C 
ATOM     23  C   UNL     1     -15.420 -39.903 -20.732  1.00  0.00     0.010 C 
ATOM     24  C   UNL     1     -13.847 -41.555 -19.673  1.00  0.00     0.012 C 
ATOM     25  C   UNL     1     -15.444 -39.394 -17.754  1.00  0.00    -0.006 C 
ATOM     26  C   UNL     1     -16.650 -40.255 -19.881  1.00  0.00     0.033 C 
ATOM     27  C   UNL     1     -16.745 -39.364 -18.627  1.00  0.00     0.120 C 
ATOM     28  C   UNL     1     -15.574 -38.271 -16.685  1.00  0.00     0.014 C 
ATOM     29  C   UNL     1     -15.382 -40.731 -16.970  1.00  0.00     0.014 C 
ENDROOT
BRANCH   1  30
ATOM     30  C   UNL     1     -10.938 -40.647 -24.435  1.00  0.00     0.048 C 
ATOM     31  O   UNL     1     -11.834 -40.052 -25.103  1.00  0.00    -0.550 OA
ATOM     32  O   UNL     1     -11.162 -41.968 -24.038  1.00  0.00    -0.550 OA
ENDBRANCH   1  30
BRANCH  27  33
ATOM     33  O   UNL     1     -17.036 -38.042 -19.027  1.00  0.00    -0.393 OA
ATOM     34  H   UNL     1     -16.762 -37.439 -18.280  1.00  0.00     0.210 HD
ENDBRANCH  27  33
TORSDOF 2
ENDMDL
