MODEL 1
REMARK VINA RESULT:    -3.701      0.000      0.000
REMARK INTER + INTRA:          -3.809
REMARK INTER:                  -3.809
REMARK INTRA:                   0.000
REMARK UNBOUND:                 0.000
REMARK SMILES Cc1cccc(O)c1C
REMARK SMILES IDX 1 1 2 2 8 3 6 4 5 5 4 6 3 7 9 8 7 9
REMARK H PARENT 7 10
REMARK Flexibility Score: inf
ROOT
ATOM      1  C   UNL     1      -6.241  83.659  -7.146  1.00  0.00     0.045 C 
ATOM      2  C   UNL     1      -5.074  82.881  -7.696  1.00  0.00    -0.045 A 
ATOM      3  C   UNL     1      -4.745  82.892  -9.081  1.00  0.00    -0.006 A 
ATOM      4  C   UNL     1      -3.632  82.136  -9.529  1.00  0.00     0.118 A 
ATOM      5  C   UNL     1      -2.875  81.394  -8.617  1.00  0.00     0.046 A 
ATOM      6  C   UNL     1      -3.203  81.389  -7.265  1.00  0.00     0.004 A 
ATOM      7  C   UNL     1      -4.293  82.126  -6.805  1.00  0.00     0.004 A 
ATOM      8  C   UNL     1      -5.548  83.686 -10.086  1.00  0.00     0.048 C 
ENDROOT
BRANCH   4   9
ATOM      9  O   UNL     1      -3.249  82.099 -10.873  1.00  0.00    -0.508 OA
ATOM     10  H   UNL     1      -2.545  82.706 -11.269  1.00  0.00     0.293 HD
ENDBRANCH   4   9
TORSDOF 1
ENDMDL
MODEL 2
REMARK VINA RESULT:    -3.694      7.638      9.080
REMARK INTER + INTRA:          -3.801
REMARK INTER:                  -3.801
REMARK INTRA:                   0.000
REMARK UNBOUND:                 0.000
REMARK SMILES Cc1cccc(O)c1C
REMARK SMILES IDX 1 1 2 2 8 3 6 4 5 5 4 6 3 7 9 8 7 9
REMARK H PARENT 7 10
REMARK Flexibility Score: inf
ROOT
ATOM      1  C   UNL     1     -10.826  81.952  -8.685  1.00  0.00     0.045 C 
ATOM      2  C   UNL     1     -11.855  82.853  -9.318  1.00  0.00    -0.045 A 
ATOM      3  C   UNL     1     -12.708  82.406 -10.366  1.00  0.00    -0.006 A 
ATOM      4  C   UNL     1     -13.654  83.309 -10.916  1.00  0.00     0.118 A 
ATOM      5  C   UNL     1     -13.741  84.616 -10.428  1.00  0.00     0.046 A 
ATOM      6  C   UNL     1     -12.904  85.046  -9.403  1.00  0.00     0.004 A 
ATOM      7  C   UNL     1     -11.968  84.173  -8.850  1.00  0.00     0.004 A 
ATOM      8  C   UNL     1     -12.632  80.997 -10.910  1.00  0.00     0.048 C 
ENDROOT
BRANCH   4   9
ATOM      9  O   UNL     1     -14.523  82.940 -11.947  1.00  0.00    -0.508 OA
ATOM     10  H   UNL     1     -14.468  82.055 -12.432  1.00  0.00     0.293 HD
ENDBRANCH   4   9
TORSDOF 1
ENDMDL
MODEL 3
REMARK VINA RESULT:    -3.671      2.098      2.192
REMARK INTER + INTRA:          -3.778
REMARK INTER:                  -3.778
REMARK INTRA:                   0.000
REMARK UNBOUND:                 0.000
REMARK SMILES Cc1cccc(O)c1C
REMARK SMILES IDX 1 1 2 2 8 3 6 4 5 5 4 6 3 7 9 8 7 9
REMARK H PARENT 7 10
REMARK Flexibility Score: inf
ROOT
ATOM      1  C   UNL     1      -3.553  86.397  -8.020  1.00  0.00     0.045 C 
ATOM      2  C   UNL     1      -3.671  84.917  -8.278  1.00  0.00    -0.045 A 
ATOM      3  C   UNL     1      -4.558  84.390  -9.258  1.00  0.00    -0.006 A 
ATOM      4  C   UNL     1      -4.617  82.985  -9.447  1.00  0.00     0.118 A 
ATOM      5  C   UNL     1      -3.813  82.140  -8.678  1.00  0.00     0.046 A 
ATOM      6  C   UNL     1      -2.949  82.663  -7.721  1.00  0.00     0.004 A 
ATOM      7  C   UNL     1      -2.876  84.040  -7.521  1.00  0.00     0.004 A 
ATOM      8  C   UNL     1      -5.437  85.284 -10.102  1.00  0.00     0.048 C 
ENDROOT
BRANCH   4   9
ATOM      9  O   UNL     1      -5.463  82.396 -10.391  1.00  0.00    -0.508 OA
ATOM     10  H   UNL     1      -5.138  82.007 -11.266  1.00  0.00     0.293 HD
ENDBRANCH   4   9
TORSDOF 1
ENDMDL
MODEL 4
REMARK VINA RESULT:    -3.610      0.912      2.624
REMARK INTER + INTRA:          -3.716
REMARK INTER:                  -3.716
REMARK INTRA:                   0.000
REMARK UNBOUND:                 0.000
REMARK SMILES Cc1cccc(O)c1C
REMARK SMILES IDX 1 1 2 2 8 3 6 4 5 5 4 6 3 7 9 8 7 9
REMARK H PARENT 7 10
REMARK Flexibility Score: inf
ROOT
ATOM      1  C   UNL     1      -4.822  82.199  -5.701  1.00  0.00     0.045 C 
ATOM      2  C   UNL     1      -5.026  82.551  -7.152  1.00  0.00    -0.045 A 
ATOM      3  C   UNL     1      -4.111  82.143  -8.163  1.00  0.00    -0.006 A 
ATOM      4  C   UNL     1      -4.366  82.510  -9.509  1.00  0.00     0.118 A 
ATOM      5  C   UNL     1      -5.501  83.261  -9.828  1.00  0.00     0.046 A 
ATOM      6  C   UNL     1      -6.391  83.656  -8.834  1.00  0.00     0.004 A 
ATOM      7  C   UNL     1      -6.158  83.305  -7.506  1.00  0.00     0.004 A 
ATOM      8  C   UNL     1      -2.877  81.331  -7.842  1.00  0.00     0.048 C 
ENDROOT
BRANCH   4   9
ATOM      9  O   UNL     1      -3.513  82.146 -10.554  1.00  0.00    -0.508 OA
ATOM     10  H   UNL     1      -3.501  82.610 -11.453  1.00  0.00     0.293 HD
ENDBRANCH   4   9
TORSDOF 1
ENDMDL
MODEL 5
REMARK VINA RESULT:    -3.474      9.001     10.253
REMARK INTER + INTRA:          -3.576
REMARK INTER:                  -3.576
REMARK INTRA:                   0.000
REMARK UNBOUND:                 0.000
REMARK SMILES Cc1cccc(O)c1C
REMARK SMILES IDX 1 1 2 2 8 3 6 4 5 5 4 6 3 7 9 8 7 9
REMARK H PARENT 7 10
REMARK Flexibility Score: inf
ROOT
ATOM      1  C   UNL     1      -3.985  92.471 -12.744  1.00  0.00     0.045 C 
ATOM      2  C   UNL     1      -4.637  91.329 -13.479  1.00  0.00    -0.045 A 
ATOM      3  C   UNL     1      -4.449  91.124 -14.875  1.00  0.00    -0.006 A 
ATOM      4  C   UNL     1      -5.094  90.027 -15.502  1.00  0.00     0.118 A 
ATOM      5  C   UNL     1      -5.900  89.166 -14.752  1.00  0.00     0.046 A 
ATOM      6  C   UNL     1      -6.079  89.373 -13.388  1.00  0.00     0.004 A 
ATOM      7  C   UNL     1      -5.454  90.445 -12.754  1.00  0.00     0.004 A 
ATOM      8  C   UNL     1      -3.582  92.042 -15.706  1.00  0.00     0.048 C 
ENDROOT
BRANCH   4   9
ATOM      9  O   UNL     1      -4.955  89.764 -16.868  1.00  0.00    -0.508 OA
ATOM     10  H   UNL     1      -5.130  90.451 -17.588  1.00  0.00     0.293 HD
ENDBRANCH   4   9
TORSDOF 1
ENDMDL
MODEL 6
REMARK VINA RESULT:    -3.414      7.589      8.599
REMARK INTER + INTRA:          -3.514
REMARK INTER:                  -3.514
REMARK INTRA:                   0.000
REMARK UNBOUND:                 0.000
REMARK SMILES Cc1cccc(O)c1C
REMARK SMILES IDX 1 1 2 2 8 3 6 4 5 5 4 6 3 7 9 8 7 9
REMARK H PARENT 7 10
REMARK Flexibility Score: inf
ROOT
ATOM      1  C   UNL     1     -11.244  85.394  -8.301  1.00  0.00     0.045 C 
ATOM      2  C   UNL     1     -11.786  84.193  -9.032  1.00  0.00    -0.045 A 
ATOM      3  C   UNL     1     -12.877  84.292  -9.941  1.00  0.00    -0.006 A 
ATOM      4  C   UNL     1     -13.336  83.119 -10.594  1.00  0.00     0.118 A 
ATOM      5  C   UNL     1     -12.720  81.890 -10.342  1.00  0.00     0.046 A 
ATOM      6  C   UNL     1     -11.654  81.802  -9.453  1.00  0.00     0.004 A 
ATOM      7  C   UNL     1     -11.189  82.943  -8.802  1.00  0.00     0.004 A 
ATOM      8  C   UNL     1     -13.560  85.610 -10.228  1.00  0.00     0.048 C 
ENDROOT
BRANCH   4   9
ATOM      9  O   UNL     1     -14.402  83.139 -11.498  1.00  0.00    -0.508 OA
ATOM     10  H   UNL     1     -14.281  83.140 -12.502  1.00  0.00     0.293 HD
ENDBRANCH   4   9
TORSDOF 1
ENDMDL
MODEL 7
REMARK VINA RESULT:    -3.394     16.987     17.886
REMARK INTER + INTRA:          -3.493
REMARK INTER:                  -3.493
REMARK INTRA:                   0.000
REMARK UNBOUND:                 0.000
REMARK SMILES Cc1cccc(O)c1C
REMARK SMILES IDX 1 1 2 2 8 3 6 4 5 5 4 6 3 7 9 8 7 9
REMARK H PARENT 7 10
REMARK Flexibility Score: inf
ROOT
ATOM      1  C   UNL     1     -20.867  77.420  -7.199  1.00  0.00     0.045 C 
ATOM      2  C   UNL     1     -20.921  77.488  -8.703  1.00  0.00    -0.045 A 
ATOM      3  C   UNL     1     -21.978  78.145  -9.392  1.00  0.00    -0.006 A 
ATOM      4  C   UNL     1     -21.964  78.171 -10.810  1.00  0.00     0.118 A 
ATOM      5  C   UNL     1     -20.922  77.558 -11.512  1.00  0.00     0.046 A 
ATOM      6  C   UNL     1     -19.891  76.918 -10.832  1.00  0.00     0.004 A 
ATOM      7  C   UNL     1     -19.888  76.882  -9.438  1.00  0.00     0.004 A 
ATOM      8  C   UNL     1     -23.116  78.815  -8.655  1.00  0.00     0.048 C 
ENDROOT
BRANCH   4   9
ATOM      9  O   UNL     1     -22.968  78.797 -11.553  1.00  0.00    -0.508 OA
ATOM     10  H   UNL     1     -23.942  78.527 -11.514  1.00  0.00     0.293 HD
ENDBRANCH   4   9
TORSDOF 1
ENDMDL
MODEL 8
REMARK VINA RESULT:    -3.324      2.834      3.754
REMARK INTER + INTRA:          -3.422
REMARK INTER:                  -3.422
REMARK INTRA:                   0.000
REMARK UNBOUND:                 0.000
REMARK SMILES Cc1cccc(O)c1C
REMARK SMILES IDX 1 1 2 2 8 3 6 4 5 5 4 6 3 7 9 8 7 9
REMARK H PARENT 7 10
REMARK Flexibility Score: inf
ROOT
ATOM      1  C   UNL     1      -6.961  86.212  -9.971  1.00  0.00     0.045 C 
ATOM      2  C   UNL     1      -5.633  86.034  -9.282  1.00  0.00    -0.045 A 
ATOM      3  C   UNL     1      -4.901  84.816  -9.356  1.00  0.00    -0.006 A 
ATOM      4  C   UNL     1      -3.656  84.720  -8.682  1.00  0.00     0.118 A 
ATOM      5  C   UNL     1      -3.164  85.811  -7.960  1.00  0.00     0.046 A 
ATOM      6  C   UNL     1      -3.885  86.999  -7.893  1.00  0.00     0.004 A 
ATOM      7  C   UNL     1      -5.110  87.112  -8.548  1.00  0.00     0.004 A 
ATOM      8  C   UNL     1      -5.413  83.623 -10.130  1.00  0.00     0.048 C 
ENDROOT
BRANCH   4   9
ATOM      9  O   UNL     1      -2.883  83.556  -8.710  1.00  0.00    -0.508 OA
ATOM     10  H   UNL     1      -2.044  83.431  -8.160  1.00  0.00     0.293 HD
ENDBRANCH   4   9
TORSDOF 1
ENDMDL
