MODEL 1
REMARK VINA RESULT:    -3.332      0.000      0.000
REMARK INTER + INTRA:          -3.429
REMARK INTER:                  -3.429
REMARK INTRA:                   0.000
REMARK UNBOUND:                 0.000
REMARK SMILES Oc1ccc2[nH]ccc2c1
REMARK SMILES IDX 3 1 4 2 5 3 9 4 8 5 7 6 6 7 10 8 2 9 1 11
REMARK H PARENT 6 10 1 12
REMARK Flexibility Score: inf
ROOT
ATOM      1  C   UNL     1     134.389 141.312 142.388  1.00  0.00     0.048 A 
ATOM      2  C   UNL     1     134.968 142.536 142.005  1.00  0.00     0.030 A 
ATOM      3  C   UNL     1     134.504 143.136 140.835  1.00  0.00     0.046 A 
ATOM      4  C   UNL     1     133.518 142.565 140.075  1.00  0.00     0.003 A 
ATOM      5  C   UNL     1     133.292 143.398 139.001  1.00  0.00     0.028 A 
ATOM      6  C   UNL     1     134.176 144.459 139.171  1.00  0.00     0.083 A 
ATOM      7  N   UNL     1     134.914 144.294 140.293  1.00  0.00    -0.361 N 
ATOM      8  C   UNL     1     132.925 141.355 140.426  1.00  0.00     0.056 A 
ATOM      9  C   UNL     1     133.372 140.720 141.605  1.00  0.00     0.116 A 
ATOM     10  H   UNL     1     135.651 144.939 140.659  1.00  0.00     0.166 HD
ENDROOT
BRANCH   9  11
ATOM     11  O   UNL     1     132.816 139.508 142.007  1.00  0.00    -0.508 OA
ATOM     12  H   UNL     1     131.872 139.247 141.747  1.00  0.00     0.293 HD
ENDBRANCH   9  11
TORSDOF 1
ENDMDL
MODEL 2
REMARK VINA RESULT:    -3.315     13.870     14.501
REMARK INTER + INTRA:          -3.412
REMARK INTER:                  -3.412
REMARK INTRA:                   0.000
REMARK UNBOUND:                 0.000
REMARK SMILES Oc1ccc2[nH]ccc2c1
REMARK SMILES IDX 3 1 4 2 5 3 9 4 8 5 7 6 6 7 10 8 2 9 1 11
REMARK H PARENT 6 10 1 12
REMARK Flexibility Score: inf
ROOT
ATOM      1  C   UNL     1     147.348 140.430 142.340  1.00  0.00     0.048 A 
ATOM      2  C   UNL     1     146.868 139.130 142.093  1.00  0.00     0.030 A 
ATOM      3  C   UNL     1     147.190 138.540 140.873  1.00  0.00     0.046 A 
ATOM      4  C   UNL     1     147.947 139.190 139.935  1.00  0.00     0.003 A 
ATOM      5  C   UNL     1     148.083 138.344 138.857  1.00  0.00     0.028 A 
ATOM      6  C   UNL     1     147.382 137.194 139.206  1.00  0.00     0.083 A 
ATOM      7  N   UNL     1     146.838 137.318 140.438  1.00  0.00    -0.361 N 
ATOM      8  C   UNL     1     148.437 140.476 140.148  1.00  0.00     0.056 A 
ATOM      9  C   UNL     1     148.129 141.104 141.374  1.00  0.00     0.116 A 
ATOM     10  H   UNL     1     146.264 136.607 140.945  1.00  0.00     0.166 HD
ENDROOT
BRANCH   9  11
ATOM     11  O   UNL     1     148.591 142.390 141.642  1.00  0.00    -0.508 OA
ATOM     12  H   UNL     1     149.473 142.724 141.270  1.00  0.00     0.293 HD
ENDBRANCH   9  11
TORSDOF 1
ENDMDL
MODEL 3
REMARK VINA RESULT:    -3.308      9.366     10.267
REMARK INTER + INTRA:          -3.404
REMARK INTER:                  -3.404
REMARK INTRA:                   0.000
REMARK UNBOUND:                 0.000
REMARK SMILES Oc1ccc2[nH]ccc2c1
REMARK SMILES IDX 3 1 4 2 5 3 9 4 8 5 7 6 6 7 10 8 2 9 1 11
REMARK H PARENT 6 10 1 12
REMARK Flexibility Score: inf
ROOT
ATOM      1  C   UNL     1     141.254 147.174 142.384  1.00  0.00     0.048 A 
ATOM      2  C   UNL     1     142.471 146.583 141.999  1.00  0.00     0.030 A 
ATOM      3  C   UNL     1     143.095 147.067 140.851  1.00  0.00     0.046 A 
ATOM      4  C   UNL     1     142.553 148.083 140.111  1.00  0.00     0.003 A 
ATOM      5  C   UNL     1     143.404 148.323 139.054  1.00  0.00     0.028 A 
ATOM      6  C   UNL     1     144.445 147.414 139.213  1.00  0.00     0.083 A 
ATOM      7  N   UNL     1     144.252 146.649 140.311  1.00  0.00    -0.361 N 
ATOM      8  C   UNL     1     141.349 148.690 140.464  1.00  0.00     0.056 A 
ATOM      9  C   UNL     1     140.691 148.223 141.622  1.00  0.00     0.116 A 
ATOM     10  H   UNL     1     144.877 145.890 140.665  1.00  0.00     0.166 HD
ENDROOT
BRANCH   9  11
ATOM     11  O   UNL     1     139.485 148.791 142.023  1.00  0.00    -0.508 OA
ATOM     12  H   UNL     1     139.100 149.604 141.555  1.00  0.00     0.293 HD
ENDBRANCH   9  11
TORSDOF 1
ENDMDL
MODEL 4
REMARK VINA RESULT:    -3.245      9.375     10.282
REMARK INTER + INTRA:          -3.340
REMARK INTER:                  -3.340
REMARK INTRA:                   0.000
REMARK UNBOUND:                 0.000
REMARK SMILES Oc1ccc2[nH]ccc2c1
REMARK SMILES IDX 3 1 4 2 5 3 9 4 8 5 7 6 6 7 10 8 2 9 1 11
REMARK H PARENT 6 10 1 12
REMARK Flexibility Score: inf
ROOT
ATOM      1  C   UNL     1     140.388 134.460 142.409  1.00  0.00     0.048 A 
ATOM      2  C   UNL     1     139.160 135.050 142.059  1.00  0.00     0.030 A 
ATOM      3  C   UNL     1     138.497 134.554 140.938  1.00  0.00     0.046 A 
ATOM      4  C   UNL     1     139.013 133.528 140.191  1.00  0.00     0.003 A 
ATOM      5  C   UNL     1     138.126 133.279 139.167  1.00  0.00     0.028 A 
ATOM      6  C   UNL     1     137.093 134.192 139.350  1.00  0.00     0.083 A 
ATOM      7  N   UNL     1     137.323 134.968 140.433  1.00  0.00    -0.361 N 
ATOM      8  C   UNL     1     140.226 132.923 140.510  1.00  0.00     0.056 A 
ATOM      9  C   UNL     1     140.924 133.401 141.640  1.00  0.00     0.116 A 
ATOM     10  H   UNL     1     136.711 135.732 140.799  1.00  0.00     0.166 HD
ENDROOT
BRANCH   9  11
ATOM     11  O   UNL     1     142.142 132.835 142.008  1.00  0.00    -0.508 OA
ATOM     12  H   UNL     1     142.192 132.081 142.683  1.00  0.00     0.293 HD
ENDBRANCH   9  11
TORSDOF 1
ENDMDL
MODEL 5
REMARK VINA RESULT:    -3.197      3.112      3.743
REMARK INTER + INTRA:          -3.291
REMARK INTER:                  -3.291
REMARK INTRA:                   0.000
REMARK UNBOUND:                 0.000
REMARK SMILES Oc1ccc2[nH]ccc2c1
REMARK SMILES IDX 3 1 4 2 5 3 9 4 8 5 7 6 6 7 10 8 2 9 1 11
REMARK H PARENT 6 10 1 12
REMARK Flexibility Score: inf
ROOT
ATOM      1  C   UNL     1     137.312 141.722 142.723  1.00  0.00     0.048 A 
ATOM      2  C   UNL     1     137.229 140.948 141.551  1.00  0.00     0.030 A 
ATOM      3  C   UNL     1     135.960 140.604 141.089  1.00  0.00     0.046 A 
ATOM      4  C   UNL     1     134.824 140.999 141.742  1.00  0.00     0.003 A 
ATOM      5  C   UNL     1     133.749 140.502 141.037  1.00  0.00     0.028 A 
ATOM      6  C   UNL     1     134.306 139.813 139.965  1.00  0.00     0.083 A 
ATOM      7  N   UNL     1     135.656 139.878 140.000  1.00  0.00    -0.361 N 
ATOM      8  C   UNL     1     134.871 141.765 142.905  1.00  0.00     0.056 A 
ATOM      9  C   UNL     1     136.141 142.131 143.401  1.00  0.00     0.116 A 
ATOM     10  H   UNL     1     136.323 139.450 139.318  1.00  0.00     0.166 HD
ENDROOT
BRANCH   9  11
ATOM     11  O   UNL     1     136.251 142.897 144.559  1.00  0.00    -0.508 OA
ATOM     12  H   UNL     1     135.436 143.149 145.105  1.00  0.00     0.293 HD
ENDBRANCH   9  11
TORSDOF 1
ENDMDL
MODEL 6
REMARK VINA RESULT:    -3.182     11.615     12.511
REMARK INTER + INTRA:          -3.275
REMARK INTER:                  -3.275
REMARK INTRA:                   0.000
REMARK UNBOUND:                 0.000
REMARK SMILES Oc1ccc2[nH]ccc2c1
REMARK SMILES IDX 3 1 4 2 5 3 9 4 8 5 7 6 6 7 10 8 2 9 1 11
REMARK H PARENT 6 10 1 12
REMARK Flexibility Score: inf
ROOT
ATOM      1  C   UNL     1     144.345 139.884 142.688  1.00  0.00     0.048 A 
ATOM      2  C   UNL     1     144.457 140.676 141.530  1.00  0.00     0.030 A 
ATOM      3  C   UNL     1     145.737 141.030 141.107  1.00  0.00     0.046 A 
ATOM      4  C   UNL     1     146.857 140.628 141.784  1.00  0.00     0.003 A 
ATOM      5  C   UNL     1     147.948 141.137 141.115  1.00  0.00     0.028 A 
ATOM      6  C   UNL     1     147.418 141.841 140.038  1.00  0.00     0.083 A 
ATOM      7  N   UNL     1     146.067 141.773 140.037  1.00  0.00    -0.361 N 
ATOM      8  C   UNL     1     146.780 139.844 142.933  1.00  0.00     0.056 A 
ATOM      9  C   UNL     1     145.499 139.468 143.390  1.00  0.00     0.116 A 
ATOM     10  H   UNL     1     145.418 142.209 139.345  1.00  0.00     0.166 HD
ENDROOT
BRANCH   9  11
ATOM     11  O   UNL     1     145.360 138.685 144.533  1.00  0.00    -0.508 OA
ATOM     12  H   UNL     1     144.993 137.741 144.486  1.00  0.00     0.293 HD
ENDBRANCH   9  11
TORSDOF 1
ENDMDL
MODEL 7
REMARK VINA RESULT:    -3.167      7.804      8.554
REMARK INTER + INTRA:          -3.260
REMARK INTER:                  -3.260
REMARK INTRA:                   0.000
REMARK UNBOUND:                 0.000
REMARK SMILES Oc1ccc2[nH]ccc2c1
REMARK SMILES IDX 3 1 4 2 5 3 9 4 8 5 7 6 6 7 10 8 2 9 1 11
REMARK H PARENT 6 10 1 12
REMARK Flexibility Score: inf
ROOT
ATOM      1  C   UNL     1     141.701 144.217 142.875  1.00  0.00     0.048 A 
ATOM      2  C   UNL     1     140.881 144.354 141.740  1.00  0.00     0.030 A 
ATOM      3  C   UNL     1     140.590 145.644 141.300  1.00  0.00     0.046 A 
ATOM      4  C   UNL     1     141.079 146.751 141.940  1.00  0.00     0.003 A 
ATOM      5  C   UNL     1     140.614 147.857 141.264  1.00  0.00     0.028 A 
ATOM      6  C   UNL     1     139.846 147.349 140.221  1.00  0.00     0.083 A 
ATOM      7  N   UNL     1     139.834 145.997 140.247  1.00  0.00    -0.361 N 
ATOM      8  C   UNL     1     141.893 146.650 143.066  1.00  0.00     0.056 A 
ATOM      9  C   UNL     1     142.207 145.358 143.539  1.00  0.00     0.116 A 
ATOM     10  H   UNL     1     139.339 145.361 139.582  1.00  0.00     0.166 HD
ENDROOT
BRANCH   9  11
ATOM     11  O   UNL     1     143.016 145.195 144.660  1.00  0.00    -0.508 OA
ATOM     12  H   UNL     1     142.654 145.327 145.598  1.00  0.00     0.293 HD
ENDBRANCH   9  11
TORSDOF 1
ENDMDL
MODEL 8
REMARK VINA RESULT:    -3.156      2.440      3.589
REMARK INTER + INTRA:          -3.249
REMARK INTER:                  -3.249
REMARK INTRA:                   0.000
REMARK UNBOUND:                 0.000
REMARK SMILES Oc1ccc2[nH]ccc2c1
REMARK SMILES IDX 3 1 4 2 5 3 9 4 8 5 7 6 6 7 10 8 2 9 1 11
REMARK H PARENT 6 10 1 12
REMARK Flexibility Score: inf
ROOT
ATOM      1  C   UNL     1     133.250 141.056 140.579  1.00  0.00     0.048 A 
ATOM      2  C   UNL     1     134.427 140.293 140.465  1.00  0.00     0.030 A 
ATOM      3  C   UNL     1     135.549 140.719 141.174  1.00  0.00     0.046 A 
ATOM      4  C   UNL     1     135.521 141.840 141.960  1.00  0.00     0.003 A 
ATOM      5  C   UNL     1     136.773 141.982 142.517  1.00  0.00     0.028 A 
ATOM      6  C   UNL     1     137.514 140.912 142.026  1.00  0.00     0.083 A 
ATOM      7  N   UNL     1     136.762 140.143 141.206  1.00  0.00    -0.361 N 
ATOM      8  C   UNL     1     134.373 142.617 142.095  1.00  0.00     0.056 A 
ATOM      9  C   UNL     1     133.219 142.214 141.389  1.00  0.00     0.116 A 
ATOM     10  H   UNL     1     137.066 139.279 140.703  1.00  0.00     0.166 HD
ENDROOT
BRANCH   9  11
ATOM     11  O   UNL     1     132.041 142.951 141.485  1.00  0.00    -0.508 OA
ATOM     12  H   UNL     1     131.998 143.812 142.019  1.00  0.00     0.293 HD
ENDBRANCH   9  11
TORSDOF 1
ENDMDL
MODEL 9
REMARK VINA RESULT:    -3.139      8.742      9.823
REMARK INTER + INTRA:          -3.231
REMARK INTER:                  -3.231
REMARK INTRA:                   0.000
REMARK UNBOUND:                 0.000
REMARK SMILES Oc1ccc2[nH]ccc2c1
REMARK SMILES IDX 3 1 4 2 5 3 9 4 8 5 7 6 6 7 10 8 2 9 1 11
REMARK H PARENT 6 10 1 12
REMARK Flexibility Score: inf
ROOT
ATOM      1  C   UNL     1     139.929 137.402 142.851  1.00  0.00     0.048 A 
ATOM      2  C   UNL     1     140.748 137.234 141.719  1.00  0.00     0.030 A 
ATOM      3  C   UNL     1     141.030 135.932 141.309  1.00  0.00     0.046 A 
ATOM      4  C   UNL     1     140.535 134.844 141.975  1.00  0.00     0.003 A 
ATOM      5  C   UNL     1     140.993 133.719 141.324  1.00  0.00     0.028 A 
ATOM      6  C   UNL     1     141.763 134.198 140.269  1.00  0.00     0.083 A 
ATOM      7  N   UNL     1     141.783 135.549 140.264  1.00  0.00    -0.361 N 
ATOM      8  C   UNL     1     139.722 134.975 143.099  1.00  0.00     0.056 A 
ATOM      9  C   UNL     1     139.417 136.280 143.541  1.00  0.00     0.116 A 
ATOM     10  H   UNL     1     142.282 136.167 139.584  1.00  0.00     0.166 HD
ENDROOT
BRANCH   9  11
ATOM     11  O   UNL     1     138.609 136.474 144.659  1.00  0.00    -0.508 OA
ATOM     12  H   UNL     1     137.609 136.314 144.623  1.00  0.00     0.293 HD
ENDBRANCH   9  11
TORSDOF 1
ENDMDL
