MODEL 1
REMARK VINA RESULT:    -2.219      0.000      0.000
REMARK INTER + INTRA:          -2.219
REMARK INTER:                  -2.219
REMARK INTRA:                   0.000
REMARK UNBOUND:                 0.000
REMARK SMILES CC(=O)[O-]
REMARK SMILES IDX 1 1 2 2 3 3 4 4
REMARK H PARENT
REMARK Flexibility Score: inf
ROOT
ATOM      1  C   UNL     1     -11.139 -22.681  26.347  1.00  0.00     0.063 C 
ATOM      2  C   UNL     1     -10.605 -24.064  26.178  1.00  0.00     0.038 C 
ATOM      3  O   UNL     1      -9.766 -24.520  26.998  1.00  0.00    -0.550 OA
ATOM      4  O   UNL     1     -10.991 -24.831  25.087  1.00  0.00    -0.550 OA
ENDROOT
TORSDOF 0
ENDMDL
MODEL 2
REMARK VINA RESULT:    -2.084     15.170     15.659
REMARK INTER + INTRA:          -2.084
REMARK INTER:                  -2.084
REMARK INTRA:                   0.000
REMARK UNBOUND:                 0.000
REMARK SMILES CC(=O)[O-]
REMARK SMILES IDX 1 1 2 2 3 3 4 4
REMARK H PARENT
REMARK Flexibility Score: inf
ROOT
ATOM      1  C   UNL     1     -16.992  -8.883  21.816  1.00  0.00     0.063 C 
ATOM      2  C   UNL     1     -16.419 -10.260  21.839  1.00  0.00     0.038 C 
ATOM      3  O   UNL     1     -16.997 -11.193  21.221  1.00  0.00    -0.550 OA
ATOM      4  O   UNL     1     -15.279 -10.528  22.584  1.00  0.00    -0.550 OA
ENDROOT
TORSDOF 0
ENDMDL
MODEL 3
REMARK VINA RESULT:    -2.068     15.494     16.004
REMARK INTER + INTRA:          -2.068
REMARK INTER:                  -2.068
REMARK INTRA:                   0.000
REMARK UNBOUND:                 0.000
REMARK SMILES CC(=O)[O-]
REMARK SMILES IDX 1 1 2 2 3 3 4 4
REMARK H PARENT
REMARK Flexibility Score: inf
ROOT
ATOM      1  C   UNL     1     -15.692 -10.499  22.271  1.00  0.00     0.063 C 
ATOM      2  C   UNL     1     -17.052 -10.061  21.842  1.00  0.00     0.038 C 
ATOM      3  O   UNL     1     -17.495  -8.938  22.199  1.00  0.00    -0.550 OA
ATOM      4  O   UNL     1     -17.853 -10.912  21.092  1.00  0.00    -0.550 OA
ENDROOT
TORSDOF 0
ENDMDL
MODEL 4
REMARK VINA RESULT:    -2.059      1.487      1.855
REMARK INTER + INTRA:          -2.059
REMARK INTER:                  -2.059
REMARK INTRA:                   0.000
REMARK UNBOUND:                 0.000
REMARK SMILES CC(=O)[O-]
REMARK SMILES IDX 1 1 2 2 3 3 4 4
REMARK H PARENT
REMARK Flexibility Score: inf
ROOT
ATOM      1  C   UNL     1     -11.485 -25.271  25.275  1.00  0.00     0.063 C 
ATOM      2  C   UNL     1     -10.972 -23.948  25.734  1.00  0.00     0.038 C 
ATOM      3  O   UNL     1      -9.947 -23.887  26.462  1.00  0.00    -0.550 OA
ATOM      4  O   UNL     1     -11.655 -22.785  25.405  1.00  0.00    -0.550 OA
ENDROOT
TORSDOF 0
ENDMDL
MODEL 5
REMARK VINA RESULT:    -2.051      3.699      4.373
REMARK INTER + INTRA:          -2.051
REMARK INTER:                  -2.051
REMARK INTRA:                   0.000
REMARK UNBOUND:                 0.000
REMARK SMILES CC(=O)[O-]
REMARK SMILES IDX 1 1 2 2 3 3 4 4
REMARK H PARENT
REMARK Flexibility Score: inf
ROOT
ATOM      1  C   UNL     1     -10.890 -28.796  27.090  1.00  0.00     0.063 C 
ATOM      2  C   UNL     1      -9.925 -27.673  26.909  1.00  0.00     0.038 C 
ATOM      3  O   UNL     1     -10.307 -26.591  26.392  1.00  0.00    -0.550 OA
ATOM      4  O   UNL     1      -8.593 -27.837  27.262  1.00  0.00    -0.550 OA
ENDROOT
TORSDOF 0
ENDMDL
MODEL 6
REMARK VINA RESULT:    -2.024      3.953      4.370
REMARK INTER + INTRA:          -2.024
REMARK INTER:                  -2.024
REMARK INTRA:                   0.000
REMARK UNBOUND:                 0.000
REMARK SMILES CC(=O)[O-]
REMARK SMILES IDX 1 1 2 2 3 3 4 4
REMARK H PARENT
REMARK Flexibility Score: inf
ROOT
ATOM      1  C   UNL     1      -9.577 -27.872  27.092  1.00  0.00     0.063 C 
ATOM      2  C   UNL     1      -8.574 -27.042  27.819  1.00  0.00     0.038 C 
ATOM      3  O   UNL     1      -7.440 -27.517  28.089  1.00  0.00    -0.550 OA
ATOM      4  O   UNL     1      -8.906 -25.764  28.248  1.00  0.00    -0.550 OA
ENDROOT
TORSDOF 0
ENDMDL
MODEL 7
REMARK VINA RESULT:    -2.001     11.643     12.201
REMARK INTER + INTRA:          -2.001
REMARK INTER:                  -2.001
REMARK INTRA:                   0.000
REMARK UNBOUND:                 0.000
REMARK SMILES CC(=O)[O-]
REMARK SMILES IDX 1 1 2 2 3 3 4 4
REMARK H PARENT
REMARK Flexibility Score: inf
ROOT
ATOM      1  C   UNL     1     -17.849 -23.826  15.944  1.00  0.00     0.063 C 
ATOM      2  C   UNL     1     -18.573 -23.255  17.116  1.00  0.00     0.038 C 
ATOM      3  O   UNL     1     -17.928 -22.748  18.070  1.00  0.00    -0.550 OA
ATOM      4  O   UNL     1     -19.958 -23.329  17.182  1.00  0.00    -0.550 OA
ENDROOT
TORSDOF 0
ENDMDL
MODEL 8
REMARK VINA RESULT:    -1.994      3.745      4.082
REMARK INTER + INTRA:          -1.994
REMARK INTER:                  -1.994
REMARK INTRA:                   0.000
REMARK UNBOUND:                 0.000
REMARK SMILES CC(=O)[O-]
REMARK SMILES IDX 1 1 2 2 3 3 4 4
REMARK H PARENT
REMARK Flexibility Score: inf
ROOT
ATOM      1  C   UNL     1      -9.153 -25.795  28.245  1.00  0.00     0.063 C 
ATOM      2  C   UNL     1      -8.501 -27.092  27.898  1.00  0.00     0.038 C 
ATOM      3  O   UNL     1      -7.360 -27.366  28.354  1.00  0.00    -0.550 OA
ATOM      4  O   UNL     1      -9.128 -27.975  27.030  1.00  0.00    -0.550 OA
ENDROOT
TORSDOF 0
ENDMDL
MODEL 9
REMARK VINA RESULT:    -1.971      4.303      4.929
REMARK INTER + INTRA:          -1.971
REMARK INTER:                  -1.971
REMARK INTRA:                   0.000
REMARK UNBOUND:                 0.000
REMARK SMILES CC(=O)[O-]
REMARK SMILES IDX 1 1 2 2 3 3 4 4
REMARK H PARENT
REMARK Flexibility Score: inf
ROOT
ATOM      1  C   UNL     1      -7.056 -27.169  29.562  1.00  0.00     0.063 C 
ATOM      2  C   UNL     1      -8.078 -26.885  28.512  1.00  0.00     0.038 C 
ATOM      3  O   UNL     1      -8.197 -27.656  27.524  1.00  0.00    -0.550 OA
ATOM      4  O   UNL     1      -8.861 -25.742  28.595  1.00  0.00    -0.550 OA
ENDROOT
TORSDOF 0
ENDMDL
