MODEL 1
REMARK VINA RESULT:    -5.272      0.000      0.000
REMARK INTER + INTRA:          -8.574
REMARK INTER:                  -7.584
REMARK INTRA:                  -0.990
REMARK UNBOUND:                -0.990
REMARK SMILES O=c1cc(-c2ccc(O)c(O)c2)oc2cc(O[C@H]3O[C@H](CO)[C@@H](O)[C@@H](O)[C@H]3O)cc(O)c12
REMARK SMILES IDX 17 1 16 2 4 3 3 4 13 5 2 6 14 7 1 8 32 9 15 10 30 11 29 12
REMARK SMILES IDX 5 13 6 14 7 15 8 16 12 17 10 18 9 19 11 21 31 23 18 25 27 26
REMARK SMILES IDX 19 27 25 28 20 29 23 30 28 31 26 33 21 35 22 36 24 38
REMARK H PARENT 9 20 11 22 31 24 28 32 26 34 22 37 24 39
REMARK Flexibility Score: inf
ROOT
ATOM      1  O   UNL     1      71.016  -1.157  35.910  1.00  0.00    -0.462 OA
ENDROOT
BRANCH   1   2
ATOM      2  C   UNL     1      71.396  -0.904  37.237  1.00  0.00     0.130 A 
ATOM      3  C   UNL     1      70.135  -1.094  41.832  1.00  0.00     0.138 A 
ATOM      4  C   UNL     1      71.369  -0.575  42.258  1.00  0.00     0.100 A 
ATOM      5  O   UNL     1      69.915  -1.277  40.533  1.00  0.00    -0.456 OA
ATOM      6  C   UNL     1      72.340  -0.246  41.310  1.00  0.00     0.197 A 
ATOM      7  C   UNL     1      70.808  -0.979  39.592  1.00  0.00     0.146 A 
ATOM      8  O   UNL     1      73.444   0.218  41.701  1.00  0.00    -0.289 OA
ATOM      9  C   UNL     1      72.069  -0.442  39.941  1.00  0.00     0.107 A 
ATOM     10  C   UNL     1      70.485  -1.203  38.251  1.00  0.00     0.094 A 
ATOM     11  C   UNL     1      72.994  -0.135  38.916  1.00  0.00     0.134 A 
ATOM     12  C   UNL     1      72.651  -0.366  37.577  1.00  0.00     0.093 A 
BRANCH   3  13
ATOM     13  C   UNL     1      69.067  -1.463  42.795  1.00  0.00     0.021 A 
ATOM     14  C   UNL     1      68.739  -2.807  43.057  1.00  0.00     0.016 A 
ATOM     15  C   UNL     1      67.736  -3.125  43.975  1.00  0.00     0.051 A 
ATOM     16  C   UNL     1      67.050  -2.111  44.655  1.00  0.00     0.157 A 
ATOM     17  C   UNL     1      68.383  -0.451  43.492  1.00  0.00     0.062 A 
ATOM     18  C   UNL     1      67.377  -0.767  44.412  1.00  0.00     0.158 A 
BRANCH  16  19
ATOM     19  O   UNL     1      66.049  -2.433  45.571  1.00  0.00    -0.504 OA
ATOM     20  H   UNL     1      65.342  -3.128  45.362  1.00  0.00     0.293 HD
ENDBRANCH  16  19
BRANCH  18  21
ATOM     21  O   UNL     1      66.716   0.267  45.074  1.00  0.00    -0.504 OA
ATOM     22  H   UNL     1      66.109   0.916  44.586  1.00  0.00     0.293 HD
ENDBRANCH  18  21
ENDBRANCH   3  13
BRANCH  11  23
ATOM     23  O   UNL     1      74.248   0.396  39.220  1.00  0.00    -0.507 OA
ATOM     24  H   UNL     1      74.669   1.125  38.657  1.00  0.00     0.293 HD
ENDBRANCH  11  23
ENDBRANCH   1   2
BRANCH   1  25
ATOM     25  C   UNL     1      70.235  -0.275  35.094  1.00  0.00     0.339 C 
ATOM     26  C   UNL     1      69.815  -0.970  33.785  1.00  0.00     0.214 C 
ATOM     27  O   UNL     1      70.927   0.937  34.834  1.00  0.00    -0.332 OA
ATOM     28  C   UNL     1      71.032  -1.199  32.871  1.00  0.00     0.180 C 
ATOM     29  C   UNL     1      72.126   0.713  34.108  1.00  0.00     0.179 C 
ATOM     30  C   UNL     1      71.817   0.115  32.713  1.00  0.00     0.177 C 
BRANCH  26  31
ATOM     31  O   UNL     1      69.181  -2.187  34.078  1.00  0.00    -0.384 OA
ATOM     32  H   UNL     1      68.240  -2.100  33.773  1.00  0.00     0.211 HD
ENDBRANCH  26  31
BRANCH  28  33
ATOM     33  O   UNL     1      71.852  -2.205  33.414  1.00  0.00    -0.387 OA
ATOM     34  H   UNL     1      71.290  -2.733  34.040  1.00  0.00     0.211 HD
ENDBRANCH  28  33
BRANCH  29  35
ATOM     35  C   UNL     1      72.886   2.045  34.001  1.00  0.00     0.191 C 
BRANCH  35  36
ATOM     36  O   UNL     1      72.666   2.658  32.758  1.00  0.00    -0.394 OA
ATOM     37  H   UNL     1      71.965   3.347  32.897  1.00  0.00     0.210 HD
ENDBRANCH  35  36
ENDBRANCH  29  35
BRANCH  30  38
ATOM     38  O   UNL     1      73.008  -0.137  32.008  1.00  0.00    -0.387 OA
ATOM     39  H   UNL     1      73.425  -0.941  32.414  1.00  0.00     0.211 HD
ENDBRANCH  30  38
ENDBRANCH   1  25
TORSDOF 11
ENDMDL
MODEL 2
REMARK VINA RESULT:    -5.270      7.836     11.630
REMARK INTER + INTRA:          -8.570
REMARK INTER:                  -7.734
REMARK INTRA:                  -0.836
REMARK UNBOUND:                -0.990
REMARK SMILES O=c1cc(-c2ccc(O)c(O)c2)oc2cc(O[C@H]3O[C@H](CO)[C@@H](O)[C@@H](O)[C@H]3O)cc(O)c12
REMARK SMILES IDX 17 1 16 2 4 3 3 4 13 5 2 6 14 7 1 8 32 9 15 10 30 11 29 12
REMARK SMILES IDX 5 13 6 14 7 15 8 16 12 17 10 18 9 19 11 21 31 23 18 25 27 26
REMARK SMILES IDX 19 27 25 28 20 29 23 30 28 31 26 33 21 35 22 36 24 38
REMARK H PARENT 9 20 11 22 31 24 28 32 26 34 22 37 24 39
REMARK Flexibility Score: inf
ROOT
ATOM      1  O   UNL     1      63.455   5.637  32.791  1.00  0.00    -0.462 OA
ENDROOT
BRANCH   1   2
ATOM      2  C   UNL     1      63.993   4.458  33.330  1.00  0.00     0.130 A 
ATOM      3  C   UNL     1      67.681   1.435  33.372  1.00  0.00     0.138 A 
ATOM      4  C   UNL     1      67.080   0.617  34.343  1.00  0.00     0.100 A 
ATOM      5  O   UNL     1      67.044   2.526  32.951  1.00  0.00    -0.456 OA
ATOM      6  C   UNL     1      65.819   0.952  34.840  1.00  0.00     0.197 A 
ATOM      7  C   UNL     1      65.843   2.887  33.393  1.00  0.00     0.146 A 
ATOM      8  O   UNL     1      65.289   0.212  35.711  1.00  0.00    -0.289 OA
ATOM      9  C   UNL     1      65.169   2.108  34.363  1.00  0.00     0.107 A 
ATOM     10  C   UNL     1      65.252   4.048  32.889  1.00  0.00     0.094 A 
ATOM     11  C   UNL     1      63.892   2.519  34.810  1.00  0.00     0.134 A 
ATOM     12  C   UNL     1      63.315   3.687  34.291  1.00  0.00     0.093 A 
BRANCH   3  13
ATOM     13  C   UNL     1      69.020   1.129  32.810  1.00  0.00     0.021 A 
ATOM     14  C   UNL     1      69.612   1.943  31.824  1.00  0.00     0.016 A 
ATOM     15  C   UNL     1      70.878   1.636  31.321  1.00  0.00     0.051 A 
ATOM     16  C   UNL     1      71.579   0.521  31.796  1.00  0.00     0.157 A 
ATOM     17  C   UNL     1      69.736   0.019  33.291  1.00  0.00     0.062 A 
ATOM     18  C   UNL     1      71.004  -0.291  32.787  1.00  0.00     0.158 A 
BRANCH  16  19
ATOM     19  O   UNL     1      72.843   0.218  31.290  1.00  0.00    -0.504 OA
ATOM     20  H   UNL     1      73.066   0.345  30.310  1.00  0.00     0.293 HD
ENDBRANCH  16  19
BRANCH  18  21
ATOM     21  O   UNL     1      71.676  -1.407  33.284  1.00  0.00    -0.504 OA
ATOM     22  H   UNL     1      72.113  -2.087  32.674  1.00  0.00     0.293 HD
ENDBRANCH  18  21
ENDBRANCH   3  13
BRANCH  11  23
ATOM     23  O   UNL     1      63.196   1.777  35.765  1.00  0.00    -0.507 OA
ATOM     24  H   UNL     1      63.464   1.778  36.742  1.00  0.00     0.293 HD
ENDBRANCH  11  23
ENDBRANCH   1   2
BRANCH   1  25
ATOM     25  C   UNL     1      63.102   5.827  31.415  1.00  0.00     0.339 C 
ATOM     26  C   UNL     1      62.568   7.252  31.179  1.00  0.00     0.214 C 
ATOM     27  O   UNL     1      62.168   4.850  30.981  1.00  0.00    -0.332 OA
ATOM     28  C   UNL     1      61.197   7.443  31.852  1.00  0.00     0.180 C 
ATOM     29  C   UNL     1      60.946   4.934  31.699  1.00  0.00     0.179 C 
ATOM     30  C   UNL     1      60.255   6.297  31.445  1.00  0.00     0.177 C 
BRANCH  26  31
ATOM     31  O   UNL     1      63.493   8.190  31.665  1.00  0.00    -0.384 OA
ATOM     32  H   UNL     1      64.379   7.936  31.295  1.00  0.00     0.211 HD
ENDBRANCH  26  31
BRANCH  28  33
ATOM     33  O   UNL     1      61.355   7.483  33.250  1.00  0.00    -0.387 OA
ATOM     34  H   UNL     1      62.060   6.823  33.482  1.00  0.00     0.211 HD
ENDBRANCH  28  33
BRANCH  29  35
ATOM     35  C   UNL     1      60.053   3.756  31.279  1.00  0.00     0.191 C 
BRANCH  35  36
ATOM     36  O   UNL     1      60.157   3.503  29.903  1.00  0.00    -0.394 OA
ATOM     37  H   UNL     1      60.743   4.210  29.525  1.00  0.00     0.210 HD
ENDBRANCH  35  36
ENDBRANCH  29  35
BRANCH  30  38
ATOM     38  O   UNL     1      59.062   6.392  32.183  1.00  0.00    -0.387 OA
ATOM     39  H   UNL     1      59.156   5.794  32.971  1.00  0.00     0.211 HD
ENDBRANCH  30  38
ENDBRANCH   1  25
TORSDOF 11
ENDMDL
MODEL 3
REMARK VINA RESULT:    -5.258     15.818     17.102
REMARK INTER + INTRA:          -8.553
REMARK INTER:                  -7.709
REMARK INTRA:                  -0.844
REMARK UNBOUND:                -0.990
REMARK SMILES O=c1cc(-c2ccc(O)c(O)c2)oc2cc(O[C@H]3O[C@H](CO)[C@@H](O)[C@@H](O)[C@H]3O)cc(O)c12
REMARK SMILES IDX 17 1 16 2 4 3 3 4 13 5 2 6 14 7 1 8 32 9 15 10 30 11 29 12
REMARK SMILES IDX 5 13 6 14 7 15 8 16 12 17 10 18 9 19 11 21 31 23 18 25 27 26
REMARK SMILES IDX 19 27 25 28 20 29 23 30 28 31 26 33 21 35 22 36 24 38
REMARK H PARENT 9 20 11 22 31 24 28 32 26 34 22 37 24 39
REMARK Flexibility Score: inf
ROOT
ATOM      1  O   UNL     1      64.835  14.726  38.625  1.00  0.00    -0.462 OA
ENDROOT
BRANCH   1   2
ATOM      2  C   UNL     1      65.562  15.078  39.773  1.00  0.00     0.130 A 
ATOM      3  C   UNL     1      65.602  15.283  44.537  1.00  0.00     0.138 A 
ATOM      4  C   UNL     1      66.903  15.809  44.566  1.00  0.00     0.100 A 
ATOM      5  O   UNL     1      65.036  15.001  43.365  1.00  0.00    -0.456 OA
ATOM      6  C   UNL     1      67.578  16.041  43.366  1.00  0.00     0.197 A 
ATOM      7  C   UNL     1      65.637  15.204  42.196  1.00  0.00     0.146 A 
ATOM      8  O   UNL     1      68.746  16.513  43.403  1.00  0.00    -0.289 OA
ATOM      9  C   UNL     1      66.945  15.741  42.143  1.00  0.00     0.107 A 
ATOM     10  C   UNL     1      64.962  14.880  41.017  1.00  0.00     0.094 A 
ATOM     11  C   UNL     1      67.555  15.946  40.885  1.00  0.00     0.134 A 
ATOM     12  C   UNL     1      66.860  15.616  39.712  1.00  0.00     0.093 A 
BRANCH   3  13
ATOM     13  C   UNL     1      64.837  15.014  45.781  1.00  0.00     0.021 A 
ATOM     14  C   UNL     1      63.447  15.227  45.856  1.00  0.00     0.016 A 
ATOM     15  C   UNL     1      62.752  14.956  47.037  1.00  0.00     0.051 A 
ATOM     16  C   UNL     1      63.428  14.459  48.159  1.00  0.00     0.157 A 
ATOM     17  C   UNL     1      65.506  14.503  46.907  1.00  0.00     0.062 A 
ATOM     18  C   UNL     1      64.812  14.231  48.092  1.00  0.00     0.158 A 
BRANCH  16  19
ATOM     19  O   UNL     1      62.730  14.190  49.335  1.00  0.00    -0.504 OA
ATOM     20  H   UNL     1      61.946  13.549  49.353  1.00  0.00     0.293 HD
ENDBRANCH  16  19
BRANCH  18  21
ATOM     21  O   UNL     1      65.514  13.735  49.189  1.00  0.00    -0.504 OA
ATOM     22  H   UNL     1      66.420  13.290  49.091  1.00  0.00     0.293 HD
ENDBRANCH  18  21
ENDBRANCH   3  13
BRANCH  11  23
ATOM     23  O   UNL     1      68.843  16.475  40.791  1.00  0.00    -0.507 OA
ATOM     24  H   UNL     1      69.304  16.902  41.586  1.00  0.00     0.293 HD
ENDBRANCH  11  23
ENDBRANCH   1   2
BRANCH   1  25
ATOM     25  C   UNL     1      65.352  14.731  37.289  1.00  0.00     0.339 C 
ATOM     26  C   UNL     1      64.833  15.951  36.505  1.00  0.00     0.214 C 
ATOM     27  O   UNL     1      65.050  13.519  36.612  1.00  0.00    -0.332 OA
ATOM     28  C   UNL     1      63.325  15.822  36.225  1.00  0.00     0.180 C 
ATOM     29  C   UNL     1      63.649  13.329  36.474  1.00  0.00     0.179 C 
ATOM     30  C   UNL     1      63.029  14.447  35.600  1.00  0.00     0.177 C 
BRANCH  26  31
ATOM     31  O   UNL     1      65.104  17.125  37.226  1.00  0.00    -0.384 OA
ATOM     32  H   UNL     1      64.660  17.026  38.109  1.00  0.00     0.211 HD
ENDBRANCH  26  31
BRANCH  28  33
ATOM     33  O   UNL     1      62.603  15.990  37.421  1.00  0.00    -0.387 OA
ATOM     34  H   UNL     1      63.107  16.640  37.977  1.00  0.00     0.211 HD
ENDBRANCH  28  33
BRANCH  29  35
ATOM     35  C   UNL     1      63.405  11.936  35.874  1.00  0.00     0.191 C 
BRANCH  35  36
ATOM     36  O   UNL     1      62.304  11.308  36.475  1.00  0.00    -0.394 OA
ATOM     37  H   UNL     1      62.242  10.398  36.083  1.00  0.00     0.210 HD
ENDBRANCH  35  36
ENDBRANCH  29  35
BRANCH  30  38
ATOM     38  O   UNL     1      61.638  14.276  35.492  1.00  0.00    -0.387 OA
ATOM     39  H   UNL     1      61.211  15.032  35.973  1.00  0.00     0.211 HD
ENDBRANCH  30  38
ENDBRANCH   1  25
TORSDOF 11
ENDMDL
MODEL 4
REMARK VINA RESULT:    -5.242      7.035     10.630
REMARK INTER + INTRA:          -8.530
REMARK INTER:                  -7.527
REMARK INTRA:                  -1.004
REMARK UNBOUND:                -0.990
REMARK SMILES O=c1cc(-c2ccc(O)c(O)c2)oc2cc(O[C@H]3O[C@H](CO)[C@@H](O)[C@@H](O)[C@H]3O)cc(O)c12
REMARK SMILES IDX 17 1 16 2 4 3 3 4 13 5 2 6 14 7 1 8 32 9 15 10 30 11 29 12
REMARK SMILES IDX 5 13 6 14 7 15 8 16 12 17 10 18 9 19 11 21 31 23 18 25 27 26
REMARK SMILES IDX 19 27 25 28 20 29 23 30 28 31 26 33 21 35 22 36 24 38
REMARK H PARENT 9 20 11 22 31 24 28 32 26 34 22 37 24 39
REMARK Flexibility Score: inf
ROOT
ATOM      1  O   UNL     1      64.039   4.712  33.211  1.00  0.00    -0.462 OA
ENDROOT
BRANCH   1   2
ATOM      2  C   UNL     1      64.540   3.492  33.691  1.00  0.00     0.130 A 
ATOM      3  C   UNL     1      68.231   0.473  33.767  1.00  0.00     0.138 A 
ATOM      4  C   UNL     1      67.562  -0.423  34.616  1.00  0.00     0.100 A 
ATOM      5  O   UNL     1      67.623   1.595  33.390  1.00  0.00    -0.456 OA
ATOM      6  C   UNL     1      66.264  -0.130  35.040  1.00  0.00     0.197 A 
ATOM      7  C   UNL     1      66.389   1.919  33.766  1.00  0.00     0.146 A 
ATOM      8  O   UNL     1      65.672  -0.940  35.802  1.00  0.00    -0.289 OA
ATOM      9  C   UNL     1      65.646   1.062  34.612  1.00  0.00     0.107 A 
ATOM     10  C   UNL     1      65.832   3.119  33.316  1.00  0.00     0.094 A 
ATOM     11  C   UNL     1      64.336   1.435  34.991  1.00  0.00     0.134 A 
ATOM     12  C   UNL     1      63.794   2.642  34.528  1.00  0.00     0.093 A 
BRANCH   3  13
ATOM     13  C   UNL     1      69.612   0.215  33.287  1.00  0.00     0.021 A 
ATOM     14  C   UNL     1      70.118   0.827  32.125  1.00  0.00     0.016 A 
ATOM     15  C   UNL     1      71.425   0.573  31.703  1.00  0.00     0.051 A 
ATOM     16  C   UNL     1      72.252  -0.288  32.435  1.00  0.00     0.157 A 
ATOM     17  C   UNL     1      70.453  -0.637  34.025  1.00  0.00     0.062 A 
ATOM     18  C   UNL     1      71.763  -0.894  33.603  1.00  0.00     0.158 A 
BRANCH  16  19
ATOM     19  O   UNL     1      73.556  -0.539  32.010  1.00  0.00    -0.504 OA
ATOM     20  H   UNL     1      74.341  -0.003  32.360  1.00  0.00     0.293 HD
ENDBRANCH  16  19
BRANCH  18  21
ATOM     21  O   UNL     1      72.560  -1.753  34.358  1.00  0.00    -0.504 OA
ATOM     22  H   UNL     1      72.456  -2.761  34.315  1.00  0.00     0.293 HD
ENDBRANCH  18  21
ENDBRANCH   3  13
BRANCH  11  23
ATOM     23  O   UNL     1      63.572   0.616  35.824  1.00  0.00    -0.507 OA
ATOM     24  H   UNL     1      62.559   0.647  35.819  1.00  0.00     0.293 HD
ENDBRANCH  11  23
ENDBRANCH   1   2
BRANCH   1  25
ATOM     25  C   UNL     1      62.802   5.311  33.617  1.00  0.00     0.339 C 
ATOM     26  C   UNL     1      61.820   5.394  32.434  1.00  0.00     0.214 C 
ATOM     27  O   UNL     1      63.013   6.588  34.201  1.00  0.00    -0.332 OA
ATOM     28  C   UNL     1      62.303   6.419  31.391  1.00  0.00     0.180 C 
ATOM     29  C   UNL     1      63.589   7.500  33.278  1.00  0.00     0.179 C 
ATOM     30  C   UNL     1      62.631   7.751  32.087  1.00  0.00     0.177 C 
BRANCH  26  31
ATOM     31  O   UNL     1      61.675   4.126  31.850  1.00  0.00    -0.384 OA
ATOM     32  H   UNL     1      60.712   4.018  31.636  1.00  0.00     0.211 HD
ENDBRANCH  26  31
BRANCH  28  33
ATOM     33  O   UNL     1      63.434   5.918  30.720  1.00  0.00    -0.387 OA
ATOM     34  H   UNL     1      63.173   5.783  29.771  1.00  0.00     0.211 HD
ENDBRANCH  28  33
BRANCH  29  35
ATOM     35  C   UNL     1      63.923   8.801  34.025  1.00  0.00     0.191 C 
BRANCH  35  36
ATOM     36  O   UNL     1      65.019   9.455  33.443  1.00  0.00    -0.394 OA
ATOM     37  H   UNL     1      64.712  10.367  33.197  1.00  0.00     0.210 HD
ENDBRANCH  35  36
ENDBRANCH  29  35
BRANCH  30  38
ATOM     38  O   UNL     1      63.216   8.629  31.158  1.00  0.00    -0.387 OA
ATOM     39  H   UNL     1      63.836   9.219  31.662  1.00  0.00     0.211 HD
ENDBRANCH  30  38
ENDBRANCH   1  25
TORSDOF 11
ENDMDL
MODEL 5
REMARK VINA RESULT:    -5.216      6.908     11.001
REMARK INTER + INTRA:          -8.493
REMARK INTER:                  -7.480
REMARK INTRA:                  -1.013
REMARK UNBOUND:                -0.990
REMARK SMILES O=c1cc(-c2ccc(O)c(O)c2)oc2cc(O[C@H]3O[C@H](CO)[C@@H](O)[C@@H](O)[C@H]3O)cc(O)c12
REMARK SMILES IDX 17 1 16 2 4 3 3 4 13 5 2 6 14 7 1 8 32 9 15 10 30 11 29 12
REMARK SMILES IDX 5 13 6 14 7 15 8 16 12 17 10 18 9 19 11 21 31 23 18 25 27 26
REMARK SMILES IDX 19 27 25 28 20 29 23 30 28 31 26 33 21 35 22 36 24 38
REMARK H PARENT 9 20 11 22 31 24 28 32 26 34 22 37 24 39
REMARK Flexibility Score: inf
ROOT
ATOM      1  O   UNL     1      75.436   7.744  36.001  1.00  0.00    -0.462 OA
ENDROOT
BRANCH   1   2
ATOM      2  C   UNL     1      74.565   7.189  35.050  1.00  0.00     0.130 A 
ATOM      3  C   UNL     1      72.540   3.213  33.367  1.00  0.00     0.138 A 
ATOM      4  C   UNL     1      71.822   3.918  32.388  1.00  0.00     0.100 A 
ATOM      5  O   UNL     1      73.335   3.878  34.201  1.00  0.00    -0.456 OA
ATOM      6  C   UNL     1      71.964   5.303  32.295  1.00  0.00     0.197 A 
ATOM      7  C   UNL     1      73.505   5.197  34.153  1.00  0.00     0.146 A 
ATOM      8  O   UNL     1      71.315   5.927  31.414  1.00  0.00    -0.289 OA
ATOM      9  C   UNL     1      72.824   5.975  33.188  1.00  0.00     0.107 A 
ATOM     10  C   UNL     1      74.364   5.808  35.070  1.00  0.00     0.094 A 
ATOM     11  C   UNL     1      73.027   7.374  33.163  1.00  0.00     0.134 A 
ATOM     12  C   UNL     1      73.895   7.968  34.090  1.00  0.00     0.093 A 
BRANCH   3  13
ATOM     13  C   UNL     1      72.427   1.740  33.514  1.00  0.00     0.021 A 
ATOM     14  C   UNL     1      73.276   1.013  34.371  1.00  0.00     0.016 A 
ATOM     15  C   UNL     1      73.139  -0.371  34.496  1.00  0.00     0.051 A 
ATOM     16  C   UNL     1      72.149  -1.054  33.778  1.00  0.00     0.157 A 
ATOM     17  C   UNL     1      71.427   1.049  32.806  1.00  0.00     0.062 A 
ATOM     18  C   UNL     1      71.289  -0.338  32.929  1.00  0.00     0.158 A 
BRANCH  16  19
ATOM     19  O   UNL     1      72.017  -2.436  33.905  1.00  0.00    -0.504 OA
ATOM     20  H   UNL     1      72.771  -3.010  34.263  1.00  0.00     0.293 HD
ENDBRANCH  16  19
BRANCH  18  21
ATOM     21  O   UNL     1      70.290  -0.986  32.203  1.00  0.00    -0.504 OA
ATOM     22  H   UNL     1      69.326  -1.005  32.513  1.00  0.00     0.293 HD
ENDBRANCH  18  21
ENDBRANCH   3  13
BRANCH  11  23
ATOM     23  O   UNL     1      72.375   8.175  32.225  1.00  0.00    -0.507 OA
ATOM     24  H   UNL     1      71.471   7.922  31.844  1.00  0.00     0.293 HD
ENDBRANCH  11  23
ENDBRANCH   1   2
BRANCH   1  25
ATOM     25  C   UNL     1      75.884   9.104  36.012  1.00  0.00     0.339 C 
ATOM     26  C   UNL     1      77.414   9.178  35.850  1.00  0.00     0.214 C 
ATOM     27  O   UNL     1      75.459   9.780  37.186  1.00  0.00    -0.332 OA
ATOM     28  C   UNL     1      78.125   8.635  37.103  1.00  0.00     0.180 C 
ATOM     29  C   UNL     1      76.005   9.194  38.358  1.00  0.00     0.179 C 
ATOM     30  C   UNL     1      77.549   9.311  38.360  1.00  0.00     0.177 C 
BRANCH  26  31
ATOM     31  O   UNL     1      77.804   8.457  34.710  1.00  0.00    -0.384 OA
ATOM     32  H   UNL     1      77.266   7.622  34.702  1.00  0.00     0.211 HD
ENDBRANCH  26  31
BRANCH  28  33
ATOM     33  O   UNL     1      77.965   7.238  37.173  1.00  0.00    -0.387 OA
ATOM     34  H   UNL     1      76.997   7.062  37.300  1.00  0.00     0.211 HD
ENDBRANCH  28  33
BRANCH  29  35
ATOM     35  C   UNL     1      75.380   9.882  39.582  1.00  0.00     0.191 C 
BRANCH  35  36
ATOM     36  O   UNL     1      75.448   9.060  40.718  1.00  0.00    -0.394 OA
ATOM     37  H   UNL     1      75.849   8.200  40.427  1.00  0.00     0.210 HD
ENDBRANCH  35  36
ENDBRANCH  29  35
BRANCH  30  38
ATOM     38  O   UNL     1      78.091   8.700  39.505  1.00  0.00    -0.387 OA
ATOM     39  H   UNL     1      77.340   8.266  39.988  1.00  0.00     0.211 HD
ENDBRANCH  30  38
ENDBRANCH   1  25
TORSDOF 11
ENDMDL
MODEL 6
REMARK VINA RESULT:    -5.214     13.212     16.226
REMARK INTER + INTRA:          -8.490
REMARK INTER:                  -7.504
REMARK INTRA:                  -0.986
REMARK UNBOUND:                -0.990
REMARK SMILES O=c1cc(-c2ccc(O)c(O)c2)oc2cc(O[C@H]3O[C@H](CO)[C@@H](O)[C@@H](O)[C@H]3O)cc(O)c12
REMARK SMILES IDX 17 1 16 2 4 3 3 4 13 5 2 6 14 7 1 8 32 9 15 10 30 11 29 12
REMARK SMILES IDX 5 13 6 14 7 15 8 16 12 17 10 18 9 19 11 21 31 23 18 25 27 26
REMARK SMILES IDX 19 27 25 28 20 29 23 30 28 31 26 33 21 35 22 36 24 38
REMARK H PARENT 9 20 11 22 31 24 28 32 26 34 22 37 24 39
REMARK Flexibility Score: inf
ROOT
ATOM      1  O   UNL     1      72.574  10.932  46.723  1.00  0.00    -0.462 OA
ENDROOT
BRANCH   1   2
ATOM      2  C   UNL     1      71.348  10.742  47.380  1.00  0.00     0.130 A 
ATOM      3  C   UNL     1      66.985  12.474  48.218  1.00  0.00     0.138 A 
ATOM      4  C   UNL     1      66.638  11.380  49.026  1.00  0.00     0.100 A 
ATOM      5  O   UNL     1      68.193  12.519  47.661  1.00  0.00    -0.456 OA
ATOM      6  C   UNL     1      67.569  10.364  49.245  1.00  0.00     0.197 A 
ATOM      7  C   UNL     1      69.115  11.576  47.840  1.00  0.00     0.146 A 
ATOM      8  O   UNL     1      67.247   9.386  49.972  1.00  0.00    -0.289 OA
ATOM      9  C   UNL     1      68.843  10.449  48.649  1.00  0.00     0.107 A 
ATOM     10  C   UNL     1      70.358  11.711  47.216  1.00  0.00     0.094 A 
ATOM     11  C   UNL     1      69.845   9.466  48.820  1.00  0.00     0.134 A 
ATOM     12  C   UNL     1      71.087   9.620  48.187  1.00  0.00     0.093 A 
BRANCH   3  13
ATOM     13  C   UNL     1      66.035  13.583  47.948  1.00  0.00     0.021 A 
ATOM     14  C   UNL     1      66.479  14.854  47.537  1.00  0.00     0.016 A 
ATOM     15  C   UNL     1      65.561  15.876  47.281  1.00  0.00     0.051 A 
ATOM     16  C   UNL     1      64.186  15.645  47.421  1.00  0.00     0.157 A 
ATOM     17  C   UNL     1      64.653  13.356  48.074  1.00  0.00     0.062 A 
ATOM     18  C   UNL     1      63.731  14.378  47.819  1.00  0.00     0.158 A 
BRANCH  16  19
ATOM     19  O   UNL     1      63.274  16.668  47.165  1.00  0.00    -0.504 OA
ATOM     20  H   UNL     1      63.482  17.413  46.512  1.00  0.00     0.293 HD
ENDBRANCH  16  19
BRANCH  18  21
ATOM     21  O   UNL     1      62.370  14.113  47.965  1.00  0.00    -0.504 OA
ATOM     22  H   UNL     1      61.699  14.846  48.166  1.00  0.00     0.293 HD
ENDBRANCH  18  21
ENDBRANCH   3  13
BRANCH  11  23
ATOM     23  O   UNL     1      69.616   8.340  49.612  1.00  0.00    -0.507 OA
ATOM     24  H   UNL     1      68.737   8.198  50.096  1.00  0.00     0.293 HD
ENDBRANCH  11  23
ENDBRANCH   1   2
BRANCH   1  25
ATOM     25  C   UNL     1      73.620   9.957  46.634  1.00  0.00     0.339 C 
ATOM     26  C   UNL     1      74.851  10.399  47.448  1.00  0.00     0.214 C 
ATOM     27  O   UNL     1      73.967   9.691  45.283  1.00  0.00    -0.332 OA
ATOM     28  C   UNL     1      75.536  11.612  46.792  1.00  0.00     0.180 C 
ATOM     29  C   UNL     1      74.472  10.848  44.632  1.00  0.00     0.179 C 
ATOM     30  C   UNL     1      75.786  11.322  45.302  1.00  0.00     0.177 C 
BRANCH  26  31
ATOM     31  O   UNL     1      74.463  10.703  48.763  1.00  0.00    -0.384 OA
ATOM     32  H   UNL     1      73.735  10.070  48.999  1.00  0.00     0.211 HD
ENDBRANCH  26  31
BRANCH  28  33
ATOM     33  O   UNL     1      74.731  12.755  46.948  1.00  0.00    -0.387 OA
ATOM     34  H   UNL     1      74.230  12.645  47.798  1.00  0.00     0.211 HD
ENDBRANCH  28  33
BRANCH  29  35
ATOM     35  C   UNL     1      74.679  10.517  43.145  1.00  0.00     0.191 C 
BRANCH  35  36
ATOM     36  O   UNL     1      74.535  11.661  42.345  1.00  0.00    -0.394 OA
ATOM     37  H   UNL     1      73.675  12.085  42.602  1.00  0.00     0.210 HD
ENDBRANCH  35  36
ENDBRANCH  29  35
BRANCH  30  38
ATOM     38  O   UNL     1      76.267  12.487  44.677  1.00  0.00    -0.387 OA
ATOM     39  H   UNL     1      77.256  12.478  44.763  1.00  0.00     0.211 HD
ENDBRANCH  30  38
ENDBRANCH   1  25
TORSDOF 11
ENDMDL
MODEL 7
REMARK VINA RESULT:    -5.213      7.371     10.180
REMARK INTER + INTRA:          -8.489
REMARK INTER:                  -7.493
REMARK INTRA:                  -0.996
REMARK UNBOUND:                -0.990
REMARK SMILES O=c1cc(-c2ccc(O)c(O)c2)oc2cc(O[C@H]3O[C@H](CO)[C@@H](O)[C@@H](O)[C@H]3O)cc(O)c12
REMARK SMILES IDX 17 1 16 2 4 3 3 4 13 5 2 6 14 7 1 8 32 9 15 10 30 11 29 12
REMARK SMILES IDX 5 13 6 14 7 15 8 16 12 17 10 18 9 19 11 21 31 23 18 25 27 26
REMARK SMILES IDX 19 27 25 28 20 29 23 30 28 31 26 33 21 35 22 36 24 38
REMARK H PARENT 9 20 11 22 31 24 28 32 26 34 22 37 24 39
REMARK Flexibility Score: inf
ROOT
ATOM      1  O   UNL     1      63.513   4.600  33.445  1.00  0.00    -0.462 OA
ENDROOT
BRANCH   1   2
ATOM      2  C   UNL     1      63.780   3.339  34.003  1.00  0.00     0.130 A 
ATOM      3  C   UNL     1      67.097   0.059  34.992  1.00  0.00     0.138 A 
ATOM      4  C   UNL     1      66.160  -0.798  35.593  1.00  0.00     0.100 A 
ATOM      5  O   UNL     1      66.693   1.228  34.500  1.00  0.00    -0.456 OA
ATOM      6  C   UNL     1      64.819  -0.417  35.652  1.00  0.00     0.197 A 
ATOM      7  C   UNL     1      65.427   1.636  34.532  1.00  0.00     0.146 A 
ATOM      8  O   UNL     1      63.986  -1.192  36.195  1.00  0.00    -0.289 OA
ATOM      9  C   UNL     1      64.424   0.824  35.111  1.00  0.00     0.107 A 
ATOM     10  C   UNL     1      65.097   2.879  33.987  1.00  0.00     0.094 A 
ATOM     11  C   UNL     1      63.088   1.285  35.127  1.00  0.00     0.134 A 
ATOM     12  C   UNL     1      62.777   2.535  34.574  1.00  0.00     0.093 A 
BRANCH   3  13
ATOM     13  C   UNL     1      68.536  -0.293  34.902  1.00  0.00     0.021 A 
ATOM     14  C   UNL     1      69.272  -0.104  33.716  1.00  0.00     0.016 A 
ATOM     15  C   UNL     1      70.628  -0.435  33.664  1.00  0.00     0.051 A 
ATOM     16  C   UNL     1      71.276  -0.950  34.794  1.00  0.00     0.157 A 
ATOM     17  C   UNL     1      69.197  -0.797  36.036  1.00  0.00     0.062 A 
ATOM     18  C   UNL     1      70.556  -1.131  35.986  1.00  0.00     0.158 A 
BRANCH  16  19
ATOM     19  O   UNL     1      72.629  -1.279  34.737  1.00  0.00    -0.504 OA
ATOM     20  H   UNL     1      72.950  -2.231  34.868  1.00  0.00     0.293 HD
ENDBRANCH  16  19
BRANCH  18  21
ATOM     21  O   UNL     1      71.171  -1.638  37.130  1.00  0.00    -0.504 OA
ATOM     22  H   UNL     1      72.178  -1.642  37.242  1.00  0.00     0.293 HD
ENDBRANCH  18  21
ENDBRANCH   3  13
BRANCH  11  23
ATOM     23  O   UNL     1      62.070   0.513  35.689  1.00  0.00    -0.507 OA
ATOM     24  H   UNL     1      62.052  -0.496  35.595  1.00  0.00     0.293 HD
ENDBRANCH  11  23
ENDBRANCH   1   2
BRANCH   1  25
ATOM     25  C   UNL     1      62.318   5.359  33.661  1.00  0.00     0.339 C 
ATOM     26  C   UNL     1      61.526   5.519  32.349  1.00  0.00     0.214 C 
ATOM     27  O   UNL     1      62.605   6.622  34.245  1.00  0.00    -0.332 OA
ATOM     28  C   UNL     1      62.273   6.438  31.366  1.00  0.00     0.180 C 
ATOM     29  C   UNL     1      63.413   7.423  33.395  1.00  0.00     0.179 C 
ATOM     30  C   UNL     1      62.667   7.745  32.076  1.00  0.00     0.177 C 
BRANCH  26  31
ATOM     31  O   UNL     1      61.305   4.257  31.775  1.00  0.00    -0.384 OA
ATOM     32  H   UNL     1      60.680   3.775  32.377  1.00  0.00     0.211 HD
ENDBRANCH  26  31
BRANCH  28  33
ATOM     33  O   UNL     1      63.414   5.779  30.871  1.00  0.00    -0.387 OA
ATOM     34  H   UNL     1      63.874   5.370  31.650  1.00  0.00     0.211 HD
ENDBRANCH  28  33
BRANCH  29  35
ATOM     35  C   UNL     1      63.802   8.700  34.156  1.00  0.00     0.191 C 
BRANCH  35  36
ATOM     36  O   UNL     1      64.966   9.275  33.625  1.00  0.00    -0.394 OA
ATOM     37  H   UNL     1      65.678   8.585  33.680  1.00  0.00     0.210 HD
ENDBRANCH  35  36
ENDBRANCH  29  35
BRANCH  30  38
ATOM     38  O   UNL     1      63.481   8.511  31.222  1.00  0.00    -0.387 OA
ATOM     39  H   UNL     1      64.417   8.405  31.537  1.00  0.00     0.211 HD
ENDBRANCH  30  38
ENDBRANCH   1  25
TORSDOF 11
ENDMDL
MODEL 8
REMARK VINA RESULT:    -5.168      9.691     13.523
REMARK INTER + INTRA:          -8.424
REMARK INTER:                  -7.383
REMARK INTRA:                  -1.041
REMARK UNBOUND:                -0.990
REMARK SMILES O=c1cc(-c2ccc(O)c(O)c2)oc2cc(O[C@H]3O[C@H](CO)[C@@H](O)[C@@H](O)[C@H]3O)cc(O)c12
REMARK SMILES IDX 17 1 16 2 4 3 3 4 13 5 2 6 14 7 1 8 32 9 15 10 30 11 29 12
REMARK SMILES IDX 5 13 6 14 7 15 8 16 12 17 10 18 9 19 11 21 31 23 18 25 27 26
REMARK SMILES IDX 19 27 25 28 20 29 23 30 28 31 26 33 21 35 22 36 24 38
REMARK H PARENT 9 20 11 22 31 24 28 32 26 34 22 37 24 39
REMARK Flexibility Score: inf
ROOT
ATOM      1  O   UNL     1      60.682  -1.047  36.019  1.00  0.00    -0.462 OA
ENDROOT
BRANCH   1   2
ATOM      2  C   UNL     1      60.416  -0.517  34.747  1.00  0.00     0.130 A 
ATOM      3  C   UNL     1      60.707   3.296  31.898  1.00  0.00     0.138 A 
ATOM      4  C   UNL     1      60.123   2.613  30.819  1.00  0.00     0.100 A 
ATOM      5  O   UNL     1      60.894   2.659  33.052  1.00  0.00    -0.456 OA
ATOM      6  C   UNL     1      59.734   1.282  30.978  1.00  0.00     0.197 A 
ATOM      7  C   UNL     1      60.540   1.393  33.252  1.00  0.00     0.146 A 
ATOM      8  O   UNL     1      59.211   0.677  30.004  1.00  0.00    -0.289 OA
ATOM      9  C   UNL     1      59.936   0.642  32.217  1.00  0.00     0.107 A 
ATOM     10  C   UNL     1      60.773   0.810  34.500  1.00  0.00     0.094 A 
ATOM     11  C   UNL     1      59.570  -0.701  32.464  1.00  0.00     0.134 A 
ATOM     12  C   UNL     1      59.811  -1.268  33.724  1.00  0.00     0.093 A 
BRANCH   3  13
ATOM     13  C   UNL     1      61.142   4.711  31.786  1.00  0.00     0.021 A 
ATOM     14  C   UNL     1      62.419   5.057  31.303  1.00  0.00     0.016 A 
ATOM     15  C   UNL     1      62.798   6.397  31.200  1.00  0.00     0.051 A 
ATOM     16  C   UNL     1      61.908   7.415  31.565  1.00  0.00     0.157 A 
ATOM     17  C   UNL     1      60.250   5.739  32.138  1.00  0.00     0.062 A 
ATOM     18  C   UNL     1      60.628   7.083  32.036  1.00  0.00     0.158 A 
BRANCH  16  19
ATOM     19  O   UNL     1      62.291   8.752  31.461  1.00  0.00    -0.504 OA
ATOM     20  H   UNL     1      61.691   9.443  31.025  1.00  0.00     0.293 HD
ENDBRANCH  16  19
BRANCH  18  21
ATOM     21  O   UNL     1      59.717   8.072  32.405  1.00  0.00    -0.504 OA
ATOM     22  H   UNL     1      59.129   8.542  31.726  1.00  0.00     0.293 HD
ENDBRANCH  18  21
ENDBRANCH   3  13
BRANCH  11  23
ATOM     23  O   UNL     1      58.971  -1.475  31.469  1.00  0.00    -0.507 OA
ATOM     24  H   UNL     1      57.986  -1.392  31.249  1.00  0.00     0.293 HD
ENDBRANCH  11  23
ENDBRANCH   1   2
BRANCH   1  25
ATOM     25  C   UNL     1      61.425  -2.246  36.272  1.00  0.00     0.339 C 
ATOM     26  C   UNL     1      61.304  -2.662  37.751  1.00  0.00     0.214 C 
ATOM     27  O   UNL     1      62.785  -2.104  35.888  1.00  0.00    -0.332 OA
ATOM     28  C   UNL     1      62.048  -1.670  38.662  1.00  0.00     0.180 C 
ATOM     29  C   UNL     1      63.439  -1.089  36.635  1.00  0.00     0.179 C 
ATOM     30  C   UNL     1      63.479  -1.457  38.139  1.00  0.00     0.177 C 
BRANCH  26  31
ATOM     31  O   UNL     1      59.949  -2.743  38.109  1.00  0.00    -0.384 OA
ATOM     32  H   UNL     1      59.923  -2.993  39.070  1.00  0.00     0.211 HD
ENDBRANCH  26  31
BRANCH  28  33
ATOM     33  O   UNL     1      61.349  -0.449  38.707  1.00  0.00    -0.387 OA
ATOM     34  H   UNL     1      61.951   0.245  38.330  1.00  0.00     0.211 HD
ENDBRANCH  28  33
BRANCH  29  35
ATOM     35  C   UNL     1      64.850  -0.895  36.059  1.00  0.00     0.191 C 
BRANCH  35  36
ATOM     36  O   UNL     1      65.791  -1.682  36.739  1.00  0.00    -0.394 OA
ATOM     37  H   UNL     1      65.279  -2.340  37.278  1.00  0.00     0.210 HD
ENDBRANCH  35  36
ENDBRANCH  29  35
BRANCH  30  38
ATOM     38  O   UNL     1      64.098  -0.436  38.882  1.00  0.00    -0.387 OA
ATOM     39  H   UNL     1      65.036  -0.369  38.562  1.00  0.00     0.211 HD
ENDBRANCH  30  38
ENDBRANCH   1  25
TORSDOF 11
ENDMDL
MODEL 9
REMARK VINA RESULT:    -5.150     11.629     16.551
REMARK INTER + INTRA:          -8.399
REMARK INTER:                  -7.429
REMARK INTRA:                  -0.970
REMARK UNBOUND:                -0.990
REMARK SMILES O=c1cc(-c2ccc(O)c(O)c2)oc2cc(O[C@H]3O[C@H](CO)[C@@H](O)[C@@H](O)[C@H]3O)cc(O)c12
REMARK SMILES IDX 17 1 16 2 4 3 3 4 13 5 2 6 14 7 1 8 32 9 15 10 30 11 29 12
REMARK SMILES IDX 5 13 6 14 7 15 8 16 12 17 10 18 9 19 11 21 31 23 18 25 27 26
REMARK SMILES IDX 19 27 25 28 20 29 23 30 28 31 26 33 21 35 22 36 24 38
REMARK H PARENT 9 20 11 22 31 24 28 32 26 34 22 37 24 39
REMARK Flexibility Score: inf
ROOT
ATOM      1  O   UNL     1      61.470   5.930  46.006  1.00  0.00    -0.462 OA
ENDROOT
BRANCH   1   2
ATOM      2  C   UNL     1      61.271   7.253  45.580  1.00  0.00     0.130 A 
ATOM      3  C   UNL     1      62.514  11.825  46.119  1.00  0.00     0.138 A 
ATOM      4  C   UNL     1      61.639  12.248  45.106  1.00  0.00     0.100 A 
ATOM      5  O   UNL     1      62.592  10.530  46.418  1.00  0.00    -0.456 OA
ATOM      6  C   UNL     1      60.855  11.306  44.437  1.00  0.00     0.197 A 
ATOM      7  C   UNL     1      61.866   9.595  45.811  1.00  0.00     0.146 A 
ATOM      8  O   UNL     1      60.073  11.695  43.528  1.00  0.00    -0.289 OA
ATOM      9  C   UNL     1      60.955   9.944  44.787  1.00  0.00     0.107 A 
ATOM     10  C   UNL     1      62.015   8.261  46.195  1.00  0.00     0.094 A 
ATOM     11  C   UNL     1      60.198   8.926  44.163  1.00  0.00     0.134 A 
ATOM     12  C   UNL     1      60.360   7.593  44.564  1.00  0.00     0.093 A 
BRANCH   3  13
ATOM     13  C   UNL     1      63.373  12.781  46.862  1.00  0.00     0.021 A 
ATOM     14  C   UNL     1      63.848  12.497  48.157  1.00  0.00     0.016 A 
ATOM     15  C   UNL     1      64.663  13.412  48.828  1.00  0.00     0.051 A 
ATOM     16  C   UNL     1      65.026  14.619  48.218  1.00  0.00     0.157 A 
ATOM     17  C   UNL     1      63.752  13.989  46.251  1.00  0.00     0.062 A 
ATOM     18  C   UNL     1      64.568  14.908  46.922  1.00  0.00     0.158 A 
BRANCH  16  19
ATOM     19  O   UNL     1      65.839  15.530  48.891  1.00  0.00    -0.504 OA
ATOM     20  H   UNL     1      65.455  16.201  49.546  1.00  0.00     0.293 HD
ENDBRANCH  16  19
BRANCH  18  21
ATOM     21  O   UNL     1      64.913  16.099  46.284  1.00  0.00    -0.504 OA
ATOM     22  H   UNL     1      65.764  16.191  45.741  1.00  0.00     0.293 HD
ENDBRANCH  18  21
ENDBRANCH   3  13
BRANCH  11  23
ATOM     23  O   UNL     1      59.287   9.231  43.150  1.00  0.00    -0.507 OA
ATOM     24  H   UNL     1      58.894  10.158  43.047  1.00  0.00     0.293 HD
ENDBRANCH  11  23
ENDBRANCH   1   2
BRANCH   1  25
ATOM     25  C   UNL     1      60.850   4.776  45.426  1.00  0.00     0.339 C 
ATOM     26  C   UNL     1      59.825   4.160  46.397  1.00  0.00     0.214 C 
ATOM     27  O   UNL     1      61.817   3.817  45.023  1.00  0.00    -0.332 OA
ATOM     28  C   UNL     1      60.530   3.525  47.608  1.00  0.00     0.180 C 
ATOM     29  C   UNL     1      62.566   3.329  46.126  1.00  0.00     0.179 C 
ATOM     30  C   UNL     1      61.646   2.583  47.124  1.00  0.00     0.177 C 
BRANCH  26  31
ATOM     31  O   UNL     1      58.918   5.146  46.814  1.00  0.00    -0.384 OA
ATOM     32  H   UNL     1      58.241   4.691  47.381  1.00  0.00     0.211 HD
ENDBRANCH  26  31
BRANCH  28  33
ATOM     33  O   UNL     1      61.056   4.534  48.436  1.00  0.00    -0.387 OA
ATOM     34  H   UNL     1      60.391   4.696  49.156  1.00  0.00     0.211 HD
ENDBRANCH  28  33
BRANCH  29  35
ATOM     35  C   UNL     1      63.682   2.418  45.590  1.00  0.00     0.191 C 
BRANCH  35  36
ATOM     36  O   UNL     1      64.828   2.489  46.396  1.00  0.00    -0.394 OA
ATOM     37  H   UNL     1      64.544   2.875  47.266  1.00  0.00     0.210 HD
ENDBRANCH  35  36
ENDBRANCH  29  35
BRANCH  30  38
ATOM     38  O   UNL     1      62.384   2.129  48.232  1.00  0.00    -0.387 OA
ATOM     39  H   UNL     1      63.341   2.315  48.043  1.00  0.00     0.211 HD
ENDBRANCH  30  38
ENDBRANCH   1  25
TORSDOF 11
ENDMDL
