MODEL 1
REMARK VINA RESULT:    -9.068      0.000      0.000
REMARK INTER + INTRA:         -11.095
REMARK INTER:                 -10.658
REMARK INTRA:                  -0.437
REMARK UNBOUND:                -0.437
REMARK SMILES C=C(C)[C@H]1CC[C@]2(CO)CC[C@@]3(C)[C@H](CC[C@@H]4[C@@]5(C)CC[C@H](O)C(C)(C)[C@H]5CC[C@@]43C)[C@H]12
REMARK SMILES IDX 4 1 5 2 6 3 7 4 32 5 14 6 15 7 16 8 17 9 18 10 20 11 21 12
REMARK SMILES IDX 22 13 24 14 27 15 28 16 29 17 30 18 12 19 11 20 10 21 13 22
REMARK SMILES IDX 31 23 25 24 26 25 19 26 2 27 3 28 1 29 8 30 9 31 23 33
REMARK H PARENT 9 32 23 34
REMARK Flexibility Score: inf
ROOT
ATOM      1  C   UNL     1     -37.809  36.013  46.144  1.00  0.00     0.018 C 
ATOM      2  C   UNL     1     -39.148  36.013  46.877  1.00  0.00     0.009 C 
ATOM      3  C   UNL     1     -39.419  37.485  47.140  1.00  0.00     0.010 C 
ATOM      4  C   UNL     1     -38.053  38.088  47.511  1.00  0.00    -0.003 C 
ATOM      5  C   UNL     1     -37.045  37.320  46.569  1.00  0.00     0.008 C 
ATOM      6  C   UNL     1     -36.367  38.134  45.372  1.00  0.00    -0.000 C 
ATOM      7  C   UNL     1     -37.114  38.031  44.030  1.00  0.00     0.005 C 
ATOM      8  C   UNL     1     -36.434  38.774  42.901  1.00  0.00     0.005 C 
ATOM      9  C   UNL     1     -36.199  40.297  43.147  1.00  0.00     0.002 C 
ATOM     10  C   UNL     1     -35.552  40.966  41.822  1.00  0.00    -0.026 C 
ATOM     11  C   UNL     1     -35.641  42.529  41.821  1.00  0.00     0.010 C 
ATOM     12  C   UNL     1     -34.941  43.209  40.629  1.00  0.00     0.033 C 
ATOM     13  C   UNL     1     -33.464  42.784  40.520  1.00  0.00     0.120 C 
ATOM     14  C   UNL     1     -33.256  41.235  40.464  1.00  0.00    -0.006 C 
ATOM     15  C   UNL     1     -34.038  40.521  41.664  1.00  0.00     0.003 C 
ATOM     16  C   UNL     1     -33.270  40.675  43.012  1.00  0.00     0.005 C 
ATOM     17  C   UNL     1     -33.935  40.033  44.241  1.00  0.00     0.008 C 
ATOM     18  C   UNL     1     -35.403  40.486  44.510  1.00  0.00    -0.024 C 
ATOM     19  C   UNL     1     -36.064  39.632  45.735  1.00  0.00    -0.024 C 
ATOM     20  C   UNL     1     -37.443  40.255  46.146  1.00  0.00     0.008 C 
ATOM     21  C   UNL     1     -38.070  39.645  47.396  1.00  0.00     0.010 C 
ATOM     22  C   UNL     1     -35.073  39.617  46.954  1.00  0.00     0.012 C 
ATOM     23  C   UNL     1     -35.383  41.998  44.936  1.00  0.00     0.012 C 
ATOM     24  C   UNL     1     -33.691  40.655  39.084  1.00  0.00     0.014 C 
ATOM     25  C   UNL     1     -31.727  40.958  40.556  1.00  0.00     0.014 C 
ATOM     26  C   UNL     1     -36.422  40.494  40.605  1.00  0.00     0.012 C 
ENDROOT
BRANCH   1  27
ATOM     27  C   UNL     1     -37.000  34.730  46.307  1.00  0.00    -0.077 C 
ATOM     28  C   UNL     1     -35.512  34.745  46.067  1.00  0.00     0.039 C 
ATOM     29  C   UNL     1     -37.570  33.573  46.677  1.00  0.00     0.008 C 
ENDBRANCH   1  27
BRANCH   4  30
ATOM     30  C   UNL     1     -37.771  37.741  49.015  1.00  0.00     0.163 C 
BRANCH  30  31
ATOM     31  O   UNL     1     -38.863  38.095  49.824  1.00  0.00    -0.396 OA
ATOM     32  H   UNL     1     -39.645  37.595  49.472  1.00  0.00     0.210 HD
ENDBRANCH  30  31
ENDBRANCH   4  30
BRANCH  13  33
ATOM     33  O   UNL     1     -32.837  43.435  39.439  1.00  0.00    -0.393 OA
ATOM     34  H   UNL     1     -32.884  44.413  39.593  1.00  0.00     0.210 HD
ENDBRANCH  13  33
TORSDOF 4
ENDMDL
MODEL 2
REMARK VINA RESULT:    -8.578      1.378      8.296
REMARK INTER + INTRA:         -10.519
REMARK INTER:                 -10.089
REMARK INTRA:                  -0.431
REMARK UNBOUND:                -0.437
REMARK SMILES C=C(C)[C@H]1CC[C@]2(CO)CC[C@@]3(C)[C@H](CC[C@@H]4[C@@]5(C)CC[C@H](O)C(C)(C)[C@H]5CC[C@@]43C)[C@H]12
REMARK SMILES IDX 4 1 5 2 6 3 7 4 32 5 14 6 15 7 16 8 17 9 18 10 20 11 21 12
REMARK SMILES IDX 22 13 24 14 27 15 28 16 29 17 30 18 12 19 11 20 10 21 13 22
REMARK SMILES IDX 31 23 25 24 26 25 19 26 2 27 3 28 1 29 8 30 9 31 23 33
REMARK H PARENT 9 32 23 34
REMARK Flexibility Score: inf
ROOT
ATOM      1  C   UNL     1     -32.177  42.375  40.999  1.00  0.00     0.018 C 
ATOM      2  C   UNL     1     -32.328  43.730  40.313  1.00  0.00     0.009 C 
ATOM      3  C   UNL     1     -33.828  43.865  40.100  1.00  0.00     0.010 C 
ATOM      4  C   UNL     1     -34.307  42.459  39.697  1.00  0.00    -0.003 C 
ATOM      5  C   UNL     1     -33.417  41.501  40.583  1.00  0.00     0.008 C 
ATOM      6  C   UNL     1     -34.125  40.708  41.777  1.00  0.00    -0.000 C 
ATOM      7  C   UNL     1     -34.053  41.419  43.141  1.00  0.00     0.005 C 
ATOM      8  C   UNL     1     -34.693  40.633  44.265  1.00  0.00     0.005 C 
ATOM      9  C   UNL     1     -36.192  40.259  44.053  1.00  0.00     0.002 C 
ATOM     10  C   UNL     1     -36.755  39.508  45.372  1.00  0.00    -0.026 C 
ATOM     11  C   UNL     1     -38.319  39.444  45.419  1.00  0.00     0.010 C 
ATOM     12  C   UNL     1     -38.891  38.642  46.603  1.00  0.00     0.033 C 
ATOM     13  C   UNL     1     -38.323  37.211  46.649  1.00  0.00     0.120 C 
ATOM     14  C   UNL     1     -36.760  37.153  46.655  1.00  0.00    -0.006 C 
ATOM     15  C   UNL     1     -36.162  38.040  45.465  1.00  0.00     0.003 C 
ATOM     16  C   UNL     1     -36.282  37.305  44.095  1.00  0.00     0.005 C 
ATOM     17  C   UNL     1     -35.745  38.068  42.873  1.00  0.00     0.008 C 
ATOM     18  C   UNL     1     -36.345  39.492  42.668  1.00  0.00    -0.024 C 
ATOM     19  C   UNL     1     -35.597  40.273  41.445  1.00  0.00    -0.024 C 
ATOM     20  C   UNL     1     -36.363  41.597  41.099  1.00  0.00     0.008 C 
ATOM     21  C   UNL     1     -35.854  42.321  39.856  1.00  0.00     0.010 C 
ATOM     22  C   UNL     1     -35.524  39.328  40.191  1.00  0.00     0.012 C 
ATOM     23  C   UNL     1     -37.861  39.339  42.283  1.00  0.00     0.012 C 
ATOM     24  C   UNL     1     -36.183  37.597  48.033  1.00  0.00     0.014 C 
ATOM     25  C   UNL     1     -36.340  35.662  46.501  1.00  0.00     0.014 C 
ATOM     26  C   UNL     1     -36.332  40.379  46.605  1.00  0.00     0.012 C 
ENDROOT
BRANCH   1  27
ATOM     27  C   UNL     1     -30.828  41.700  40.772  1.00  0.00    -0.077 C 
ATOM     28  C   UNL     1     -29.647  42.517  40.314  1.00  0.00     0.039 C 
ATOM     29  C   UNL     1     -30.646  40.387  40.984  1.00  0.00     0.008 C 
ENDBRANCH   1  27
BRANCH   4  30
ATOM     30  C   UNL     1     -33.980  42.261  38.176  1.00  0.00     0.163 C 
BRANCH  30  31
ATOM     31  O   UNL     1     -34.386  43.377  37.427  1.00  0.00    -0.396 OA
ATOM     32  H   UNL     1     -34.929  43.941  38.038  1.00  0.00     0.210 HD
ENDBRANCH  30  31
ENDBRANCH   4  30
BRANCH  13  33
ATOM     33  O   UNL     1     -38.877  36.488  47.725  1.00  0.00    -0.393 OA
ATOM     34  H   UNL     1     -39.790  36.835  47.896  1.00  0.00     0.210 HD
ENDBRANCH  13  33
TORSDOF 4
ENDMDL
MODEL 3
REMARK VINA RESULT:    -8.107      1.589      8.412
REMARK INTER + INTRA:          -9.966
REMARK INTER:                  -9.495
REMARK INTRA:                  -0.471
REMARK UNBOUND:                -0.437
REMARK SMILES C=C(C)[C@H]1CC[C@]2(CO)CC[C@@]3(C)[C@H](CC[C@@H]4[C@@]5(C)CC[C@H](O)C(C)(C)[C@H]5CC[C@@]43C)[C@H]12
REMARK SMILES IDX 4 1 5 2 6 3 7 4 32 5 14 6 15 7 16 8 17 9 18 10 20 11 21 12
REMARK SMILES IDX 22 13 24 14 27 15 28 16 29 17 30 18 12 19 11 20 10 21 13 22
REMARK SMILES IDX 31 23 25 24 26 25 19 26 2 27 3 28 1 29 8 30 9 31 23 33
REMARK H PARENT 9 32 23 34
REMARK Flexibility Score: inf
ROOT
ATOM      1  C   UNL     1     -34.951  43.764  40.273  1.00  0.00     0.018 C 
ATOM      2  C   UNL     1     -34.446  43.799  38.833  1.00  0.00     0.009 C 
ATOM      3  C   UNL     1     -33.670  42.500  38.688  1.00  0.00     0.010 C 
ATOM      4  C   UNL     1     -32.928  42.321  40.024  1.00  0.00    -0.003 C 
ATOM      5  C   UNL     1     -33.962  42.855  41.091  1.00  0.00     0.008 C 
ATOM      6  C   UNL     1     -34.657  41.792  42.063  1.00  0.00    -0.000 C 
ATOM      7  C   UNL     1     -36.016  41.269  41.562  1.00  0.00     0.005 C 
ATOM      8  C   UNL     1     -36.675  40.296  42.515  1.00  0.00     0.005 C 
ATOM      9  C   UNL     1     -35.833  39.033  42.873  1.00  0.00     0.002 C 
ATOM     10  C   UNL     1     -36.705  38.051  43.820  1.00  0.00    -0.026 C 
ATOM     11  C   UNL     1     -36.112  36.604  43.911  1.00  0.00     0.010 C 
ATOM     12  C   UNL     1     -36.851  35.670  44.888  1.00  0.00     0.033 C 
ATOM     13  C   UNL     1     -36.933  36.275  46.302  1.00  0.00     0.120 C 
ATOM     14  C   UNL     1     -37.558  37.708  46.339  1.00  0.00    -0.006 C 
ATOM     15  C   UNL     1     -36.834  38.662  45.277  1.00  0.00     0.003 C 
ATOM     16  C   UNL     1     -35.448  39.146  45.802  1.00  0.00     0.005 C 
ATOM     17  C   UNL     1     -34.656  40.065  44.858  1.00  0.00     0.008 C 
ATOM     18  C   UNL     1     -34.416  39.494  43.427  1.00  0.00    -0.024 C 
ATOM     19  C   UNL     1     -33.709  40.607  42.463  1.00  0.00    -0.024 C 
ATOM     20  C   UNL     1     -33.262  39.946  41.113  1.00  0.00     0.008 C 
ATOM     21  C   UNL     1     -32.433  40.851  40.205  1.00  0.00     0.010 C 
ATOM     22  C   UNL     1     -32.478  41.236  43.210  1.00  0.00     0.012 C 
ATOM     23  C   UNL     1     -33.439  38.269  43.542  1.00  0.00     0.012 C 
ATOM     24  C   UNL     1     -39.097  37.662  46.098  1.00  0.00     0.014 C 
ATOM     25  C   UNL     1     -37.391  38.261  47.785  1.00  0.00     0.014 C 
ATOM     26  C   UNL     1     -38.107  37.888  43.136  1.00  0.00     0.012 C 
ENDROOT
BRANCH   1  27
ATOM     27  C   UNL     1     -35.198  45.138  40.889  1.00  0.00    -0.077 C 
ATOM     28  C   UNL     1     -35.526  45.256  42.356  1.00  0.00     0.039 C 
ATOM     29  C   UNL     1     -35.118  46.265  40.165  1.00  0.00     0.008 C 
ENDBRANCH   1  27
BRANCH   4  30
ATOM     30  C   UNL     1     -31.654  43.235  39.990  1.00  0.00     0.163 C 
BRANCH  30  31
ATOM     31  O   UNL     1     -30.490  42.478  40.200  1.00  0.00    -0.396 OA
ATOM     32  H   UNL     1     -30.198  42.667  41.130  1.00  0.00     0.210 HD
ENDBRANCH  30  31
ENDBRANCH   4  30
BRANCH  13  33
ATOM     33  O   UNL     1     -37.592  35.395  47.184  1.00  0.00    -0.393 OA
ATOM     34  H   UNL     1     -37.111  35.404  48.051  1.00  0.00     0.210 HD
ENDBRANCH  13  33
TORSDOF 4
ENDMDL
MODEL 4
REMARK VINA RESULT:    -8.033      1.706      3.438
REMARK INTER + INTRA:          -9.880
REMARK INTER:                  -9.377
REMARK INTRA:                  -0.502
REMARK UNBOUND:                -0.437
REMARK SMILES C=C(C)[C@H]1CC[C@]2(CO)CC[C@@]3(C)[C@H](CC[C@@H]4[C@@]5(C)CC[C@H](O)C(C)(C)[C@H]5CC[C@@]43C)[C@H]12
REMARK SMILES IDX 4 1 5 2 6 3 7 4 32 5 14 6 15 7 16 8 17 9 18 10 20 11 21 12
REMARK SMILES IDX 22 13 24 14 27 15 28 16 29 17 30 18 12 19 11 20 10 21 13 22
REMARK SMILES IDX 31 23 25 24 26 25 19 26 2 27 3 28 1 29 8 30 9 31 23 33
REMARK H PARENT 9 32 23 34
REMARK Flexibility Score: inf
ROOT
ATOM      1  C   UNL     1     -39.284  38.765  46.657  1.00  0.00     0.018 C 
ATOM      2  C   UNL     1     -39.301  38.294  48.109  1.00  0.00     0.009 C 
ATOM      3  C   UNL     1     -37.917  37.697  48.314  1.00  0.00     0.010 C 
ATOM      4  C   UNL     1     -37.599  36.955  47.004  1.00  0.00    -0.003 C 
ATOM      5  C   UNL     1     -38.228  37.885  45.894  1.00  0.00     0.008 C 
ATOM      6  C   UNL     1     -37.233  38.690  44.936  1.00  0.00    -0.000 C 
ATOM      7  C   UNL     1     -36.907  40.117  45.415  1.00  0.00     0.005 C 
ATOM      8  C   UNL     1     -35.996  40.876  44.474  1.00  0.00     0.005 C 
ATOM      9  C   UNL     1     -34.623  40.197  44.177  1.00  0.00     0.002 C 
ATOM     10  C   UNL     1     -33.732  41.168  43.236  1.00  0.00    -0.026 C 
ATOM     11  C   UNL     1     -32.218  40.767  43.205  1.00  0.00     0.010 C 
ATOM     12  C   UNL     1     -31.356  41.599  42.237  1.00  0.00     0.033 C 
ATOM     13  C   UNL     1     -31.919  41.568  40.803  1.00  0.00     0.120 C 
ATOM     14  C   UNL     1     -33.419  42.000  40.707  1.00  0.00    -0.006 C 
ATOM     15  C   UNL     1     -34.306  41.183  41.759  1.00  0.00     0.003 C 
ATOM     16  C   UNL     1     -34.589  39.734  41.257  1.00  0.00     0.005 C 
ATOM     17  C   UNL     1     -35.428  38.850  42.195  1.00  0.00     0.008 C 
ATOM     18  C   UNL     1     -34.878  38.720  43.648  1.00  0.00    -0.024 C 
ATOM     19  C   UNL     1     -35.921  37.896  44.597  1.00  0.00    -0.024 C 
ATOM     20  C   UNL     1     -35.254  37.570  45.978  1.00  0.00     0.008 C 
ATOM     21  C   UNL     1     -36.073  36.652  46.881  1.00  0.00     0.010 C 
ATOM     22  C   UNL     1     -36.360  36.576  43.865  1.00  0.00     0.012 C 
ATOM     23  C   UNL     1     -33.533  37.908  43.597  1.00  0.00     0.012 C 
ATOM     24  C   UNL     1     -33.581  43.537  40.908  1.00  0.00     0.014 C 
ATOM     25  C   UNL     1     -33.898  41.730  39.250  1.00  0.00     0.014 C 
ATOM     26  C   UNL     1     -33.775  42.595  43.887  1.00  0.00     0.012 C 
ENDROOT
BRANCH   1  27
ATOM     27  C   UNL     1     -40.657  38.817  45.995  1.00  0.00    -0.077 C 
ATOM     28  C   UNL     1     -40.794  39.349  44.591  1.00  0.00     0.039 C 
ATOM     29  C   UNL     1     -41.764  38.385  46.619  1.00  0.00     0.008 C 
ENDBRANCH   1  27
BRANCH   4  30
ATOM     30  C   UNL     1     -38.341  35.573  47.046  1.00  0.00     0.163 C 
BRANCH  30  31
ATOM     31  O   UNL     1     -37.472  34.528  46.695  1.00  0.00    -0.396 OA
ATOM     32  H   UNL     1     -36.638  34.671  47.216  1.00  0.00     0.210 HD
ENDBRANCH  30  31
ENDBRANCH   4  30
BRANCH  13  33
ATOM     33  O   UNL     1     -31.104  42.316  39.931  1.00  0.00    -0.393 OA
ATOM     34  H   UNL     1     -30.217  41.875  39.878  1.00  0.00     0.210 HD
ENDBRANCH  13  33
TORSDOF 4
ENDMDL
MODEL 5
REMARK VINA RESULT:    -7.298      1.591      7.856
REMARK INTER + INTRA:          -9.015
REMARK INTER:                  -8.379
REMARK INTRA:                  -0.636
REMARK UNBOUND:                -0.437
REMARK SMILES C=C(C)[C@H]1CC[C@]2(CO)CC[C@@]3(C)[C@H](CC[C@@H]4[C@@]5(C)CC[C@H](O)C(C)(C)[C@H]5CC[C@@]43C)[C@H]12
REMARK SMILES IDX 4 1 5 2 6 3 7 4 32 5 14 6 15 7 16 8 17 9 18 10 20 11 21 12
REMARK SMILES IDX 22 13 24 14 27 15 28 16 29 17 30 18 12 19 11 20 10 21 13 22
REMARK SMILES IDX 31 23 25 24 26 25 19 26 2 27 3 28 1 29 8 30 9 31 23 33
REMARK H PARENT 9 32 23 34
REMARK Flexibility Score: inf
ROOT
ATOM      1  C   UNL     1     -33.578  39.128  41.181  1.00  0.00     0.018 C 
ATOM      2  C   UNL     1     -32.058  39.268  41.155  1.00  0.00     0.009 C 
ATOM      3  C   UNL     1     -31.730  39.910  42.494  1.00  0.00     0.010 C 
ATOM      4  C   UNL     1     -32.846  40.942  42.732  1.00  0.00    -0.003 C 
ATOM      5  C   UNL     1     -34.132  40.231  42.154  1.00  0.00     0.008 C 
ATOM      6  C   UNL     1     -35.244  39.732  43.189  1.00  0.00    -0.000 C 
ATOM      7  C   UNL     1     -35.089  38.265  43.628  1.00  0.00     0.005 C 
ATOM      8  C   UNL     1     -36.174  37.801  44.576  1.00  0.00     0.005 C 
ATOM      9  C   UNL     1     -36.318  38.630  45.889  1.00  0.00     0.002 C 
ATOM     10  C   UNL     1     -37.449  37.959  46.833  1.00  0.00    -0.026 C 
ATOM     11  C   UNL     1     -37.395  38.471  48.312  1.00  0.00     0.010 C 
ATOM     12  C   UNL     1     -38.522  37.938  49.216  1.00  0.00     0.033 C 
ATOM     13  C   UNL     1     -39.913  38.238  48.626  1.00  0.00     0.120 C 
ATOM     14  C   UNL     1     -40.100  37.724  47.160  1.00  0.00    -0.006 C 
ATOM     15  C   UNL     1     -38.894  38.223  46.234  1.00  0.00     0.003 C 
ATOM     16  C   UNL     1     -39.065  39.720  45.836  1.00  0.00     0.005 C 
ATOM     17  C   UNL     1     -37.956  40.312  44.951  1.00  0.00     0.008 C 
ATOM     18  C   UNL     1     -36.511  40.164  45.516  1.00  0.00    -0.024 C 
ATOM     19  C   UNL     1     -35.403  40.679  44.432  1.00  0.00    -0.024 C 
ATOM     20  C   UNL     1     -33.985  40.746  45.098  1.00  0.00     0.008 C 
ATOM     21  C   UNL     1     -32.902  41.380  44.230  1.00  0.00     0.010 C 
ATOM     22  C   UNL     1     -35.828  42.089  43.883  1.00  0.00     0.012 C 
ATOM     23  C   UNL     1     -36.385  41.067  46.796  1.00  0.00     0.012 C 
ATOM     24  C   UNL     1     -40.240  36.173  47.117  1.00  0.00     0.014 C 
ATOM     25  C   UNL     1     -41.462  38.269  46.637  1.00  0.00     0.014 C 
ATOM     26  C   UNL     1     -37.126  36.426  46.907  1.00  0.00     0.012 C 
ENDROOT
BRANCH   1  27
ATOM     27  C   UNL     1     -34.234  39.117  39.804  1.00  0.00    -0.077 C 
ATOM     28  C   UNL     1     -35.512  38.347  39.586  1.00  0.00     0.039 C 
ATOM     29  C   UNL     1     -33.716  39.791  38.765  1.00  0.00     0.008 C 
ENDBRANCH   1  27
BRANCH   4  30
ATOM     30  C   UNL     1     -32.502  42.221  41.891  1.00  0.00     0.163 C 
BRANCH  30  31
ATOM     31  O   UNL     1     -33.551  42.540  41.014  1.00  0.00    -0.396 OA
ATOM     32  H   UNL     1     -34.161  43.142  41.515  1.00  0.00     0.210 HD
ENDBRANCH  30  31
ENDBRANCH   4  30
BRANCH  13  33
ATOM     33  O   UNL     1     -40.930  37.763  49.479  1.00  0.00    -0.393 OA
ATOM     34  H   UNL     1     -40.955  36.774  49.413  1.00  0.00     0.210 HD
ENDBRANCH  13  33
TORSDOF 4
ENDMDL
MODEL 6
REMARK VINA RESULT:    -6.961      2.713      5.089
REMARK INTER + INTRA:          -8.619
REMARK INTER:                  -8.021
REMARK INTRA:                  -0.599
REMARK UNBOUND:                -0.437
REMARK SMILES C=C(C)[C@H]1CC[C@]2(CO)CC[C@@]3(C)[C@H](CC[C@@H]4[C@@]5(C)CC[C@H](O)C(C)(C)[C@H]5CC[C@@]43C)[C@H]12
REMARK SMILES IDX 4 1 5 2 6 3 7 4 32 5 14 6 15 7 16 8 17 9 18 10 20 11 21 12
REMARK SMILES IDX 22 13 24 14 27 15 28 16 29 17 30 18 12 19 11 20 10 21 13 22
REMARK SMILES IDX 31 23 25 24 26 25 19 26 2 27 3 28 1 29 8 30 9 31 23 33
REMARK H PARENT 9 32 23 34
REMARK Flexibility Score: inf
ROOT
ATOM      1  C   UNL     1     -37.216  40.311  44.426  1.00  0.00     0.018 C 
ATOM      2  C   UNL     1     -36.892  40.145  45.909  1.00  0.00     0.009 C 
ATOM      3  C   UNL     1     -35.388  40.354  45.978  1.00  0.00     0.010 C 
ATOM      4  C   UNL     1     -34.825  39.658  44.726  1.00  0.00    -0.003 C 
ATOM      5  C   UNL     1     -35.914  39.954  43.621  1.00  0.00     0.008 C 
ATOM      6  C   UNL     1     -35.535  40.971  42.447  1.00  0.00    -0.000 C 
ATOM      7  C   UNL     1     -35.951  42.430  42.713  1.00  0.00     0.005 C 
ATOM      8  C   UNL     1     -35.621  43.369  41.574  1.00  0.00     0.005 C 
ATOM      9  C   UNL     1     -34.118  43.418  41.160  1.00  0.00     0.002 C 
ATOM     10  C   UNL     1     -33.912  44.528  39.999  1.00  0.00    -0.026 C 
ATOM     11  C   UNL     1     -32.412  44.929  39.795  1.00  0.00     0.010 C 
ATOM     12  C   UNL     1     -32.162  45.902  38.628  1.00  0.00     0.033 C 
ATOM     13  C   UNL     1     -32.726  45.356  37.302  1.00  0.00     0.120 C 
ATOM     14  C   UNL     1     -34.239  44.967  37.374  1.00  0.00    -0.006 C 
ATOM     15  C   UNL     1     -34.512  44.009  38.627  1.00  0.00     0.003 C 
ATOM     16  C   UNL     1     -34.049  42.549  38.335  1.00  0.00     0.005 C 
ATOM     17  C   UNL     1     -34.254  41.538  39.475  1.00  0.00     0.008 C 
ATOM     18  C   UNL     1     -33.618  41.943  40.840  1.00  0.00    -0.024 C 
ATOM     19  C   UNL     1     -34.028  40.885  42.014  1.00  0.00    -0.024 C 
ATOM     20  C   UNL     1     -33.197  41.169  43.313  1.00  0.00     0.008 C 
ATOM     21  C   UNL     1     -33.369  40.133  44.420  1.00  0.00     0.010 C 
ATOM     22  C   UNL     1     -33.781  39.419  41.504  1.00  0.00     0.012 C 
ATOM     23  C   UNL     1     -32.055  41.907  40.687  1.00  0.00     0.012 C 
ATOM     24  C   UNL     1     -35.148  46.232  37.425  1.00  0.00     0.014 C 
ATOM     25  C   UNL     1     -34.610  44.255  36.040  1.00  0.00     0.014 C 
ATOM     26  C   UNL     1     -34.633  45.833  40.487  1.00  0.00     0.012 C 
ENDROOT
BRANCH   1  27
ATOM     27  C   UNL     1     -38.465  39.566  43.966  1.00  0.00    -0.077 C 
ATOM     28  C   UNL     1     -38.471  38.863  42.632  1.00  0.00     0.039 C 
ATOM     29  C   UNL     1     -39.571  39.497  44.722  1.00  0.00     0.008 C 
ENDBRANCH   1  27
BRANCH   4  30
ATOM     30  C   UNL     1     -34.753  38.120  45.027  1.00  0.00     0.163 C 
BRANCH  30  31
ATOM     31  O   UNL     1     -35.295  37.376  43.966  1.00  0.00    -0.396 OA
ATOM     32  H   UNL     1     -36.028  37.926  43.585  1.00  0.00     0.210 HD
ENDBRANCH  30  31
ENDBRANCH   4  30
BRANCH  13  33
ATOM     33  O   UNL     1     -32.467  46.250  36.244  1.00  0.00    -0.393 OA
ATOM     34  H   UNL     1     -32.426  45.731  35.400  1.00  0.00     0.210 HD
ENDBRANCH  13  33
TORSDOF 4
ENDMDL
MODEL 7
REMARK VINA RESULT:    -6.666      1.923      8.409
REMARK INTER + INTRA:          -8.272
REMARK INTER:                  -7.684
REMARK INTRA:                  -0.588
REMARK UNBOUND:                -0.437
REMARK SMILES C=C(C)[C@H]1CC[C@]2(CO)CC[C@@]3(C)[C@H](CC[C@@H]4[C@@]5(C)CC[C@H](O)C(C)(C)[C@H]5CC[C@@]43C)[C@H]12
REMARK SMILES IDX 4 1 5 2 6 3 7 4 32 5 14 6 15 7 16 8 17 9 18 10 20 11 21 12
REMARK SMILES IDX 22 13 24 14 27 15 28 16 29 17 30 18 12 19 11 20 10 21 13 22
REMARK SMILES IDX 31 23 25 24 26 25 19 26 2 27 3 28 1 29 8 30 9 31 23 33
REMARK H PARENT 9 32 23 34
REMARK Flexibility Score: inf
ROOT
ATOM      1  C   UNL     1     -36.148  41.508  42.479  1.00  0.00     0.018 C 
ATOM      2  C   UNL     1     -36.012  41.252  40.981  1.00  0.00     0.009 C 
ATOM      3  C   UNL     1     -36.073  39.737  40.864  1.00  0.00     0.010 C 
ATOM      4  C   UNL     1     -35.273  39.206  42.066  1.00  0.00    -0.003 C 
ATOM      5  C   UNL     1     -35.629  40.222  43.221  1.00  0.00     0.008 C 
ATOM      6  C   UNL     1     -36.555  39.704  44.418  1.00  0.00    -0.000 C 
ATOM      7  C   UNL     1     -38.057  39.979  44.223  1.00  0.00     0.005 C 
ATOM      8  C   UNL     1     -38.910  39.518  45.384  1.00  0.00     0.005 C 
ATOM      9  C   UNL     1     -38.793  38.005  45.744  1.00  0.00     0.002 C 
ATOM     10  C   UNL     1     -39.828  37.649  46.937  1.00  0.00    -0.026 C 
ATOM     11  C   UNL     1     -40.068  36.110  47.100  1.00  0.00     0.010 C 
ATOM     12  C   UNL     1     -40.963  35.725  48.293  1.00  0.00     0.033 C 
ATOM     13  C   UNL     1     -40.421  36.297  49.617  1.00  0.00     0.120 C 
ATOM     14  C   UNL     1     -40.187  37.843  49.587  1.00  0.00    -0.006 C 
ATOM     15  C   UNL     1     -39.314  38.253  48.310  1.00  0.00     0.003 C 
ATOM     16  C   UNL     1     -37.804  37.930  48.529  1.00  0.00     0.005 C 
ATOM     17  C   UNL     1     -36.867  38.274  47.359  1.00  0.00     0.008 C 
ATOM     18  C   UNL     1     -37.263  37.646  45.988  1.00  0.00    -0.024 C 
ATOM     19  C   UNL     1     -36.301  38.200  44.791  1.00  0.00    -0.024 C 
ATOM     20  C   UNL     1     -36.554  37.387  43.474  1.00  0.00     0.008 C 
ATOM     21  C   UNL     1     -35.587  37.701  42.335  1.00  0.00     0.010 C 
ATOM     22  C   UNL     1     -34.798  38.085  45.235  1.00  0.00     0.012 C 
ATOM     23  C   UNL     1     -37.065  36.090  46.082  1.00  0.00     0.012 C 
ATOM     24  C   UNL     1     -41.538  38.621  49.618  1.00  0.00     0.014 C 
ATOM     25  C   UNL     1     -39.461  38.239  50.906  1.00  0.00     0.014 C 
ATOM     26  C   UNL     1     -41.217  38.251  46.526  1.00  0.00     0.012 C 
ENDROOT
BRANCH   1  27
ATOM     27  C   UNL     1     -35.512  42.809  42.958  1.00  0.00    -0.077 C 
ATOM     28  C   UNL     1     -34.838  42.865  44.305  1.00  0.00     0.039 C 
ATOM     29  C   UNL     1     -35.515  43.920  42.205  1.00  0.00     0.008 C 
ENDBRANCH   1  27
BRANCH   4  30
ATOM     30  C   UNL     1     -33.749  39.300  41.704  1.00  0.00     0.163 C 
BRANCH  30  31
ATOM     31  O   UNL     1     -33.031  39.943  42.726  1.00  0.00    -0.396 OA
ATOM     32  H   UNL     1     -33.586  39.870  43.546  1.00  0.00     0.210 HD
ENDBRANCH  30  31
ENDBRANCH   4  30
BRANCH  13  33
ATOM     33  O   UNL     1     -41.240  35.914  50.698  1.00  0.00    -0.393 OA
ATOM     34  H   UNL     1     -40.992  34.992  50.966  1.00  0.00     0.210 HD
ENDBRANCH  13  33
TORSDOF 4
ENDMDL
MODEL 8
REMARK VINA RESULT:    -6.571      1.935      4.001
REMARK INTER + INTRA:          -8.161
REMARK INTER:                  -7.559
REMARK INTRA:                  -0.603
REMARK UNBOUND:                -0.437
REMARK SMILES C=C(C)[C@H]1CC[C@]2(CO)CC[C@@]3(C)[C@H](CC[C@@H]4[C@@]5(C)CC[C@H](O)C(C)(C)[C@H]5CC[C@@]43C)[C@H]12
REMARK SMILES IDX 4 1 5 2 6 3 7 4 32 5 14 6 15 7 16 8 17 9 18 10 20 11 21 12
REMARK SMILES IDX 22 13 24 14 27 15 28 16 29 17 30 18 12 19 11 20 10 21 13 22
REMARK SMILES IDX 31 23 25 24 26 25 19 26 2 27 3 28 1 29 8 30 9 31 23 33
REMARK H PARENT 9 32 23 34
REMARK Flexibility Score: inf
ROOT
ATOM      1  C   UNL     1     -34.731  37.973  45.908  1.00  0.00     0.018 C 
ATOM      2  C   UNL     1     -34.686  36.447  45.936  1.00  0.00     0.009 C 
ATOM      3  C   UNL     1     -35.286  36.042  44.599  1.00  0.00     0.010 C 
ATOM      4  C   UNL     1     -36.447  37.023  44.363  1.00  0.00    -0.003 C 
ATOM      5  C   UNL     1     -35.896  38.387  44.937  1.00  0.00     0.008 C 
ATOM      6  C   UNL     1     -35.540  39.550  43.900  1.00  0.00    -0.000 C 
ATOM      7  C   UNL     1     -34.065  39.575  43.457  1.00  0.00     0.005 C 
ATOM      8  C   UNL     1     -33.740  40.707  42.508  1.00  0.00     0.005 C 
ATOM      9  C   UNL     1     -34.584  40.747  41.196  1.00  0.00     0.002 C 
ATOM     10  C   UNL     1     -34.058  41.951  40.250  1.00  0.00    -0.026 C 
ATOM     11  C   UNL     1     -34.563  41.832  38.773  1.00  0.00     0.010 C 
ATOM     12  C   UNL     1     -34.174  43.015  37.866  1.00  0.00     0.033 C 
ATOM     13  C   UNL     1     -34.639  44.360  38.455  1.00  0.00     0.120 C 
ATOM     14  C   UNL     1     -34.149  44.610  39.919  1.00  0.00    -0.006 C 
ATOM     15  C   UNL     1     -34.494  43.353  40.848  1.00  0.00     0.003 C 
ATOM     16  C   UNL     1     -36.001  43.341  41.249  1.00  0.00     0.005 C 
ATOM     17  C   UNL     1     -36.450  42.170  42.138  1.00  0.00     0.008 C 
ATOM     18  C   UNL     1     -36.129  40.752  41.574  1.00  0.00    -0.024 C 
ATOM     19  C   UNL     1     -36.502  39.591  42.660  1.00  0.00    -0.024 C 
ATOM     20  C   UNL     1     -36.397  38.175  41.995  1.00  0.00     0.008 C 
ATOM     21  C   UNL     1     -36.893  37.024  42.866  1.00  0.00     0.010 C 
ATOM     22  C   UNL     1     -37.952  39.842  43.212  1.00  0.00     0.012 C 
ATOM     23  C   UNL     1     -37.013  40.516  40.296  1.00  0.00     0.012 C 
ATOM     24  C   UNL     1     -32.626  44.938  39.958  1.00  0.00     0.014 C 
ATOM     25  C   UNL     1     -34.854  45.896  40.443  1.00  0.00     0.014 C 
ATOM     26  C   UNL     1     -32.497  41.817  40.172  1.00  0.00     0.012 C 
ENDROOT
BRANCH   1  27
ATOM     27  C   UNL     1     -34.797  38.627  47.285  1.00  0.00    -0.077 C 
ATOM     28  C   UNL     1     -34.547  40.107  47.426  1.00  0.00     0.039 C 
ATOM     29  C   UNL     1     -35.090  37.926  48.392  1.00  0.00     0.008 C 
ENDBRANCH   1  27
BRANCH   4  30
ATOM     30  C   UNL     1     -37.672  36.527  45.208  1.00  0.00     0.163 C 
BRANCH  30  31
ATOM     31  O   UNL     1     -38.095  37.520  46.106  1.00  0.00    -0.396 OA
ATOM     32  H   UNL     1     -37.445  37.513  46.856  1.00  0.00     0.210 HD
ENDBRANCH  30  31
ENDBRANCH   4  30
BRANCH  13  33
ATOM     33  O   UNL     1     -34.294  45.426  37.600  1.00  0.00    -0.393 OA
ATOM     34  H   UNL     1     -34.660  45.234  36.699  1.00  0.00     0.210 HD
ENDBRANCH  13  33
TORSDOF 4
ENDMDL
