MODEL 1
REMARK VINA RESULT:     5.095      0.000      0.000
REMARK INTER + INTRA:           8.337
REMARK INTER:                   5.989
REMARK INTRA:                   2.348
REMARK UNBOUND:                 2.348
REMARK SMILES C=C(C)[C@H]1CC[C@@]2(CO)CC[C@]3(C)[C@@H](CC[C@H]4[C@]5(C)CC[C@H](O)C(C)(C)[C@@H]5CC[C@]43C)[C@H]12
REMARK SMILES IDX 4 1 5 2 6 3 7 4 32 5 14 6 15 7 16 8 17 9 18 10 20 11 21 12
REMARK SMILES IDX 22 13 24 14 27 15 28 16 29 17 30 18 12 19 11 20 10 21 13 22
REMARK SMILES IDX 31 23 25 24 26 25 19 26 2 27 3 28 1 29 8 30 9 31 23 33
REMARK H PARENT 9 32 23 34
REMARK Flexibility Score: inf
ROOT
ATOM      1  C   UNL     1     -19.522  12.301 -30.241  1.00  0.00     0.018 C 
ATOM      2  C   UNL     1     -20.565  13.448 -30.207  1.00  0.00     0.009 C 
ATOM      3  C   UNL     1     -19.775  14.760 -30.313  1.00  0.00     0.010 C 
ATOM      4  C   UNL     1     -18.437  14.351 -30.942  1.00  0.00    -0.003 C 
ATOM      5  C   UNL     1     -18.155  13.027 -30.227  1.00  0.00     0.008 C 
ATOM      6  C   UNL     1     -16.866  12.322 -30.776  1.00  0.00    -0.000 C 
ATOM      7  C   UNL     1     -16.577  11.019 -30.044  1.00  0.00     0.005 C 
ATOM      8  C   UNL     1     -16.198  11.229 -28.575  1.00  0.00     0.005 C 
ATOM      9  C   UNL     1     -15.488  12.586 -28.189  1.00  0.00     0.002 C 
ATOM     10  C   UNL     1     -14.726  12.437 -26.772  1.00  0.00    -0.026 C 
ATOM     11  C   UNL     1     -14.523  13.830 -26.049  1.00  0.00     0.010 C 
ATOM     12  C   UNL     1     -13.104  14.281 -25.600  1.00  0.00     0.033 C 
ATOM     13  C   UNL     1     -11.977  13.233 -25.410  1.00  0.00     0.120 C 
ATOM     14  C   UNL     1     -12.390  11.750 -25.688  1.00  0.00    -0.006 C 
ATOM     15  C   UNL     1     -13.367  11.640 -26.935  1.00  0.00     0.003 C 
ATOM     16  C   UNL     1     -12.606  11.952 -28.265  1.00  0.00     0.005 C 
ATOM     17  C   UNL     1     -13.456  12.109 -29.535  1.00  0.00     0.008 C 
ATOM     18  C   UNL     1     -14.646  13.119 -29.412  1.00  0.00    -0.024 C 
ATOM     19  C   UNL     1     -15.555  13.241 -30.794  1.00  0.00    -0.024 C 
ATOM     20  C   UNL     1     -15.959  14.737 -31.201  1.00  0.00     0.008 C 
ATOM     21  C   UNL     1     -17.266  15.290 -30.604  1.00  0.00     0.010 C 
ATOM     22  C   UNL     1     -14.707  12.762 -32.019  1.00  0.00     0.012 C 
ATOM     23  C   UNL     1     -14.013  14.503 -29.104  1.00  0.00     0.012 C 
ATOM     24  C   UNL     1     -13.026  11.176 -24.390  1.00  0.00     0.014 C 
ATOM     25  C   UNL     1     -11.119  10.875 -25.924  1.00  0.00     0.014 C 
ATOM     26  C   UNL     1     -15.711  11.638 -25.834  1.00  0.00     0.012 C 
ENDROOT
BRANCH   1  27
ATOM     27  C   UNL     1     -19.744  11.320 -29.089  1.00  0.00    -0.077 C 
ATOM     28  C   UNL     1     -21.140  10.877 -28.732  1.00  0.00     0.039 C 
ATOM     29  C   UNL     1     -18.722  10.877 -28.335  1.00  0.00     0.008 C 
ENDBRANCH   1  27
BRANCH   4  30
ATOM     30  C   UNL     1     -18.652  14.215 -32.496  1.00  0.00     0.163 C 
BRANCH  30  31
ATOM     31  O   UNL     1     -17.683  14.946 -33.202  1.00  0.00    -0.396 OA
ATOM     32  H   UNL     1     -17.611  14.541 -34.105  1.00  0.00     0.210 HD
ENDBRANCH  30  31
ENDBRANCH   4  30
BRANCH  13  33
ATOM     33  O   UNL     1     -10.876  13.623 -26.200  1.00  0.00    -0.393 OA
ATOM     34  H   UNL     1     -10.282  14.188 -25.638  1.00  0.00     0.210 HD
ENDBRANCH  13  33
TORSDOF 4
ENDMDL
