MODEL 1
REMARK VINA RESULT:    -5.556      0.000      0.000
REMARK INTER + INTRA:          -5.556
REMARK INTER:                  -5.556
REMARK INTRA:                   0.000
REMARK UNBOUND:                 0.000
REMARK SMILES O=c1ccc2ccc3occc3c2o1
REMARK SMILES IDX 6 1 7 2 8 3 12 4 11 5 10 6 9 7 13 8 5 9 4 10 3 11 2 12 1 13
REMARK SMILES IDX 14 14
REMARK H PARENT
REMARK Flexibility Score: inf
ROOT
ATOM      1  C   UNL     1       8.725  -2.951  18.608  1.00  0.00     0.016 A 
ATOM      2  C   UNL     1       9.527  -2.401  19.626  1.00  0.00     0.048 A 
ATOM      3  C   UNL     1      10.604  -1.598  19.252  1.00  0.00     0.137 A 
ATOM      4  C   UNL     1      10.891  -1.339  17.938  1.00  0.00     0.064 A 
ATOM      5  C   UNL     1      12.001  -0.526  17.924  1.00  0.00     0.054 A 
ATOM      6  C   UNL     1      12.318  -0.343  19.266  1.00  0.00     0.196 A 
ATOM      7  O   UNL     1      11.465  -0.996  20.035  1.00  0.00    -0.464 OA
ATOM      8  C   UNL     1      10.122  -1.865  16.903  1.00  0.00     0.149 A 
ATOM      9  C   UNL     1       9.019  -2.686  17.248  1.00  0.00     0.018 A 
ATOM     10  C   UNL     1       8.243  -3.216  16.213  1.00  0.00     0.019 A 
ATOM     11  C   UNL     1       8.576  -2.925  14.889  1.00  0.00     0.094 A 
ATOM     12  C   UNL     1       9.682  -2.106  14.628  1.00  0.00     0.336 A 
ATOM     13  O   UNL     1       9.994  -1.833  13.440  1.00  0.00    -0.246 OA
ATOM     14  O   UNL     1      10.406  -1.610  15.628  1.00  0.00    -0.422 OA
ENDROOT
TORSDOF 0
ENDMDL
MODEL 2
REMARK VINA RESULT:    -5.398     10.892     11.886
REMARK INTER + INTRA:          -5.398
REMARK INTER:                  -5.398
REMARK INTRA:                   0.000
REMARK UNBOUND:                 0.000
REMARK SMILES O=c1ccc2ccc3occc3c2o1
REMARK SMILES IDX 6 1 7 2 8 3 12 4 11 5 10 6 9 7 13 8 5 9 4 10 3 11 2 12 1 13
REMARK SMILES IDX 14 14
REMARK H PARENT
REMARK Flexibility Score: inf
ROOT
ATOM      1  C   UNL     1      18.456  -8.747  20.125  1.00  0.00     0.016 A 
ATOM      2  C   UNL     1      18.845  -9.971  19.548  1.00  0.00     0.048 A 
ATOM      3  C   UNL     1      19.667  -9.934  18.422  1.00  0.00     0.137 A 
ATOM      4  C   UNL     1      20.095  -8.753  17.877  1.00  0.00     0.064 A 
ATOM      5  C   UNL     1      20.878  -9.074  16.792  1.00  0.00     0.054 A 
ATOM      6  C   UNL     1      20.870 -10.465  16.754  1.00  0.00     0.196 A 
ATOM      7  O   UNL     1      20.138 -10.949  17.741  1.00  0.00    -0.464 OA
ATOM      8  C   UNL     1      19.732  -7.522  18.418  1.00  0.00     0.149 A 
ATOM      9  C   UNL     1      18.896  -7.522  19.564  1.00  0.00     0.018 A 
ATOM     10  C   UNL     1      18.528  -6.291  20.112  1.00  0.00     0.019 A 
ATOM     11  C   UNL     1      18.989  -5.113  19.520  1.00  0.00     0.094 A 
ATOM     12  C   UNL     1      19.811  -5.194  18.388  1.00  0.00     0.336 A 
ATOM     13  O   UNL     1      20.235  -4.142  17.844  1.00  0.00    -0.246 OA
ATOM     14  O   UNL     1      20.150  -6.378  17.884  1.00  0.00    -0.422 OA
ENDROOT
TORSDOF 0
ENDMDL
MODEL 3
REMARK VINA RESULT:    -5.127     10.756     11.424
REMARK INTER + INTRA:          -5.127
REMARK INTER:                  -5.127
REMARK INTRA:                   0.000
REMARK UNBOUND:                 0.000
REMARK SMILES O=c1ccc2ccc3occc3c2o1
REMARK SMILES IDX 6 1 7 2 8 3 12 4 11 5 10 6 9 7 13 8 5 9 4 10 3 11 2 12 1 13
REMARK SMILES IDX 14 14
REMARK H PARENT
REMARK Flexibility Score: inf
ROOT
ATOM      1  C   UNL     1      17.966  -8.307  19.967  1.00  0.00     0.016 A 
ATOM      2  C   UNL     1      17.875  -6.911  20.125  1.00  0.00     0.048 A 
ATOM      3  C   UNL     1      18.707  -6.106  19.347  1.00  0.00     0.137 A 
ATOM      4  C   UNL     1      19.595  -6.638  18.450  1.00  0.00     0.064 A 
ATOM      5  C   UNL     1      20.249  -5.580  17.861  1.00  0.00     0.054 A 
ATOM      6  C   UNL     1      19.697  -4.451  18.457  1.00  0.00     0.196 A 
ATOM      7  O   UNL     1      18.779  -4.798  19.341  1.00  0.00    -0.464 OA
ATOM      8  C   UNL     1      19.715  -8.013  18.266  1.00  0.00     0.149 A 
ATOM      9  C   UNL     1      18.884  -8.861  19.040  1.00  0.00     0.018 A 
ATOM     10  C   UNL     1      18.999 -10.242  18.860  1.00  0.00     0.019 A 
ATOM     11  C   UNL     1      19.920 -10.736  17.934  1.00  0.00     0.094 A 
ATOM     12  C   UNL     1      20.707  -9.835  17.205  1.00  0.00     0.336 A 
ATOM     13  O   UNL     1      21.540 -10.265  16.367  1.00  0.00    -0.246 OA
ATOM     14  O   UNL     1      20.580  -8.524  17.393  1.00  0.00    -0.422 OA
ENDROOT
TORSDOF 0
ENDMDL
MODEL 4
REMARK VINA RESULT:    -5.065      1.546      4.219
REMARK INTER + INTRA:          -5.065
REMARK INTER:                  -5.065
REMARK INTRA:                   0.000
REMARK UNBOUND:                 0.000
REMARK SMILES O=c1ccc2ccc3occc3c2o1
REMARK SMILES IDX 6 1 7 2 8 3 12 4 11 5 10 6 9 7 13 8 5 9 4 10 3 11 2 12 1 13
REMARK SMILES IDX 14 14
REMARK H PARENT
REMARK Flexibility Score: inf
ROOT
ATOM      1  C   UNL     1       8.535  -2.601  18.895  1.00  0.00     0.016 A 
ATOM      2  C   UNL     1       8.112  -3.283  17.738  1.00  0.00     0.048 A 
ATOM      3  C   UNL     1       8.651  -2.894  16.512  1.00  0.00     0.137 A 
ATOM      4  C   UNL     1       9.566  -1.879  16.414  1.00  0.00     0.064 A 
ATOM      5  C   UNL     1       9.885  -1.756  15.081  1.00  0.00     0.054 A 
ATOM      6  C   UNL     1       9.121  -2.730  14.447  1.00  0.00     0.196 A 
ATOM      7  O   UNL     1       8.395  -3.393  15.329  1.00  0.00    -0.464 OA
ATOM      8  C   UNL     1      10.008  -1.180  17.535  1.00  0.00     0.149 A 
ATOM      9  C   UNL     1       9.481  -1.551  18.798  1.00  0.00     0.018 A 
ATOM     10  C   UNL     1       9.920  -0.854  19.926  1.00  0.00     0.019 A 
ATOM     11  C   UNL     1      10.853   0.174  19.776  1.00  0.00     0.094 A 
ATOM     12  C   UNL     1      11.328   0.483  18.494  1.00  0.00     0.336 A 
ATOM     13  O   UNL     1      12.170   1.405  18.343  1.00  0.00    -0.246 OA
ATOM     14  O   UNL     1      10.897  -0.195  17.434  1.00  0.00    -0.422 OA
ENDROOT
TORSDOF 0
ENDMDL
MODEL 5
REMARK VINA RESULT:    -4.962      2.613      4.201
REMARK INTER + INTRA:          -4.962
REMARK INTER:                  -4.962
REMARK INTRA:                   0.000
REMARK UNBOUND:                 0.000
REMARK SMILES O=c1ccc2ccc3occc3c2o1
REMARK SMILES IDX 6 1 7 2 8 3 12 4 11 5 10 6 9 7 13 8 5 9 4 10 3 11 2 12 1 13
REMARK SMILES IDX 14 14
REMARK H PARENT
REMARK Flexibility Score: inf
ROOT
ATOM      1  C   UNL     1       9.769  -2.009  17.812  1.00  0.00     0.016 A 
ATOM      2  C   UNL     1       8.838  -0.955  17.746  1.00  0.00     0.048 A 
ATOM      3  C   UNL     1       9.271   0.326  18.091  1.00  0.00     0.137 A 
ATOM      4  C   UNL     1      10.559   0.572  18.485  1.00  0.00     0.064 A 
ATOM      5  C   UNL     1      10.646   1.920  18.748  1.00  0.00     0.054 A 
ATOM      6  C   UNL     1       9.370   2.409  18.489  1.00  0.00     0.196 A 
ATOM      7  O   UNL     1       8.571   1.433  18.098  1.00  0.00    -0.464 OA
ATOM      8  C   UNL     1      11.509  -0.444  18.562  1.00  0.00     0.149 A 
ATOM      9  C   UNL     1      11.103  -1.758  18.218  1.00  0.00     0.018 A 
ATOM     10  C   UNL     1      12.052  -2.782  18.294  1.00  0.00     0.019 A 
ATOM     11  C   UNL     1      13.352  -2.481  18.701  1.00  0.00     0.094 A 
ATOM     12  C   UNL     1      13.678  -1.157  19.025  1.00  0.00     0.336 A 
ATOM     13  O   UNL     1      14.846  -0.870  19.393  1.00  0.00    -0.246 OA
ATOM     14  O   UNL     1      12.759  -0.198  18.945  1.00  0.00    -0.422 OA
ENDROOT
TORSDOF 0
ENDMDL
MODEL 6
REMARK VINA RESULT:    -4.845      2.999      3.882
REMARK INTER + INTRA:          -4.845
REMARK INTER:                  -4.845
REMARK INTRA:                   0.000
REMARK UNBOUND:                 0.000
REMARK SMILES O=c1ccc2ccc3occc3c2o1
REMARK SMILES IDX 6 1 7 2 8 3 12 4 11 5 10 6 9 7 13 8 5 9 4 10 3 11 2 12 1 13
REMARK SMILES IDX 14 14
REMARK H PARENT
REMARK Flexibility Score: inf
ROOT
ATOM      1  C   UNL     1      11.576   0.841  18.255  1.00  0.00     0.016 A 
ATOM      2  C   UNL     1      11.037   1.999  18.847  1.00  0.00     0.048 A 
ATOM      3  C   UNL     1       9.650   2.104  18.940  1.00  0.00     0.137 A 
ATOM      4  C   UNL     1       8.818   1.121  18.475  1.00  0.00     0.064 A 
ATOM      5  C   UNL     1       7.529   1.538  18.721  1.00  0.00     0.054 A 
ATOM      6  C   UNL     1       7.675   2.778  19.334  1.00  0.00     0.196 A 
ATOM      7  O   UNL     1       8.953   3.089  19.451  1.00  0.00    -0.464 OA
ATOM      8  C   UNL     1       9.312  -0.039  17.883  1.00  0.00     0.149 A 
ATOM      9  C   UNL     1      10.719  -0.179  17.772  1.00  0.00     0.018 A 
ATOM     10  C   UNL     1      11.221  -1.340  17.179  1.00  0.00     0.019 A 
ATOM     11  C   UNL     1      10.333  -2.313  16.720  1.00  0.00     0.094 A 
ATOM     12  C   UNL     1       8.955  -2.104  16.864  1.00  0.00     0.336 A 
ATOM     13  O   UNL     1       8.142  -2.972  16.456  1.00  0.00    -0.246 OA
ATOM     14  O   UNL     1       8.499  -0.991  17.433  1.00  0.00    -0.422 OA
ENDROOT
TORSDOF 0
ENDMDL
MODEL 7
REMARK VINA RESULT:    -4.798      2.440      3.173
REMARK INTER + INTRA:          -4.798
REMARK INTER:                  -4.798
REMARK INTRA:                   0.000
REMARK UNBOUND:                 0.000
REMARK SMILES O=c1ccc2ccc3occc3c2o1
REMARK SMILES IDX 6 1 7 2 8 3 12 4 11 5 10 6 9 7 13 8 5 9 4 10 3 11 2 12 1 13
REMARK SMILES IDX 14 14
REMARK H PARENT
REMARK Flexibility Score: inf
ROOT
ATOM      1  C   UNL     1      11.245  -2.285  17.662  1.00  0.00     0.016 A 
ATOM      2  C   UNL     1      12.246  -1.320  17.883  1.00  0.00     0.048 A 
ATOM      3  C   UNL     1      11.851  -0.043  18.282  1.00  0.00     0.137 A 
ATOM      4  C   UNL     1      10.533   0.284  18.459  1.00  0.00     0.064 A 
ATOM      5  C   UNL     1      10.498   1.604  18.847  1.00  0.00     0.054 A 
ATOM      6  C   UNL     1      11.832   1.994  18.880  1.00  0.00     0.196 A 
ATOM      7  O   UNL     1      12.617   0.989  18.538  1.00  0.00    -0.464 OA
ATOM      8  C   UNL     1       9.514  -0.642  18.249  1.00  0.00     0.149 A 
ATOM      9  C   UNL     1       9.880  -1.950  17.843  1.00  0.00     0.018 A 
ATOM     10  C   UNL     1       8.862  -2.884  17.632  1.00  0.00     0.019 A 
ATOM     11  C   UNL     1       7.533  -2.503  17.824  1.00  0.00     0.094 A 
ATOM     12  C   UNL     1       7.250  -1.191  18.226  1.00  0.00     0.336 A 
ATOM     13  O   UNL     1       6.057  -0.833  18.404  1.00  0.00    -0.246 OA
ATOM     14  O   UNL     1       8.235  -0.318  18.422  1.00  0.00    -0.422 OA
ENDROOT
TORSDOF 0
ENDMDL
MODEL 8
REMARK VINA RESULT:    -4.792      2.958      4.317
REMARK INTER + INTRA:          -4.792
REMARK INTER:                  -4.792
REMARK INTRA:                   0.000
REMARK UNBOUND:                 0.000
REMARK SMILES O=c1ccc2ccc3occc3c2o1
REMARK SMILES IDX 6 1 7 2 8 3 12 4 11 5 10 6 9 7 13 8 5 9 4 10 3 11 2 12 1 13
REMARK SMILES IDX 14 14
REMARK H PARENT
REMARK Flexibility Score: inf
ROOT
ATOM      1  C   UNL     1      11.610   1.980  18.942  1.00  0.00     0.016 A 
ATOM      2  C   UNL     1      12.613   1.003  18.797  1.00  0.00     0.048 A 
ATOM      3  C   UNL     1      12.233  -0.273  18.382  1.00  0.00     0.137 A 
ATOM      4  C   UNL     1      10.927  -0.587  18.117  1.00  0.00     0.064 A 
ATOM      5  C   UNL     1      10.903  -1.910  17.736  1.00  0.00     0.054 A 
ATOM      6  C   UNL     1      12.232  -2.315  17.799  1.00  0.00     0.196 A 
ATOM      7  O   UNL     1      13.002  -1.315  18.188  1.00  0.00    -0.464 OA
ATOM      8  C   UNL     1       9.905   0.351  18.248  1.00  0.00     0.149 A 
ATOM      9  C   UNL     1      10.257   1.659  18.669  1.00  0.00     0.018 A 
ATOM     10  C   UNL     1       9.237   2.605  18.802  1.00  0.00     0.019 A 
ATOM     11  C   UNL     1       7.921   2.236  18.521  1.00  0.00     0.094 A 
ATOM     12  C   UNL     1       7.652   0.924  18.110  1.00  0.00     0.336 A 
ATOM     13  O   UNL     1       6.470   0.577  17.853  1.00  0.00    -0.246 OA
ATOM     14  O   UNL     1       8.638   0.040  17.989  1.00  0.00    -0.422 OA
ENDROOT
TORSDOF 0
ENDMDL
MODEL 9
REMARK VINA RESULT:    -4.651      2.710      4.009
REMARK INTER + INTRA:          -4.651
REMARK INTER:                  -4.651
REMARK INTRA:                   0.000
REMARK UNBOUND:                 0.000
REMARK SMILES O=c1ccc2ccc3occc3c2o1
REMARK SMILES IDX 6 1 7 2 8 3 12 4 11 5 10 6 9 7 13 8 5 9 4 10 3 11 2 12 1 13
REMARK SMILES IDX 14 14
REMARK H PARENT
REMARK Flexibility Score: inf
ROOT
ATOM      1  C   UNL     1       9.904  -1.465  17.205  1.00  0.00     0.016 A 
ATOM      2  C   UNL     1      11.194  -2.014  17.336  1.00  0.00     0.048 A 
ATOM      3  C   UNL     1      12.122  -1.331  18.121  1.00  0.00     0.137 A 
ATOM      4  C   UNL     1      11.809  -0.158  18.754  1.00  0.00     0.064 A 
ATOM      5  C   UNL     1      12.937   0.244  19.433  1.00  0.00     0.054 A 
ATOM      6  C   UNL     1      13.880  -0.740  19.156  1.00  0.00     0.196 A 
ATOM      7  O   UNL     1      13.363  -1.667  18.370  1.00  0.00    -0.464 OA
ATOM      8  C   UNL     1      10.544   0.418  18.649  1.00  0.00     0.149 A 
ATOM      9  C   UNL     1       9.576  -0.251  17.858  1.00  0.00     0.018 A 
ATOM     10  C   UNL     1       8.305   0.320  17.749  1.00  0.00     0.019 A 
ATOM     11  C   UNL     1       8.034   1.518  18.412  1.00  0.00     0.094 A 
ATOM     12  C   UNL     1       9.044   2.120  19.175  1.00  0.00     0.336 A 
ATOM     13  O   UNL     1       8.814   3.199  19.780  1.00  0.00    -0.246 OA
ATOM     14  O   UNL     1      10.246   1.557  19.267  1.00  0.00    -0.422 OA
ENDROOT
TORSDOF 0
ENDMDL
