MODEL 1
REMARK VINA RESULT:     2.033      0.000      0.000
REMARK INTER + INTRA:           3.024
REMARK INTER:                   4.648
REMARK INTRA:                  -1.624
REMARK UNBOUND:                -1.624
REMARK SMILES CCCCCCCCCCCCCCCCCCCCCCCC(=O)[O-]
REMARK SMILES IDX 13 1 14 2 15 3 16 4 17 5 18 6 19 7 20 8 21 9 22 10 23 11
REMARK SMILES IDX 24 12 25 13 26 14 12 15 11 16 10 17 9 18 8 19 7 20 6 21 5 22
REMARK SMILES IDX 4 23 3 24 2 25 1 26
REMARK H PARENT
REMARK Flexibility Score: inf
ROOT
ATOM      1  C   UNL     1     103.215 102.260 104.693  1.00  0.00     0.000 C 
ENDROOT
BRANCH   1   2
ATOM      2  C   UNL     1     103.514 101.407 105.939  1.00  0.00     0.000 C 
BRANCH   2   3
ATOM      3  C   UNL     1     103.594 102.249 107.222  1.00  0.00     0.000 C 
BRANCH   3   4
ATOM      4  C   UNL     1     103.321 103.753 106.984  1.00  0.00     0.000 C 
BRANCH   4   5
ATOM      5  C   UNL     1     104.583 104.630 107.108  1.00  0.00     0.000 C 
BRANCH   5   6
ATOM      6  C   UNL     1     104.301 106.143 107.239  1.00  0.00     0.000 C 
BRANCH   6   7
ATOM      7  C   UNL     1     104.737 106.780 108.572  1.00  0.00     0.000 C 
BRANCH   7   8
ATOM      8  C   UNL     1     104.765 105.774 109.736  1.00  0.00     0.000 C 
BRANCH   8   9
ATOM      9  C   UNL     1     104.467 106.436 111.091  1.00  0.00     0.000 C 
BRANCH   9  10
ATOM     10  C   UNL     1     104.125 105.408 112.180  1.00  0.00     0.006 C 
BRANCH  10  11
ATOM     11  C   UNL     1     104.592 104.005 111.776  1.00  0.00     0.053 C 
BRANCH  11  12
ATOM     12  C   UNL     1     103.486 103.014 111.956  1.00  0.00     0.041 C 
ATOM     13  O   UNL     1     103.739 101.780 111.999  1.00  0.00    -0.550 OA
ATOM     14  O   UNL     1     102.177 103.454 112.114  1.00  0.00    -0.550 OA
ENDBRANCH  11  12
ENDBRANCH  10  11
ENDBRANCH   9  10
ENDBRANCH   8   9
ENDBRANCH   7   8
ENDBRANCH   6   7
ENDBRANCH   5   6
ENDBRANCH   4   5
ENDBRANCH   3   4
ENDBRANCH   2   3
ENDBRANCH   1   2
BRANCH   1  15
ATOM     15  C   UNL     1     103.542 101.530 103.380  1.00  0.00     0.000 C 
BRANCH  15  16
ATOM     16  C   UNL     1     103.670 102.491 102.186  1.00  0.00     0.000 C 
BRANCH  16  17
ATOM     17  C   UNL     1     103.395 103.958 102.566  1.00  0.00     0.000 C 
BRANCH  17  18
ATOM     18  C   UNL     1     104.642 104.862 102.628  1.00  0.00    -0.000 C 
BRANCH  18  19
ATOM     19  C   UNL     1     104.360 106.374 102.549  1.00  0.00    -0.000 C 
BRANCH  19  20
ATOM     20  C   UNL     1     104.582 106.977 101.145  1.00  0.00    -0.000 C 
BRANCH  20  21
ATOM     21  C   UNL     1     104.652 105.901 100.047  1.00  0.00    -0.000 C 
BRANCH  21  22
ATOM     22  C   UNL     1     104.743 106.504  98.637  1.00  0.00    -0.000 C 
BRANCH  22  23
ATOM     23  C   UNL     1     104.029 105.641  97.582  1.00  0.00    -0.000 C 
BRANCH  23  24
ATOM     24  C   UNL     1     104.451 104.163  97.634  1.00  0.00    -0.000 C 
BRANCH  24  25
ATOM     25  C   UNL     1     103.261 103.185  97.739  1.00  0.00    -0.003 C 
ATOM     26  C   UNL     1     103.707 101.723  97.754  1.00  0.00     0.004 C 
ENDBRANCH  24  25
ENDBRANCH  23  24
ENDBRANCH  22  23
ENDBRANCH  21  22
ENDBRANCH  20  21
ENDBRANCH  19  20
ENDBRANCH  18  19
ENDBRANCH  17  18
ENDBRANCH  16  17
ENDBRANCH  15  16
ENDBRANCH   1  15
TORSDOF 22
ENDMDL
MODEL 2
REMARK VINA RESULT:     2.095      3.973     10.094
REMARK INTER + INTRA:           3.166
REMARK INTER:                   4.592
REMARK INTRA:                  -1.426
REMARK UNBOUND:                -1.624
REMARK SMILES CCCCCCCCCCCCCCCCCCCCCCCC(=O)[O-]
REMARK SMILES IDX 13 1 14 2 15 3 16 4 17 5 18 6 19 7 20 8 21 9 22 10 23 11
REMARK SMILES IDX 24 12 25 13 26 14 12 15 11 16 10 17 9 18 8 19 7 20 6 21 5 22
REMARK SMILES IDX 4 23 3 24 2 25 1 26
REMARK H PARENT
REMARK Flexibility Score: inf
ROOT
ATOM      1  C   UNL     1     103.260 102.320 104.681  1.00  0.00     0.000 C 
ENDROOT
BRANCH   1   2
ATOM      2  C   UNL     1     103.532 101.602 103.347  1.00  0.00     0.000 C 
BRANCH   2   3
ATOM      3  C   UNL     1     103.524 102.566 102.150  1.00  0.00     0.000 C 
BRANCH   3   4
ATOM      4  C   UNL     1     103.301 104.042 102.555  1.00  0.00     0.000 C 
BRANCH   4   5
ATOM      5  C   UNL     1     104.607 104.859 102.629  1.00  0.00     0.000 C 
BRANCH   5   6
ATOM      6  C   UNL     1     104.429 106.374 102.391  1.00  0.00     0.000 C 
BRANCH   6   7
ATOM      7  C   UNL     1     104.745 106.857 100.962  1.00  0.00     0.000 C 
BRANCH   7   8
ATOM      8  C   UNL     1     104.519 105.769  99.898  1.00  0.00     0.000 C 
BRANCH   8   9
ATOM      9  C   UNL     1     104.616 106.319  98.467  1.00  0.00     0.000 C 
BRANCH   9  10
ATOM     10  C   UNL     1     104.100 105.319  97.421  1.00  0.00     0.006 C 
BRANCH  10  11
ATOM     11  C   UNL     1     104.631 103.909  97.703  1.00  0.00     0.053 C 
BRANCH  11  12
ATOM     12  C   UNL     1     103.505 102.924  97.742  1.00  0.00     0.041 C 
ATOM     13  O   UNL     1     103.743 101.687  97.736  1.00  0.00    -0.550 OA
ATOM     14  O   UNL     1     102.192 103.374  97.822  1.00  0.00    -0.550 OA
ENDBRANCH  11  12
ENDBRANCH  10  11
ENDBRANCH   9  10
ENDBRANCH   8   9
ENDBRANCH   7   8
ENDBRANCH   6   7
ENDBRANCH   5   6
ENDBRANCH   4   5
ENDBRANCH   3   4
ENDBRANCH   2   3
ENDBRANCH   1   2
BRANCH   1  15
ATOM     15  C   UNL     1     103.309 101.369 105.888  1.00  0.00     0.000 C 
BRANCH  15  16
ATOM     16  C   UNL     1     103.611 102.102 107.206  1.00  0.00     0.000 C 
BRANCH  16  17
ATOM     17  C   UNL     1     103.340 103.615 107.125  1.00  0.00     0.000 C 
BRANCH  17  18
ATOM     18  C   UNL     1     104.597 104.506 107.114  1.00  0.00    -0.000 C 
BRANCH  18  19
ATOM     19  C   UNL     1     104.327 106.022 107.094  1.00  0.00    -0.000 C 
BRANCH  19  20
ATOM     20  C   UNL     1     104.680 106.735 108.417  1.00  0.00    -0.000 C 
BRANCH  20  21
ATOM     21  C   UNL     1     104.691 105.774 109.619  1.00  0.00    -0.000 C 
BRANCH  21  22
ATOM     22  C   UNL     1     104.752 106.513 110.964  1.00  0.00    -0.000 C 
BRANCH  22  23
ATOM     23  C   UNL     1     104.192 105.672 112.123  1.00  0.00    -0.000 C 
BRANCH  23  24
ATOM     24  C   UNL     1     104.512 104.174 111.985  1.00  0.00    -0.000 C 
BRANCH  24  25
ATOM     25  C   UNL     1     103.262 103.271 112.012  1.00  0.00    -0.003 C 
ATOM     26  C   UNL     1     103.615 101.783 111.971  1.00  0.00     0.004 C 
ENDBRANCH  24  25
ENDBRANCH  23  24
ENDBRANCH  22  23
ENDBRANCH  21  22
ENDBRANCH  20  21
ENDBRANCH  19  20
ENDBRANCH  18  19
ENDBRANCH  17  18
ENDBRANCH  16  17
ENDBRANCH  15  16
ENDBRANCH   1  15
TORSDOF 22
ENDMDL
MODEL 3
REMARK VINA RESULT:     2.509      4.118     10.811
REMARK INTER + INTRA:           4.112
REMARK INTER:                   5.506
REMARK INTRA:                  -1.394
REMARK UNBOUND:                -1.624
REMARK SMILES CCCCCCCCCCCCCCCCCCCCCCCC(=O)[O-]
REMARK SMILES IDX 13 1 14 2 15 3 16 4 17 5 18 6 19 7 20 8 21 9 22 10 23 11
REMARK SMILES IDX 24 12 25 13 26 14 12 15 11 16 10 17 9 18 8 19 7 20 6 21 5 22
REMARK SMILES IDX 4 23 3 24 2 25 1 26
REMARK H PARENT
REMARK Flexibility Score: inf
ROOT
ATOM      1  C   UNL     1     104.637 106.803 104.040  1.00  0.00     0.000 C 
ENDROOT
BRANCH   1   2
ATOM      2  C   UNL     1     104.373 106.256 102.626  1.00  0.00     0.000 C 
BRANCH   2   3
ATOM      3  C   UNL     1     104.641 104.747 102.520  1.00  0.00     0.000 C 
BRANCH   3   4
ATOM      4  C   UNL     1     103.348 103.895 102.526  1.00  0.00     0.000 C 
BRANCH   4   5
ATOM      5  C   UNL     1     103.615 102.382 102.661  1.00  0.00     0.000 C 
BRANCH   5   6
ATOM      6  C   UNL     1     103.350 101.569 101.375  1.00  0.00     0.000 C 
BRANCH   6   7
ATOM      7  C   UNL     1     103.470 102.362 100.059  1.00  0.00     0.000 C 
BRANCH   7   8
ATOM      8  C   UNL     1     103.309 101.477  98.810  1.00  0.00     0.000 C 
BRANCH   8   9
ATOM      9  C   UNL     1     103.799 102.175  97.531  1.00  0.00     0.000 C 
BRANCH   9  10
ATOM     10  C   UNL     1     103.332 103.635  97.447  1.00  0.00     0.006 C 
BRANCH  10  11
ATOM     11  C   UNL     1     104.506 104.569  97.135  1.00  0.00     0.053 C 
BRANCH  11  12
ATOM     12  C   UNL     1     104.384 105.841  97.914  1.00  0.00     0.041 C 
ATOM     13  O   UNL     1     103.958 106.888  97.358  1.00  0.00    -0.550 OA
ATOM     14  O   UNL     1     104.708 105.861  99.265  1.00  0.00    -0.550 OA
ENDBRANCH  11  12
ENDBRANCH  10  11
ENDBRANCH   9  10
ENDBRANCH   8   9
ENDBRANCH   7   8
ENDBRANCH   6   7
ENDBRANCH   5   6
ENDBRANCH   4   5
ENDBRANCH   3   4
ENDBRANCH   2   3
ENDBRANCH   1   2
BRANCH   1  15
ATOM     15  C   UNL     1     104.882 105.689 105.072  1.00  0.00     0.000 C 
BRANCH  15  16
ATOM     16  C   UNL     1     104.636 106.157 106.516  1.00  0.00     0.000 C 
BRANCH  16  17
ATOM     17  C   UNL     1     104.475 104.988 107.505  1.00  0.00     0.000 C 
BRANCH  17  18
ATOM     18  C   UNL     1     103.296 104.040 107.211  1.00  0.00    -0.000 C 
BRANCH  18  19
ATOM     19  C   UNL     1     103.677 102.560 107.018  1.00  0.00    -0.000 C 
BRANCH  19  20
ATOM     20  C   UNL     1     103.325 101.664 108.225  1.00  0.00    -0.000 C 
BRANCH  20  21
ATOM     21  C   UNL     1     103.310 102.443 109.552  1.00  0.00    -0.000 C 
BRANCH  21  22
ATOM     22  C   UNL     1     103.351 101.518 110.778  1.00  0.00    -0.000 C 
BRANCH  22  23
ATOM     23  C   UNL     1     103.719 102.270 112.069  1.00  0.00    -0.000 C 
BRANCH  23  24
ATOM     24  C   UNL     1     103.414 103.775 111.991  1.00  0.00    -0.000 C 
BRANCH  24  25
ATOM     25  C   UNL     1     104.677 104.658 111.924  1.00  0.00    -0.003 C 
ATOM     26  C   UNL     1     104.348 106.152 111.947  1.00  0.00     0.004 C 
ENDBRANCH  24  25
ENDBRANCH  23  24
ENDBRANCH  22  23
ENDBRANCH  21  22
ENDBRANCH  20  21
ENDBRANCH  19  20
ENDBRANCH  18  19
ENDBRANCH  17  18
ENDBRANCH  16  17
ENDBRANCH  15  16
ENDBRANCH   1  15
TORSDOF 22
ENDMDL
MODEL 4
REMARK VINA RESULT:     2.544      1.547      3.744
REMARK INTER + INTRA:           4.192
REMARK INTER:                   5.867
REMARK INTRA:                  -1.675
REMARK UNBOUND:                -1.624
REMARK SMILES CCCCCCCCCCCCCCCCCCCCCCCC(=O)[O-]
REMARK SMILES IDX 13 1 14 2 15 3 16 4 17 5 18 6 19 7 20 8 21 9 22 10 23 11
REMARK SMILES IDX 24 12 25 13 26 14 12 15 11 16 10 17 9 18 8 19 7 20 6 21 5 22
REMARK SMILES IDX 4 23 3 24 2 25 1 26
REMARK H PARENT
REMARK Flexibility Score: inf
ROOT
ATOM      1  C   UNL     1     104.581 106.982 105.917  1.00  0.00     0.000 C 
ENDROOT
BRANCH   1   2
ATOM      2  C   UNL     1     104.667 106.255 107.271  1.00  0.00     0.000 C 
BRANCH   2   3
ATOM      3  C   UNL     1     104.787 104.731 107.112  1.00  0.00     0.000 C 
BRANCH   3   4
ATOM      4  C   UNL     1     103.436 103.992 107.267  1.00  0.00     0.000 C 
BRANCH   4   5
ATOM      5  C   UNL     1     103.514 102.495 106.904  1.00  0.00     0.000 C 
BRANCH   5   6
ATOM      6  C   UNL     1     103.347 101.536 108.103  1.00  0.00     0.000 C 
BRANCH   6   7
ATOM      7  C   UNL     1     103.285 102.216 109.484  1.00  0.00     0.000 C 
BRANCH   7   8
ATOM      8  C   UNL     1     103.336 101.211 110.649  1.00  0.00     0.000 C 
BRANCH   8   9
ATOM      9  C   UNL     1     103.640 101.889 111.994  1.00  0.00     0.000 C 
BRANCH   9  10
ATOM     10  C   UNL     1     103.256 103.376 111.999  1.00  0.00     0.006 C 
BRANCH  10  11
ATOM     11  C   UNL     1     104.409 104.238 112.525  1.00  0.00     0.053 C 
BRANCH  11  12
ATOM     12  C   UNL     1     104.475 105.534 111.779  1.00  0.00     0.041 C 
ATOM     13  O   UNL     1     104.487 105.542 110.519  1.00  0.00    -0.550 OA
ATOM     14  O   UNL     1     104.489 106.736 112.476  1.00  0.00    -0.550 OA
ENDBRANCH  11  12
ENDBRANCH  10  11
ENDBRANCH   9  10
ENDBRANCH   8   9
ENDBRANCH   7   8
ENDBRANCH   6   7
ENDBRANCH   5   6
ENDBRANCH   4   5
ENDBRANCH   3   4
ENDBRANCH   2   3
ENDBRANCH   1   2
BRANCH   1  15
ATOM     15  C   UNL     1     104.710 106.027 104.720  1.00  0.00     0.000 C 
BRANCH  15  16
ATOM     16  C   UNL     1     104.583 106.751 103.369  1.00  0.00     0.000 C 
BRANCH  16  17
ATOM     17  C   UNL     1     104.579 105.786 102.170  1.00  0.00     0.000 C 
BRANCH  17  18
ATOM     18  C   UNL     1     104.620 104.289 102.534  1.00  0.00    -0.000 C 
BRANCH  18  19
ATOM     19  C   UNL     1     103.291 103.533 102.348  1.00  0.00    -0.000 C 
BRANCH  19  20
ATOM     20  C   UNL     1     103.463 102.007 102.175  1.00  0.00    -0.000 C 
BRANCH  20  21
ATOM     21  C   UNL     1     103.529 101.587 100.697  1.00  0.00    -0.000 C 
BRANCH  21  22
ATOM     22  C   UNL     1     103.121 102.720  99.743  1.00  0.00    -0.000 C 
BRANCH  22  23
ATOM     23  C   UNL     1     103.531 102.438  98.287  1.00  0.00    -0.000 C 
BRANCH  23  24
ATOM     24  C   UNL     1     103.643 103.716  97.440  1.00  0.00    -0.000 C 
BRANCH  24  25
ATOM     25  C   UNL     1     104.714 104.703  97.950  1.00  0.00    -0.003 C 
ATOM     26  C   UNL     1     104.281 106.163  97.804  1.00  0.00     0.004 C 
ENDBRANCH  24  25
ENDBRANCH  23  24
ENDBRANCH  22  23
ENDBRANCH  21  22
ENDBRANCH  20  21
ENDBRANCH  19  20
ENDBRANCH  18  19
ENDBRANCH  17  18
ENDBRANCH  16  17
ENDBRANCH  15  16
ENDBRANCH   1  15
TORSDOF 22
ENDMDL
MODEL 5
REMARK VINA RESULT:     3.013      0.417      1.461
REMARK INTER + INTRA:           5.265
REMARK INTER:                   6.769
REMARK INTRA:                  -1.504
REMARK UNBOUND:                -1.624
REMARK SMILES CCCCCCCCCCCCCCCCCCCCCCCC(=O)[O-]
REMARK SMILES IDX 13 1 14 2 15 3 16 4 17 5 18 6 19 7 20 8 21 9 22 10 23 11
REMARK SMILES IDX 24 12 25 13 26 14 12 15 11 16 10 17 9 18 8 19 7 20 6 21 5 22
REMARK SMILES IDX 4 23 3 24 2 25 1 26
REMARK H PARENT
REMARK Flexibility Score: inf
ROOT
ATOM      1  C   UNL     1     103.542 101.553 103.307  1.00  0.00     0.000 C 
ENDROOT
BRANCH   1   2
ATOM      2  C   UNL     1     103.094 102.253 104.602  1.00  0.00     0.000 C 
BRANCH   2   3
ATOM      3  C   UNL     1     103.488 101.464 105.861  1.00  0.00     0.000 C 
BRANCH   3   4
ATOM      4  C   UNL     1     103.604 102.349 107.125  1.00  0.00     0.000 C 
BRANCH   4   5
ATOM      5  C   UNL     1     103.448 103.856 106.833  1.00  0.00     0.000 C 
BRANCH   5   6
ATOM      6  C   UNL     1     104.698 104.703 107.158  1.00  0.00     0.000 C 
BRANCH   6   7
ATOM      7  C   UNL     1     104.416 106.170 107.537  1.00  0.00     0.000 C 
BRANCH   7   8
ATOM      8  C   UNL     1     104.631 106.455 109.034  1.00  0.00     0.000 C 
BRANCH   8   9
ATOM      9  C   UNL     1     104.497 105.189 109.896  1.00  0.00     0.000 C 
BRANCH   9  10
ATOM     10  C   UNL     1     104.282 105.515 111.381  1.00  0.00     0.006 C 
BRANCH  10  11
ATOM     11  C   UNL     1     104.514 104.276 112.253  1.00  0.00     0.053 C 
BRANCH  11  12
ATOM     12  C   UNL     1     103.466 103.243 111.982  1.00  0.00     0.041 C 
ATOM     13  O   UNL     1     102.277 103.589 111.751  1.00  0.00    -0.550 OA
ATOM     14  O   UNL     1     103.810 101.896 111.950  1.00  0.00    -0.550 OA
ENDBRANCH  11  12
ENDBRANCH  10  11
ENDBRANCH   9  10
ENDBRANCH   8   9
ENDBRANCH   7   8
ENDBRANCH   6   7
ENDBRANCH   5   6
ENDBRANCH   4   5
ENDBRANCH   3   4
ENDBRANCH   2   3
ENDBRANCH   1   2
BRANCH   1  15
ATOM     15  C   UNL     1     103.694 102.528 102.127  1.00  0.00     0.000 C 
BRANCH  15  16
ATOM     16  C   UNL     1     103.463 103.992 102.537  1.00  0.00     0.000 C 
BRANCH  16  17
ATOM     17  C   UNL     1     104.746 104.841 102.475  1.00  0.00     0.000 C 
BRANCH  17  18
ATOM     18  C   UNL     1     104.524 106.365 102.521  1.00  0.00    -0.000 C 
BRANCH  18  19
ATOM     19  C   UNL     1     104.488 107.064 101.150  1.00  0.00    -0.000 C 
BRANCH  19  20
ATOM     20  C   UNL     1     104.417 106.088  99.955  1.00  0.00    -0.000 C 
BRANCH  20  21
ATOM     21  C   UNL     1     104.832 106.751  98.629  1.00  0.00    -0.000 C 
BRANCH  21  22
ATOM     22  C   UNL     1     104.394 105.937  97.402  1.00  0.00    -0.000 C 
BRANCH  22  23
ATOM     23  C   UNL     1     104.427 104.421  97.660  1.00  0.00    -0.000 C 
BRANCH  23  24
ATOM     24  C   UNL     1     103.024 103.794  97.725  1.00  0.00    -0.000 C 
BRANCH  24  25
ATOM     25  C   UNL     1     103.028 102.318  98.176  1.00  0.00    -0.003 C 
ATOM     26  C   UNL     1     104.166 101.517  97.543  1.00  0.00     0.004 C 
ENDBRANCH  24  25
ENDBRANCH  23  24
ENDBRANCH  22  23
ENDBRANCH  21  22
ENDBRANCH  20  21
ENDBRANCH  19  20
ENDBRANCH  18  19
ENDBRANCH  17  18
ENDBRANCH  16  17
ENDBRANCH  15  16
ENDBRANCH   1  15
TORSDOF 22
ENDMDL
MODEL 6
REMARK VINA RESULT:     4.122      4.900     10.103
REMARK INTER + INTRA:           7.800
REMARK INTER:                   9.283
REMARK INTRA:                  -1.484
REMARK UNBOUND:                -1.624
REMARK SMILES CCCCCCCCCCCCCCCCCCCCCCCC(=O)[O-]
REMARK SMILES IDX 13 1 14 2 15 3 16 4 17 5 18 6 19 7 20 8 21 9 22 10 23 11
REMARK SMILES IDX 24 12 25 13 26 14 12 15 11 16 10 17 9 18 8 19 7 20 6 21 5 22
REMARK SMILES IDX 4 23 3 24 2 25 1 26
REMARK H PARENT
REMARK Flexibility Score: inf
ROOT
ATOM      1  C   UNL     1     103.581 101.845 102.418  1.00  0.00     0.000 C 
ENDROOT
BRANCH   1   2
ATOM      2  C   UNL     1     103.381 101.152 101.058  1.00  0.00     0.000 C 
BRANCH   2   3
ATOM      3  C   UNL     1     103.273 102.156  99.899  1.00  0.00     0.000 C 
BRANCH   3   4
ATOM      4  C   UNL     1     103.466 101.506  98.507  1.00  0.00     0.000 C 
BRANCH   4   5
ATOM      5  C   UNL     1     103.712 102.532  97.383  1.00  0.00     0.000 C 
BRANCH   5   6
ATOM      6  C   UNL     1     103.109 103.929  97.648  1.00  0.00     0.000 C 
BRANCH   6   7
ATOM      7  C   UNL     1     104.058 105.115  97.388  1.00  0.00     0.000 C 
BRANCH   7   8
ATOM      8  C   UNL     1     105.386 104.999  98.156  1.00  0.00     0.000 C 
BRANCH   8   9
ATOM      9  C   UNL     1     106.609 105.176  97.243  1.00  0.00     0.000 C 
BRANCH   9  10
ATOM     10  C   UNL     1     107.807 104.332  97.703  1.00  0.00     0.006 C 
BRANCH  10  11
ATOM     11  C   UNL     1     108.909 104.317  96.637  1.00  0.00     0.053 C 
BRANCH  11  12
ATOM     12  C   UNL     1     110.225 103.956  97.250  1.00  0.00     0.041 C 
ATOM     13  O   UNL     1     111.158 104.801  97.296  1.00  0.00    -0.550 OA
ATOM     14  O   UNL     1     110.410 102.694  97.804  1.00  0.00    -0.550 OA
ENDBRANCH  11  12
ENDBRANCH  10  11
ENDBRANCH   9  10
ENDBRANCH   8   9
ENDBRANCH   7   8
ENDBRANCH   6   7
ENDBRANCH   5   6
ENDBRANCH   4   5
ENDBRANCH   3   4
ENDBRANCH   2   3
ENDBRANCH   1   2
BRANCH   1  15
ATOM     15  C   UNL     1     103.328 103.360 102.356  1.00  0.00     0.000 C 
BRANCH  15  16
ATOM     16  C   UNL     1     104.630 104.175 102.295  1.00  0.00     0.000 C 
BRANCH  16  17
ATOM     17  C   UNL     1     104.399 105.645 101.900  1.00  0.00     0.000 C 
BRANCH  17  18
ATOM     18  C   UNL     1     104.371 106.641 103.075  1.00  0.00    -0.000 C 
BRANCH  18  19
ATOM     19  C   UNL     1     104.605 106.023 104.465  1.00  0.00    -0.000 C 
BRANCH  19  20
ATOM     20  C   UNL     1     104.846 107.066 105.578  1.00  0.00    -0.000 C 
BRANCH  20  21
ATOM     21  C   UNL     1     103.983 106.806 106.825  1.00  0.00    -0.000 C 
BRANCH  21  22
ATOM     22  C   UNL     1     104.671 105.874 107.834  1.00  0.00    -0.000 C 
BRANCH  22  23
ATOM     23  C   UNL     1     104.784 104.429 107.318  1.00  0.00    -0.000 C 
BRANCH  23  24
ATOM     24  C   UNL     1     103.416 103.749 107.143  1.00  0.00    -0.000 C 
BRANCH  24  25
ATOM     25  C   UNL     1     103.324 102.365 107.820  1.00  0.00    -0.003 C 
ATOM     26  C   UNL     1     103.739 101.229 106.884  1.00  0.00     0.004 C 
ENDBRANCH  24  25
ENDBRANCH  23  24
ENDBRANCH  22  23
ENDBRANCH  21  22
ENDBRANCH  20  21
ENDBRANCH  19  20
ENDBRANCH  18  19
ENDBRANCH  17  18
ENDBRANCH  16  17
ENDBRANCH  15  16
ENDBRANCH   1  15
TORSDOF 22
ENDMDL
MODEL 7
REMARK VINA RESULT:     4.195      4.766     10.511
REMARK INTER + INTRA:           7.967
REMARK INTER:                   9.843
REMARK INTRA:                  -1.876
REMARK UNBOUND:                -1.624
REMARK SMILES CCCCCCCCCCCCCCCCCCCCCCCC(=O)[O-]
REMARK SMILES IDX 13 1 14 2 15 3 16 4 17 5 18 6 19 7 20 8 21 9 22 10 23 11
REMARK SMILES IDX 24 12 25 13 26 14 12 15 11 16 10 17 9 18 8 19 7 20 6 21 5 22
REMARK SMILES IDX 4 23 3 24 2 25 1 26
REMARK H PARENT
REMARK Flexibility Score: inf
ROOT
ATOM      1  C   UNL     1     104.391 107.014 101.484  1.00  0.00     0.000 C 
ENDROOT
BRANCH   1   2
ATOM      2  C   UNL     1     104.721 106.221 100.208  1.00  0.00     0.000 C 
BRANCH   2   3
ATOM      3  C   UNL     1     104.512 107.049  98.931  1.00  0.00     0.000 C 
BRANCH   3   4
ATOM      4  C   UNL     1     104.520 106.196  97.640  1.00  0.00     0.000 C 
BRANCH   4   5
ATOM      5  C   UNL     1     105.139 104.797  97.836  1.00  0.00     0.000 C 
BRANCH   5   6
ATOM      6  C   UNL     1     104.383 103.657  97.119  1.00  0.00     0.000 C 
BRANCH   6   7
ATOM      7  C   UNL     1     103.698 102.636  98.048  1.00  0.00     0.000 C 
BRANCH   7   8
ATOM      8  C   UNL     1     102.188 102.502  97.781  1.00  0.00     0.000 C 
BRANCH   8   9
ATOM      9  C   UNL     1     101.553 103.827  97.330  1.00  0.00     0.000 C 
BRANCH   9  10
ATOM     10  C   UNL     1     100.069 103.668  96.964  1.00  0.00     0.006 C 
BRANCH  10  11
ATOM     11  C   UNL     1      99.170 104.277  98.045  1.00  0.00     0.053 C 
BRANCH  11  12
ATOM     12  C   UNL     1      97.815 104.580  97.489  1.00  0.00     0.041 C 
ATOM     13  O   UNL     1      97.360 105.754  97.526  1.00  0.00    -0.550 OA
ATOM     14  O   UNL     1      97.067 103.569  96.896  1.00  0.00    -0.550 OA
ENDBRANCH  11  12
ENDBRANCH  10  11
ENDBRANCH   9  10
ENDBRANCH   8   9
ENDBRANCH   7   8
ENDBRANCH   6   7
ENDBRANCH   5   6
ENDBRANCH   4   5
ENDBRANCH   3   4
ENDBRANCH   2   3
ENDBRANCH   1   2
BRANCH   1  15
ATOM     15  C   UNL     1     104.480 106.156 102.757  1.00  0.00     0.000 C 
BRANCH  15  16
ATOM     16  C   UNL     1     104.751 104.673 102.452  1.00  0.00     0.000 C 
BRANCH  16  17
ATOM     17  C   UNL     1     103.477 103.810 102.499  1.00  0.00     0.000 C 
BRANCH  17  18
ATOM     18  C   UNL     1     103.696 102.307 102.236  1.00  0.00    -0.000 C 
BRANCH  18  19
ATOM     19  C   UNL     1     103.332 101.377 103.408  1.00  0.00    -0.000 C 
BRANCH  19  20
ATOM     20  C   UNL     1     103.275 102.091 104.776  1.00  0.00    -0.000 C 
BRANCH  20  21
ATOM     21  C   UNL     1     103.325 101.106 105.957  1.00  0.00    -0.000 C 
BRANCH  21  22
ATOM     22  C   UNL     1     103.680 101.794 107.283  1.00  0.00    -0.000 C 
BRANCH  22  23
ATOM     23  C   UNL     1     103.219 103.261 107.326  1.00  0.00    -0.000 C 
BRANCH  23  24
ATOM     24  C   UNL     1     104.302 104.213 107.860  1.00  0.00    -0.000 C 
BRANCH  24  25
ATOM     25  C   UNL     1     104.765 105.262 106.827  1.00  0.00    -0.003 C 
ATOM     26  C   UNL     1     104.267 106.669 107.162  1.00  0.00     0.004 C 
ENDBRANCH  24  25
ENDBRANCH  23  24
ENDBRANCH  22  23
ENDBRANCH  21  22
ENDBRANCH  20  21
ENDBRANCH  19  20
ENDBRANCH  18  19
ENDBRANCH  17  18
ENDBRANCH  16  17
ENDBRANCH  15  16
ENDBRANCH   1  15
TORSDOF 22
ENDMDL
MODEL 8
REMARK VINA RESULT:     4.302      2.696      4.721
REMARK INTER + INTRA:           8.212
REMARK INTER:                   9.782
REMARK INTRA:                  -1.571
REMARK UNBOUND:                -1.624
REMARK SMILES CCCCCCCCCCCCCCCCCCCCCCCC(=O)[O-]
REMARK SMILES IDX 13 1 14 2 15 3 16 4 17 5 18 6 19 7 20 8 21 9 22 10 23 11
REMARK SMILES IDX 24 12 25 13 26 14 12 15 11 16 10 17 9 18 8 19 7 20 6 21 5 22
REMARK SMILES IDX 4 23 3 24 2 25 1 26
REMARK H PARENT
REMARK Flexibility Score: inf
ROOT
ATOM      1  C   UNL     1     103.538 101.379 101.586  1.00  0.00     0.000 C 
ENDROOT
BRANCH   1   2
ATOM      2  C   UNL     1     103.534 102.257 102.851  1.00  0.00     0.000 C 
BRANCH   2   3
ATOM      3  C   UNL     1     103.281 103.740 102.535  1.00  0.00     0.000 C 
BRANCH   3   4
ATOM      4  C   UNL     1     104.582 104.549 102.319  1.00  0.00     0.000 C 
BRANCH   4   5
ATOM      5  C   UNL     1     104.337 106.059 102.123  1.00  0.00     0.000 C 
BRANCH   5   6
ATOM      6  C   UNL     1     104.663 106.926 103.359  1.00  0.00     0.000 C 
BRANCH   6   7
ATOM      7  C   UNL     1     104.705 106.169 104.701  1.00  0.00     0.000 C 
BRANCH   7   8
ATOM      8  C   UNL     1     104.643 107.106 105.919  1.00  0.00     0.000 C 
BRANCH   8   9
ATOM      9  C   UNL     1     104.387 106.346 107.231  1.00  0.00     0.000 C 
BRANCH   9  10
ATOM     10  C   UNL     1     104.700 104.847 107.107  1.00  0.00     0.006 C 
BRANCH  10  11
ATOM     11  C   UNL     1     103.832 104.026 108.066  1.00  0.00     0.053 C 
BRANCH  11  12
ATOM     12  C   UNL     1     103.203 102.875 107.346  1.00  0.00     0.041 C 
ATOM     13  O   UNL     1     102.002 102.941 106.970  1.00  0.00    -0.550 OA
ATOM     14  O   UNL     1     103.953 101.741 107.059  1.00  0.00    -0.550 OA
ENDBRANCH  11  12
ENDBRANCH  10  11
ENDBRANCH   9  10
ENDBRANCH   8   9
ENDBRANCH   7   8
ENDBRANCH   6   7
ENDBRANCH   5   6
ENDBRANCH   4   5
ENDBRANCH   3   4
ENDBRANCH   2   3
ENDBRANCH   1   2
BRANCH   1  15
ATOM     15  C   UNL     1     103.523 102.206 100.290  1.00  0.00     0.000 C 
BRANCH  15  16
ATOM     16  C   UNL     1     103.277 101.342  99.042  1.00  0.00     0.000 C 
BRANCH  16  17
ATOM     17  C   UNL     1     103.722 102.031  97.739  1.00  0.00     0.000 C 
BRANCH  17  18
ATOM     18  C   UNL     1     102.973 103.333  97.399  1.00  0.00    -0.000 C 
BRANCH  18  19
ATOM     19  C   UNL     1     103.855 104.478  96.866  1.00  0.00    -0.000 C 
BRANCH  19  20
ATOM     20  C   UNL     1     104.304 105.476  97.955  1.00  0.00    -0.000 C 
BRANCH  20  21
ATOM     21  C   UNL     1     105.820 105.421  98.214  1.00  0.00    -0.000 C 
BRANCH  21  22
ATOM     22  C   UNL     1     106.519 104.329  97.390  1.00  0.00    -0.000 C 
BRANCH  22  23
ATOM     23  C   UNL     1     107.983 104.680  97.072  1.00  0.00    -0.000 C 
BRANCH  23  24
ATOM     24  C   UNL     1     108.984 103.710  97.720  1.00  0.00    -0.000 C 
BRANCH  24  25
ATOM     25  C   UNL     1     110.437 103.910  97.239  1.00  0.00    -0.003 C 
ATOM     26  C   UNL     1     110.767 105.380  96.973  1.00  0.00     0.004 C 
ENDBRANCH  24  25
ENDBRANCH  23  24
ENDBRANCH  22  23
ENDBRANCH  21  22
ENDBRANCH  20  21
ENDBRANCH  19  20
ENDBRANCH  18  19
ENDBRANCH  17  18
ENDBRANCH  16  17
ENDBRANCH  15  16
ENDBRANCH   1  15
TORSDOF 22
ENDMDL
MODEL 9
REMARK VINA RESULT:     4.329      2.861      5.706
REMARK INTER + INTRA:           8.273
REMARK INTER:                   9.314
REMARK INTRA:                  -1.041
REMARK UNBOUND:                -1.624
REMARK SMILES CCCCCCCCCCCCCCCCCCCCCCCC(=O)[O-]
REMARK SMILES IDX 13 1 14 2 15 3 16 4 17 5 18 6 19 7 20 8 21 9 22 10 23 11
REMARK SMILES IDX 24 12 25 13 26 14 12 15 11 16 10 17 9 18 8 19 7 20 6 21 5 22
REMARK SMILES IDX 4 23 3 24 2 25 1 26
REMARK H PARENT
REMARK Flexibility Score: inf
ROOT
ATOM      1  C   UNL     1     104.517 106.986 101.138  1.00  0.00     0.000 C 
ENDROOT
BRANCH   1   2
ATOM      2  C   UNL     1     104.407 106.280 102.502  1.00  0.00     0.000 C 
BRANCH   2   3
ATOM      3  C   UNL     1     104.709 104.776 102.410  1.00  0.00     0.000 C 
BRANCH   3   4
ATOM      4  C   UNL     1     103.436 103.899 102.363  1.00  0.00     0.000 C 
BRANCH   4   5
ATOM      5  C   UNL     1     103.737 102.390 102.258  1.00  0.00     0.000 C 
BRANCH   5   6
ATOM      6  C   UNL     1     103.305 101.564 103.489  1.00  0.00     0.000 C 
BRANCH   6   7
ATOM      7  C   UNL     1     103.293 102.332 104.825  1.00  0.00     0.000 C 
BRANCH   7   8
ATOM      8  C   UNL     1     103.446 101.410 106.048  1.00  0.00     0.000 C 
BRANCH   8   9
ATOM      9  C   UNL     1     103.660 102.195 107.351  1.00  0.00     0.000 C 
BRANCH   9  10
ATOM     10  C   UNL     1     103.287 103.679 107.206  1.00  0.00     0.006 C 
BRANCH  10  11
ATOM     11  C   UNL     1     104.527 104.527 106.901  1.00  0.00     0.053 C 
BRANCH  11  12
ATOM     12  C   UNL     1     104.404 105.878 107.533  1.00  0.00     0.041 C 
ATOM     13  O   UNL     1     103.990 106.859 106.860  1.00  0.00    -0.550 OA
ATOM     14  O   UNL     1     104.715 106.046 108.878  1.00  0.00    -0.550 OA
ENDBRANCH  11  12
ENDBRANCH  10  11
ENDBRANCH   9  10
ENDBRANCH   8   9
ENDBRANCH   7   8
ENDBRANCH   6   7
ENDBRANCH   5   6
ENDBRANCH   4   5
ENDBRANCH   3   4
ENDBRANCH   2   3
ENDBRANCH   1   2
BRANCH   1  15
ATOM     15  C   UNL     1     104.736 106.003  99.976  1.00  0.00     0.000 C 
BRANCH  15  16
ATOM     16  C   UNL     1     104.600 106.676  98.600  1.00  0.00     0.000 C 
BRANCH  16  17
ATOM     17  C   UNL     1     104.372 105.667  97.460  1.00  0.00     0.000 C 
BRANCH  17  18
ATOM     18  C   UNL     1     104.730 104.206  97.797  1.00  0.00    -0.000 C 
BRANCH  18  19
ATOM     19  C   UNL     1     103.855 103.141  97.110  1.00  0.00    -0.000 C 
BRANCH  19  20
ATOM     20  C   UNL     1     102.505 102.892  97.817  1.00  0.00    -0.000 C 
BRANCH  20  21
ATOM     21  C   UNL     1     101.527 104.068  97.650  1.00  0.00    -0.000 C 
BRANCH  21  22
ATOM     22  C   UNL     1     100.103 103.605  97.309  1.00  0.00    -0.000 C 
BRANCH  22  23
ATOM     23  C   UNL     1      99.027 104.420  98.048  1.00  0.00    -0.000 C 
BRANCH  23  24
ATOM     24  C   UNL     1      97.725 104.561  97.243  1.00  0.00    -0.000 C 
BRANCH  24  25
ATOM     25  C   UNL     1      97.418 103.341  96.349  1.00  0.00    -0.003 C 
ATOM     26  C   UNL     1      96.901 102.146  97.149  1.00  0.00     0.004 C 
ENDBRANCH  24  25
ENDBRANCH  23  24
ENDBRANCH  22  23
ENDBRANCH  21  22
ENDBRANCH  20  21
ENDBRANCH  19  20
ENDBRANCH  18  19
ENDBRANCH  17  18
ENDBRANCH  16  17
ENDBRANCH  15  16
ENDBRANCH   1  15
TORSDOF 22
ENDMDL
