MODEL 1
REMARK VINA RESULT:    -6.982      0.000      0.000
REMARK INTER + INTRA:          -7.186
REMARK INTER:                  -7.186
REMARK INTRA:                   0.000
REMARK UNBOUND:                 0.000
REMARK SMILES C[C@@H]1CC[C@]2(OC1)O[C@H]1C[C@H]3[C@@H]4CC=C5C[C@H](O)CC[C@]5(C)[C@@H]4CC[C@@]3(C)[C@H]1[C@@H]2C
REMARK SMILES IDX 1 1 2 2 3 3 4 4 5 5 29 6 28 7 9 8 8 9 10 10 11 11 26 12
REMARK SMILES IDX 25 13 24 14 23 15 12 16 13 17 14 18 15 19 21 20 20 21 19 22
REMARK SMILES IDX 17 23 16 24 22 25 27 26 30 27 6 28 7 29 18 30
REMARK H PARENT 18 31
REMARK Flexibility Score: inf
ROOT
ATOM      1  C   UNL     1      14.285 -30.078 -19.406  1.00  0.00     0.010 C 
ATOM      2  C   UNL     1      13.446 -28.881 -18.944  1.00  0.00     0.012 C 
ATOM      3  C   UNL     1      12.784 -28.167 -20.125  1.00  0.00     0.011 C 
ATOM      4  C   UNL     1      12.026 -26.897 -19.688  1.00  0.00     0.066 C 
ATOM      5  C   UNL     1      12.387 -26.446 -18.234  1.00  0.00     0.171 C 
ATOM      6  C   UNL     1      11.966 -24.989 -17.874  1.00  0.00     0.052 C 
ATOM      7  C   UNL     1      10.777 -25.171 -16.931  1.00  0.00     0.033 C 
ATOM      8  C   UNL     1      10.520 -26.658 -16.956  1.00  0.00     0.126 C 
ATOM      9  O   UNL     1      11.723 -27.295 -17.311  1.00  0.00    -0.346 OA
ATOM     10  C   UNL     1      10.073 -27.059 -15.551  1.00  0.00     0.037 C 
ATOM     11  C   UNL     1       9.935 -25.751 -14.759  1.00  0.00     0.002 C 
ATOM     12  C   UNL     1      10.942 -24.781 -15.425  1.00  0.00    -0.024 C 
ATOM     13  C   UNL     1      12.376 -25.025 -14.866  1.00  0.00     0.008 C 
ATOM     14  C   UNL     1      12.444 -25.068 -13.333  1.00  0.00     0.005 C 
ATOM     15  C   UNL     1      11.535 -26.173 -12.746  1.00  0.00     0.003 C 
ATOM     16  C   UNL     1      10.068 -25.967 -13.221  1.00  0.00     0.000 C 
ATOM     17  C   UNL     1       9.301 -24.875 -12.425  1.00  0.00     0.031 C 
ATOM     18  C   UNL     1       9.866 -24.522 -11.073  1.00  0.00    -0.027 C 
ATOM     19  C   UNL     1      10.922 -25.134 -10.507  1.00  0.00    -0.065 C 
ATOM     20  C   UNL     1      11.600 -26.320 -11.178  1.00  0.00    -0.008 C 
ATOM     21  C   UNL     1      13.071 -26.401 -10.677  1.00  0.00     0.014 C 
ATOM     22  C   UNL     1      13.210 -26.484  -9.143  1.00  0.00     0.033 C 
ATOM     23  C   UNL     1      12.186 -25.625  -8.364  1.00  0.00     0.118 C 
ATOM     24  C   UNL     1      11.511 -24.551  -9.234  1.00  0.00     0.063 C 
ATOM     25  C   UNL     1      10.867 -27.624 -10.757  1.00  0.00     0.016 C 
ATOM     26  C   UNL     1      10.562 -23.292 -15.257  1.00  0.00     0.012 C 
ATOM     27  C   UNL     1      11.621 -24.055 -19.045  1.00  0.00     0.014 C 
ATOM     28  O   UNL     1      13.795 -26.547 -18.064  1.00  0.00    -0.349 OA
ATOM     29  C   UNL     1      14.295 -27.880 -18.122  1.00  0.00     0.167 C 
ENDROOT
BRANCH  23  30
ATOM     30  O   UNL     1      12.851 -25.003  -7.291  1.00  0.00    -0.393 OA
ATOM     31  H   UNL     1      12.166 -24.497  -6.779  1.00  0.00     0.210 HD
ENDBRANCH  23  30
TORSDOF 1
ENDMDL
MODEL 2
REMARK VINA RESULT:    -6.881      3.665      8.475
REMARK INTER + INTRA:          -7.083
REMARK INTER:                  -7.083
REMARK INTRA:                   0.000
REMARK UNBOUND:                 0.000
REMARK SMILES C[C@@H]1CC[C@]2(OC1)O[C@H]1C[C@H]3[C@@H]4CC=C5C[C@H](O)CC[C@]5(C)[C@@H]4CC[C@@]3(C)[C@H]1[C@@H]2C
REMARK SMILES IDX 1 1 2 2 3 3 4 4 5 5 29 6 28 7 9 8 8 9 10 10 11 11 26 12
REMARK SMILES IDX 25 13 24 14 23 15 12 16 13 17 14 18 15 19 21 20 20 21 19 22
REMARK SMILES IDX 17 23 16 24 22 25 27 26 30 27 6 28 7 29 18 30
REMARK H PARENT 18 31
REMARK Flexibility Score: inf
ROOT
ATOM      1  C   UNL     1       8.874 -24.156  -6.783  1.00  0.00     0.010 C 
ATOM      2  C   UNL     1       9.490 -24.496  -8.144  1.00  0.00     0.012 C 
ATOM      3  C   UNL     1      11.007 -24.291  -8.144  1.00  0.00     0.011 C 
ATOM      4  C   UNL     1      11.628 -24.525  -9.537  1.00  0.00     0.066 C 
ATOM      5  C   UNL     1      10.558 -24.571 -10.676  1.00  0.00     0.171 C 
ATOM      6  C   UNL     1      11.127 -24.418 -12.119  1.00  0.00     0.052 C 
ATOM      7  C   UNL     1      11.016 -25.823 -12.712  1.00  0.00     0.033 C 
ATOM      8  C   UNL     1      10.562 -26.671 -11.548  1.00  0.00     0.126 C 
ATOM      9  O   UNL     1       9.899 -25.827 -10.637  1.00  0.00    -0.346 OA
ATOM     10  C   UNL     1       9.618 -27.732 -12.109  1.00  0.00     0.037 C 
ATOM     11  C   UNL     1       9.657 -27.572 -13.636  1.00  0.00     0.002 C 
ATOM     12  C   UNL     1       9.991 -26.077 -13.864  1.00  0.00    -0.024 C 
ATOM     13  C   UNL     1       8.698 -25.213 -13.758  1.00  0.00     0.008 C 
ATOM     14  C   UNL     1       7.526 -25.744 -14.596  1.00  0.00     0.005 C 
ATOM     15  C   UNL     1       7.141 -27.188 -14.197  1.00  0.00     0.003 C 
ATOM     16  C   UNL     1       8.374 -28.127 -14.328  1.00  0.00     0.000 C 
ATOM     17  C   UNL     1       8.666 -28.577 -15.786  1.00  0.00     0.031 C 
ATOM     18  C   UNL     1       7.518 -28.463 -16.756  1.00  0.00    -0.027 C 
ATOM     19  C   UNL     1       6.274 -28.071 -16.420  1.00  0.00    -0.065 C 
ATOM     20  C   UNL     1       5.903 -27.781 -14.973  1.00  0.00    -0.008 C 
ATOM     21  C   UNL     1       4.700 -26.794 -14.957  1.00  0.00     0.014 C 
ATOM     22  C   UNL     1       3.473 -27.285 -15.752  1.00  0.00     0.033 C 
ATOM     23  C   UNL     1       3.820 -28.042 -17.056  1.00  0.00     0.118 C 
ATOM     24  C   UNL     1       5.266 -27.807 -17.524  1.00  0.00     0.063 C 
ATOM     25  C   UNL     1       5.460 -29.105 -14.291  1.00  0.00     0.016 C 
ATOM     26  C   UNL     1      10.690 -25.805 -15.216  1.00  0.00     0.012 C 
ATOM     27  C   UNL     1      12.554 -23.862 -12.249  1.00  0.00     0.014 C 
ATOM     28  O   UNL     1       9.622 -23.522 -10.464  1.00  0.00    -0.349 OA
ATOM     29  C   UNL     1       8.840 -23.670  -9.281  1.00  0.00     0.167 C 
ENDROOT
BRANCH  23  30
ATOM     30  O   UNL     1       2.931 -27.625 -18.064  1.00  0.00    -0.393 OA
ATOM     31  H   UNL     1       2.820 -26.642 -17.964  1.00  0.00     0.210 HD
ENDBRANCH  23  30
TORSDOF 1
ENDMDL
MODEL 3
REMARK VINA RESULT:    -6.702      2.069      3.027
REMARK INTER + INTRA:          -6.898
REMARK INTER:                  -6.898
REMARK INTRA:                   0.000
REMARK UNBOUND:                 0.000
REMARK SMILES C[C@@H]1CC[C@]2(OC1)O[C@H]1C[C@H]3[C@@H]4CC=C5C[C@H](O)CC[C@]5(C)[C@@H]4CC[C@@]3(C)[C@H]1[C@@H]2C
REMARK SMILES IDX 1 1 2 2 3 3 4 4 5 5 29 6 28 7 9 8 8 9 10 10 11 11 26 12
REMARK SMILES IDX 25 13 24 14 23 15 12 16 13 17 14 18 15 19 21 20 20 21 19 22
REMARK SMILES IDX 17 23 16 24 22 25 27 26 30 27 6 28 7 29 18 30
REMARK H PARENT 18 31
REMARK Flexibility Score: inf
ROOT
ATOM      1  C   UNL     1      16.548 -23.452 -19.401  1.00  0.00     0.010 C 
ATOM      2  C   UNL     1      15.330 -24.290 -18.999  1.00  0.00     0.012 C 
ATOM      3  C   UNL     1      14.898 -25.233 -20.124  1.00  0.00     0.011 C 
ATOM      4  C   UNL     1      13.607 -26.004 -19.776  1.00  0.00     0.066 C 
ATOM      5  C   UNL     1      12.861 -25.407 -18.537  1.00  0.00     0.171 C 
ATOM      6  C   UNL     1      11.386 -25.881 -18.368  1.00  0.00     0.052 C 
ATOM      7  C   UNL     1      11.440 -26.840 -17.179  1.00  0.00     0.033 C 
ATOM      8  C   UNL     1      12.914 -26.960 -16.878  1.00  0.00     0.126 C 
ATOM      9  O   UNL     1      13.545 -25.796 -17.357  1.00  0.00    -0.346 OA
ATOM     10  C   UNL     1      13.054 -27.084 -15.362  1.00  0.00     0.037 C 
ATOM     11  C   UNL     1      11.624 -27.183 -14.810  1.00  0.00     0.002 C 
ATOM     12  C   UNL     1      10.754 -26.420 -15.838  1.00  0.00    -0.024 C 
ATOM     13  C   UNL     1      10.807 -24.888 -15.558  1.00  0.00     0.008 C 
ATOM     14  C   UNL     1      10.544 -24.516 -14.092  1.00  0.00     0.005 C 
ATOM     15  C   UNL     1      11.558 -25.187 -13.136  1.00  0.00     0.003 C 
ATOM     16  C   UNL     1      11.527 -26.732 -13.321  1.00  0.00     0.000 C 
ATOM     17  C   UNL     1      10.341 -27.424 -12.595  1.00  0.00     0.031 C 
ATOM     18  C   UNL     1       9.700 -26.640 -11.479  1.00  0.00    -0.027 C 
ATOM     19  C   UNL     1      10.132 -25.441 -11.045  1.00  0.00    -0.065 C 
ATOM     20  C   UNL     1      11.390 -24.803 -11.616  1.00  0.00    -0.008 C 
ATOM     21  C   UNL     1      11.294 -23.261 -11.430  1.00  0.00     0.014 C 
ATOM     22  C   UNL     1      11.066 -22.817  -9.971  1.00  0.00     0.033 C 
ATOM     23  C   UNL     1      10.125 -23.742  -9.163  1.00  0.00     0.118 C 
ATOM     24  C   UNL     1       9.280 -24.670 -10.053  1.00  0.00     0.063 C 
ATOM     25  C   UNL     1      12.622 -25.317 -10.821  1.00  0.00     0.016 C 
ATOM     26  C   UNL     1       9.282 -26.894 -15.867  1.00  0.00     0.012 C 
ATOM     27  C   UNL     1      10.720 -26.533 -19.590  1.00  0.00     0.014 C 
ATOM     28  O   UNL     1      12.853 -23.990 -18.651  1.00  0.00    -0.349 OA
ATOM     29  C   UNL     1      14.144 -23.391 -18.569  1.00  0.00     0.167 C 
ENDROOT
BRANCH  23  30
ATOM     30  O   UNL     1       9.270 -22.939  -8.385  1.00  0.00    -0.393 OA
ATOM     31  H   UNL     1       9.698 -22.838  -7.494  1.00  0.00     0.210 HD
ENDBRANCH  23  30
TORSDOF 1
ENDMDL
MODEL 4
REMARK VINA RESULT:    -6.670      2.913      4.707
REMARK INTER + INTRA:          -6.865
REMARK INTER:                  -6.865
REMARK INTRA:                   0.000
REMARK UNBOUND:                 0.000
REMARK SMILES C[C@@H]1CC[C@]2(OC1)O[C@H]1C[C@H]3[C@@H]4CC=C5C[C@H](O)CC[C@]5(C)[C@@H]4CC[C@@]3(C)[C@H]1[C@@H]2C
REMARK SMILES IDX 1 1 2 2 3 3 4 4 5 5 29 6 28 7 9 8 8 9 10 10 11 11 26 12
REMARK SMILES IDX 25 13 24 14 23 15 12 16 13 17 14 18 15 19 21 20 20 21 19 22
REMARK SMILES IDX 17 23 16 24 22 25 27 26 30 27 6 28 7 29 18 30
REMARK H PARENT 18 31
REMARK Flexibility Score: inf
ROOT
ATOM      1  C   UNL     1       8.524 -30.112 -17.477  1.00  0.00     0.010 C 
ATOM      2  C   UNL     1       8.875 -29.000 -16.483  1.00  0.00     0.012 C 
ATOM      3  C   UNL     1       7.910 -27.818 -16.595  1.00  0.00     0.011 C 
ATOM      4  C   UNL     1       8.314 -26.645 -15.678  1.00  0.00     0.066 C 
ATOM      5  C   UNL     1       9.770 -26.786 -15.122  1.00  0.00     0.171 C 
ATOM      6  C   UNL     1      10.372 -25.481 -14.518  1.00  0.00     0.052 C 
ATOM      7  C   UNL     1      10.362 -25.732 -13.011  1.00  0.00     0.033 C 
ATOM      8  C   UNL     1       9.631 -27.045 -12.868  1.00  0.00     0.126 C 
ATOM      9  O   UNL     1       9.773 -27.748 -14.079  1.00  0.00    -0.346 OA
ATOM     10  C   UNL     1      10.284 -27.798 -11.710  1.00  0.00     0.037 C 
ATOM     11  C   UNL     1      11.305 -26.829 -11.095  1.00  0.00     0.002 C 
ATOM     12  C   UNL     1      11.726 -25.908 -12.266  1.00  0.00    -0.024 C 
ATOM     13  C   UNL     1      12.827 -26.598 -13.126  1.00  0.00     0.008 C 
ATOM     14  C   UNL     1      13.993 -27.164 -12.303  1.00  0.00     0.005 C 
ATOM     15  C   UNL     1      13.513 -28.202 -11.263  1.00  0.00     0.003 C 
ATOM     16  C   UNL     1      12.443 -27.568 -10.328  1.00  0.00     0.000 C 
ATOM     17  C   UNL     1      13.042 -26.678  -9.205  1.00  0.00     0.031 C 
ATOM     18  C   UNL     1      14.494 -26.914  -8.877  1.00  0.00    -0.027 C 
ATOM     19  C   UNL     1      15.254 -27.873  -9.437  1.00  0.00    -0.065 C 
ATOM     20  C   UNL     1      14.663 -28.875 -10.419  1.00  0.00    -0.008 C 
ATOM     21  C   UNL     1      15.804 -29.403 -11.337  1.00  0.00     0.014 C 
ATOM     22  C   UNL     1      16.993 -30.018 -10.573  1.00  0.00     0.033 C 
ATOM     23  C   UNL     1      17.351 -29.288  -9.257  1.00  0.00     0.118 C 
ATOM     24  C   UNL     1      16.748 -27.875  -9.167  1.00  0.00     0.063 C 
ATOM     25  C   UNL     1      14.079 -30.075  -9.625  1.00  0.00     0.016 C 
ATOM     26  C   UNL     1      12.219 -24.517 -11.805  1.00  0.00     0.012 C 
ATOM     27  C   UNL     1       9.669 -24.160 -14.875  1.00  0.00     0.014 C 
ATOM     28  O   UNL     1      10.621 -27.209 -16.179  1.00  0.00    -0.349 OA
ATOM     29  C   UNL     1      10.335 -28.517 -16.669  1.00  0.00     0.167 C 
ENDROOT
BRANCH  23  30
ATOM     30  O   UNL     1      18.752 -29.202  -9.162  1.00  0.00    -0.393 OA
ATOM     31  H   UNL     1      18.957 -28.434  -8.566  1.00  0.00     0.210 HD
ENDBRANCH  23  30
TORSDOF 1
ENDMDL
MODEL 5
REMARK VINA RESULT:    -5.892      2.919      7.694
REMARK INTER + INTRA:          -6.065
REMARK INTER:                  -6.065
REMARK INTRA:                   0.000
REMARK UNBOUND:                 0.000
REMARK SMILES C[C@@H]1CC[C@]2(OC1)O[C@H]1C[C@H]3[C@@H]4CC=C5C[C@H](O)CC[C@]5(C)[C@@H]4CC[C@@]3(C)[C@H]1[C@@H]2C
REMARK SMILES IDX 1 1 2 2 3 3 4 4 5 5 29 6 28 7 9 8 8 9 10 10 11 11 26 12
REMARK SMILES IDX 25 13 24 14 23 15 12 16 13 17 14 18 15 19 21 20 20 21 19 22
REMARK SMILES IDX 17 23 16 24 22 25 27 26 30 27 6 28 7 29 18 30
REMARK H PARENT 18 31
REMARK Flexibility Score: inf
ROOT
ATOM      1  C   UNL     1      13.750 -29.983  -9.769  1.00  0.00     0.010 C 
ATOM      2  C   UNL     1      13.375 -28.784 -10.647  1.00  0.00     0.012 C 
ATOM      3  C   UNL     1      14.005 -27.489 -10.131  1.00  0.00     0.011 C 
ATOM      4  C   UNL     1      13.549 -26.256 -10.940  1.00  0.00     0.066 C 
ATOM      5  C   UNL     1      12.313 -26.553 -11.851  1.00  0.00     0.171 C 
ATOM      6  C   UNL     1      11.573 -25.291 -12.388  1.00  0.00     0.052 C 
ATOM      7  C   UNL     1      11.956 -25.239 -13.867  1.00  0.00     0.033 C 
ATOM      8  C   UNL     1      12.977 -26.342 -14.014  1.00  0.00     0.126 C 
ATOM      9  O   UNL     1      12.745 -27.279 -12.990  1.00  0.00    -0.346 OA
ATOM     10  C   UNL     1      12.768 -26.964 -15.394  1.00  0.00     0.037 C 
ATOM     11  C   UNL     1      11.709 -26.100 -16.094  1.00  0.00     0.002 C 
ATOM     12  C   UNL     1      10.855 -25.517 -14.942  1.00  0.00    -0.024 C 
ATOM     13  C   UNL     1       9.782 -26.552 -14.489  1.00  0.00     0.008 C 
ATOM     14  C   UNL     1       8.973 -27.154 -15.647  1.00  0.00     0.005 C 
ATOM     15  C   UNL     1       9.882 -27.865 -16.676  1.00  0.00     0.003 C 
ATOM     16  C   UNL     1      10.954 -26.875 -17.217  1.00  0.00     0.000 C 
ATOM     17  C   UNL     1      10.420 -25.911 -18.311  1.00  0.00     0.031 C 
ATOM     18  C   UNL     1       9.161 -26.344 -19.018  1.00  0.00    -0.027 C 
ATOM     19  C   UNL     1       8.535 -27.517 -18.807  1.00  0.00    -0.065 C 
ATOM     20  C   UNL     1       9.116 -28.562 -17.865  1.00  0.00    -0.008 C 
ATOM     21  C   UNL     1       7.957 -29.459 -17.343  1.00  0.00     0.014 C 
ATOM     22  C   UNL     1       7.125 -30.125 -18.458  1.00  0.00     0.033 C 
ATOM     23  C   UNL     1       6.897 -29.233 -19.701  1.00  0.00     0.118 C 
ATOM     24  C   UNL     1       7.171 -27.743 -19.434  1.00  0.00     0.063 C 
ATOM     25  C   UNL     1      10.110 -29.457 -18.656  1.00  0.00     0.016 C 
ATOM     26  C   UNL     1      10.170 -24.179 -15.303  1.00  0.00     0.012 C 
ATOM     27  C   UNL     1      11.870 -23.957 -11.682  1.00  0.00     0.014 C 
ATOM     28  O   UNL     1      11.376 -27.323 -11.109  1.00  0.00    -0.349 OA
ATOM     29  C   UNL     1      11.838 -28.625 -10.758  1.00  0.00     0.167 C 
ENDROOT
BRANCH  23  30
ATOM     30  O   UNL     1       5.564 -29.391 -20.125  1.00  0.00    -0.393 OA
ATOM     31  H   UNL     1       4.997 -28.858 -19.507  1.00  0.00     0.210 HD
ENDBRANCH  23  30
TORSDOF 1
ENDMDL
MODEL 6
REMARK VINA RESULT:    -5.595      6.227     10.068
REMARK INTER + INTRA:          -5.759
REMARK INTER:                  -5.759
REMARK INTRA:                   0.000
REMARK UNBOUND:                 0.000
REMARK SMILES C[C@@H]1CC[C@]2(OC1)O[C@H]1C[C@H]3[C@@H]4CC=C5C[C@H](O)CC[C@]5(C)[C@@H]4CC[C@@]3(C)[C@H]1[C@@H]2C
REMARK SMILES IDX 1 1 2 2 3 3 4 4 5 5 29 6 28 7 9 8 8 9 10 10 11 11 26 12
REMARK SMILES IDX 25 13 24 14 23 15 12 16 13 17 14 18 15 19 21 20 20 21 19 22
REMARK SMILES IDX 17 23 16 24 22 25 27 26 30 27 6 28 7 29 18 30
REMARK H PARENT 18 31
REMARK Flexibility Score: inf
ROOT
ATOM      1  C   UNL     1      22.366 -23.045  -7.721  1.00  0.00     0.010 C 
ATOM      2  C   UNL     1      21.919 -24.441  -8.169  1.00  0.00     0.012 C 
ATOM      3  C   UNL     1      23.086 -25.430  -8.182  1.00  0.00     0.011 C 
ATOM      4  C   UNL     1      22.675 -26.810  -8.735  1.00  0.00     0.066 C 
ATOM      5  C   UNL     1      21.291 -26.783  -9.463  1.00  0.00     0.171 C 
ATOM      6  C   UNL     1      20.997 -28.021 -10.363  1.00  0.00     0.052 C 
ATOM      7  C   UNL     1      19.948 -28.808  -9.578  1.00  0.00     0.033 C 
ATOM      8  C   UNL     1      19.850 -28.070  -8.265  1.00  0.00     0.126 C 
ATOM      9  O   UNL     1      20.260 -26.742  -8.489  1.00  0.00    -0.346 OA
ATOM     10  C   UNL     1      18.389 -28.132  -7.824  1.00  0.00     0.037 C 
ATOM     11  C   UNL     1      17.679 -29.049  -8.832  1.00  0.00     0.002 C 
ATOM     12  C   UNL     1      18.492 -28.894 -10.141  1.00  0.00    -0.024 C 
ATOM     13  C   UNL     1      18.039 -27.616 -10.910  1.00  0.00     0.008 C 
ATOM     14  C   UNL     1      16.517 -27.503 -11.081  1.00  0.00     0.005 C 
ATOM     15  C   UNL     1      15.783 -27.497  -9.720  1.00  0.00     0.003 C 
ATOM     16  C   UNL     1      16.146 -28.775  -8.911  1.00  0.00     0.000 C 
ATOM     17  C   UNL     1      15.366 -30.042  -9.359  1.00  0.00     0.031 C 
ATOM     18  C   UNL     1      14.093 -29.798 -10.128  1.00  0.00    -0.027 C 
ATOM     19  C   UNL     1      13.576 -28.580 -10.376  1.00  0.00    -0.065 C 
ATOM     20  C   UNL     1      14.219 -27.321  -9.813  1.00  0.00    -0.008 C 
ATOM     21  C   UNL     1      13.838 -26.118 -10.724  1.00  0.00     0.014 C 
ATOM     22  C   UNL     1      12.319 -25.925 -10.909  1.00  0.00     0.033 C 
ATOM     23  C   UNL     1      11.518 -27.244 -11.014  1.00  0.00     0.118 C 
ATOM     24  C   UNL     1      12.400 -28.464 -11.329  1.00  0.00     0.063 C 
ATOM     25  C   UNL     1      13.650 -27.057  -8.391  1.00  0.00     0.016 C 
ATOM     26  C   UNL     1      18.394 -30.125 -11.072  1.00  0.00     0.012 C 
ATOM     27  C   UNL     1      22.196 -28.904 -10.745  1.00  0.00     0.014 C 
ATOM     28  O   UNL     1      21.233 -25.624 -10.284  1.00  0.00    -0.349 OA
ATOM     29  C   UNL     1      21.240 -24.396  -9.561  1.00  0.00     0.167 C 
ENDROOT
BRANCH  23  30
ATOM     30  O   UNL     1      10.549 -27.098 -12.024  1.00  0.00    -0.393 OA
ATOM     31  H   UNL     1      10.817 -27.693 -12.773  1.00  0.00     0.210 HD
ENDBRANCH  23  30
TORSDOF 1
ENDMDL
MODEL 7
REMARK VINA RESULT:    -5.441      3.917      6.775
REMARK INTER + INTRA:          -5.600
REMARK INTER:                  -5.600
REMARK INTRA:                   0.000
REMARK UNBOUND:                 0.000
REMARK SMILES C[C@@H]1CC[C@]2(OC1)O[C@H]1C[C@H]3[C@@H]4CC=C5C[C@H](O)CC[C@]5(C)[C@@H]4CC[C@@]3(C)[C@H]1[C@@H]2C
REMARK SMILES IDX 1 1 2 2 3 3 4 4 5 5 29 6 28 7 9 8 8 9 10 10 11 11 26 12
REMARK SMILES IDX 25 13 24 14 23 15 12 16 13 17 14 18 15 19 21 20 20 21 19 22
REMARK SMILES IDX 17 23 16 24 22 25 27 26 30 27 6 28 7 29 18 30
REMARK H PARENT 18 31
REMARK Flexibility Score: inf
ROOT
ATOM      1  C   UNL     1      10.747 -24.924 -16.730  1.00  0.00     0.010 C 
ATOM      2  C   UNL     1      10.836 -25.281 -15.242  1.00  0.00     0.012 C 
ATOM      3  C   UNL     1       9.507 -25.041 -14.524  1.00  0.00     0.011 C 
ATOM      4  C   UNL     1       9.610 -25.291 -13.005  1.00  0.00     0.066 C 
ATOM      5  C   UNL     1      11.090 -25.390 -12.508  1.00  0.00     0.171 C 
ATOM      6  C   UNL     1      11.275 -25.257 -10.966  1.00  0.00     0.052 C 
ATOM      7  C   UNL     1      11.608 -26.677 -10.509  1.00  0.00     0.033 C 
ATOM      8  C   UNL     1      11.431 -27.508 -11.757  1.00  0.00     0.126 C 
ATOM      9  O   UNL     1      11.612 -26.660 -12.865  1.00  0.00    -0.346 OA
ATOM     10  C   UNL     1      12.494 -28.605 -11.719  1.00  0.00     0.037 C 
ATOM     11  C   UNL     1      13.186 -28.479 -10.353  1.00  0.00     0.002 C 
ATOM     12  C   UNL     1      13.047 -26.982  -9.981  1.00  0.00    -0.024 C 
ATOM     13  C   UNL     1      14.163 -26.147 -10.678  1.00  0.00     0.008 C 
ATOM     14  C   UNL     1      15.574 -26.725 -10.499  1.00  0.00     0.005 C 
ATOM     15  C   UNL     1      15.679 -28.168 -11.045  1.00  0.00     0.003 C 
ATOM     16  C   UNL     1      14.625 -29.080 -10.355  1.00  0.00     0.000 C 
ATOM     17  C   UNL     1      15.043 -29.556  -8.938  1.00  0.00     0.031 C 
ATOM     18  C   UNL     1      16.515 -29.492  -8.624  1.00  0.00    -0.027 C 
ATOM     19  C   UNL     1      17.464 -29.122  -9.505  1.00  0.00    -0.065 C 
ATOM     20  C   UNL     1      17.117 -28.807 -10.953  1.00  0.00    -0.008 C 
ATOM     21  C   UNL     1      18.201 -27.849 -11.527  1.00  0.00     0.014 C 
ATOM     22  C   UNL     1      19.642 -28.387 -11.411  1.00  0.00     0.033 C 
ATOM     23  C   UNL     1      19.928 -29.166 -10.105  1.00  0.00     0.118 C 
ATOM     24  C   UNL     1      18.882 -28.907  -9.006  1.00  0.00     0.063 C 
ATOM     25  C   UNL     1      17.143 -30.125 -11.775  1.00  0.00     0.016 C 
ATOM     26  C   UNL     1      13.078 -26.725  -8.456  1.00  0.00     0.012 C 
ATOM     27  C   UNL     1      10.097 -24.669 -10.171  1.00  0.00     0.014 C 
ATOM     28  O   UNL     1      11.847 -24.359 -13.128  1.00  0.00    -0.349 OA
ATOM     29  C   UNL     1      11.973 -24.497 -14.541  1.00  0.00     0.167 C 
ENDROOT
BRANCH  23  30
ATOM     30  O   UNL     1      21.200 -28.793  -9.633  1.00  0.00    -0.393 OA
ATOM     31  H   UNL     1      21.868 -29.214 -10.236  1.00  0.00     0.210 HD
ENDBRANCH  23  30
TORSDOF 1
ENDMDL
MODEL 8
REMARK VINA RESULT:    -5.235      3.966      6.679
REMARK INTER + INTRA:          -5.388
REMARK INTER:                  -5.388
REMARK INTRA:                   0.000
REMARK UNBOUND:                 0.000
REMARK SMILES C[C@@H]1CC[C@]2(OC1)O[C@H]1C[C@H]3[C@@H]4CC=C5C[C@H](O)CC[C@]5(C)[C@@H]4CC[C@@]3(C)[C@H]1[C@@H]2C
REMARK SMILES IDX 1 1 2 2 3 3 4 4 5 5 29 6 28 7 9 8 8 9 10 10 11 11 26 12
REMARK SMILES IDX 25 13 24 14 23 15 12 16 13 17 14 18 15 19 21 20 20 21 19 22
REMARK SMILES IDX 17 23 16 24 22 25 27 26 30 27 6 28 7 29 18 30
REMARK H PARENT 18 31
REMARK Flexibility Score: inf
ROOT
ATOM      1  C   UNL     1      11.523 -20.796 -20.029  1.00  0.00     0.010 C 
ATOM      2  C   UNL     1      11.776 -22.150 -19.359  1.00  0.00     0.012 C 
ATOM      3  C   UNL     1      13.272 -22.442 -19.224  1.00  0.00     0.011 C 
ATOM      4  C   UNL     1      13.543 -23.849 -18.651  1.00  0.00     0.066 C 
ATOM      5  C   UNL     1      12.274 -24.763 -18.667  1.00  0.00     0.171 C 
ATOM      6  C   UNL     1      12.557 -26.283 -18.470  1.00  0.00     0.052 C 
ATOM      7  C   UNL     1      12.069 -26.570 -17.051  1.00  0.00     0.033 C 
ATOM      8  C   UNL     1      11.710 -25.207 -16.510  1.00  0.00     0.126 C 
ATOM      9  O   UNL     1      11.415 -24.376 -17.607  1.00  0.00    -0.346 OA
ATOM     10  C   UNL     1      10.491 -25.389 -15.608  1.00  0.00     0.037 C 
ATOM     11  C   UNL     1      10.248 -26.903 -15.522  1.00  0.00     0.002 C 
ATOM     12  C   UNL     1      10.802 -27.465 -16.854  1.00  0.00    -0.024 C 
ATOM     13  C   UNL     1       9.742 -27.311 -17.986  1.00  0.00     0.008 C 
ATOM     14  C   UNL     1       8.347 -27.824 -17.604  1.00  0.00     0.005 C 
ATOM     15  C   UNL     1       7.788 -27.099 -16.357  1.00  0.00     0.003 C 
ATOM     16  C   UNL     1       8.772 -27.252 -15.162  1.00  0.00     0.000 C 
ATOM     17  C   UNL     1       8.672 -28.625 -14.443  1.00  0.00     0.031 C 
ATOM     18  C   UNL     1       7.394 -29.393 -14.657  1.00  0.00    -0.027 C 
ATOM     19  C   UNL     1       6.339 -28.935 -15.358  1.00  0.00    -0.065 C 
ATOM     20  C   UNL     1       6.330 -27.529 -15.939  1.00  0.00    -0.008 C 
ATOM     21  C   UNL     1       5.360 -27.501 -17.156  1.00  0.00     0.014 C 
ATOM     22  C   UNL     1       3.928 -27.971 -16.831  1.00  0.00     0.033 C 
ATOM     23  C   UNL     1       3.856 -29.146 -15.827  1.00  0.00     0.118 C 
ATOM     24  C   UNL     1       5.196 -29.886 -15.665  1.00  0.00     0.063 C 
ATOM     25  C   UNL     1       5.795 -26.543 -14.864  1.00  0.00     0.016 C 
ATOM     26  C   UNL     1      11.251 -28.941 -16.757  1.00  0.00     0.012 C 
ATOM     27  C   UNL     1      14.007 -26.754 -18.674  1.00  0.00     0.014 C 
ATOM     28  O   UNL     1      11.613 -24.602 -19.915  1.00  0.00    -0.349 OA
ATOM     29  C   UNL     1      11.074 -23.299 -20.125  1.00  0.00     0.167 C 
ENDROOT
BRANCH  23  30
ATOM     30  O   UNL     1       2.876 -30.052 -16.270  1.00  0.00    -0.393 OA
ATOM     31  H   UNL     1       2.360 -29.596 -16.986  1.00  0.00     0.210 HD
ENDBRANCH  23  30
TORSDOF 1
ENDMDL
