MODEL 1
REMARK VINA RESULT:     9.312      0.000      0.000
REMARK INTER + INTRA:          13.602
REMARK INTER:                  14.211
REMARK INTRA:                  -0.610
REMARK UNBOUND:                -0.610
REMARK SMILES OC[C@@H]1O[C@](CO)(O[C@H]2O[C@H](CO)[C@H](O)[C@H](O)[C@H]2O)[C@@H](O)[C@H]1O
REMARK SMILES IDX 8 1 9 2 11 3 14 4 10 5 16 6 18 7 12 8 13 9 15 11 17 13 19 15
REMARK SMILES IDX 5 17 20 18 4 19 22 20 3 21 6 22 7 23 21 25 23 27 2 29 1 30
REMARK H PARENT 13 10 15 12 17 14 19 16 7 24 21 26 23 28 1 31
REMARK Flexibility Score: inf
ROOT
ATOM      1  O   UNL     1       4.598   0.397 -19.315  1.00  0.00    -0.313 OA
ENDROOT
BRANCH   1   2
ATOM      2  C   UNL     1       3.797  -0.620 -19.909  1.00  0.00     0.285 C 
ATOM      3  C   UNL     1       3.672   0.169 -22.113  1.00  0.00     0.178 C 
ATOM      4  C   UNL     1       3.939  -1.196 -22.810  1.00  0.00     0.177 C 
ATOM      5  O   UNL     1       2.965  -0.034 -20.905  1.00  0.00    -0.341 OA
ATOM      6  C   UNL     1       4.113  -2.330 -21.761  1.00  0.00     0.179 C 
ATOM      7  C   UNL     1       4.698  -1.770 -20.453  1.00  0.00     0.202 C 
BRANCH   3   8
ATOM      8  C   UNL     1       2.887   1.156 -22.991  1.00  0.00     0.191 C 
BRANCH   8   9
ATOM      9  O   UNL     1       3.312   1.088 -24.326  1.00  0.00    -0.394 OA
ATOM     10  H   UNL     1       2.692   0.467 -24.791  1.00  0.00     0.210 HD
ENDBRANCH   8   9
ENDBRANCH   3   8
BRANCH   4  11
ATOM     11  O   UNL     1       2.903  -1.519 -23.705  1.00  0.00    -0.387 OA
ATOM     12  H   UNL     1       2.052  -1.428 -23.202  1.00  0.00     0.211 HD
ENDBRANCH   4  11
BRANCH   6  13
ATOM     13  O   UNL     1       2.875  -2.937 -21.477  1.00  0.00    -0.387 OA
ATOM     14  H   UNL     1       2.673  -3.554 -22.227  1.00  0.00     0.211 HD
ENDBRANCH   6  13
BRANCH   7  15
ATOM     15  O   UNL     1       6.006  -1.304 -20.679  1.00  0.00    -0.385 OA
ATOM     16  H   UNL     1       6.245  -1.553 -21.609  1.00  0.00     0.211 HD
ENDBRANCH   7  15
ENDBRANCH   1   2
BRANCH   1  17
ATOM     17  C   UNL     1       3.902   1.278 -18.436  1.00  0.00     0.224 C 
ATOM     18  C   UNL     1       4.874   2.068 -17.525  1.00  0.00     0.208 C 
ATOM     19  O   UNL     1       3.105   0.459 -17.599  1.00  0.00    -0.337 OA
ATOM     20  C   UNL     1       4.212   2.038 -16.171  1.00  0.00     0.180 C 
ATOM     21  C   UNL     1       3.361   0.773 -16.247  1.00  0.00     0.179 C 
BRANCH  17  22
ATOM     22  C   UNL     1       2.920   2.185 -19.221  1.00  0.00     0.225 C 
BRANCH  22  23
ATOM     23  O   UNL     1       3.619   2.907 -20.197  1.00  0.00    -0.391 OA
ATOM     24  H   UNL     1       3.457   3.867 -20.001  1.00  0.00     0.210 HD
ENDBRANCH  22  23
ENDBRANCH  17  22
BRANCH  18  25
ATOM     25  O   UNL     1       5.094   3.384 -17.969  1.00  0.00    -0.385 OA
ATOM     26  H   UNL     1       5.212   3.942 -17.156  1.00  0.00     0.211 HD
ENDBRANCH  18  25
BRANCH  20  27
ATOM     27  O   UNL     1       3.390   3.166 -16.001  1.00  0.00    -0.387 OA
ATOM     28  H   UNL     1       2.473   2.824 -15.830  1.00  0.00     0.211 HD
ENDBRANCH  20  27
BRANCH  21  29
ATOM     29  C   UNL     1       4.026  -0.427 -15.556  1.00  0.00     0.191 C 
BRANCH  29  30
ATOM     30  O   UNL     1       5.281  -0.070 -15.045  1.00  0.00    -0.394 OA
ATOM     31  H   UNL     1       5.476   0.836 -15.400  1.00  0.00     0.210 HD
ENDBRANCH  29  30
ENDBRANCH  21  29
ENDBRANCH   1  17
TORSDOF 13
ENDMDL
MODEL 2
REMARK VINA RESULT:    10.718      1.310      2.148
REMARK INTER + INTRA:          15.748
REMARK INTER:                  16.000
REMARK INTRA:                  -0.252
REMARK UNBOUND:                -0.610
REMARK SMILES OC[C@@H]1O[C@](CO)(O[C@H]2O[C@H](CO)[C@H](O)[C@H](O)[C@H]2O)[C@@H](O)[C@H]1O
REMARK SMILES IDX 8 1 9 2 11 3 14 4 10 5 16 6 18 7 12 8 13 9 15 11 17 13 19 15
REMARK SMILES IDX 5 17 20 18 4 19 22 20 3 21 6 22 7 23 21 25 23 27 2 29 1 30
REMARK H PARENT 13 10 15 12 17 14 19 16 7 24 21 26 23 28 1 31
REMARK Flexibility Score: inf
ROOT
ATOM      1  O   UNL     1       5.014  -0.492 -18.801  1.00  0.00    -0.313 OA
ENDROOT
BRANCH   1   2
ATOM      2  C   UNL     1       4.156  -1.229 -19.667  1.00  0.00     0.285 C 
ATOM      3  C   UNL     1       3.849   0.330 -21.391  1.00  0.00     0.178 C 
ATOM      4  C   UNL     1       4.043  -0.665 -22.572  1.00  0.00     0.177 C 
ATOM      5  O   UNL     1       3.247  -0.331 -20.296  1.00  0.00    -0.341 OA
ATOM      6  C   UNL     1       4.296  -2.106 -22.048  1.00  0.00     0.179 C 
ATOM      7  C   UNL     1       4.997  -2.067 -20.678  1.00  0.00     0.202 C 
BRANCH   3   8
ATOM      8  C   UNL     1       3.000   1.556 -21.763  1.00  0.00     0.191 C 
BRANCH   8   9
ATOM      9  O   UNL     1       3.699   2.405 -22.633  1.00  0.00    -0.394 OA
ATOM     10  H   UNL     1       3.384   2.193 -23.551  1.00  0.00     0.210 HD
ENDBRANCH   8   9
ENDBRANCH   3   8
BRANCH   4  11
ATOM     11  O   UNL     1       2.931  -0.651 -23.434  1.00  0.00    -0.387 OA
ATOM     12  H   UNL     1       2.200  -1.131 -22.964  1.00  0.00     0.211 HD
ENDBRANCH   4  11
BRANCH   6  13
ATOM     13  O   UNL     1       3.082  -2.806 -21.912  1.00  0.00    -0.387 OA
ATOM     14  H   UNL     1       2.603  -2.412 -21.137  1.00  0.00     0.211 HD
ENDBRANCH   6  13
BRANCH   7  15
ATOM     15  O   UNL     1       6.285  -1.519 -20.819  1.00  0.00    -0.385 OA
ATOM     16  H   UNL     1       6.794  -2.126 -21.417  1.00  0.00     0.211 HD
ENDBRANCH   7  15
ENDBRANCH   1   2
BRANCH   1  17
ATOM     17  C   UNL     1       4.349   0.263 -17.792  1.00  0.00     0.224 C 
ATOM     18  C   UNL     1       4.172   1.746 -18.206  1.00  0.00     0.208 C 
ATOM     19  O   UNL     1       5.191   0.238 -16.653  1.00  0.00    -0.337 OA
ATOM     20  C   UNL     1       4.506   2.517 -16.956  1.00  0.00     0.180 C 
ATOM     21  C   UNL     1       5.428   1.557 -16.210  1.00  0.00     0.179 C 
BRANCH  17  22
ATOM     22  C   UNL     1       3.023  -0.419 -17.369  1.00  0.00     0.225 C 
BRANCH  22  23
ATOM     23  O   UNL     1       3.100  -0.815 -16.027  1.00  0.00    -0.391 OA
ATOM     24  H   UNL     1       3.538  -0.067 -15.543  1.00  0.00     0.210 HD
ENDBRANCH  22  23
ENDBRANCH  17  22
BRANCH  18  25
ATOM     25  O   UNL     1       2.875   2.035 -18.668  1.00  0.00    -0.385 OA
ATOM     26  H   UNL     1       2.486   2.688 -18.029  1.00  0.00     0.211 HD
ENDBRANCH  18  25
BRANCH  20  27
ATOM     27  O   UNL     1       3.343   2.756 -16.201  1.00  0.00    -0.387 OA
ATOM     28  H   UNL     1       3.431   2.221 -15.369  1.00  0.00     0.211 HD
ENDBRANCH  20  27
BRANCH  21  29
ATOM     29  C   UNL     1       6.913   1.904 -16.395  1.00  0.00     0.191 C 
BRANCH  29  30
ATOM     30  O   UNL     1       7.057   3.184 -16.948  1.00  0.00    -0.394 OA
ATOM     31  H   UNL     1       6.461   3.210 -17.741  1.00  0.00     0.210 HD
ENDBRANCH  29  30
ENDBRANCH  21  29
ENDBRANCH   1  17
TORSDOF 13
ENDMDL
MODEL 3
REMARK VINA RESULT:    11.024      1.407      5.850
REMARK INTER + INTRA:          16.215
REMARK INTER:                  16.989
REMARK INTRA:                  -0.774
REMARK UNBOUND:                -0.610
REMARK SMILES OC[C@@H]1O[C@](CO)(O[C@H]2O[C@H](CO)[C@H](O)[C@H](O)[C@H]2O)[C@@H](O)[C@H]1O
REMARK SMILES IDX 8 1 9 2 11 3 14 4 10 5 16 6 18 7 12 8 13 9 15 11 17 13 19 15
REMARK SMILES IDX 5 17 20 18 4 19 22 20 3 21 6 22 7 23 21 25 23 27 2 29 1 30
REMARK H PARENT 13 10 15 12 17 14 19 16 7 24 21 26 23 28 1 31
REMARK Flexibility Score: inf
ROOT
ATOM      1  O   UNL     1       3.258  -0.870 -19.764  1.00  0.00    -0.313 OA
ENDROOT
BRANCH   1   2
ATOM      2  C   UNL     1       4.303  -0.120 -19.152  1.00  0.00     0.285 C 
ATOM      3  C   UNL     1       3.227   1.942 -18.852  1.00  0.00     0.178 C 
ATOM      4  C   UNL     1       3.716   2.191 -17.396  1.00  0.00     0.177 C 
ATOM      5  O   UNL     1       4.214   1.235 -19.579  1.00  0.00    -0.341 OA
ATOM      6  C   UNL     1       4.638   1.036 -16.914  1.00  0.00     0.179 C 
ATOM      7  C   UNL     1       4.252  -0.285 -17.602  1.00  0.00     0.202 C 
BRANCH   3   8
ATOM      8  C   UNL     1       2.881   3.235 -19.607  1.00  0.00     0.191 C 
BRANCH   8   9
ATOM      9  O   UNL     1       4.045   3.904 -20.015  1.00  0.00    -0.394 OA
ATOM     10  H   UNL     1       3.850   4.876 -19.953  1.00  0.00     0.210 HD
ENDBRANCH   8   9
ENDBRANCH   3   8
BRANCH   4  11
ATOM     11  O   UNL     1       4.388   3.423 -17.291  1.00  0.00    -0.387 OA
ATOM     12  H   UNL     1       3.751   4.060 -16.875  1.00  0.00     0.211 HD
ENDBRANCH   4  11
BRANCH   6  13
ATOM     13  O   UNL     1       5.985   1.320 -17.209  1.00  0.00    -0.387 OA
ATOM     14  H   UNL     1       6.529   0.585 -16.823  1.00  0.00     0.211 HD
ENDBRANCH   6  13
BRANCH   7  15
ATOM     15  O   UNL     1       2.964  -0.676 -17.192  1.00  0.00    -0.385 OA
ATOM     16  H   UNL     1       2.614   0.047 -16.610  1.00  0.00     0.211 HD
ENDBRANCH   7  15
ENDBRANCH   1   2
BRANCH   1  17
ATOM     17  C   UNL     1       3.561  -1.378 -21.062  1.00  0.00     0.224 C 
ATOM     18  C   UNL     1       5.074  -1.280 -21.379  1.00  0.00     0.208 C 
ATOM     19  O   UNL     1       2.878  -0.547 -21.984  1.00  0.00    -0.337 OA
ATOM     20  C   UNL     1       5.117  -0.801 -22.807  1.00  0.00     0.180 C 
ATOM     21  C   UNL     1       3.787  -0.067 -22.951  1.00  0.00     0.179 C 
BRANCH  17  22
ATOM     22  C   UNL     1       2.984  -2.804 -21.250  1.00  0.00     0.225 C 
BRANCH  22  23
ATOM     23  O   UNL     1       3.569  -3.409 -22.370  1.00  0.00    -0.391 OA
ATOM     24  H   UNL     1       2.907  -3.327 -23.106  1.00  0.00     0.210 HD
ENDBRANCH  22  23
ENDBRANCH  17  22
BRANCH  18  25
ATOM     25  O   UNL     1       5.748  -2.503 -21.218  1.00  0.00    -0.385 OA
ATOM     26  H   UNL     1       6.712  -2.318 -21.371  1.00  0.00     0.211 HD
ENDBRANCH  18  25
BRANCH  20  27
ATOM     27  O   UNL     1       5.166  -1.894 -23.691  1.00  0.00    -0.387 OA
ATOM     28  H   UNL     1       4.304  -2.376 -23.592  1.00  0.00     0.211 HD
ENDBRANCH  20  27
BRANCH  21  29
ATOM     29  C   UNL     1       3.935   1.455 -22.809  1.00  0.00     0.191 C 
BRANCH  29  30
ATOM     30  O   UNL     1       5.046   1.914 -23.531  1.00  0.00    -0.394 OA
ATOM     31  H   UNL     1       4.689   2.275 -24.385  1.00  0.00     0.210 HD
ENDBRANCH  29  30
ENDBRANCH  21  29
ENDBRANCH   1  17
TORSDOF 13
ENDMDL
