MODEL 1
REMARK VINA RESULT:    -5.391      0.000      0.000
REMARK INTER + INTRA:         -11.275
REMARK INTER:                 -10.118
REMARK INTRA:                  -1.156
REMARK UNBOUND:                -1.156
REMARK SMILES CCCCCCCCC=CCCCCCCCC(=O)[O-]
REMARK SMILES IDX 10 1 9 2 11 3 12 4 13 5 14 6 15 7 16 8 17 9 18 10 19 11
REMARK SMILES IDX 20 12 8 13 7 14 6 15 5 16 4 17 3 18 2 19 1 20
REMARK H PARENT
REMARK Flexibility Score: inf
ROOT
ATOM      1  C   UNL     1       7.009  -7.256  18.142  1.00  0.00    -0.031 C 
ATOM      2  C   UNL     1       6.495  -7.045  19.361  1.00  0.00    -0.031 C 
ENDROOT
BRANCH   1   3
ATOM      3  C   UNL     1       6.186  -7.080  16.893  1.00  0.00     0.027 C 
BRANCH   3   4
ATOM      4  C   UNL     1       6.751  -7.875  15.705  1.00  0.00     0.004 C 
BRANCH   4   5
ATOM      5  C   UNL     1       5.893  -7.710  14.439  1.00  0.00     0.000 C 
BRANCH   5   6
ATOM      6  C   UNL     1       6.510  -6.728  13.429  1.00  0.00     0.000 C 
BRANCH   6   7
ATOM      7  C   UNL     1       5.624  -5.492  13.195  1.00  0.00     0.000 C 
BRANCH   7   8
ATOM      8  C   UNL     1       5.768  -4.431  14.302  1.00  0.00     0.006 C 
BRANCH   8   9
ATOM      9  C   UNL     1       4.629  -3.396  14.329  1.00  0.00     0.053 C 
BRANCH   9  10
ATOM     10  C   UNL     1       5.114  -2.008  14.613  1.00  0.00     0.041 C 
ATOM     11  O   UNL     1       6.319  -1.702  14.410  1.00  0.00    -0.550 OA
ATOM     12  O   UNL     1       4.229  -1.042  15.075  1.00  0.00    -0.550 OA
ENDBRANCH   9  10
ENDBRANCH   8   9
ENDBRANCH   7   8
ENDBRANCH   6   7
ENDBRANCH   5   6
ENDBRANCH   4   5
ENDBRANCH   3   4
ENDBRANCH   1   3
BRANCH   2  13
ATOM     13  C   UNL     1       7.338  -7.225  20.593  1.00  0.00     0.027 C 
BRANCH  13  14
ATOM     14  C   UNL     1       6.834  -6.342  21.743  1.00  0.00     0.004 C 
BRANCH  14  15
ATOM     15  C   UNL     1       6.209  -5.026  21.252  1.00  0.00     0.000 C 
BRANCH  15  16
ATOM     16  C   UNL     1       6.764  -3.797  21.991  1.00  0.00     0.000 C 
BRANCH  16  17
ATOM     17  C   UNL     1       7.694  -4.178  23.155  1.00  0.00    -0.000 C 
BRANCH  17  18
ATOM     18  C   UNL     1       7.396  -3.381  24.437  1.00  0.00    -0.000 C 
BRANCH  18  19
ATOM     19  C   UNL     1       6.862  -4.270  25.571  1.00  0.00    -0.003 C 
ATOM     20  C   UNL     1       5.704  -5.162  25.127  1.00  0.00     0.004 C 
ENDBRANCH  18  19
ENDBRANCH  17  18
ENDBRANCH  16  17
ENDBRANCH  15  16
ENDBRANCH  14  15
ENDBRANCH  13  14
ENDBRANCH   2  13
TORSDOF 15
ENDMDL
MODEL 2
REMARK VINA RESULT:    -5.371      1.104      1.504
REMARK INTER + INTRA:         -11.237
REMARK INTER:                  -9.788
REMARK INTRA:                  -1.449
REMARK UNBOUND:                -1.156
REMARK SMILES CCCCCCCCC=CCCCCCCCC(=O)[O-]
REMARK SMILES IDX 10 1 9 2 11 3 12 4 13 5 14 6 15 7 16 8 17 9 18 10 19 11
REMARK SMILES IDX 20 12 8 13 7 14 6 15 5 16 4 17 3 18 2 19 1 20
REMARK H PARENT
REMARK Flexibility Score: inf
ROOT
ATOM      1  C   UNL     1       5.821  -7.442  18.728  1.00  0.00    -0.031 C 
ATOM      2  C   UNL     1       7.041  -7.252  19.248  1.00  0.00    -0.031 C 
ENDROOT
BRANCH   1   3
ATOM      3  C   UNL     1       5.576  -7.386  17.243  1.00  0.00     0.027 C 
BRANCH   3   4
ATOM      4  C   UNL     1       6.739  -7.987  16.437  1.00  0.00     0.004 C 
BRANCH   4   5
ATOM      5  C   UNL     1       6.654  -7.626  14.944  1.00  0.00     0.000 C 
BRANCH   5   6
ATOM      6  C   UNL     1       5.207  -7.584  14.426  1.00  0.00     0.000 C 
BRANCH   6   7
ATOM      7  C   UNL     1       4.980  -6.451  13.410  1.00  0.00     0.000 C 
BRANCH   7   8
ATOM      8  C   UNL     1       6.240  -5.598  13.169  1.00  0.00     0.006 C 
BRANCH   8   9
ATOM      9  C   UNL     1       5.957  -4.093  13.013  1.00  0.00     0.053 C 
BRANCH   9  10
ATOM     10  C   UNL     1       6.262  -3.313  14.255  1.00  0.00     0.041 C 
ATOM     11  O   UNL     1       6.613  -2.106  14.177  1.00  0.00    -0.550 OA
ATOM     12  O   UNL     1       6.130  -3.910  15.502  1.00  0.00    -0.550 OA
ENDBRANCH   9  10
ENDBRANCH   8   9
ENDBRANCH   7   8
ENDBRANCH   6   7
ENDBRANCH   5   6
ENDBRANCH   4   5
ENDBRANCH   3   4
ENDBRANCH   1   3
BRANCH   2  13
ATOM     13  C   UNL     1       7.260  -7.315  20.735  1.00  0.00     0.027 C 
BRANCH  13  14
ATOM     14  C   UNL     1       5.930  -7.223  21.495  1.00  0.00     0.004 C 
BRANCH  14  15
ATOM     15  C   UNL     1       5.856  -5.995  22.417  1.00  0.00     0.000 C 
BRANCH  15  16
ATOM     16  C   UNL     1       5.841  -4.670  21.637  1.00  0.00     0.000 C 
BRANCH  16  17
ATOM     17  C   UNL     1       6.943  -3.702  22.097  1.00  0.00    -0.000 C 
BRANCH  17  18
ATOM     18  C   UNL     1       7.760  -4.251  23.280  1.00  0.00    -0.000 C 
BRANCH  18  19
ATOM     19  C   UNL     1       7.492  -3.487  24.585  1.00  0.00    -0.003 C 
ATOM     20  C   UNL     1       6.730  -4.322  25.613  1.00  0.00     0.004 C 
ENDBRANCH  18  19
ENDBRANCH  17  18
ENDBRANCH  16  17
ENDBRANCH  15  16
ENDBRANCH  14  15
ENDBRANCH  13  14
ENDBRANCH   2  13
TORSDOF 15
ENDMDL
MODEL 3
REMARK VINA RESULT:    -5.334      1.645      2.018
REMARK INTER + INTRA:         -11.167
REMARK INTER:                 -10.130
REMARK INTRA:                  -1.037
REMARK UNBOUND:                -1.156
REMARK SMILES CCCCCCCCC=CCCCCCCCC(=O)[O-]
REMARK SMILES IDX 10 1 9 2 11 3 12 4 13 5 14 6 15 7 16 8 17 9 18 10 19 11
REMARK SMILES IDX 20 12 8 13 7 14 6 15 5 16 4 17 3 18 2 19 1 20
REMARK H PARENT
REMARK Flexibility Score: inf
ROOT
ATOM      1  C   UNL     1       7.000  -7.242  18.407  1.00  0.00    -0.031 C 
ATOM      2  C   UNL     1       5.906  -7.716  19.019  1.00  0.00    -0.031 C 
ENDROOT
BRANCH   1   3
ATOM      3  C   UNL     1       7.021  -6.964  16.927  1.00  0.00     0.027 C 
BRANCH   3   4
ATOM      4  C   UNL     1       6.756  -8.228  16.093  1.00  0.00     0.004 C 
BRANCH   4   5
ATOM      5  C   UNL     1       5.834  -7.946  14.894  1.00  0.00     0.000 C 
BRANCH   5   6
ATOM      6  C   UNL     1       6.492  -7.037  13.842  1.00  0.00     0.000 C 
BRANCH   6   7
ATOM      7  C   UNL     1       5.632  -5.806  13.510  1.00  0.00     0.000 C 
BRANCH   7   8
ATOM      8  C   UNL     1       6.394  -4.744  12.694  1.00  0.00     0.006 C 
BRANCH   8   9
ATOM      9  C   UNL     1       5.813  -4.497  11.290  1.00  0.00     0.053 C 
BRANCH   9  10
ATOM     10  C   UNL     1       5.047  -3.214  11.196  1.00  0.00     0.041 C 
ATOM     11  O   UNL     1       4.519  -2.712  12.224  1.00  0.00    -0.550 OA
ATOM     12  O   UNL     1       4.938  -2.555   9.978  1.00  0.00    -0.550 OA
ENDBRANCH   9  10
ENDBRANCH   8   9
ENDBRANCH   7   8
ENDBRANCH   6   7
ENDBRANCH   5   6
ENDBRANCH   4   5
ENDBRANCH   3   4
ENDBRANCH   1   3
BRANCH   2  13
ATOM     13  C   UNL     1       5.909  -7.984  20.499  1.00  0.00     0.027 C 
BRANCH  13  14
ATOM     14  C   UNL     1       6.887  -7.051  21.229  1.00  0.00     0.004 C 
BRANCH  14  15
ATOM     15  C   UNL     1       6.172  -5.991  22.082  1.00  0.00     0.000 C 
BRANCH  15  16
ATOM     16  C   UNL     1       6.141  -4.611  21.405  1.00  0.00     0.000 C 
BRANCH  16  17
ATOM     17  C   UNL     1       6.974  -3.564  22.162  1.00  0.00    -0.000 C 
BRANCH  17  18
ATOM     18  C   UNL     1       7.743  -4.165  23.351  1.00  0.00    -0.000 C 
BRANCH  18  19
ATOM     19  C   UNL     1       7.313  -3.560  24.697  1.00  0.00    -0.003 C 
ATOM     20  C   UNL     1       6.483  -4.527  25.540  1.00  0.00     0.004 C 
ENDBRANCH  18  19
ENDBRANCH  17  18
ENDBRANCH  16  17
ENDBRANCH  15  16
ENDBRANCH  14  15
ENDBRANCH  13  14
ENDBRANCH   2  13
TORSDOF 15
ENDMDL
MODEL 4
REMARK VINA RESULT:    -5.190      2.686      6.688
REMARK INTER + INTRA:         -10.897
REMARK INTER:                  -8.832
REMARK INTRA:                  -2.065
REMARK UNBOUND:                -1.156
REMARK SMILES CCCCCCCCC=CCCCCCCCC(=O)[O-]
REMARK SMILES IDX 10 1 9 2 11 3 12 4 13 5 14 6 15 7 16 8 17 9 18 10 19 11
REMARK SMILES IDX 20 12 8 13 7 14 6 15 5 16 4 17 3 18 2 19 1 20
REMARK H PARENT
REMARK Flexibility Score: inf
ROOT
ATOM      1  C   UNL     1       5.879  -5.428  24.760  1.00  0.00    -0.031 C 
ATOM      2  C   UNL     1       4.610  -5.805  24.971  1.00  0.00    -0.031 C 
ENDROOT
BRANCH   1   3
ATOM      3  C   UNL     1       6.558  -4.407  25.634  1.00  0.00     0.027 C 
BRANCH   3   4
ATOM      4  C   UNL     1       7.455  -3.454  24.829  1.00  0.00     0.004 C 
BRANCH   4   5
ATOM      5  C   UNL     1       7.783  -4.011  23.433  1.00  0.00     0.000 C 
BRANCH   5   6
ATOM      6  C   UNL     1       7.199  -3.151  22.301  1.00  0.00     0.000 C 
BRANCH   6   7
ATOM      7  C   UNL     1       6.287  -3.960  21.361  1.00  0.00     0.000 C 
BRANCH   7   8
ATOM      8  C   UNL     1       5.717  -3.116  20.204  1.00  0.00     0.006 C 
BRANCH   8   9
ATOM      9  C   UNL     1       4.262  -3.459  19.837  1.00  0.00     0.053 C 
BRANCH   9  10
ATOM     10  C   UNL     1       4.013  -3.424  18.361  1.00  0.00     0.041 C 
ATOM     11  O   UNL     1       3.402  -2.451  17.843  1.00  0.00    -0.550 OA
ATOM     12  O   UNL     1       4.478  -4.452  17.552  1.00  0.00    -0.550 OA
ENDBRANCH   9  10
ENDBRANCH   8   9
ENDBRANCH   7   8
ENDBRANCH   6   7
ENDBRANCH   5   6
ENDBRANCH   4   5
ENDBRANCH   3   4
ENDBRANCH   1   3
BRANCH   2  13
ATOM     13  C   UNL     1       3.955  -6.827  24.084  1.00  0.00     0.027 C 
BRANCH  13  14
ATOM     14  C   UNL     1       4.458  -6.710  22.639  1.00  0.00     0.004 C 
BRANCH  14  15
ATOM     15  C   UNL     1       4.173  -7.971  21.807  1.00  0.00     0.000 C 
BRANCH  15  16
ATOM     16  C   UNL     1       5.434  -8.521  21.118  1.00  0.00     0.000 C 
BRANCH  16  17
ATOM     17  C   UNL     1       6.652  -7.600  21.294  1.00  0.00    -0.000 C 
BRANCH  17  18
ATOM     18  C   UNL     1       7.298  -7.208  19.953  1.00  0.00    -0.000 C 
BRANCH  18  19
ATOM     19  C   UNL     1       6.293  -7.218  18.791  1.00  0.00    -0.003 C 
ATOM     20  C   UNL     1       6.972  -7.323  17.425  1.00  0.00     0.004 C 
ENDBRANCH  18  19
ENDBRANCH  17  18
ENDBRANCH  16  17
ENDBRANCH  15  16
ENDBRANCH  14  15
ENDBRANCH  13  14
ENDBRANCH   2  13
TORSDOF 15
ENDMDL
MODEL 5
REMARK VINA RESULT:    -5.062      1.699      2.238
REMARK INTER + INTRA:         -10.657
REMARK INTER:                  -8.875
REMARK INTRA:                  -1.783
REMARK UNBOUND:                -1.156
REMARK SMILES CCCCCCCCC=CCCCCCCCC(=O)[O-]
REMARK SMILES IDX 10 1 9 2 11 3 12 4 13 5 14 6 15 7 16 8 17 9 18 10 19 11
REMARK SMILES IDX 20 12 8 13 7 14 6 15 5 16 4 17 3 18 2 19 1 20
REMARK H PARENT
REMARK Flexibility Score: inf
ROOT
ATOM      1  C   UNL     1       6.296  -7.886  17.236  1.00  0.00    -0.031 C 
ATOM      2  C   UNL     1       6.751  -7.385  18.393  1.00  0.00    -0.031 C 
ENDROOT
BRANCH   1   3
ATOM      3  C   UNL     1       7.009  -7.642  15.933  1.00  0.00     0.027 C 
BRANCH   3   4
ATOM      4  C   UNL     1       6.076  -7.793  14.721  1.00  0.00     0.004 C 
BRANCH   4   5
ATOM      5  C   UNL     1       5.984  -6.497  13.897  1.00  0.00     0.000 C 
BRANCH   5   6
ATOM      6  C   UNL     1       5.084  -5.439  14.556  1.00  0.00     0.000 C 
BRANCH   6   7
ATOM      7  C   UNL     1       5.868  -4.190  14.994  1.00  0.00     0.000 C 
BRANCH   7   8
ATOM      8  C   UNL     1       6.086  -4.122  16.518  1.00  0.00     0.006 C 
BRANCH   8   9
ATOM      9  C   UNL     1       4.837  -4.472  17.346  1.00  0.00     0.053 C 
BRANCH   9  10
ATOM     10  C   UNL     1       4.119  -3.260  17.854  1.00  0.00     0.041 C 
ATOM     11  O   UNL     1       4.011  -3.058  19.093  1.00  0.00    -0.550 OA
ATOM     12  O   UNL     1       3.593  -2.337  16.960  1.00  0.00    -0.550 OA
ENDBRANCH   9  10
ENDBRANCH   8   9
ENDBRANCH   7   8
ENDBRANCH   6   7
ENDBRANCH   5   6
ENDBRANCH   4   5
ENDBRANCH   3   4
ENDBRANCH   1   3
BRANCH   2  13
ATOM     13  C   UNL     1       6.022  -7.644  19.682  1.00  0.00     0.027 C 
BRANCH  13  14
ATOM     14  C   UNL     1       6.948  -7.447  20.891  1.00  0.00     0.004 C 
BRANCH  14  15
ATOM     15  C   UNL     1       6.403  -6.418  21.895  1.00  0.00     0.000 C 
BRANCH  15  16
ATOM     16  C   UNL     1       6.161  -5.040  21.256  1.00  0.00     0.000 C 
BRANCH  16  17
ATOM     17  C   UNL     1       6.919  -3.914  21.976  1.00  0.00    -0.000 C 
BRANCH  17  18
ATOM     18  C   UNL     1       7.597  -4.389  23.273  1.00  0.00    -0.000 C 
BRANCH  18  19
ATOM     19  C   UNL     1       7.367  -3.424  24.445  1.00  0.00    -0.003 C 
ATOM     20  C   UNL     1       6.890  -4.136  25.711  1.00  0.00     0.004 C 
ENDBRANCH  18  19
ENDBRANCH  17  18
ENDBRANCH  16  17
ENDBRANCH  15  16
ENDBRANCH  14  15
ENDBRANCH  13  14
ENDBRANCH   2  13
TORSDOF 15
ENDMDL
MODEL 6
REMARK VINA RESULT:    -5.020      3.313      7.012
REMARK INTER + INTRA:         -10.578
REMARK INTER:                  -7.650
REMARK INTRA:                  -2.929
REMARK UNBOUND:                -1.156
REMARK SMILES CCCCCCCCC=CCCCCCCCC(=O)[O-]
REMARK SMILES IDX 10 1 9 2 11 3 12 4 13 5 14 6 15 7 16 8 17 9 18 10 19 11
REMARK SMILES IDX 20 12 8 13 7 14 6 15 5 16 4 17 3 18 2 19 1 20
REMARK H PARENT
REMARK Flexibility Score: inf
ROOT
ATOM      1  C   UNL     1       6.362  -7.237  14.156  1.00  0.00    -0.031 C 
ATOM      2  C   UNL     1       5.686  -6.491  13.272  1.00  0.00    -0.031 C 
ENDROOT
BRANCH   1   3
ATOM      3  C   UNL     1       5.732  -8.423  14.836  1.00  0.00     0.027 C 
BRANCH   3   4
ATOM      4  C   UNL     1       6.292  -8.650  16.249  1.00  0.00     0.004 C 
BRANCH   4   5
ATOM      5  C   UNL     1       7.072  -7.428  16.765  1.00  0.00     0.000 C 
BRANCH   5   6
ATOM      6  C   UNL     1       6.963  -7.256  18.288  1.00  0.00     0.000 C 
BRANCH   6   7
ATOM      7  C   UNL     1       5.672  -7.869  18.858  1.00  0.00     0.000 C 
BRANCH   7   8
ATOM      8  C   UNL     1       5.083  -7.054  20.025  1.00  0.00     0.006 C 
BRANCH   8   9
ATOM      9  C   UNL     1       5.896  -5.797  20.383  1.00  0.00     0.053 C 
BRANCH   9  10
ATOM     10  C   UNL     1       6.277  -5.745  21.830  1.00  0.00     0.041 C 
ATOM     11  O   UNL     1       7.333  -5.159  22.188  1.00  0.00    -0.550 OA
ATOM     12  O   UNL     1       5.453  -6.321  22.788  1.00  0.00    -0.550 OA
ENDBRANCH   9  10
ENDBRANCH   8   9
ENDBRANCH   7   8
ENDBRANCH   6   7
ENDBRANCH   5   6
ENDBRANCH   4   5
ENDBRANCH   3   4
ENDBRANCH   1   3
BRANCH   2  13
ATOM     13  C   UNL     1       6.338  -5.311  12.604  1.00  0.00     0.027 C 
BRANCH  13  14
ATOM     14  C   UNL     1       5.586  -4.011  12.921  1.00  0.00     0.004 C 
BRANCH  14  15
ATOM     15  C   UNL     1       6.382  -3.075  13.845  1.00  0.00     0.000 C 
BRANCH  15  16
ATOM     16  C   UNL     1       5.674  -2.830  15.189  1.00  0.00     0.000 C 
BRANCH  16  17
ATOM     17  C   UNL     1       6.164  -3.779  16.295  1.00  0.00    -0.000 C 
BRANCH  17  18
ATOM     18  C   UNL     1       5.008  -4.387  17.109  1.00  0.00    -0.000 C 
BRANCH  18  19
ATOM     19  C   UNL     1       4.048  -5.214  16.240  1.00  0.00    -0.003 C 
ATOM     20  C   UNL     1       3.011  -5.975  17.066  1.00  0.00     0.004 C 
ENDBRANCH  18  19
ENDBRANCH  17  18
ENDBRANCH  16  17
ENDBRANCH  15  16
ENDBRANCH  14  15
ENDBRANCH  13  14
ENDBRANCH   2  13
TORSDOF 15
ENDMDL
MODEL 7
REMARK VINA RESULT:    -5.006      2.964      7.908
REMARK INTER + INTRA:         -10.552
REMARK INTER:                  -8.442
REMARK INTRA:                  -2.110
REMARK UNBOUND:                -1.156
REMARK SMILES CCCCCCCCC=CCCCCCCCC(=O)[O-]
REMARK SMILES IDX 10 1 9 2 11 3 12 4 13 5 14 6 15 7 16 8 17 9 18 10 19 11
REMARK SMILES IDX 20 12 8 13 7 14 6 15 5 16 4 17 3 18 2 19 1 20
REMARK H PARENT
REMARK Flexibility Score: inf
ROOT
ATOM      1  C   UNL     1       6.522  -7.262  14.088  1.00  0.00    -0.031 C 
ATOM      2  C   UNL     1       6.044  -6.502  13.093  1.00  0.00    -0.031 C 
ENDROOT
BRANCH   1   3
ATOM      3  C   UNL     1       5.608  -8.017  15.016  1.00  0.00     0.027 C 
BRANCH   3   4
ATOM      4  C   UNL     1       6.283  -8.353  16.355  1.00  0.00     0.004 C 
BRANCH   4   5
ATOM      5  C   UNL     1       7.014  -7.138  16.954  1.00  0.00     0.000 C 
BRANCH   5   6
ATOM      6  C   UNL     1       7.123  -7.208  18.485  1.00  0.00     0.000 C 
BRANCH   6   7
ATOM      7  C   UNL     1       5.823  -7.703  19.144  1.00  0.00     0.000 C 
BRANCH   7   8
ATOM      8  C   UNL     1       5.864  -7.631  20.682  1.00  0.00     0.006 C 
BRANCH   8   9
ATOM      9  C   UNL     1       7.065  -6.848  21.241  1.00  0.00     0.053 C 
BRANCH   9  10
ATOM     10  C   UNL     1       6.684  -5.495  21.760  1.00  0.00     0.041 C 
ATOM     11  O   UNL     1       7.463  -4.867  22.526  1.00  0.00    -0.550 OA
ATOM     12  O   UNL     1       5.483  -4.915  21.377  1.00  0.00    -0.550 OA
ENDBRANCH   9  10
ENDBRANCH   8   9
ENDBRANCH   7   8
ENDBRANCH   6   7
ENDBRANCH   5   6
ENDBRANCH   4   5
ENDBRANCH   3   4
ENDBRANCH   1   3
BRANCH   2  13
ATOM     13  C   UNL     1       6.978  -5.759  12.178  1.00  0.00     0.027 C 
BRANCH  13  14
ATOM     14  C   UNL     1       6.200  -4.953  11.129  1.00  0.00     0.004 C 
BRANCH  14  15
ATOM     15  C   UNL     1       4.817  -4.503  11.630  1.00  0.00     0.000 C 
BRANCH  15  16
ATOM     16  C   UNL     1       4.763  -2.998  11.940  1.00  0.00     0.000 C 
BRANCH  16  17
ATOM     17  C   UNL     1       4.678  -2.708  13.447  1.00  0.00    -0.000 C 
BRANCH  17  18
ATOM     18  C   UNL     1       6.061  -2.654  14.119  1.00  0.00    -0.000 C 
BRANCH  18  19
ATOM     19  C   UNL     1       6.131  -3.511  15.392  1.00  0.00    -0.003 C 
ATOM     20  C   UNL     1       4.825  -4.253  15.676  1.00  0.00     0.004 C 
ENDBRANCH  18  19
ENDBRANCH  17  18
ENDBRANCH  16  17
ENDBRANCH  15  16
ENDBRANCH  14  15
ENDBRANCH  13  14
ENDBRANCH   2  13
TORSDOF 15
ENDMDL
MODEL 8
REMARK VINA RESULT:    -4.959      1.423      1.851
REMARK INTER + INTRA:         -10.464
REMARK INTER:                  -9.125
REMARK INTRA:                  -1.340
REMARK UNBOUND:                -1.156
REMARK SMILES CCCCCCCCC=CCCCCCCCC(=O)[O-]
REMARK SMILES IDX 10 1 9 2 11 3 12 4 13 5 14 6 15 7 16 8 17 9 18 10 19 11
REMARK SMILES IDX 20 12 8 13 7 14 6 15 5 16 4 17 3 18 2 19 1 20
REMARK H PARENT
REMARK Flexibility Score: inf
ROOT
ATOM      1  C   UNL     1       5.249  -6.911  18.406  1.00  0.00    -0.031 C 
ATOM      2  C   UNL     1       5.597  -6.313  19.553  1.00  0.00    -0.031 C 
ENDROOT
BRANCH   1   3
ATOM      3  C   UNL     1       5.363  -8.401  18.223  1.00  0.00     0.027 C 
BRANCH   3   4
ATOM      4  C   UNL     1       5.635  -8.791  16.762  1.00  0.00     0.004 C 
BRANCH   4   5
ATOM      5  C   UNL     1       6.697  -7.886  16.111  1.00  0.00     0.000 C 
BRANCH   5   6
ATOM      6  C   UNL     1       6.464  -7.690  14.605  1.00  0.00     0.000 C 
BRANCH   6   7
ATOM      7  C   UNL     1       6.072  -6.244  14.255  1.00  0.00     0.000 C 
BRANCH   7   8
ATOM      8  C   UNL     1       4.694  -5.843  14.815  1.00  0.00     0.006 C 
BRANCH   8   9
ATOM      9  C   UNL     1       4.563  -4.345  15.144  1.00  0.00     0.053 C 
BRANCH   9  10
ATOM     10  C   UNL     1       5.886  -3.686  15.384  1.00  0.00     0.041 C 
ATOM     11  O   UNL     1       6.483  -3.842  16.482  1.00  0.00    -0.550 OA
ATOM     12  O   UNL     1       6.474  -2.920  14.386  1.00  0.00    -0.550 OA
ENDBRANCH   9  10
ENDBRANCH   8   9
ENDBRANCH   7   8
ENDBRANCH   6   7
ENDBRANCH   5   6
ENDBRANCH   4   5
ENDBRANCH   3   4
ENDBRANCH   1   3
BRANCH   2  13
ATOM     13  C   UNL     1       5.473  -4.822  19.711  1.00  0.00     0.027 C 
BRANCH  13  14
ATOM     14  C   UNL     1       5.807  -4.388  21.145  1.00  0.00     0.004 C 
BRANCH  14  15
ATOM     15  C   UNL     1       6.342  -2.949  21.221  1.00  0.00     0.000 C 
BRANCH  15  16
ATOM     16  C   UNL     1       7.375  -2.761  22.346  1.00  0.00     0.000 C 
BRANCH  16  17
ATOM     17  C   UNL     1       7.417  -3.955  23.313  1.00  0.00    -0.000 C 
BRANCH  17  18
ATOM     18  C   UNL     1       7.313  -3.529  24.787  1.00  0.00    -0.000 C 
BRANCH  18  19
ATOM     19  C   UNL     1       6.500  -4.522  25.631  1.00  0.00    -0.003 C 
ATOM     20  C   UNL     1       5.535  -5.359  24.791  1.00  0.00     0.004 C 
ENDBRANCH  18  19
ENDBRANCH  17  18
ENDBRANCH  16  17
ENDBRANCH  15  16
ENDBRANCH  14  15
ENDBRANCH  13  14
ENDBRANCH   2  13
TORSDOF 15
ENDMDL
MODEL 9
REMARK VINA RESULT:    -4.876      3.708      8.242
REMARK INTER + INTRA:         -10.307
REMARK INTER:                  -8.610
REMARK INTRA:                  -1.697
REMARK UNBOUND:                -1.156
REMARK SMILES CCCCCCCCC=CCCCCCCCC(=O)[O-]
REMARK SMILES IDX 10 1 9 2 11 3 12 4 13 5 14 6 15 7 16 8 17 9 18 10 19 11
REMARK SMILES IDX 20 12 8 13 7 14 6 15 5 16 4 17 3 18 2 19 1 20
REMARK H PARENT
REMARK Flexibility Score: inf
ROOT
ATOM      1  C   UNL     1       5.903  -7.381  18.132  1.00  0.00    -0.031 C 
ATOM      2  C   UNL     1       7.001  -7.323  17.366  1.00  0.00    -0.031 C 
ENDROOT
BRANCH   1   3
ATOM      3  C   UNL     1       5.888  -6.839  19.536  1.00  0.00     0.027 C 
BRANCH   3   4
ATOM      4  C   UNL     1       4.725  -5.863  19.773  1.00  0.00     0.004 C 
BRANCH   4   5
ATOM      5  C   UNL     1       4.999  -4.912  20.951  1.00  0.00     0.000 C 
BRANCH   5   6
ATOM      6  C   UNL     1       5.743  -3.637  20.520  1.00  0.00     0.000 C 
BRANCH   6   7
ATOM      7  C   UNL     1       6.713  -3.130  21.601  1.00  0.00     0.000 C 
BRANCH   7   8
ATOM      8  C   UNL     1       7.260  -4.259  22.495  1.00  0.00     0.006 C 
BRANCH   8   9
ATOM      9  C   UNL     1       7.678  -3.797  23.903  1.00  0.00     0.053 C 
BRANCH   9  10
ATOM     10  C   UNL     1       6.750  -4.284  24.972  1.00  0.00     0.041 C 
ATOM     11  O   UNL     1       6.741  -3.733  26.105  1.00  0.00    -0.550 OA
ATOM     12  O   UNL     1       5.873  -5.329  24.711  1.00  0.00    -0.550 OA
ENDBRANCH   9  10
ENDBRANCH   8   9
ENDBRANCH   7   8
ENDBRANCH   6   7
ENDBRANCH   5   6
ENDBRANCH   4   5
ENDBRANCH   3   4
ENDBRANCH   1   3
BRANCH   2  13
ATOM     13  C   UNL     1       6.990  -7.869  15.965  1.00  0.00     0.027 C 
BRANCH  13  14
ATOM     14  C   UNL     1       5.745  -7.402  15.198  1.00  0.00     0.004 C 
BRANCH  14  15
ATOM     15  C   UNL     1       6.076  -6.873  13.793  1.00  0.00     0.000 C 
BRANCH  15  16
ATOM     16  C   UNL     1       5.296  -5.594  13.445  1.00  0.00     0.000 C 
BRANCH  16  17
ATOM     17  C   UNL     1       6.221  -4.411  13.111  1.00  0.00    -0.000 C 
BRANCH  17  18
ATOM     18  C   UNL     1       6.224  -3.333  14.209  1.00  0.00    -0.000 C 
BRANCH  18  19
ATOM     19  C   UNL     1       5.402  -3.744  15.440  1.00  0.00    -0.003 C 
ATOM     20  C   UNL     1       6.256  -3.883  16.700  1.00  0.00     0.004 C 
ENDBRANCH  18  19
ENDBRANCH  17  18
ENDBRANCH  16  17
ENDBRANCH  15  16
ENDBRANCH  14  15
ENDBRANCH  13  14
ENDBRANCH   2  13
TORSDOF 15
ENDMDL
