MODEL 1
REMARK VINA RESULT:    -8.246      0.000      0.000
REMARK INTER + INTRA:          -9.964
REMARK INTER:                  -9.933
REMARK INTRA:                  -0.031
REMARK UNBOUND:                -0.031
REMARK SMILES Oc1cc(O)c2c(c1)O[C@@H](c1ccc(O)c(O)c1)[C@H](O)C2
REMARK SMILES IDX 21 1 19 2 10 3 9 4 7 5 8 6 2 7 3 8 4 9 6 10 20 11 11 13
REMARK SMILES IDX 18 14 12 15 16 16 13 17 14 18 17 19 15 21 5 23 1 25
REMARK H PARENT 20 12 17 20 15 22 5 24 1 26
REMARK Flexibility Score: inf
ROOT
ATOM      1  C   UNL     1     -35.464  -4.247 -18.420  1.00  0.00     0.079 C 
ATOM      2  C   UNL     1     -36.332  -4.928 -17.345  1.00  0.00     0.164 C 
ATOM      3  C   UNL     1     -35.625  -6.191 -16.811  1.00  0.00     0.232 C 
ATOM      4  O   UNL     1     -34.335  -5.842 -16.309  1.00  0.00    -0.482 OA
ATOM      5  C   UNL     1     -33.520  -4.892 -16.936  1.00  0.00     0.131 A 
ATOM      6  C   UNL     1     -32.201  -4.741 -16.501  1.00  0.00     0.093 A 
ATOM      7  C   UNL     1     -31.357  -3.814 -17.114  1.00  0.00     0.122 A 
ATOM      8  C   UNL     1     -31.834  -3.038 -18.178  1.00  0.00     0.092 A 
ATOM      9  C   UNL     1     -33.152  -3.175 -18.627  1.00  0.00     0.126 A 
ATOM     10  C   UNL     1     -34.024  -4.084 -17.979  1.00  0.00     0.039 A 
ENDROOT
BRANCH   2  11
ATOM     11  O   UNL     1     -37.605  -5.231 -17.858  1.00  0.00    -0.389 OA
ATOM     12  H   UNL     1     -37.790  -4.599 -18.601  1.00  0.00     0.211 HD
ENDBRANCH   2  11
BRANCH   3  13
ATOM     13  C   UNL     1     -36.435  -6.848 -15.719  1.00  0.00    -0.001 A 
ATOM     14  C   UNL     1     -37.585  -7.593 -16.032  1.00  0.00     0.057 A 
ATOM     15  C   UNL     1     -36.020  -6.762 -14.381  1.00  0.00     0.012 A 
ATOM     16  C   UNL     1     -38.321  -8.226 -15.023  1.00  0.00     0.157 A 
ATOM     17  C   UNL     1     -36.752  -7.393 -13.371  1.00  0.00     0.050 A 
ATOM     18  C   UNL     1     -37.905  -8.124 -13.686  1.00  0.00     0.157 A 
BRANCH  16  19
ATOM     19  O   UNL     1     -39.461  -8.951 -15.370  1.00  0.00    -0.504 OA
ATOM     20  H   UNL     1     -39.974  -9.503 -14.693  1.00  0.00     0.293 HD
ENDBRANCH  16  19
BRANCH  18  21
ATOM     21  O   UNL     1     -38.633  -8.751 -12.676  1.00  0.00    -0.504 OA
ATOM     22  H   UNL     1     -38.208  -9.432 -12.059  1.00  0.00     0.293 HD
ENDBRANCH  18  21
ENDBRANCH   3  13
BRANCH   9  23
ATOM     23  O   UNL     1     -33.556  -2.406 -19.720  1.00  0.00    -0.507 OA
ATOM     24  H   UNL     1     -33.504  -2.731 -20.677  1.00  0.00     0.293 HD
ENDBRANCH   9  23
BRANCH   7  25
ATOM     25  O   UNL     1     -30.046  -3.675 -16.666  1.00  0.00    -0.508 OA
ATOM     26  H   UNL     1     -29.759  -4.008 -15.753  1.00  0.00     0.293 HD
ENDBRANCH   7  25
TORSDOF 6
ENDMDL
MODEL 2
REMARK VINA RESULT:    -8.244      1.934      3.247
REMARK INTER + INTRA:          -9.961
REMARK INTER:                  -9.699
REMARK INTRA:                  -0.262
REMARK UNBOUND:                -0.031
REMARK SMILES Oc1cc(O)c2c(c1)O[C@@H](c1ccc(O)c(O)c1)[C@H](O)C2
REMARK SMILES IDX 21 1 19 2 10 3 9 4 7 5 8 6 2 7 3 8 4 9 6 10 20 11 11 13
REMARK SMILES IDX 18 14 12 15 16 16 13 17 14 18 17 19 15 21 5 23 1 25
REMARK H PARENT 20 12 17 20 15 22 5 24 1 26
REMARK Flexibility Score: inf
ROOT
ATOM      1  C   UNL     1     -34.499  -5.051 -14.446  1.00  0.00     0.079 C 
ATOM      2  C   UNL     1     -35.481  -6.114 -13.920  1.00  0.00     0.164 C 
ATOM      3  C   UNL     1     -36.844  -5.979 -14.630  1.00  0.00     0.232 C 
ATOM      4  O   UNL     1     -36.661  -6.078 -16.042  1.00  0.00    -0.482 OA
ATOM      5  C   UNL     1     -35.561  -5.510 -16.695  1.00  0.00     0.131 A 
ATOM      6  C   UNL     1     -35.545  -5.481 -18.092  1.00  0.00     0.093 A 
ATOM      7  C   UNL     1     -34.471  -4.908 -18.774  1.00  0.00     0.122 A 
ATOM      8  C   UNL     1     -33.407  -4.350 -18.053  1.00  0.00     0.092 A 
ATOM      9  C   UNL     1     -33.406  -4.370 -16.654  1.00  0.00     0.126 A 
ATOM     10  C   UNL     1     -34.474  -4.989 -15.959  1.00  0.00     0.039 A 
ENDROOT
BRANCH   2  11
ATOM     11  O   UNL     1     -35.618  -6.014 -12.524  1.00  0.00    -0.389 OA
ATOM     12  H   UNL     1     -35.128  -5.201 -12.231  1.00  0.00     0.211 HD
ENDBRANCH   2  11
BRANCH   3  13
ATOM     13  C   UNL     1     -37.808  -7.045 -14.167  1.00  0.00    -0.001 A 
ATOM     14  C   UNL     1     -39.164  -6.740 -13.952  1.00  0.00     0.057 A 
ATOM     15  C   UNL     1     -37.370  -8.368 -13.991  1.00  0.00     0.012 A 
ATOM     16  C   UNL     1     -40.064  -7.733 -13.550  1.00  0.00     0.157 A 
ATOM     17  C   UNL     1     -38.266  -9.362 -13.590  1.00  0.00     0.050 A 
ATOM     18  C   UNL     1     -39.614  -9.050 -13.365  1.00  0.00     0.157 A 
BRANCH  16  19
ATOM     19  O   UNL     1     -41.399  -7.391 -13.340  1.00  0.00    -0.504 OA
ATOM     20  H   UNL     1     -42.053  -8.023 -12.893  1.00  0.00     0.293 HD
ENDBRANCH  16  19
BRANCH  18  21
ATOM     21  O   UNL     1     -40.504 -10.045 -12.963  1.00  0.00    -0.504 OA
ATOM     22  H   UNL     1     -41.405 -10.164 -13.412  1.00  0.00     0.293 HD
ENDBRANCH  18  21
ENDBRANCH   3  13
BRANCH   9  23
ATOM     23  O   UNL     1     -32.340  -3.759 -15.991  1.00  0.00    -0.507 OA
ATOM     24  H   UNL     1     -31.506  -4.255 -15.704  1.00  0.00     0.293 HD
ENDBRANCH   9  23
BRANCH   7  25
ATOM     25  O   UNL     1     -34.471  -4.890 -20.167  1.00  0.00    -0.508 OA
ATOM     26  H   UNL     1     -35.237  -5.283 -20.702  1.00  0.00     0.293 HD
ENDBRANCH   7  25
TORSDOF 6
ENDMDL
MODEL 3
REMARK VINA RESULT:    -7.840      0.957      1.403
REMARK INTER + INTRA:          -9.475
REMARK INTER:                  -9.132
REMARK INTRA:                  -0.343
REMARK UNBOUND:                -0.031
REMARK SMILES Oc1cc(O)c2c(c1)O[C@@H](c1ccc(O)c(O)c1)[C@H](O)C2
REMARK SMILES IDX 21 1 19 2 10 3 9 4 7 5 8 6 2 7 3 8 4 9 6 10 20 11 11 13
REMARK SMILES IDX 18 14 12 15 16 16 13 17 14 18 17 19 15 21 5 23 1 25
REMARK H PARENT 20 12 17 20 15 22 5 24 1 26
REMARK Flexibility Score: inf
ROOT
ATOM      1  C   UNL     1     -35.329  -4.268 -18.630  1.00  0.00     0.079 C 
ATOM      2  C   UNL     1     -36.235  -4.857 -17.533  1.00  0.00     0.164 C 
ATOM      3  C   UNL     1     -35.525  -6.030 -16.827  1.00  0.00     0.232 C 
ATOM      4  O   UNL     1     -34.274  -5.587 -16.301  1.00  0.00    -0.482 OA
ATOM      5  C   UNL     1     -33.452  -4.685 -16.986  1.00  0.00     0.131 A 
ATOM      6  C   UNL     1     -32.164  -4.444 -16.503  1.00  0.00     0.093 A 
ATOM      7  C   UNL     1     -31.313  -3.562 -17.170  1.00  0.00     0.122 A 
ATOM      8  C   UNL     1     -31.751  -2.922 -18.337  1.00  0.00     0.092 A 
ATOM      9  C   UNL     1     -33.039  -3.150 -18.835  1.00  0.00     0.126 A 
ATOM     10  C   UNL     1     -33.920  -4.012 -18.137  1.00  0.00     0.039 A 
ENDROOT
BRANCH   2  11
ATOM     11  O   UNL     1     -37.471  -5.256 -18.074  1.00  0.00    -0.389 OA
ATOM     12  H   UNL     1     -37.376  -6.195 -18.382  1.00  0.00     0.211 HD
ENDBRANCH   2  11
BRANCH   3  13
ATOM     13  C   UNL     1     -36.376  -6.591 -15.713  1.00  0.00    -0.001 A 
ATOM     14  C   UNL     1     -36.904  -5.745 -14.721  1.00  0.00     0.057 A 
ATOM     15  C   UNL     1     -36.689  -7.959 -15.682  1.00  0.00     0.012 A 
ATOM     16  C   UNL     1     -37.715  -6.260 -13.704  1.00  0.00     0.157 A 
ATOM     17  C   UNL     1     -37.500  -8.476 -14.667  1.00  0.00     0.050 A 
ATOM     18  C   UNL     1     -38.014  -7.632 -13.674  1.00  0.00     0.157 A 
BRANCH  16  19
ATOM     19  O   UNL     1     -38.216  -5.392 -12.733  1.00  0.00    -0.504 OA
ATOM     20  H   UNL     1     -37.740  -5.237 -11.853  1.00  0.00     0.293 HD
ENDBRANCH  16  19
BRANCH  18  21
ATOM     21  O   UNL     1     -38.820  -8.152 -12.663  1.00  0.00    -0.504 OA
ATOM     22  H   UNL     1     -39.074  -9.132 -12.637  1.00  0.00     0.293 HD
ENDBRANCH  18  21
ENDBRANCH   3  13
BRANCH   9  23
ATOM     23  O   UNL     1     -33.403  -2.518 -20.025  1.00  0.00    -0.507 OA
ATOM     24  H   UNL     1     -32.732  -2.201 -20.713  1.00  0.00     0.293 HD
ENDBRANCH   9  23
BRANCH   7  25
ATOM     25  O   UNL     1     -30.032  -3.332 -16.674  1.00  0.00    -0.508 OA
ATOM     26  H   UNL     1     -29.207  -3.483 -17.243  1.00  0.00     0.293 HD
ENDBRANCH   7  25
TORSDOF 6
ENDMDL
MODEL 4
REMARK VINA RESULT:    -7.767      4.487      7.781
REMARK INTER + INTRA:          -9.387
REMARK INTER:                  -9.014
REMARK INTRA:                  -0.373
REMARK UNBOUND:                -0.031
REMARK SMILES Oc1cc(O)c2c(c1)O[C@@H](c1ccc(O)c(O)c1)[C@H](O)C2
REMARK SMILES IDX 21 1 19 2 10 3 9 4 7 5 8 6 2 7 3 8 4 9 6 10 20 11 11 13
REMARK SMILES IDX 18 14 12 15 16 16 13 17 14 18 17 19 15 21 5 23 1 25
REMARK H PARENT 20 12 17 20 15 22 5 24 1 26
REMARK Flexibility Score: inf
ROOT
ATOM      1  C   UNL     1     -36.018  -6.568 -13.646  1.00  0.00     0.079 C 
ATOM      2  C   UNL     1     -36.013  -5.326 -12.735  1.00  0.00     0.164 C 
ATOM      3  C   UNL     1     -37.302  -4.505 -12.946  1.00  0.00     0.232 C 
ATOM      4  O   UNL     1     -38.441  -5.332 -12.710  1.00  0.00    -0.482 OA
ATOM      5  C   UNL     1     -38.487  -6.673 -13.107  1.00  0.00     0.131 A 
ATOM      6  C   UNL     1     -39.698  -7.364 -13.016  1.00  0.00     0.093 A 
ATOM      7  C   UNL     1     -39.782  -8.698 -13.417  1.00  0.00     0.122 A 
ATOM      8  C   UNL     1     -38.647  -9.344 -13.925  1.00  0.00     0.092 A 
ATOM      9  C   UNL     1     -37.426  -8.667 -14.024  1.00  0.00     0.126 A 
ATOM     10  C   UNL     1     -37.326  -7.328 -13.577  1.00  0.00     0.039 A 
ENDROOT
BRANCH   2  11
ATOM     11  O   UNL     1     -34.865  -4.547 -12.967  1.00  0.00    -0.389 OA
ATOM     12  H   UNL     1     -35.080  -3.611 -12.717  1.00  0.00     0.211 HD
ENDBRANCH   2  11
BRANCH   3  13
ATOM     13  C   UNL     1     -37.342  -3.308 -12.025  1.00  0.00    -0.001 A 
ATOM     14  C   UNL     1     -37.347  -2.003 -12.549  1.00  0.00     0.057 A 
ATOM     15  C   UNL     1     -37.425  -3.488 -10.636  1.00  0.00     0.012 A 
ATOM     16  C   UNL     1     -37.413  -0.894 -11.697  1.00  0.00     0.157 A 
ATOM     17  C   UNL     1     -37.491  -2.382  -9.783  1.00  0.00     0.050 A 
ATOM     18  C   UNL     1     -37.483  -1.083 -10.308  1.00  0.00     0.157 A 
BRANCH  16  19
ATOM     19  O   UNL     1     -37.409   0.385 -12.252  1.00  0.00    -0.504 OA
ATOM     20  H   UNL     1     -37.810   0.579 -13.162  1.00  0.00     0.293 HD
ENDBRANCH  16  19
BRANCH  18  21
ATOM     21  O   UNL     1     -37.548   0.017  -9.454  1.00  0.00    -0.504 OA
ATOM     22  H   UNL     1     -37.828   0.932  -9.787  1.00  0.00     0.293 HD
ENDBRANCH  18  21
ENDBRANCH   3  13
BRANCH   9  23
ATOM     23  O   UNL     1     -36.342  -9.350 -14.579  1.00  0.00    -0.507 OA
ATOM     24  H   UNL     1     -35.669  -8.916 -15.197  1.00  0.00     0.293 HD
ENDBRANCH   9  23
BRANCH   7  25
ATOM     25  O   UNL     1     -40.996  -9.372 -13.317  1.00  0.00    -0.508 OA
ATOM     26  H   UNL     1     -41.155 -10.076 -12.606  1.00  0.00     0.293 HD
ENDBRANCH   7  25
TORSDOF 6
ENDMDL
MODEL 5
REMARK VINA RESULT:    -7.752      1.764      6.983
REMARK INTER + INTRA:          -9.369
REMARK INTER:                  -9.688
REMARK INTRA:                   0.319
REMARK UNBOUND:                -0.031
REMARK SMILES Oc1cc(O)c2c(c1)O[C@@H](c1ccc(O)c(O)c1)[C@H](O)C2
REMARK SMILES IDX 21 1 19 2 10 3 9 4 7 5 8 6 2 7 3 8 4 9 6 10 20 11 11 13
REMARK SMILES IDX 18 14 12 15 16 16 13 17 14 18 17 19 15 21 5 23 1 25
REMARK H PARENT 20 12 17 20 15 22 5 24 1 26
REMARK Flexibility Score: inf
ROOT
ATOM      1  C   UNL     1     -37.358  -3.990 -17.117  1.00  0.00     0.079 C 
ATOM      2  C   UNL     1     -36.129  -3.567 -17.943  1.00  0.00     0.164 C 
ATOM      3  C   UNL     1     -34.840  -3.761 -17.118  1.00  0.00     0.232 C 
ATOM      4  O   UNL     1     -34.748  -5.118 -16.684  1.00  0.00    -0.482 OA
ATOM      5  C   UNL     1     -35.867  -5.849 -16.269  1.00  0.00     0.131 A 
ATOM      6  C   UNL     1     -35.676  -7.102 -15.681  1.00  0.00     0.093 A 
ATOM      7  C   UNL     1     -36.769  -7.850 -15.242  1.00  0.00     0.122 A 
ATOM      8  C   UNL     1     -38.065  -7.336 -15.383  1.00  0.00     0.092 A 
ATOM      9  C   UNL     1     -38.275  -6.083 -15.970  1.00  0.00     0.126 A 
ATOM     10  C   UNL     1     -37.172  -5.340 -16.456  1.00  0.00     0.039 A 
ENDROOT
BRANCH   2  11
ATOM     11  O   UNL     1     -36.262  -2.238 -18.382  1.00  0.00    -0.389 OA
ATOM     12  H   UNL     1     -37.166  -2.141 -18.780  1.00  0.00     0.211 HD
ENDBRANCH   2  11
BRANCH   3  13
ATOM     13  C   UNL     1     -33.616  -3.401 -17.926  1.00  0.00    -0.001 A 
ATOM     14  C   UNL     1     -33.746  -2.850 -19.213  1.00  0.00     0.057 A 
ATOM     15  C   UNL     1     -32.334  -3.567 -17.380  1.00  0.00     0.012 A 
ATOM     16  C   UNL     1     -32.613  -2.490 -19.951  1.00  0.00     0.157 A 
ATOM     17  C   UNL     1     -31.200  -3.209 -18.114  1.00  0.00     0.050 A 
ATOM     18  C   UNL     1     -31.334  -2.671 -19.402  1.00  0.00     0.157 A 
BRANCH  16  19
ATOM     19  O   UNL     1     -32.779  -1.953 -21.227  1.00  0.00    -0.504 OA
ATOM     20  H   UNL     1     -33.499  -1.271 -21.434  1.00  0.00     0.293 HD
ENDBRANCH  16  19
BRANCH  18  21
ATOM     21  O   UNL     1     -30.200  -2.316 -20.132  1.00  0.00    -0.504 OA
ATOM     22  H   UNL     1     -29.410  -1.856 -19.696  1.00  0.00     0.293 HD
ENDBRANCH  18  21
ENDBRANCH   3  13
BRANCH   9  23
ATOM     23  O   UNL     1     -39.585  -5.605 -16.043  1.00  0.00    -0.507 OA
ATOM     24  H   UNL     1     -40.293  -5.818 -15.353  1.00  0.00     0.293 HD
ENDBRANCH   9  23
BRANCH   7  25
ATOM     25  O   UNL     1     -36.561  -9.097 -14.660  1.00  0.00    -0.508 OA
ATOM     26  H   UNL     1     -36.845  -9.292 -13.707  1.00  0.00     0.293 HD
ENDBRANCH   7  25
TORSDOF 6
ENDMDL
MODEL 6
REMARK VINA RESULT:    -7.720      2.268      6.950
REMARK INTER + INTRA:          -9.330
REMARK INTER:                  -8.998
REMARK INTRA:                  -0.332
REMARK UNBOUND:                -0.031
REMARK SMILES Oc1cc(O)c2c(c1)O[C@@H](c1ccc(O)c(O)c1)[C@H](O)C2
REMARK SMILES IDX 21 1 19 2 10 3 9 4 7 5 8 6 2 7 3 8 4 9 6 10 20 11 11 13
REMARK SMILES IDX 18 14 12 15 16 16 13 17 14 18 17 19 15 21 5 23 1 25
REMARK H PARENT 20 12 17 20 15 22 5 24 1 26
REMARK Flexibility Score: inf
ROOT
ATOM      1  C   UNL     1     -36.811  -5.985 -16.463  1.00  0.00     0.079 C 
ATOM      2  C   UNL     1     -35.529  -5.574 -17.210  1.00  0.00     0.164 C 
ATOM      3  C   UNL     1     -35.316  -4.050 -17.106  1.00  0.00     0.232 C 
ATOM      4  O   UNL     1     -35.277  -3.664 -15.732  1.00  0.00    -0.482 OA
ATOM      5  C   UNL     1     -36.111  -4.242 -14.769  1.00  0.00     0.131 A 
ATOM      6  C   UNL     1     -36.152  -3.685 -13.488  1.00  0.00     0.093 A 
ATOM      7  C   UNL     1     -36.984  -4.228 -12.508  1.00  0.00     0.122 A 
ATOM      8  C   UNL     1     -37.791  -5.331 -12.814  1.00  0.00     0.092 A 
ATOM      9  C   UNL     1     -37.763  -5.902 -14.092  1.00  0.00     0.126 A 
ATOM     10  C   UNL     1     -36.888  -5.382 -15.076  1.00  0.00     0.039 A 
ENDROOT
BRANCH   2  11
ATOM     11  O   UNL     1     -35.582  -5.994 -18.551  1.00  0.00    -0.389 OA
ATOM     12  H   UNL     1     -35.533  -5.184 -19.123  1.00  0.00     0.211 HD
ENDBRANCH   2  11
BRANCH   3  13
ATOM     13  C   UNL     1     -34.036  -3.630 -17.789  1.00  0.00    -0.001 A 
ATOM     14  C   UNL     1     -34.069  -3.004 -19.047  1.00  0.00     0.057 A 
ATOM     15  C   UNL     1     -32.799  -3.817 -17.151  1.00  0.00     0.012 A 
ATOM     16  C   UNL     1     -32.885  -2.590 -19.669  1.00  0.00     0.157 A 
ATOM     17  C   UNL     1     -31.616  -3.405 -17.768  1.00  0.00     0.050 A 
ATOM     18  C   UNL     1     -31.652  -2.792 -19.028  1.00  0.00     0.157 A 
BRANCH  16  19
ATOM     19  O   UNL     1     -32.956  -1.978 -20.920  1.00  0.00    -0.504 OA
ATOM     20  H   UNL     1     -33.543  -2.338 -21.663  1.00  0.00     0.293 HD
ENDBRANCH  16  19
BRANCH  18  21
ATOM     21  O   UNL     1     -30.468  -2.383 -19.642  1.00  0.00    -0.504 OA
ATOM     22  H   UNL     1     -30.473  -1.787 -20.461  1.00  0.00     0.293 HD
ENDBRANCH  18  21
ENDBRANCH   3  13
BRANCH   9  23
ATOM     23  O   UNL     1     -38.622  -6.972 -14.350  1.00  0.00    -0.507 OA
ATOM     24  H   UNL     1     -39.627  -6.914 -14.250  1.00  0.00     0.293 HD
ENDBRANCH   9  23
BRANCH   7  25
ATOM     25  O   UNL     1     -37.011  -3.661 -11.237  1.00  0.00    -0.508 OA
ATOM     26  H   UNL     1     -36.922  -4.228 -10.401  1.00  0.00     0.293 HD
ENDBRANCH   7  25
TORSDOF 6
ENDMDL
MODEL 7
REMARK VINA RESULT:    -7.709      2.257      7.293
REMARK INTER + INTRA:          -9.317
REMARK INTER:                  -8.946
REMARK INTRA:                  -0.371
REMARK UNBOUND:                -0.031
REMARK SMILES Oc1cc(O)c2c(c1)O[C@@H](c1ccc(O)c(O)c1)[C@H](O)C2
REMARK SMILES IDX 21 1 19 2 10 3 9 4 7 5 8 6 2 7 3 8 4 9 6 10 20 11 11 13
REMARK SMILES IDX 18 14 12 15 16 16 13 17 14 18 17 19 15 21 5 23 1 25
REMARK H PARENT 20 12 17 20 15 22 5 24 1 26
REMARK Flexibility Score: inf
ROOT
ATOM      1  C   UNL     1     -38.188  -4.454 -13.786  1.00  0.00     0.079 C 
ATOM      2  C   UNL     1     -37.418  -4.236 -15.102  1.00  0.00     0.164 C 
ATOM      3  C   UNL     1     -36.398  -5.373 -15.318  1.00  0.00     0.232 C 
ATOM      4  O   UNL     1     -37.072  -6.631 -15.299  1.00  0.00    -0.482 OA
ATOM      5  C   UNL     1     -38.127  -6.902 -14.420  1.00  0.00     0.131 A 
ATOM      6  C   UNL     1     -38.610  -8.209 -14.327  1.00  0.00     0.093 A 
ATOM      7  C   UNL     1     -39.651  -8.516 -13.450  1.00  0.00     0.122 A 
ATOM      8  C   UNL     1     -40.208  -7.509 -12.652  1.00  0.00     0.092 A 
ATOM      9  C   UNL     1     -39.737  -6.193 -12.733  1.00  0.00     0.126 A 
ATOM     10  C   UNL     1     -38.710  -5.869 -13.652  1.00  0.00     0.039 A 
ENDROOT
BRANCH   2  11
ATOM     11  O   UNL     1     -36.792  -2.977 -15.105  1.00  0.00    -0.389 OA
ATOM     12  H   UNL     1     -35.947  -3.059 -14.589  1.00  0.00     0.211 HD
ENDBRANCH   2  11
BRANCH   3  13
ATOM     13  C   UNL     1     -35.666  -5.207 -16.628  1.00  0.00    -0.001 A 
ATOM     14  C   UNL     1     -34.285  -4.947 -16.648  1.00  0.00     0.057 A 
ATOM     15  C   UNL     1     -36.350  -5.360 -17.845  1.00  0.00     0.012 A 
ATOM     16  C   UNL     1     -33.600  -4.820 -17.862  1.00  0.00     0.157 A 
ATOM     17  C   UNL     1     -35.670  -5.235 -19.059  1.00  0.00     0.050 A 
ATOM     18  C   UNL     1     -34.295  -4.963 -19.074  1.00  0.00     0.157 A 
BRANCH  16  19
ATOM     19  O   UNL     1     -32.231  -4.556 -17.843  1.00  0.00    -0.504 OA
ATOM     20  H   UNL     1     -31.864  -3.614 -17.909  1.00  0.00     0.293 HD
ENDBRANCH  16  19
BRANCH  18  21
ATOM     21  O   UNL     1     -33.620  -4.837 -20.287  1.00  0.00    -0.504 OA
ATOM     22  H   UNL     1     -33.863  -4.118 -20.959  1.00  0.00     0.293 HD
ENDBRANCH  18  21
ENDBRANCH   3  13
BRANCH   9  23
ATOM     23  O   UNL     1     -40.301  -5.242 -11.880  1.00  0.00    -0.507 OA
ATOM     24  H   UNL     1     -39.803  -4.425 -11.553  1.00  0.00     0.293 HD
ENDBRANCH   9  23
BRANCH   7  25
ATOM     25  O   UNL     1     -40.121  -9.825 -13.371  1.00  0.00    -0.508 OA
ATOM     26  H   UNL     1     -39.570 -10.608 -13.705  1.00  0.00     0.293 HD
ENDBRANCH   7  25
TORSDOF 6
ENDMDL
MODEL 8
REMARK VINA RESULT:    -7.480      2.553      4.111
REMARK INTER + INTRA:          -9.042
REMARK INTER:                  -8.668
REMARK INTRA:                  -0.374
REMARK UNBOUND:                -0.031
REMARK SMILES Oc1cc(O)c2c(c1)O[C@@H](c1ccc(O)c(O)c1)[C@H](O)C2
REMARK SMILES IDX 21 1 19 2 10 3 9 4 7 5 8 6 2 7 3 8 4 9 6 10 20 11 11 13
REMARK SMILES IDX 18 14 12 15 16 16 13 17 14 18 17 19 15 21 5 23 1 25
REMARK H PARENT 20 12 17 20 15 22 5 24 1 26
REMARK Flexibility Score: inf
ROOT
ATOM      1  C   UNL     1     -34.653  -5.407 -15.533  1.00  0.00     0.079 C 
ATOM      2  C   UNL     1     -35.715  -5.674 -14.450  1.00  0.00     0.164 C 
ATOM      3  C   UNL     1     -36.871  -4.661 -14.576  1.00  0.00     0.232 C 
ATOM      4  O   UNL     1     -37.424  -4.725 -15.890  1.00  0.00    -0.482 OA
ATOM      5  C   UNL     1     -36.630  -4.905 -17.028  1.00  0.00     0.131 A 
ATOM      6  C   UNL     1     -37.215  -4.768 -18.289  1.00  0.00     0.093 A 
ATOM      7  C   UNL     1     -36.448  -4.926 -19.445  1.00  0.00     0.122 A 
ATOM      8  C   UNL     1     -35.081  -5.215 -19.338  1.00  0.00     0.092 A 
ATOM      9  C   UNL     1     -34.479  -5.357 -18.082  1.00  0.00     0.126 A 
ATOM     10  C   UNL     1     -35.262  -5.239 -16.909  1.00  0.00     0.039 A 
ENDROOT
BRANCH   2  11
ATOM     11  O   UNL     1     -35.137  -5.636 -13.169  1.00  0.00    -0.389 OA
ATOM     12  H   UNL     1     -34.593  -4.807 -13.108  1.00  0.00     0.211 HD
ENDBRANCH   2  11
BRANCH   3  13
ATOM     13  C   UNL     1     -37.951  -4.936 -13.556  1.00  0.00    -0.001 A 
ATOM     14  C   UNL     1     -38.649  -6.156 -13.564  1.00  0.00     0.057 A 
ATOM     15  C   UNL     1     -38.235  -3.993 -12.556  1.00  0.00     0.012 A 
ATOM     16  C   UNL     1     -39.630  -6.423 -12.603  1.00  0.00     0.157 A 
ATOM     17  C   UNL     1     -39.214  -4.256 -11.594  1.00  0.00     0.050 A 
ATOM     18  C   UNL     1     -39.916  -5.468 -11.613  1.00  0.00     0.157 A 
BRANCH  16  19
ATOM     19  O   UNL     1     -40.306  -7.641 -12.646  1.00  0.00    -0.504 OA
ATOM     20  H   UNL     1     -41.256  -7.742 -12.309  1.00  0.00     0.293 HD
ENDBRANCH  16  19
BRANCH  18  21
ATOM     21  O   UNL     1     -40.893  -5.727 -10.653  1.00  0.00    -0.504 OA
ATOM     22  H   UNL     1     -40.911  -5.233  -9.768  1.00  0.00     0.293 HD
ENDBRANCH  18  21
ENDBRANCH   3  13
BRANCH   9  23
ATOM     23  O   UNL     1     -33.104  -5.600 -18.039  1.00  0.00    -0.507 OA
ATOM     24  H   UNL     1     -32.694  -6.503 -18.237  1.00  0.00     0.293 HD
ENDBRANCH   9  23
BRANCH   7  25
ATOM     25  O   UNL     1     -37.048  -4.788 -20.694  1.00  0.00    -0.508 OA
ATOM     26  H   UNL     1     -37.992  -5.114 -20.868  1.00  0.00     0.293 HD
ENDBRANCH   7  25
TORSDOF 6
ENDMDL
MODEL 9
REMARK VINA RESULT:    -7.460      2.163      6.805
REMARK INTER + INTRA:          -9.017
REMARK INTER:                  -8.643
REMARK INTRA:                  -0.374
REMARK UNBOUND:                -0.031
REMARK SMILES Oc1cc(O)c2c(c1)O[C@@H](c1ccc(O)c(O)c1)[C@H](O)C2
REMARK SMILES IDX 21 1 19 2 10 3 9 4 7 5 8 6 2 7 3 8 4 9 6 10 20 11 11 13
REMARK SMILES IDX 18 14 12 15 16 16 13 17 14 18 17 19 15 21 5 23 1 25
REMARK H PARENT 20 12 17 20 15 22 5 24 1 26
REMARK Flexibility Score: inf
ROOT
ATOM      1  C   UNL     1     -36.869  -5.620 -16.970  1.00  0.00     0.079 C 
ATOM      2  C   UNL     1     -35.372  -5.487 -17.307  1.00  0.00     0.164 C 
ATOM      3  C   UNL     1     -34.846  -4.107 -16.863  1.00  0.00     0.232 C 
ATOM      4  O   UNL     1     -35.096  -3.923 -15.470  1.00  0.00    -0.482 OA
ATOM      5  C   UNL     1     -36.274  -4.366 -14.856  1.00  0.00     0.131 A 
ATOM      6  C   UNL     1     -36.532  -3.986 -13.537  1.00  0.00     0.093 A 
ATOM      7  C   UNL     1     -37.704  -4.397 -12.900  1.00  0.00     0.122 A 
ATOM      8  C   UNL     1     -38.630  -5.188 -13.592  1.00  0.00     0.092 A 
ATOM      9  C   UNL     1     -38.388  -5.579 -14.914  1.00  0.00     0.126 A 
ATOM     10  C   UNL     1     -37.180  -5.199 -15.549  1.00  0.00     0.039 A 
ENDROOT
BRANCH   2  11
ATOM     11  O   UNL     1     -35.153  -5.704 -18.679  1.00  0.00    -0.389 OA
ATOM     12  H   UNL     1     -35.502  -6.606 -18.901  1.00  0.00     0.211 HD
ENDBRANCH   2  11
BRANCH   3  13
ATOM     13  C   UNL     1     -33.367  -3.973 -17.137  1.00  0.00    -0.001 A 
ATOM     14  C   UNL     1     -32.445  -4.835 -16.517  1.00  0.00     0.057 A 
ATOM     15  C   UNL     1     -32.901  -3.017 -18.052  1.00  0.00     0.012 A 
ATOM     16  C   UNL     1     -31.076  -4.730 -16.791  1.00  0.00     0.157 A 
ATOM     17  C   UNL     1     -31.535  -2.910 -18.329  1.00  0.00     0.050 A 
ATOM     18  C   UNL     1     -30.618  -3.762 -17.699  1.00  0.00     0.157 A 
BRANCH  16  19
ATOM     19  O   UNL     1     -30.190  -5.597 -16.153  1.00  0.00    -0.504 OA
ATOM     20  H   UNL     1     -29.198  -5.400 -16.087  1.00  0.00     0.293 HD
ENDBRANCH  16  19
BRANCH  18  21
ATOM     21  O   UNL     1     -29.256  -3.651 -17.977  1.00  0.00    -0.504 OA
ATOM     22  H   UNL     1     -28.636  -4.451 -17.922  1.00  0.00     0.293 HD
ENDBRANCH  18  21
ENDBRANCH   3  13
BRANCH   9  23
ATOM     23  O   UNL     1     -39.368  -6.329 -15.566  1.00  0.00    -0.507 OA
ATOM     24  H   UNL     1     -40.092  -6.841 -15.078  1.00  0.00     0.293 HD
ENDBRANCH   9  23
BRANCH   7  25
ATOM     25  O   UNL     1     -37.945  -4.010 -11.584  1.00  0.00    -0.508 OA
ATOM     26  H   UNL     1     -38.731  -3.419 -11.341  1.00  0.00     0.293 HD
ENDBRANCH   7  25
TORSDOF 6
ENDMDL
