MODEL 1
REMARK VINA RESULT:    -3.957      0.000      0.000
REMARK INTER + INTRA:          -4.375
REMARK INTER:                  -4.883
REMARK INTRA:                   0.507
REMARK UNBOUND:                 0.507
REMARK SMILES C=C1[C@H]2CC[C@@H]3[C@@H]2C(C)(C)CCC[C@]13C
REMARK SMILES IDX 14 1 6 2 7 3 3 4 2 5 1 6 4 7 5 8 15 9 8 10 9 11 10 12 11 13
REMARK SMILES IDX 13 15 12 16
REMARK H PARENT
REMARK Flexibility Score: 80.00
ROOT
ATOM      1  C   UNL     1       9.799  20.591  25.425  1.00  0.00    -0.008 C 
ATOM      2  C   UNL     1       8.461  20.950  24.795  1.00  0.00     0.003 C 
ATOM      3  C   UNL     1       7.899  19.529  24.599  1.00  0.00     0.006 C 
ATOM      4  C   UNL     1       7.817  19.234  26.086  1.00  0.00     0.019 C 
ATOM      5  C   UNL     1       9.296  19.536  26.424  1.00  0.00    -0.068 C 
ATOM      6  C   UNL     1      10.019  18.925  27.368  1.00  0.00     0.009 C 
ATOM      7  C   UNL     1       6.980  20.385  26.629  1.00  0.00     0.008 C 
ATOM      8  C   UNL     1       7.429  21.569  25.769  1.00  0.00     0.005 C 
ATOM      9  C   UNL     1      10.461  21.775  26.162  1.00  0.00     0.016 C 
ENDROOT
BRANCH   3  10
ATOM     10  C   UNL     1       7.519  19.297  23.119  1.00  0.00    -0.032 C 
ATOM     11  C   UNL     1       7.010  17.848  22.878  1.00  0.00     0.011 C 
ATOM     12  C   UNL     1       6.395  20.259  22.676  1.00  0.00     0.011 C 
BRANCH  10  13
ATOM     13  C   UNL     1       8.855  19.564  22.285  1.00  0.00     0.007 CG0
ATOM     14  G   UNL     1      10.232  19.222  23.006  1.00  0.00     0.000 G0
ENDBRANCH  10  13
ENDBRANCH   3  10
BRANCH   1  15
ATOM     15  C   UNL     1      10.748  20.096  24.241  1.00  0.00     0.011 C 
BRANCH  15  16
ATOM     16  C   UNL     1      10.236  19.227  23.003  1.00  0.00     0.001 CG0
ATOM     17  G   UNL     1       8.859  19.560  22.281  1.00  0.00     0.000 G0
ENDBRANCH  15  16
ENDBRANCH   1  15
TORSDOF 0
ENDMDL
MODEL 2
REMARK VINA RESULT:    -3.647      2.007      3.199
REMARK INTER + INTRA:          -3.993
REMARK INTER:                  -4.506
REMARK INTRA:                   0.513
REMARK UNBOUND:                 0.507
REMARK SMILES C=C1[C@H]2CC[C@@H]3[C@@H]2C(C)(C)CCC[C@]13C
REMARK SMILES IDX 14 1 6 2 7 3 3 4 2 5 1 6 4 7 5 8 15 9 8 10 9 11 10 12 11 13
REMARK SMILES IDX 13 15 12 16
REMARK H PARENT
REMARK Flexibility Score: 80.00
ROOT
ATOM      1  C   UNL     1       7.933  19.699  23.927  1.00  0.00    -0.008 C 
ATOM      2  C   UNL     1       7.364  20.938  23.250  1.00  0.00     0.003 C 
ATOM      3  C   UNL     1       5.936  20.891  23.824  1.00  0.00     0.006 C 
ATOM      4  C   UNL     1       6.382  21.125  25.256  1.00  0.00     0.019 C 
ATOM      5  C   UNL     1       7.384  19.949  25.341  1.00  0.00    -0.068 C 
ATOM      6  C   UNL     1       7.655  19.235  26.438  1.00  0.00     0.009 C 
ATOM      7  C   UNL     1       7.194  22.410  25.168  1.00  0.00     0.008 C 
ATOM      8  C   UNL     1       7.888  22.284  23.809  1.00  0.00     0.005 C 
ATOM      9  C   UNL     1       9.477  19.665  23.934  1.00  0.00     0.016 C 
ENDROOT
BRANCH   3  10
ATOM     10  C   UNL     1       4.894  20.885  22.683  1.00  0.00    -0.032 C 
ATOM     11  C   UNL     1       3.445  20.750  23.230  1.00  0.00     0.011 C 
ATOM     12  C   UNL     1       4.957  22.194  21.866  1.00  0.00     0.011 C 
BRANCH  10  13
ATOM     13  C   UNL     1       5.264  19.627  21.770  1.00  0.00     0.007 CG0
ATOM     14  G   UNL     1       5.905  18.370  22.504  1.00  0.00     0.000 G0
ENDBRANCH  10  13
ENDBRANCH   3  10
BRANCH   1  15
ATOM     15  C   UNL     1       7.372  18.438  23.126  1.00  0.00     0.011 C 
BRANCH  15  16
ATOM     16  C   UNL     1       5.905  18.371  22.500  1.00  0.00     0.001 CG0
ATOM     17  G   UNL     1       5.270  19.627  21.759  1.00  0.00     0.000 G0
ENDBRANCH  15  16
ENDBRANCH   1  15
TORSDOF 0
ENDMDL
MODEL 3
REMARK VINA RESULT:    -3.607     13.124     14.598
REMARK INTER + INTRA:          -3.943
REMARK INTER:                  -4.441
REMARK INTRA:                   0.498
REMARK UNBOUND:                 0.507
REMARK SMILES C=C1[C@H]2CC[C@@H]3[C@@H]2C(C)(C)CCC[C@]13C
REMARK SMILES IDX 14 1 6 2 7 3 3 4 2 5 1 6 4 7 5 8 15 9 8 10 9 11 10 12 11 13
REMARK SMILES IDX 13 15 12 16
REMARK H PARENT
REMARK Flexibility Score: 80.00
ROOT
ATOM      1  C   UNL     1      14.629  15.911  36.387  1.00  0.00    -0.008 C 
ATOM      2  C   UNL     1      13.465  16.892  36.428  1.00  0.00     0.003 C 
ATOM      3  C   UNL     1      13.343  17.056  37.955  1.00  0.00     0.006 C 
ATOM      4  C   UNL     1      14.704  17.712  38.107  1.00  0.00     0.019 C 
ATOM      5  C   UNL     1      15.532  16.598  37.425  1.00  0.00    -0.068 C 
ATOM      6  C   UNL     1      16.783  16.253  37.743  1.00  0.00     0.009 C 
ATOM      7  C   UNL     1      14.639  18.889  37.143  1.00  0.00     0.008 C 
ATOM      8  C   UNL     1      13.813  18.332  35.980  1.00  0.00     0.005 C 
ATOM      9  C   UNL     1      15.322  15.847  35.009  1.00  0.00     0.016 C 
ENDROOT
BRANCH   3  10
ATOM     10  C   UNL     1      11.909  16.720  38.422  1.00  0.00    -0.032 C 
ATOM     11  C   UNL     1      11.765  16.838  39.965  1.00  0.00     0.011 C 
ATOM     12  C   UNL     1      10.878  17.681  37.789  1.00  0.00     0.011 C 
BRANCH  10  13
ATOM     13  C   UNL     1      11.645  15.216  37.952  1.00  0.00     0.007 CG0
ATOM     14  G   UNL     1      12.913  14.260  37.859  1.00  0.00     0.000 G0
ENDBRANCH  10  13
ENDBRANCH   3  10
BRANCH   1  15
ATOM     15  C   UNL     1      14.035  14.476  36.757  1.00  0.00     0.011 C 
BRANCH  15  16
ATOM     16  C   UNL     1      12.900  14.247  37.856  1.00  0.00     0.001 CG0
ATOM     17  G   UNL     1      11.644  15.219  37.953  1.00  0.00     0.000 G0
ENDBRANCH  15  16
ENDBRANCH   1  15
TORSDOF 0
ENDMDL
MODEL 4
REMARK VINA RESULT:    -3.568      1.792      4.338
REMARK INTER + INTRA:          -3.895
REMARK INTER:                  -4.404
REMARK INTRA:                   0.509
REMARK UNBOUND:                 0.507
REMARK SMILES C=C1[C@H]2CC[C@@H]3[C@@H]2C(C)(C)CCC[C@]13C
REMARK SMILES IDX 14 1 6 2 7 3 3 4 2 5 1 6 4 7 5 8 15 9 8 10 9 11 10 12 11 13
REMARK SMILES IDX 13 15 12 16
REMARK H PARENT
REMARK Flexibility Score: 80.00
ROOT
ATOM      1  C   UNL     1       7.777  20.165  23.796  1.00  0.00    -0.008 C 
ATOM      2  C   UNL     1       8.975  20.986  24.253  1.00  0.00     0.003 C 
ATOM      3  C   UNL     1       9.897  19.837  24.701  1.00  0.00     0.006 C 
ATOM      4  C   UNL     1      10.045  19.260  23.304  1.00  0.00     0.019 C 
ATOM      5  C   UNL     1       8.537  19.087  23.006  1.00  0.00    -0.068 C 
ATOM      6  C   UNL     1       7.998  18.122  22.255  1.00  0.00     0.009 C 
ATOM      7  C   UNL     1      10.541  20.443  22.484  1.00  0.00     0.008 C 
ATOM      8  C   UNL     1       9.798  21.627  23.109  1.00  0.00     0.005 C 
ATOM      9  C   UNL     1       6.818  20.949  22.874  1.00  0.00     0.016 C 
ENDROOT
BRANCH   3  10
ATOM     10  C   UNL     1      10.334  20.035  26.170  1.00  0.00    -0.032 C 
ATOM     11  C   UNL     1      11.210  18.853  26.673  1.00  0.00     0.011 C 
ATOM     12  C   UNL     1      11.167  21.326  26.332  1.00  0.00     0.011 C 
BRANCH  10  13
ATOM     13  C   UNL     1       8.981  20.124  27.013  1.00  0.00     0.007 CG0
ATOM     14  G   UNL     1       7.742  19.283  26.474  1.00  0.00     0.000 G0
ENDBRANCH  10  13
ENDBRANCH   3  10
BRANCH   1  15
ATOM     15  C   UNL     1       7.002  19.708  25.114  1.00  0.00     0.011 C 
BRANCH  15  16
ATOM     16  C   UNL     1       7.735  19.290  26.470  1.00  0.00     0.001 CG0
ATOM     17  G   UNL     1       8.982  20.114  27.016  1.00  0.00     0.000 G0
ENDBRANCH  15  16
ENDBRANCH   1  15
TORSDOF 0
ENDMDL
MODEL 5
REMARK VINA RESULT:    -3.541      2.019      3.233
REMARK INTER + INTRA:          -3.862
REMARK INTER:                  -4.368
REMARK INTRA:                   0.507
REMARK UNBOUND:                 0.507
REMARK SMILES C=C1[C@H]2CC[C@@H]3[C@@H]2C(C)(C)CCC[C@]13C
REMARK SMILES IDX 14 1 6 2 7 3 3 4 2 5 1 6 4 7 5 8 15 9 8 10 9 11 10 12 11 13
REMARK SMILES IDX 13 15 12 16
REMARK H PARENT
REMARK Flexibility Score: 80.00
ROOT
ATOM      1  C   UNL     1      11.587  21.276  26.987  1.00  0.00    -0.008 C 
ATOM      2  C   UNL     1      10.377  20.857  26.164  1.00  0.00     0.003 C 
ATOM      3  C   UNL     1      10.972  19.612  25.480  1.00  0.00     0.006 C 
ATOM      4  C   UNL     1      11.132  18.837  26.775  1.00  0.00     0.019 C 
ATOM      5  C   UNL     1      11.976  19.891  27.529  1.00  0.00    -0.068 C 
ATOM      6  C   UNL     1      12.926  19.627  28.431  1.00  0.00     0.009 C 
ATOM      7  C   UNL     1       9.732  18.858  27.375  1.00  0.00     0.008 C 
ATOM      8  C   UNL     1       9.214  20.245  26.983  1.00  0.00     0.005 C 
ATOM      9  C   UNL     1      11.233  22.239  28.142  1.00  0.00     0.016 C 
ENDROOT
BRANCH   3  10
ATOM     10  C   UNL     1      10.853  19.731  23.943  1.00  0.00    -0.032 C 
ATOM     11  C   UNL     1      11.500  18.515  23.222  1.00  0.00     0.011 C 
ATOM     12  C   UNL     1       9.374  19.794  23.503  1.00  0.00     0.011 C 
BRANCH  10  13
ATOM     13  C   UNL     1      11.618  21.079  23.556  1.00  0.00     0.007 CG0
ATOM     14  G   UNL     1      12.836  21.506  24.486  1.00  0.00     0.000 G0
ENDBRANCH  10  13
ENDBRANCH   3  10
BRANCH   1  15
ATOM     15  C   UNL     1      12.602  21.991  25.984  1.00  0.00     0.011 C 
BRANCH  15  16
ATOM     16  C   UNL     1      12.835  21.516  24.477  1.00  0.00     0.001 CG0
ATOM     17  G   UNL     1      11.613  21.090  23.552  1.00  0.00     0.000 G0
ENDBRANCH  15  16
ENDBRANCH   1  15
TORSDOF 0
ENDMDL
MODEL 6
REMARK VINA RESULT:    -3.529      1.059      3.654
REMARK INTER + INTRA:          -3.847
REMARK INTER:                  -4.354
REMARK INTRA:                   0.507
REMARK UNBOUND:                 0.507
REMARK SMILES C=C1[C@H]2CC[C@@H]3[C@@H]2C(C)(C)CCC[C@]13C
REMARK SMILES IDX 14 1 6 2 7 3 3 4 2 5 1 6 4 7 5 8 15 9 8 10 9 11 10 12 11 13
REMARK SMILES IDX 13 15 12 16
REMARK H PARENT
REMARK Flexibility Score: 80.00
ROOT
ATOM      1  C   UNL     1       7.919  19.787  23.711  1.00  0.00    -0.008 C 
ATOM      2  C   UNL     1       8.430  19.243  25.038  1.00  0.00     0.003 C 
ATOM      3  C   UNL     1       9.363  20.403  25.430  1.00  0.00     0.006 C 
ATOM      4  C   UNL     1       8.236  21.411  25.573  1.00  0.00     0.019 C 
ATOM      5  C   UNL     1       7.635  21.230  24.159  1.00  0.00    -0.068 C 
ATOM      6  C   UNL     1       7.045  22.186  23.436  1.00  0.00     0.009 C 
ATOM      7  C   UNL     1       7.289  20.744  26.561  1.00  0.00     0.008 C 
ATOM      8  C   UNL     1       7.395  19.262  26.189  1.00  0.00     0.005 C 
ATOM      9  C   UNL     1       6.626  19.096  23.227  1.00  0.00     0.016 C 
ENDROOT
BRANCH   3  10
ATOM     10  C   UNL     1      10.794  19.882  25.689  1.00  0.00    -0.032 C 
ATOM     11  C   UNL     1      11.775  21.042  26.023  1.00  0.00     0.011 C 
ATOM     12  C   UNL     1      10.822  18.901  26.881  1.00  0.00     0.011 C 
BRANCH  10  13
ATOM     13  C   UNL     1      11.236  19.150  24.340  1.00  0.00     0.007 CG0
ATOM     14  G   UNL     1      10.630  19.718  22.983  1.00  0.00     0.000 G0
ENDBRANCH  10  13
ENDBRANCH   3  10
BRANCH   1  15
ATOM     15  C   UNL     1       9.082  19.559  22.641  1.00  0.00     0.011 C 
BRANCH  15  16
ATOM     16  C   UNL     1      10.635  19.708  22.981  1.00  0.00     0.001 CG0
ATOM     17  G   UNL     1      11.233  19.156  24.348  1.00  0.00     0.000 G0
ENDBRANCH  15  16
ENDBRANCH   1  15
TORSDOF 0
ENDMDL
MODEL 7
REMARK VINA RESULT:    -3.509      1.650      2.753
REMARK INTER + INTRA:          -3.823
REMARK INTER:                  -4.335
REMARK INTRA:                   0.512
REMARK UNBOUND:                 0.507
REMARK SMILES C=C1[C@H]2CC[C@@H]3[C@@H]2C(C)(C)CCC[C@]13C
REMARK SMILES IDX 14 1 6 2 7 3 3 4 2 5 1 6 4 7 5 8 15 9 8 10 9 11 10 12 11 13
REMARK SMILES IDX 13 15 12 16
REMARK H PARENT
REMARK Flexibility Score: 80.00
ROOT
ATOM      1  C   UNL     1      11.104  21.477  25.836  1.00  0.00    -0.008 C 
ATOM      2  C   UNL     1       9.842  20.659  26.077  1.00  0.00     0.003 C 
ATOM      3  C   UNL     1       9.939  19.706  24.871  1.00  0.00     0.006 C 
ATOM      4  C   UNL     1      11.209  19.034  25.360  1.00  0.00     0.019 C 
ATOM      5  C   UNL     1      12.060  20.316  25.514  1.00  0.00    -0.068 C 
ATOM      6  C   UNL     1      13.380  20.403  25.323  1.00  0.00     0.009 C 
ATOM      7  C   UNL     1      10.841  18.558  26.759  1.00  0.00     0.008 C 
ATOM      8  C   UNL     1       9.925  19.673  27.268  1.00  0.00     0.005 C 
ATOM      9  C   UNL     1      11.576  22.249  27.087  1.00  0.00     0.016 C 
ENDROOT
BRANCH   3  10
ATOM     10  C   UNL     1       8.652  19.780  24.019  1.00  0.00    -0.032 C 
ATOM     11  C   UNL     1       8.753  18.890  22.748  1.00  0.00     0.011 C 
ATOM     12  C   UNL     1       7.425  19.296  24.823  1.00  0.00     0.011 C 
BRANCH  10  13
ATOM     13  C   UNL     1       8.493  21.317  23.612  1.00  0.00     0.007 CG0
ATOM     14  G   UNL     1       9.834  22.152  23.425  1.00  0.00     0.000 G0
ENDBRANCH  10  13
ENDBRANCH   3  10
BRANCH   1  15
ATOM     15  C   UNL     1      10.768  22.507  24.663  1.00  0.00     0.011 C 
BRANCH  15  16
ATOM     16  C   UNL     1       9.829  22.154  23.421  1.00  0.00     0.001 CG0
ATOM     17  G   UNL     1       8.491  21.317  23.615  1.00  0.00     0.000 G0
ENDBRANCH  15  16
ENDBRANCH   1  15
TORSDOF 0
ENDMDL
MODEL 8
REMARK VINA RESULT:    -3.500      1.446      3.369
REMARK INTER + INTRA:          -3.811
REMARK INTER:                  -4.333
REMARK INTRA:                   0.522
REMARK UNBOUND:                 0.507
REMARK SMILES C=C1[C@H]2CC[C@@H]3[C@@H]2C(C)(C)CCC[C@]13C
REMARK SMILES IDX 14 1 6 2 7 3 3 4 2 5 1 6 4 7 5 8 15 9 8 10 9 11 10 12 11 13
REMARK SMILES IDX 13 15 12 16
REMARK H PARENT
REMARK Flexibility Score: 80.00
ROOT
ATOM      1  C   UNL     1       9.964  20.329  23.194  1.00  0.00    -0.008 C 
ATOM      2  C   UNL     1       9.572  21.131  24.427  1.00  0.00     0.003 C 
ATOM      3  C   UNL     1       9.409  19.971  25.426  1.00  0.00     0.006 C 
ATOM      4  C   UNL     1      10.876  19.581  25.388  1.00  0.00     0.019 C 
ATOM      5  C   UNL     1      10.985  19.390  23.857  1.00  0.00    -0.068 C 
ATOM      6  C   UNL     1      11.774  18.507  23.237  1.00  0.00     0.009 C 
ATOM      7  C   UNL     1      11.594  20.877  25.738  1.00  0.00     0.008 C 
ATOM      8  C   UNL     1      10.724  21.943  25.067  1.00  0.00     0.005 C 
ATOM      9  C   UNL     1      10.634  21.186  22.098  1.00  0.00     0.016 C 
ENDROOT
BRANCH   3  10
ATOM     10  C   UNL     1       8.000  19.998  26.062  1.00  0.00    -0.032 C 
ATOM     11  C   UNL     1       7.766  18.774  26.991  1.00  0.00     0.011 C 
ATOM     12  C   UNL     1       7.802  21.269  26.917  1.00  0.00     0.011 C 
BRANCH  10  13
ATOM     13  C   UNL     1       6.975  19.972  24.837  1.00  0.00     0.007 CG0
ATOM     14  G   UNL     1       7.425  19.166  23.542  1.00  0.00     0.000 G0
ENDBRANCH  10  13
ENDBRANCH   3  10
BRANCH   1  15
ATOM     15  C   UNL     1       8.623  19.679  22.621  1.00  0.00     0.011 C 
BRANCH  15  16
ATOM     16  C   UNL     1       7.421  19.176  23.545  1.00  0.00     0.001 CG0
ATOM     17  G   UNL     1       6.981  19.994  24.837  1.00  0.00     0.000 G0
ENDBRANCH  15  16
ENDBRANCH   1  15
TORSDOF 0
ENDMDL
MODEL 9
REMARK VINA RESULT:    -3.402      1.134      3.399
REMARK INTER + INTRA:          -3.691
REMARK INTER:                  -4.209
REMARK INTRA:                   0.519
REMARK UNBOUND:                 0.507
REMARK SMILES C=C1[C@H]2CC[C@@H]3[C@@H]2C(C)(C)CCC[C@]13C
REMARK SMILES IDX 14 1 6 2 7 3 3 4 2 5 1 6 4 7 5 8 15 9 8 10 9 11 10 12 11 13
REMARK SMILES IDX 13 15 12 16
REMARK H PARENT
REMARK Flexibility Score: 80.00
ROOT
ATOM      1  C   UNL     1       8.078  19.460  26.299  1.00  0.00    -0.008 C 
ATOM      2  C   UNL     1       9.568  19.230  26.088  1.00  0.00     0.003 C 
ATOM      3  C   UNL     1       9.928  20.573  25.427  1.00  0.00     0.006 C 
ATOM      4  C   UNL     1       9.603  21.396  26.660  1.00  0.00     0.019 C 
ATOM      5  C   UNL     1       8.153  20.893  26.853  1.00  0.00    -0.068 C 
ATOM      6  C   UNL     1       7.139  21.611  27.343  1.00  0.00     0.009 C 
ATOM      7  C   UNL     1      10.457  20.757  27.747  1.00  0.00     0.008 C 
ATOM      8  C   UNL     1      10.422  19.271  27.379  1.00  0.00     0.005 C 
ATOM      9  C   UNL     1       7.455  18.501  27.337  1.00  0.00     0.016 C 
ENDROOT
BRANCH   3  10
ATOM     10  C   UNL     1      10.608  20.338  24.059  1.00  0.00    -0.032 C 
ATOM     11  C   UNL     1      10.894  21.677  23.323  1.00  0.00     0.011 C 
ATOM     12  C   UNL     1      11.960  19.610  24.230  1.00  0.00     0.011 C 
BRANCH  10  13
ATOM     13  C   UNL     1       9.585  19.446  23.217  1.00  0.00     0.007 CG0
ATOM     14  G   UNL     1       8.036  19.679  23.491  1.00  0.00     0.000 G0
ENDBRANCH  10  13
ENDBRANCH   3  10
BRANCH   1  15
ATOM     15  C   UNL     1       7.373  19.250  24.883  1.00  0.00     0.011 C 
BRANCH  15  16
ATOM     16  C   UNL     1       8.041  19.670  23.494  1.00  0.00     0.001 CG0
ATOM     17  G   UNL     1       9.592  19.440  23.227  1.00  0.00     0.000 G0
ENDBRANCH  15  16
ENDBRANCH   1  15
TORSDOF 0
ENDMDL
