MODEL 1
REMARK VINA RESULT:    -0.202      0.000      0.000
REMARK INTER + INTRA:           0.115
REMARK INTER:                  -0.250
REMARK INTRA:                   0.365
REMARK UNBOUND:                 0.365
REMARK SMILES O=c1c(O)c(-c2cc(O)c(O)c(O)c2)oc2cc(O)cc(O)c12
REMARK SMILES IDX 5 1 3 2 2 3 1 4 23 5 21 6 20 7 18 8 17 9 16 10 15 11 6 12
REMARK SMILES IDX 7 13 8 14 14 15 10 16 12 17 9 18 11 20 13 22 4 24 22 26
REMARK SMILES IDX 19 28
REMARK H PARENT 9 19 11 21 13 23 4 25 22 27 19 29
REMARK Flexibility Score: inf
ROOT
ATOM      1  C   UNL     1     -11.988 -15.505  31.163  1.00  0.00     0.180 A 
ATOM      2  C   UNL     1     -10.918 -16.322  30.759  1.00  0.00     0.208 A 
ATOM      3  C   UNL     1     -10.869 -16.773  29.431  1.00  0.00     0.238 A 
ATOM      4  O   UNL     1      -9.880 -17.459  29.061  1.00  0.00    -0.285 OA
ATOM      5  C   UNL     1     -11.897 -16.414  28.526  1.00  0.00     0.111 A 
ATOM      6  C   UNL     1     -11.970 -16.847  27.168  1.00  0.00     0.134 A 
ATOM      7  C   UNL     1     -12.962 -16.324  26.329  1.00  0.00     0.093 A 
ATOM      8  C   UNL     1     -13.923 -15.436  26.817  1.00  0.00     0.123 A 
ATOM      9  C   UNL     1     -13.896 -15.054  28.156  1.00  0.00     0.094 A 
ATOM     10  C   UNL     1     -12.897 -15.530  29.008  1.00  0.00     0.146 A 
ATOM     11  O   UNL     1     -12.902 -15.133  30.276  1.00  0.00    -0.452 OA
ENDROOT
BRANCH   1  12
ATOM     12  C   UNL     1     -12.121 -15.012  32.553  1.00  0.00     0.029 A 
ATOM     13  C   UNL     1     -10.974 -14.869  33.346  1.00  0.00     0.062 A 
ATOM     14  C   UNL     1     -11.060 -14.385  34.657  1.00  0.00     0.162 A 
ATOM     15  C   UNL     1     -13.365 -14.629  33.077  1.00  0.00     0.062 A 
ATOM     16  C   UNL     1     -12.321 -14.022  35.186  1.00  0.00     0.200 A 
ATOM     17  C   UNL     1     -13.466 -14.144  34.386  1.00  0.00     0.162 A 
BRANCH  14  18
ATOM     18  O   UNL     1      -9.876 -14.281  35.391  1.00  0.00    -0.504 OA
ATOM     19  H   UNL     1      -9.766 -14.612  36.338  1.00  0.00     0.293 HD
ENDBRANCH  14  18
BRANCH  16  20
ATOM     20  O   UNL     1     -12.478 -13.540  36.489  1.00  0.00    -0.502 OA
ATOM     21  H   UNL     1     -12.574 -12.562  36.722  1.00  0.00     0.293 HD
ENDBRANCH  16  20
BRANCH  17  22
ATOM     22  O   UNL     1     -14.707 -13.773  34.902  1.00  0.00    -0.504 OA
ATOM     23  H   UNL     1     -14.891 -12.828  35.219  1.00  0.00     0.293 HD
ENDBRANCH  17  22
ENDBRANCH   1  12
BRANCH   2  24
ATOM     24  O   UNL     1      -9.902 -16.647  31.662  1.00  0.00    -0.502 OA
ATOM     25  H   UNL     1      -9.313 -17.464  31.549  1.00  0.00     0.293 HD
ENDBRANCH   2  24
BRANCH   6  26
ATOM     26  O   UNL     1     -11.115 -17.800  26.606  1.00  0.00    -0.507 OA
ATOM     27  H   UNL     1     -11.397 -18.725  26.320  1.00  0.00     0.293 HD
ENDBRANCH   6  26
BRANCH   8  28
ATOM     28  O   UNL     1     -14.917 -14.933  25.979  1.00  0.00    -0.508 OA
ATOM     29  H   UNL     1     -15.526 -14.179  26.274  1.00  0.00     0.293 HD
ENDBRANCH   8  28
TORSDOF 7
ENDMDL
MODEL 2
REMARK VINA RESULT:     0.059      1.467      3.312
REMARK INTER + INTRA:           0.437
REMARK INTER:                   0.051
REMARK INTRA:                   0.386
REMARK UNBOUND:                 0.365
REMARK SMILES O=c1c(O)c(-c2cc(O)c(O)c(O)c2)oc2cc(O)cc(O)c12
REMARK SMILES IDX 5 1 3 2 2 3 1 4 23 5 21 6 20 7 18 8 17 9 16 10 15 11 6 12
REMARK SMILES IDX 7 13 8 14 14 15 10 16 12 17 9 18 11 20 13 22 4 24 22 26
REMARK SMILES IDX 19 28
REMARK H PARENT 9 19 11 21 13 23 4 25 22 27 19 29
REMARK Flexibility Score: inf
ROOT
ATOM      1  C   UNL     1     -12.714 -14.713  32.811  1.00  0.00     0.180 A 
ATOM      2  C   UNL     1     -13.931 -14.367  32.199  1.00  0.00     0.208 A 
ATOM      3  C   UNL     1     -14.103 -14.629  30.830  1.00  0.00     0.238 A 
ATOM      4  O   UNL     1     -15.214 -14.369  30.299  1.00  0.00    -0.285 OA
ATOM      5  C   UNL     1     -13.051 -15.219  30.088  1.00  0.00     0.111 A 
ATOM      6  C   UNL     1     -13.101 -15.492  28.689  1.00  0.00     0.134 A 
ATOM      7  C   UNL     1     -12.051 -16.197  28.085  1.00  0.00     0.093 A 
ATOM      8  C   UNL     1     -10.926 -16.579  28.817  1.00  0.00     0.123 A 
ATOM      9  C   UNL     1     -10.841 -16.264  30.172  1.00  0.00     0.094 A 
ATOM     10  C   UNL     1     -11.888 -15.595  30.809  1.00  0.00     0.146 A 
ATOM     11  O   UNL     1     -11.771 -15.322  32.104  1.00  0.00    -0.452 OA
ENDROOT
BRANCH   1  12
ATOM     12  C   UNL     1     -12.450 -14.444  34.244  1.00  0.00     0.029 A 
ATOM     13  C   UNL     1     -11.313 -14.994  34.851  1.00  0.00     0.062 A 
ATOM     14  C   UNL     1     -11.020 -14.743  36.196  1.00  0.00     0.162 A 
ATOM     15  C   UNL     1     -13.284 -13.601  34.995  1.00  0.00     0.062 A 
ATOM     16  C   UNL     1     -11.878 -13.911  36.954  1.00  0.00     0.200 A 
ATOM     17  C   UNL     1     -13.004 -13.341  36.342  1.00  0.00     0.162 A 
BRANCH  14  18
ATOM     18  O   UNL     1      -9.876 -15.336  36.735  1.00  0.00    -0.504 OA
ATOM     19  H   UNL     1      -9.882 -15.961  37.528  1.00  0.00     0.293 HD
ENDBRANCH  14  18
BRANCH  16  20
ATOM     20  O   UNL     1     -11.649 -13.625  38.303  1.00  0.00    -0.502 OA
ATOM     21  H   UNL     1     -11.791 -14.285  39.053  1.00  0.00     0.293 HD
ENDBRANCH  16  20
BRANCH  17  22
ATOM     22  O   UNL     1     -13.842 -12.508  37.083  1.00  0.00    -0.504 OA
ATOM     23  H   UNL     1     -13.654 -11.518  37.183  1.00  0.00     0.293 HD
ENDBRANCH  17  22
ENDBRANCH   1  12
BRANCH   2  24
ATOM     24  O   UNL     1     -14.965 -13.806  32.954  1.00  0.00    -0.502 OA
ATOM     25  H   UNL     1     -15.410 -14.300  33.719  1.00  0.00     0.293 HD
ENDBRANCH   2  24
BRANCH   6  26
ATOM     26  O   UNL     1     -14.137 -15.074  27.847  1.00  0.00    -0.507 OA
ATOM     27  H   UNL     1     -14.182 -14.172  27.398  1.00  0.00     0.293 HD
ENDBRANCH   6  26
BRANCH   8  28
ATOM     28  O   UNL     1      -9.878 -17.266  28.205  1.00  0.00    -0.508 OA
ATOM     29  H   UNL     1      -9.498 -16.967  27.315  1.00  0.00     0.293 HD
ENDBRANCH   8  28
TORSDOF 7
ENDMDL
MODEL 3
REMARK VINA RESULT:     1.435      1.830      2.608
REMARK INTER + INTRA:           2.135
REMARK INTER:                   2.308
REMARK INTRA:                  -0.173
REMARK UNBOUND:                 0.365
REMARK SMILES O=c1c(O)c(-c2cc(O)c(O)c(O)c2)oc2cc(O)cc(O)c12
REMARK SMILES IDX 5 1 3 2 2 3 1 4 23 5 21 6 20 7 18 8 17 9 16 10 15 11 6 12
REMARK SMILES IDX 7 13 8 14 14 15 10 16 12 17 9 18 11 20 13 22 4 24 22 26
REMARK SMILES IDX 19 28
REMARK H PARENT 9 19 11 21 13 23 4 25 22 27 19 29
REMARK Flexibility Score: inf
ROOT
ATOM      1  C   UNL     1     -11.757 -15.564  31.724  1.00  0.00     0.180 A 
ATOM      2  C   UNL     1     -10.779 -15.127  30.813  1.00  0.00     0.208 A 
ATOM      3  C   UNL     1     -10.716 -15.723  29.543  1.00  0.00     0.238 A 
ATOM      4  O   UNL     1      -9.876 -15.290  28.713  1.00  0.00    -0.285 OA
ATOM      5  C   UNL     1     -11.621 -16.758  29.205  1.00  0.00     0.111 A 
ATOM      6  C   UNL     1     -11.622 -17.459  27.963  1.00  0.00     0.134 A 
ATOM      7  C   UNL     1     -12.646 -18.376  27.688  1.00  0.00     0.093 A 
ATOM      8  C   UNL     1     -13.629 -18.663  28.637  1.00  0.00     0.123 A 
ATOM      9  C   UNL     1     -13.602 -18.026  29.876  1.00  0.00     0.094 A 
ATOM     10  C   UNL     1     -12.615 -17.081  30.165  1.00  0.00     0.146 A 
ATOM     11  O   UNL     1     -12.631 -16.491  31.355  1.00  0.00    -0.452 OA
ENDROOT
BRANCH   1  12
ATOM     12  C   UNL     1     -11.868 -15.001  33.089  1.00  0.00     0.029 A 
ATOM     13  C   UNL     1     -13.078 -14.425  33.501  1.00  0.00     0.062 A 
ATOM     14  C   UNL     1     -13.225 -13.902  34.791  1.00  0.00     0.162 A 
ATOM     15  C   UNL     1     -10.805 -15.084  34.003  1.00  0.00     0.062 A 
ATOM     16  C   UNL     1     -12.142 -13.969  35.700  1.00  0.00     0.200 A 
ATOM     17  C   UNL     1     -10.939 -14.566  35.297  1.00  0.00     0.162 A 
BRANCH  14  18
ATOM     18  O   UNL     1     -14.455 -13.333  35.126  1.00  0.00    -0.504 OA
ATOM     19  H   UNL     1     -15.307 -13.479  34.604  1.00  0.00     0.293 HD
ENDBRANCH  14  18
BRANCH  16  20
ATOM     20  O   UNL     1     -12.220 -13.462  37.000  1.00  0.00    -0.502 OA
ATOM     21  H   UNL     1     -12.071 -14.013  37.832  1.00  0.00     0.293 HD
ENDBRANCH  16  20
BRANCH  17  22
ATOM     22  O   UNL     1      -9.876 -14.646  36.195  1.00  0.00    -0.504 OA
ATOM     23  H   UNL     1      -8.982 -15.039  35.927  1.00  0.00     0.293 HD
ENDBRANCH  17  22
ENDBRANCH   1  12
BRANCH   2  24
ATOM     24  O   UNL     1      -9.910 -14.088  31.158  1.00  0.00    -0.502 OA
ATOM     25  H   UNL     1     -10.183 -13.332  31.775  1.00  0.00     0.293 HD
ENDBRANCH   2  24
BRANCH   6  26
ATOM     26  O   UNL     1     -10.634 -17.315  26.983  1.00  0.00    -0.507 OA
ATOM     27  H   UNL     1     -10.654 -17.761  26.079  1.00  0.00     0.293 HD
ENDBRANCH   6  26
BRANCH   8  28
ATOM     28  O   UNL     1     -14.635 -19.588  28.361  1.00  0.00    -0.508 OA
ATOM     29  H   UNL     1     -15.594 -19.427  28.645  1.00  0.00     0.293 HD
ENDBRANCH   8  28
TORSDOF 7
ENDMDL
MODEL 4
REMARK VINA RESULT:     1.516      1.182      2.820
REMARK INTER + INTRA:           2.235
REMARK INTER:                   1.802
REMARK INTRA:                   0.433
REMARK UNBOUND:                 0.365
REMARK SMILES O=c1c(O)c(-c2cc(O)c(O)c(O)c2)oc2cc(O)cc(O)c12
REMARK SMILES IDX 5 1 3 2 2 3 1 4 23 5 21 6 20 7 18 8 17 9 16 10 15 11 6 12
REMARK SMILES IDX 7 13 8 14 14 15 10 16 12 17 9 18 11 20 13 22 4 24 22 26
REMARK SMILES IDX 19 28
REMARK H PARENT 9 19 11 21 13 23 4 25 22 27 19 29
REMARK Flexibility Score: inf
ROOT
ATOM      1  C   UNL     1     -12.864 -14.949  31.241  1.00  0.00     0.180 A 
ATOM      2  C   UNL     1     -14.003 -14.476  30.566  1.00  0.00     0.208 A 
ATOM      3  C   UNL     1     -14.142 -14.746  29.195  1.00  0.00     0.238 A 
ATOM      4  O   UNL     1     -15.189 -14.369  28.607  1.00  0.00    -0.285 OA
ATOM      5  C   UNL     1     -13.135 -15.471  28.513  1.00  0.00     0.111 A 
ATOM      6  C   UNL     1     -13.153 -15.767  27.118  1.00  0.00     0.134 A 
ATOM      7  C   UNL     1     -12.168 -16.604  26.576  1.00  0.00     0.093 A 
ATOM      8  C   UNL     1     -11.130 -17.099  27.367  1.00  0.00     0.123 A 
ATOM      9  C   UNL     1     -11.071 -16.768  28.719  1.00  0.00     0.094 A 
ATOM     10  C   UNL     1     -12.059 -15.966  29.295  1.00  0.00     0.146 A 
ATOM     11  O   UNL     1     -11.970 -15.681  30.590  1.00  0.00    -0.452 OA
ENDROOT
BRANCH   1  12
ATOM     12  C   UNL     1     -12.636 -14.682  32.680  1.00  0.00     0.029 A 
ATOM     13  C   UNL     1     -11.392 -14.987  33.249  1.00  0.00     0.062 A 
ATOM     14  C   UNL     1     -11.133 -14.728  34.600  1.00  0.00     0.162 A 
ATOM     15  C   UNL     1     -13.620 -14.075  33.476  1.00  0.00     0.062 A 
ATOM     16  C   UNL     1     -12.138 -14.136  35.402  1.00  0.00     0.200 A 
ATOM     17  C   UNL     1     -13.375 -13.809  34.828  1.00  0.00     0.162 A 
BRANCH  14  18
ATOM     18  O   UNL     1      -9.875 -15.070  35.099  1.00  0.00    -0.504 OA
ATOM     19  H   UNL     1      -9.068 -14.465  35.062  1.00  0.00     0.293 HD
ENDBRANCH  14  18
BRANCH  16  20
ATOM     20  O   UNL     1     -11.949 -13.857  36.758  1.00  0.00    -0.502 OA
ATOM     21  H   UNL     1     -12.201 -14.487  37.506  1.00  0.00     0.293 HD
ENDBRANCH  16  20
BRANCH  17  22
ATOM     22  O   UNL     1     -14.361 -13.213  35.614  1.00  0.00    -0.504 OA
ATOM     23  H   UNL     1     -14.663 -12.259  35.454  1.00  0.00     0.293 HD
ENDBRANCH  17  22
ENDBRANCH   1  12
BRANCH   2  24
ATOM     24  O   UNL     1     -14.996 -13.781  31.261  1.00  0.00    -0.502 OA
ATOM     25  H   UNL     1     -15.528 -13.027  30.843  1.00  0.00     0.293 HD
ENDBRANCH   2  24
BRANCH   6  26
ATOM     26  O   UNL     1     -14.093 -15.248  26.221  1.00  0.00    -0.507 OA
ATOM     27  H   UNL     1     -14.189 -14.271  25.994  1.00  0.00     0.293 HD
ENDBRANCH   6  26
BRANCH   8  28
ATOM     28  O   UNL     1     -10.145 -17.918  26.817  1.00  0.00    -0.508 OA
ATOM     29  H   UNL     1      -9.839 -17.807  25.858  1.00  0.00     0.293 HD
ENDBRANCH   8  28
TORSDOF 7
ENDMDL
MODEL 5
REMARK VINA RESULT:     2.146      1.143      7.452
REMARK INTER + INTRA:           3.012
REMARK INTER:                   2.595
REMARK INTRA:                   0.417
REMARK UNBOUND:                 0.365
REMARK SMILES O=c1c(O)c(-c2cc(O)c(O)c(O)c2)oc2cc(O)cc(O)c12
REMARK SMILES IDX 5 1 3 2 2 3 1 4 23 5 21 6 20 7 18 8 17 9 16 10 15 11 6 12
REMARK SMILES IDX 7 13 8 14 14 15 10 16 12 17 9 18 11 20 13 22 4 24 22 26
REMARK SMILES IDX 19 28
REMARK H PARENT 9 19 11 21 13 23 4 25 22 27 19 29
REMARK Flexibility Score: inf
ROOT
ATOM      1  C   UNL     1     -12.789 -15.420  30.884  1.00  0.00     0.180 A 
ATOM      2  C   UNL     1     -14.081 -14.978  31.217  1.00  0.00     0.208 A 
ATOM      3  C   UNL     1     -14.317 -14.475  32.506  1.00  0.00     0.238 A 
ATOM      4  O   UNL     1     -15.461 -14.029  32.782  1.00  0.00    -0.285 OA
ATOM      5  C   UNL     1     -13.263 -14.436  33.451  1.00  0.00     0.111 A 
ATOM      6  C   UNL     1     -13.399 -13.984  34.798  1.00  0.00     0.134 A 
ATOM      7  C   UNL     1     -12.259 -13.866  35.605  1.00  0.00     0.093 A 
ATOM      8  C   UNL     1     -11.001 -14.247  35.134  1.00  0.00     0.123 A 
ATOM      9  C   UNL     1     -10.868 -14.745  33.839  1.00  0.00     0.094 A 
ATOM     10  C   UNL     1     -11.980 -14.839  32.999  1.00  0.00     0.146 A 
ATOM     11  O   UNL     1     -11.807 -15.311  31.770  1.00  0.00    -0.452 OA
ENDROOT
BRANCH   1  12
ATOM     12  C   UNL     1     -12.470 -15.986  29.553  1.00  0.00     0.029 A 
ATOM     13  C   UNL     1     -13.305 -15.700  28.464  1.00  0.00     0.062 A 
ATOM     14  C   UNL     1     -13.023 -16.200  27.187  1.00  0.00     0.162 A 
ATOM     15  C   UNL     1     -11.315 -16.757  29.343  1.00  0.00     0.062 A 
ATOM     16  C   UNL     1     -11.869 -16.995  26.988  1.00  0.00     0.200 A 
ATOM     17  C   UNL     1     -11.020 -17.262  28.072  1.00  0.00     0.162 A 
BRANCH  14  18
ATOM     18  O   UNL     1     -13.907 -15.883  26.154  1.00  0.00    -0.504 OA
ATOM     19  H   UNL     1     -13.734 -15.171  25.459  1.00  0.00     0.293 HD
ENDBRANCH  14  18
BRANCH  16  20
ATOM     20  O   UNL     1     -11.531 -17.530  25.742  1.00  0.00    -0.502 OA
ATOM     21  H   UNL     1     -11.232 -16.979  24.951  1.00  0.00     0.293 HD
ENDBRANCH  16  20
BRANCH  17  22
ATOM     22  O   UNL     1      -9.875 -18.034  27.874  1.00  0.00    -0.504 OA
ATOM     23  H   UNL     1      -8.982 -17.772  28.275  1.00  0.00     0.293 HD
ENDBRANCH  17  22
ENDBRANCH   1  12
BRANCH   2  24
ATOM     24  O   UNL     1     -15.102 -15.005  30.263  1.00  0.00    -0.502 OA
ATOM     25  H   UNL     1     -14.922 -14.915  29.270  1.00  0.00     0.293 HD
ENDBRANCH   2  24
BRANCH   6  26
ATOM     26  O   UNL     1     -14.622 -13.666  35.396  1.00  0.00    -0.507 OA
ATOM     27  H   UNL     1     -14.743 -13.445  36.372  1.00  0.00     0.293 HD
ENDBRANCH   6  26
BRANCH   8  28
ATOM     28  O   UNL     1      -9.875 -14.141  35.949  1.00  0.00    -0.508 OA
ATOM     29  H   UNL     1      -9.350 -13.277  36.017  1.00  0.00     0.293 HD
ENDBRANCH   8  28
TORSDOF 7
ENDMDL
MODEL 6
REMARK VINA RESULT:     2.161      1.975      7.518
REMARK INTER + INTRA:           3.031
REMARK INTER:                   3.186
REMARK INTRA:                  -0.155
REMARK UNBOUND:                 0.365
REMARK SMILES O=c1c(O)c(-c2cc(O)c(O)c(O)c2)oc2cc(O)cc(O)c12
REMARK SMILES IDX 5 1 3 2 2 3 1 4 23 5 21 6 20 7 18 8 17 9 16 10 15 11 6 12
REMARK SMILES IDX 7 13 8 14 14 15 10 16 12 17 9 18 11 20 13 22 4 24 22 26
REMARK SMILES IDX 19 28
REMARK H PARENT 9 19 11 21 13 23 4 25 22 27 19 29
REMARK Flexibility Score: inf
ROOT
ATOM      1  C   UNL     1     -12.850 -15.307  32.003  1.00  0.00     0.180 A 
ATOM      2  C   UNL     1     -14.109 -14.736  32.254  1.00  0.00     0.208 A 
ATOM      3  C   UNL     1     -14.315 -14.044  33.458  1.00  0.00     0.238 A 
ATOM      4  O   UNL     1     -15.427 -13.487  33.654  1.00  0.00    -0.285 OA
ATOM      5  C   UNL     1     -13.265 -13.946  34.403  1.00  0.00     0.111 A 
ATOM      6  C   UNL     1     -13.374 -13.304  35.673  1.00  0.00     0.134 A 
ATOM      7  C   UNL     1     -12.233 -13.154  36.471  1.00  0.00     0.093 A 
ATOM      8  C   UNL     1     -11.003 -13.681  36.074  1.00  0.00     0.123 A 
ATOM      9  C   UNL     1     -10.899 -14.362  34.863  1.00  0.00     0.094 A 
ATOM     10  C   UNL     1     -12.011 -14.495  34.029  1.00  0.00     0.146 A 
ATOM     11  O   UNL     1     -11.867 -15.143  32.879  1.00  0.00    -0.452 OA
ENDROOT
BRANCH   1  12
ATOM     12  C   UNL     1     -12.566 -16.073  30.767  1.00  0.00     0.029 A 
ATOM     13  C   UNL     1     -13.304 -17.232  30.489  1.00  0.00     0.062 A 
ATOM     14  C   UNL     1     -13.077 -17.968  29.320  1.00  0.00     0.162 A 
ATOM     15  C   UNL     1     -11.613 -15.631  29.836  1.00  0.00     0.062 A 
ATOM     16  C   UNL     1     -12.099 -17.528  28.397  1.00  0.00     0.200 A 
ATOM     17  C   UNL     1     -11.376 -16.356  28.663  1.00  0.00     0.162 A 
BRANCH  14  18
ATOM     18  O   UNL     1     -13.843 -19.118  29.117  1.00  0.00    -0.504 OA
ATOM     19  H   UNL     1     -14.821 -19.111  28.869  1.00  0.00     0.293 HD
ENDBRANCH  14  18
BRANCH  16  20
ATOM     20  O   UNL     1     -11.818 -18.219  27.214  1.00  0.00    -0.502 OA
ATOM     21  H   UNL     1     -12.414 -18.932  26.821  1.00  0.00     0.293 HD
ENDBRANCH  16  20
BRANCH  17  22
ATOM     22  O   UNL     1     -10.422 -15.915  27.747  1.00  0.00    -0.504 OA
ATOM     23  H   UNL     1     -10.259 -16.401  26.873  1.00  0.00     0.293 HD
ENDBRANCH  17  22
ENDBRANCH   1  12
BRANCH   2  24
ATOM     24  O   UNL     1     -15.126 -14.825  31.299  1.00  0.00    -0.502 OA
ATOM     25  H   UNL     1     -16.105 -14.711  31.533  1.00  0.00     0.293 HD
ENDBRANCH   2  24
BRANCH   6  26
ATOM     26  O   UNL     1     -14.575 -12.824  36.204  1.00  0.00    -0.507 OA
ATOM     27  H   UNL     1     -14.981 -11.927  35.985  1.00  0.00     0.293 HD
ENDBRANCH   6  26
BRANCH   8  28
ATOM     28  O   UNL     1      -9.875 -13.541  36.882  1.00  0.00    -0.508 OA
ATOM     29  H   UNL     1      -9.357 -12.672  36.922  1.00  0.00     0.293 HD
ENDBRANCH   8  28
TORSDOF 7
ENDMDL
MODEL 7
REMARK VINA RESULT:     2.324      1.453      1.845
REMARK INTER + INTRA:           3.232
REMARK INTER:                   2.770
REMARK INTRA:                   0.462
REMARK UNBOUND:                 0.365
REMARK SMILES O=c1c(O)c(-c2cc(O)c(O)c(O)c2)oc2cc(O)cc(O)c12
REMARK SMILES IDX 5 1 3 2 2 3 1 4 23 5 21 6 20 7 18 8 17 9 16 10 15 11 6 12
REMARK SMILES IDX 7 13 8 14 14 15 10 16 12 17 9 18 11 20 13 22 4 24 22 26
REMARK SMILES IDX 19 28
REMARK H PARENT 9 19 11 21 13 23 4 25 22 27 19 29
REMARK Flexibility Score: inf
ROOT
ATOM      1  C   UNL     1     -12.108 -14.838  32.746  1.00  0.00     0.180 A 
ATOM      2  C   UNL     1     -10.984 -15.491  32.212  1.00  0.00     0.208 A 
ATOM      3  C   UNL     1     -10.977 -15.828  30.849  1.00  0.00     0.238 A 
ATOM      4  O   UNL     1      -9.947 -16.363  30.363  1.00  0.00    -0.285 OA
ATOM      5  C   UNL     1     -12.099 -15.522  30.042  1.00  0.00     0.111 A 
ATOM      6  C   UNL     1     -12.217 -15.852  28.658  1.00  0.00     0.134 A 
ATOM      7  C   UNL     1     -13.317 -15.384  27.927  1.00  0.00     0.093 A 
ATOM      8  C   UNL     1     -14.334 -14.655  28.546  1.00  0.00     0.123 A 
ATOM      9  C   UNL     1     -14.257 -14.377  29.909  1.00  0.00     0.094 A 
ATOM     10  C   UNL     1     -13.155 -14.799  30.656  1.00  0.00     0.146 A 
ATOM     11  O   UNL     1     -13.117 -14.506  31.951  1.00  0.00    -0.452 OA
ENDROOT
BRANCH   1  12
ATOM     12  C   UNL     1     -12.198 -14.474  34.179  1.00  0.00     0.029 A 
ATOM     13  C   UNL     1     -11.287 -15.026  35.090  1.00  0.00     0.062 A 
ATOM     14  C   UNL     1     -11.329 -14.688  36.448  1.00  0.00     0.162 A 
ATOM     15  C   UNL     1     -13.141 -13.541  34.639  1.00  0.00     0.062 A 
ATOM     16  C   UNL     1     -12.297 -13.764  36.907  1.00  0.00     0.200 A 
ATOM     17  C   UNL     1     -13.195 -13.193  35.994  1.00  0.00     0.162 A 
BRANCH  14  18
ATOM     18  O   UNL     1     -10.396 -15.288  37.296  1.00  0.00    -0.504 OA
ATOM     19  H   UNL     1      -9.693 -14.781  37.814  1.00  0.00     0.293 HD
ENDBRANCH  14  18
BRANCH  16  20
ATOM     20  O   UNL     1     -12.399 -13.388  38.250  1.00  0.00    -0.502 OA
ATOM     21  H   UNL     1     -12.763 -12.500  38.563  1.00  0.00     0.293 HD
ENDBRANCH  16  20
BRANCH  17  22
ATOM     22  O   UNL     1     -14.140 -12.272  36.443  1.00  0.00    -0.504 OA
ATOM     23  H   UNL     1     -14.004 -11.274  36.332  1.00  0.00     0.293 HD
ENDBRANCH  17  22
ENDBRANCH   1  12
BRANCH   2  24
ATOM     24  O   UNL     1      -9.878 -15.765  33.021  1.00  0.00    -0.502 OA
ATOM     25  H   UNL     1      -9.894 -16.477  33.742  1.00  0.00     0.293 HD
ENDBRANCH   2  24
BRANCH   6  26
ATOM     26  O   UNL     1     -11.303 -16.653  27.966  1.00  0.00    -0.507 OA
ATOM     27  H   UNL     1     -11.006 -16.494  27.016  1.00  0.00     0.293 HD
ENDBRANCH   6  26
BRANCH   8  28
ATOM     28  O   UNL     1     -15.433 -14.206  27.815  1.00  0.00    -0.508 OA
ATOM     29  H   UNL     1     -16.213 -13.740  28.263  1.00  0.00     0.293 HD
ENDBRANCH   8  28
TORSDOF 7
ENDMDL
MODEL 8
REMARK VINA RESULT:     2.394      1.894      3.509
REMARK INTER + INTRA:           3.318
REMARK INTER:                   3.239
REMARK INTRA:                   0.079
REMARK UNBOUND:                 0.365
REMARK SMILES O=c1c(O)c(-c2cc(O)c(O)c(O)c2)oc2cc(O)cc(O)c12
REMARK SMILES IDX 5 1 3 2 2 3 1 4 23 5 21 6 20 7 18 8 17 9 16 10 15 11 6 12
REMARK SMILES IDX 7 13 8 14 14 15 10 16 12 17 9 18 11 20 13 22 4 24 22 26
REMARK SMILES IDX 19 28
REMARK H PARENT 9 19 11 21 13 23 4 25 22 27 19 29
REMARK Flexibility Score: inf
ROOT
ATOM      1  C   UNL     1     -13.064 -15.296  31.841  1.00  0.00     0.180 A 
ATOM      2  C   UNL     1     -13.741 -14.547  30.864  1.00  0.00     0.208 A 
ATOM      3  C   UNL     1     -14.024 -15.143  29.624  1.00  0.00     0.238 A 
ATOM      4  O   UNL     1     -14.679 -14.488  28.773  1.00  0.00    -0.285 OA
ATOM      5  C   UNL     1     -13.613 -16.474  29.372  1.00  0.00     0.111 A 
ATOM      6  C   UNL     1     -13.811 -17.164  28.139  1.00  0.00     0.134 A 
ATOM      7  C   UNL     1     -13.479 -18.522  28.046  1.00  0.00     0.093 A 
ATOM      8  C   UNL     1     -12.896 -19.196  29.121  1.00  0.00     0.123 A 
ATOM      9  C   UNL     1     -12.645 -18.516  30.310  1.00  0.00     0.094 A 
ATOM     10  C   UNL     1     -12.998 -17.171  30.445  1.00  0.00     0.146 A 
ATOM     11  O   UNL     1     -12.749 -16.562  31.599  1.00  0.00    -0.452 OA
ENDROOT
BRANCH   1  12
ATOM     12  C   UNL     1     -12.709 -14.728  33.162  1.00  0.00     0.029 A 
ATOM     13  C   UNL     1     -13.673 -14.012  33.886  1.00  0.00     0.062 A 
ATOM     14  C   UNL     1     -13.379 -13.479  35.147  1.00  0.00     0.162 A 
ATOM     15  C   UNL     1     -11.444 -14.939  33.733  1.00  0.00     0.062 A 
ATOM     16  C   UNL     1     -12.094 -13.677  35.706  1.00  0.00     0.200 A 
ATOM     17  C   UNL     1     -11.137 -14.412  34.993  1.00  0.00     0.162 A 
BRANCH  14  18
ATOM     18  O   UNL     1     -14.385 -12.768  35.803  1.00  0.00    -0.504 OA
ATOM     19  H   UNL     1     -14.328 -11.786  36.031  1.00  0.00     0.293 HD
ENDBRANCH  14  18
BRANCH  16  20
ATOM     20  O   UNL     1     -11.732 -13.167  36.956  1.00  0.00    -0.502 OA
ATOM     21  H   UNL     1     -11.914 -13.634  37.833  1.00  0.00     0.293 HD
ENDBRANCH  16  20
BRANCH  17  22
ATOM     22  O   UNL     1      -9.875 -14.620  35.549  1.00  0.00    -0.504 OA
ATOM     23  H   UNL     1      -9.129 -15.061  35.025  1.00  0.00     0.293 HD
ENDBRANCH  17  22
ENDBRANCH   1  12
BRANCH   2  24
ATOM     24  O   UNL     1     -14.158 -13.243  31.140  1.00  0.00    -0.502 OA
ATOM     25  H   UNL     1     -14.397 -12.580  30.411  1.00  0.00     0.293 HD
ENDBRANCH   2  24
BRANCH   6  26
ATOM     26  O   UNL     1     -14.301 -16.560  26.976  1.00  0.00    -0.507 OA
ATOM     27  H   UNL     1     -13.764 -15.954  26.376  1.00  0.00     0.293 HD
ENDBRANCH   6  26
BRANCH   8  28
ATOM     28  O   UNL     1     -12.554 -20.543  29.015  1.00  0.00    -0.508 OA
ATOM     29  H   UNL     1     -12.968 -21.140  28.308  1.00  0.00     0.293 HD
ENDBRANCH   8  28
TORSDOF 7
ENDMDL
