MODEL 1
REMARK VINA RESULT:    -6.648      0.000      0.000
REMARK INTER + INTRA:          -8.518
REMARK INTER:                  -8.202
REMARK INTRA:                  -0.316
REMARK UNBOUND:                -0.316
REMARK SMILES COc1cc(-c2oc3cc(O)cc(O)c3c(=O)c2O)ccc1O
REMARK SMILES IDX 6 1 18 2 16 3 17 4 15 5 13 6 12 7 10 8 9 9 8 10 7 11 5 12
REMARK SMILES IDX 3 13 22 14 4 15 21 16 20 17 2 18 1 19 23 20 19 22 14 24
REMARK SMILES IDX 11 26
REMARK H PARENT 23 21 19 23 14 25 11 27
REMARK Flexibility Score: inf
ROOT
ATOM      1  C   UNL     1       4.853 -60.266 189.979  1.00  0.00     0.180 A 
ATOM      2  C   UNL     1       3.504 -60.535 189.674  1.00  0.00     0.208 A 
ATOM      3  C   UNL     1       3.195 -61.676 188.916  1.00  0.00     0.238 A 
ATOM      4  O   UNL     1       1.992 -61.920 188.627  1.00  0.00    -0.285 OA
ATOM      5  C   UNL     1       4.230 -62.536 188.496  1.00  0.00     0.111 A 
ATOM      6  C   UNL     1       4.003 -63.707 187.733  1.00  0.00     0.134 A 
ATOM      7  C   UNL     1       5.086 -64.516 187.362  1.00  0.00     0.093 A 
ATOM      8  C   UNL     1       6.389 -64.180 187.737  1.00  0.00     0.123 A 
ATOM      9  C   UNL     1       6.620 -63.023 188.490  1.00  0.00     0.094 A 
ATOM     10  C   UNL     1       5.554 -62.203 188.869  1.00  0.00     0.146 A 
ATOM     11  O   UNL     1       5.801 -61.109 189.579  1.00  0.00    -0.452 OA
ENDROOT
BRANCH   1  12
ATOM     12  C   UNL     1       5.260 -59.074 190.757  1.00  0.00     0.025 A 
ATOM     13  C   UNL     1       6.020 -58.031 192.836  1.00  0.00     0.161 A 
ATOM     14  C   UNL     1       5.970 -56.772 192.210  1.00  0.00     0.157 A 
ATOM     15  C   UNL     1       5.655 -59.179 192.103  1.00  0.00     0.062 A 
ATOM     16  C   UNL     1       5.556 -56.668 190.879  1.00  0.00     0.051 A 
ATOM     17  C   UNL     1       5.196 -57.808 190.159  1.00  0.00     0.016 A 
BRANCH  13  18
ATOM     18  O   UNL     1       6.428 -58.105 194.177  1.00  0.00    -0.493 OA
ATOM     19  C   UNL     1       5.588 -58.497 195.258  1.00  0.00     0.278 C 
ENDBRANCH  13  18
BRANCH  14  20
ATOM     20  O   UNL     1       6.325 -55.612 192.897  1.00  0.00    -0.504 OA
ATOM     21  H   UNL     1       6.794 -54.837 192.442  1.00  0.00     0.293 HD
ENDBRANCH  14  20
ENDBRANCH   1  12
BRANCH   2  22
ATOM     22  O   UNL     1       2.492 -59.693 190.144  1.00  0.00    -0.502 OA
ATOM     23  H   UNL     1       2.663 -58.975 190.836  1.00  0.00     0.293 HD
ENDBRANCH   2  22
BRANCH   6  24
ATOM     24  O   UNL     1       2.714 -64.071 187.344  1.00  0.00    -0.507 OA
ATOM     25  H   UNL     1       2.511 -64.396 186.406  1.00  0.00     0.293 HD
ENDBRANCH   6  24
BRANCH   8  26
ATOM     26  O   UNL     1       7.448 -65.002 187.356  1.00  0.00    -0.508 OA
ATOM     27  H   UNL     1       7.657 -65.860 187.851  1.00  0.00     0.293 HD
ENDBRANCH   8  26
TORSDOF 6
ENDMDL
MODEL 2
REMARK VINA RESULT:    -6.396      1.495      6.949
REMARK INTER + INTRA:          -8.208
REMARK INTER:                  -8.347
REMARK INTRA:                   0.139
REMARK UNBOUND:                -0.316
REMARK SMILES COc1cc(-c2oc3cc(O)cc(O)c3c(=O)c2O)ccc1O
REMARK SMILES IDX 6 1 18 2 16 3 17 4 15 5 13 6 12 7 10 8 9 9 8 10 7 11 5 12
REMARK SMILES IDX 3 13 22 14 4 15 21 16 20 17 2 18 1 19 23 20 19 22 14 24
REMARK SMILES IDX 11 26
REMARK H PARENT 23 21 19 23 14 25 11 27
REMARK Flexibility Score: inf
ROOT
ATOM      1  C   UNL     1       5.339 -60.465 190.066  1.00  0.00     0.180 A 
ATOM      2  C   UNL     1       4.177 -59.790 189.644  1.00  0.00     0.208 A 
ATOM      3  C   UNL     1       3.716 -58.697 190.396  1.00  0.00     0.238 A 
ATOM      4  O   UNL     1       2.670 -58.092 190.034  1.00  0.00    -0.285 OA
ATOM      5  C   UNL     1       4.432 -58.286 191.539  1.00  0.00     0.111 A 
ATOM      6  C   UNL     1       4.038 -57.193 192.348  1.00  0.00     0.134 A 
ATOM      7  C   UNL     1       4.810 -56.839 193.464  1.00  0.00     0.093 A 
ATOM      8  C   UNL     1       5.965 -57.555 193.787  1.00  0.00     0.123 A 
ATOM      9  C   UNL     1       6.360 -58.636 192.992  1.00  0.00     0.094 A 
ATOM     10  C   UNL     1       5.604 -59.005 191.876  1.00  0.00     0.146 A 
ATOM     11  O   UNL     1       5.997 -60.038 191.141  1.00  0.00    -0.452 OA
ENDROOT
BRANCH   1  12
ATOM     12  C   UNL     1       5.875 -61.636 189.338  1.00  0.00     0.025 A 
ATOM     13  C   UNL     1       5.548 -63.676 188.027  1.00  0.00     0.161 A 
ATOM     14  C   UNL     1       6.940 -63.879 188.013  1.00  0.00     0.157 A 
ATOM     15  C   UNL     1       5.023 -62.554 188.700  1.00  0.00     0.062 A 
ATOM     16  C   UNL     1       7.784 -62.978 188.668  1.00  0.00     0.051 A 
ATOM     17  C   UNL     1       7.258 -61.869 189.332  1.00  0.00     0.016 A 
BRANCH  13  18
ATOM     18  O   UNL     1       4.722 -64.604 187.372  1.00  0.00    -0.493 OA
ATOM     19  C   UNL     1       3.410 -64.323 186.895  1.00  0.00     0.278 C 
ENDBRANCH  13  18
BRANCH  14  20
ATOM     20  O   UNL     1       7.502 -64.974 187.358  1.00  0.00    -0.504 OA
ATOM     21  H   UNL     1       6.958 -65.582 186.758  1.00  0.00     0.293 HD
ENDBRANCH  14  20
ENDBRANCH   1  12
BRANCH   2  22
ATOM     22  O   UNL     1       3.513 -60.187 188.480  1.00  0.00    -0.502 OA
ATOM     23  H   UNL     1       3.109 -61.109 188.375  1.00  0.00     0.293 HD
ENDBRANCH   2  22
BRANCH   6  24
ATOM     24  O   UNL     1       2.890 -56.457 192.052  1.00  0.00    -0.507 OA
ATOM     25  H   UNL     1       1.996 -56.905 191.891  1.00  0.00     0.293 HD
ENDBRANCH   6  24
BRANCH   8  26
ATOM     26  O   UNL     1       6.715 -57.183 194.901  1.00  0.00    -0.508 OA
ATOM     27  H   UNL     1       6.507 -56.339 195.422  1.00  0.00     0.293 HD
ENDBRANCH   8  26
TORSDOF 6
ENDMDL
MODEL 3
REMARK VINA RESULT:    -6.300      1.319      2.884
REMARK INTER + INTRA:          -8.089
REMARK INTER:                  -7.864
REMARK INTRA:                  -0.225
REMARK UNBOUND:                -0.316
REMARK SMILES COc1cc(-c2oc3cc(O)cc(O)c3c(=O)c2O)ccc1O
REMARK SMILES IDX 6 1 18 2 16 3 17 4 15 5 13 6 12 7 10 8 9 9 8 10 7 11 5 12
REMARK SMILES IDX 3 13 22 14 4 15 21 16 20 17 2 18 1 19 23 20 19 22 14 24
REMARK SMILES IDX 11 26
REMARK H PARENT 23 21 19 23 14 25 11 27
REMARK Flexibility Score: inf
ROOT
ATOM      1  C   UNL     1       5.740 -61.067 189.698  1.00  0.00     0.180 A 
ATOM      2  C   UNL     1       6.976 -61.728 189.560  1.00  0.00     0.208 A 
ATOM      3  C   UNL     1       7.025 -62.931 188.839  1.00  0.00     0.238 A 
ATOM      4  O   UNL     1       8.124 -63.538 188.719  1.00  0.00    -0.285 OA
ATOM      5  C   UNL     1       5.848 -63.440 188.252  1.00  0.00     0.111 A 
ATOM      6  C   UNL     1       5.811 -64.643 187.506  1.00  0.00     0.134 A 
ATOM      7  C   UNL     1       4.602 -65.078 186.944  1.00  0.00     0.093 A 
ATOM      8  C   UNL     1       3.431 -64.336 187.113  1.00  0.00     0.123 A 
ATOM      9  C   UNL     1       3.460 -63.147 187.850  1.00  0.00     0.094 A 
ATOM     10  C   UNL     1       4.655 -62.697 188.418  1.00  0.00     0.146 A 
ATOM     11  O   UNL     1       4.654 -61.568 189.117  1.00  0.00    -0.452 OA
ENDROOT
BRANCH   1  12
ATOM     12  C   UNL     1       5.605 -59.804 190.460  1.00  0.00     0.025 A 
ATOM     13  C   UNL     1       5.756 -58.537 192.547  1.00  0.00     0.161 A 
ATOM     14  C   UNL     1       5.279 -57.395 191.877  1.00  0.00     0.157 A 
ATOM     15  C   UNL     1       5.909 -59.741 191.831  1.00  0.00     0.062 A 
ATOM     16  C   UNL     1       4.956 -57.466 190.519  1.00  0.00     0.051 A 
ATOM     17  C   UNL     1       5.110 -58.662 189.816  1.00  0.00     0.016 A 
BRANCH  13  18
ATOM     18  O   UNL     1       6.062 -58.440 193.914  1.00  0.00    -0.493 OA
ATOM     19  C   UNL     1       5.176 -58.806 194.968  1.00  0.00     0.278 C 
ENDBRANCH  13  18
BRANCH  14  20
ATOM     20  O   UNL     1       5.116 -56.183 192.545  1.00  0.00    -0.504 OA
ATOM     21  H   UNL     1       5.120 -56.118 193.556  1.00  0.00     0.293 HD
ENDBRANCH  14  20
ENDBRANCH   1  12
BRANCH   2  22
ATOM     22  O   UNL     1       8.137 -61.178 190.110  1.00  0.00    -0.502 OA
ATOM     23  H   UNL     1       9.044 -61.616 190.012  1.00  0.00     0.293 HD
ENDBRANCH   2  22
BRANCH   6  24
ATOM     24  O   UNL     1       6.965 -65.406 187.317  1.00  0.00    -0.507 OA
ATOM     25  H   UNL     1       7.887 -65.034 187.505  1.00  0.00     0.293 HD
ENDBRANCH   6  24
BRANCH   8  26
ATOM     26  O   UNL     1       2.242 -64.790 186.545  1.00  0.00    -0.508 OA
ATOM     27  H   UNL     1       2.069 -64.715 185.550  1.00  0.00     0.293 HD
ENDBRANCH   8  26
TORSDOF 6
ENDMDL
MODEL 4
REMARK VINA RESULT:    -6.127      1.975      2.848
REMARK INTER + INTRA:          -7.876
REMARK INTER:                  -7.526
REMARK INTRA:                  -0.351
REMARK UNBOUND:                -0.316
REMARK SMILES COc1cc(-c2oc3cc(O)cc(O)c3c(=O)c2O)ccc1O
REMARK SMILES IDX 6 1 18 2 16 3 17 4 15 5 13 6 12 7 10 8 9 9 8 10 7 11 5 12
REMARK SMILES IDX 3 13 22 14 4 15 21 16 20 17 2 18 1 19 23 20 19 22 14 24
REMARK SMILES IDX 11 26
REMARK H PARENT 23 21 19 23 14 25 11 27
REMARK Flexibility Score: inf
ROOT
ATOM      1  C   UNL     1       4.991 -59.223 191.536  1.00  0.00     0.180 A 
ATOM      2  C   UNL     1       3.984 -59.499 190.590  1.00  0.00     0.208 A 
ATOM      3  C   UNL     1       4.197 -60.522 189.651  1.00  0.00     0.238 A 
ATOM      4  O   UNL     1       3.308 -60.770 188.792  1.00  0.00    -0.285 OA
ATOM      5  C   UNL     1       5.398 -61.261 189.686  1.00  0.00     0.111 A 
ATOM      6  C   UNL     1       5.689 -62.309 188.780  1.00  0.00     0.134 A 
ATOM      7  C   UNL     1       6.902 -63.004 188.886  1.00  0.00     0.093 A 
ATOM      8  C   UNL     1       7.828 -62.674 189.878  1.00  0.00     0.123 A 
ATOM      9  C   UNL     1       7.547 -61.639 190.777  1.00  0.00     0.094 A 
ATOM     10  C   UNL     1       6.344 -60.933 190.686  1.00  0.00     0.146 A 
ATOM     11  O   UNL     1       6.103 -59.952 191.548  1.00  0.00    -0.452 OA
ENDROOT
BRANCH   1  12
ATOM     12  C   UNL     1       4.848 -58.149 192.544  1.00  0.00     0.025 A 
ATOM     13  C   UNL     1       5.360 -55.902 193.367  1.00  0.00     0.161 A 
ATOM     14  C   UNL     1       4.590 -56.159 194.517  1.00  0.00     0.157 A 
ATOM     15  C   UNL     1       5.490 -56.908 192.387  1.00  0.00     0.062 A 
ATOM     16  C   UNL     1       3.972 -57.402 194.681  1.00  0.00     0.051 A 
ATOM     17  C   UNL     1       4.104 -58.393 193.707  1.00  0.00     0.016 A 
BRANCH  13  18
ATOM     18  O   UNL     1       5.980 -54.650 193.233  1.00  0.00    -0.493 OA
ATOM     19  C   UNL     1       5.392 -53.520 192.597  1.00  0.00     0.278 C 
ENDBRANCH  13  18
BRANCH  14  20
ATOM     20  O   UNL     1       4.433 -55.192 195.509  1.00  0.00    -0.504 OA
ATOM     21  H   UNL     1       3.548 -54.729 195.676  1.00  0.00     0.293 HD
ENDBRANCH  14  20
ENDBRANCH   1  12
BRANCH   2  22
ATOM     22  O   UNL     1       2.783 -58.785 190.607  1.00  0.00    -0.502 OA
ATOM     23  H   UNL     1       2.316 -58.490 189.759  1.00  0.00     0.293 HD
ENDBRANCH   2  22
BRANCH   6  24
ATOM     24  O   UNL     1       4.784 -62.664 187.778  1.00  0.00    -0.507 OA
ATOM     25  H   UNL     1       4.865 -62.306 186.834  1.00  0.00     0.293 HD
ENDBRANCH   6  24
BRANCH   8  26
ATOM     26  O   UNL     1       9.026 -63.380 189.963  1.00  0.00    -0.508 OA
ATOM     27  H   UNL     1       9.613 -63.527 189.150  1.00  0.00     0.293 HD
ENDBRANCH   8  26
TORSDOF 6
ENDMDL
MODEL 5
REMARK VINA RESULT:    -6.049      2.161      2.606
REMARK INTER + INTRA:          -7.780
REMARK INTER:                  -7.393
REMARK INTRA:                  -0.388
REMARK UNBOUND:                -0.316
REMARK SMILES COc1cc(-c2oc3cc(O)cc(O)c3c(=O)c2O)ccc1O
REMARK SMILES IDX 6 1 18 2 16 3 17 4 15 5 13 6 12 7 10 8 9 9 8 10 7 11 5 12
REMARK SMILES IDX 3 13 22 14 4 15 21 16 20 17 2 18 1 19 23 20 19 22 14 24
REMARK SMILES IDX 11 26
REMARK H PARENT 23 21 19 23 14 25 11 27
REMARK Flexibility Score: inf
ROOT
ATOM      1  C   UNL     1       4.950 -59.248 191.547  1.00  0.00     0.180 A 
ATOM      2  C   UNL     1       3.990 -59.570 190.569  1.00  0.00     0.208 A 
ATOM      3  C   UNL     1       4.274 -60.592 189.649  1.00  0.00     0.238 A 
ATOM      4  O   UNL     1       3.427 -60.881 188.761  1.00  0.00    -0.285 OA
ATOM      5  C   UNL     1       5.499 -61.286 189.736  1.00  0.00     0.111 A 
ATOM      6  C   UNL     1       5.861 -62.331 188.852  1.00  0.00     0.134 A 
ATOM      7  C   UNL     1       7.094 -62.980 189.009  1.00  0.00     0.093 A 
ATOM      8  C   UNL     1       7.970 -62.607 190.031  1.00  0.00     0.123 A 
ATOM      9  C   UNL     1       7.618 -61.575 190.908  1.00  0.00     0.094 A 
ATOM     10  C   UNL     1       6.395 -60.915 190.766  1.00  0.00     0.146 A 
ATOM     11  O   UNL     1       6.087 -59.935 191.608  1.00  0.00    -0.452 OA
ENDROOT
BRANCH   1  12
ATOM     12  C   UNL     1       4.731 -58.171 192.539  1.00  0.00     0.025 A 
ATOM     13  C   UNL     1       3.863 -57.381 194.686  1.00  0.00     0.161 A 
ATOM     14  C   UNL     1       4.287 -56.078 194.367  1.00  0.00     0.157 A 
ATOM     15  C   UNL     1       4.083 -58.422 193.761  1.00  0.00     0.062 A 
ATOM     16  C   UNL     1       4.911 -55.826 193.142  1.00  0.00     0.051 A 
ATOM     17  C   UNL     1       5.125 -56.862 192.231  1.00  0.00     0.016 A 
BRANCH  13  18
ATOM     18  O   UNL     1       3.228 -57.603 195.918  1.00  0.00    -0.493 OA
ATOM     19  C   UNL     1       2.821 -58.880 196.400  1.00  0.00     0.278 C 
ENDBRANCH  13  18
BRANCH  14  20
ATOM     20  O   UNL     1       4.093 -55.020 195.253  1.00  0.00    -0.504 OA
ATOM     21  H   UNL     1       4.632 -54.164 195.199  1.00  0.00     0.293 HD
ENDBRANCH  14  20
ENDBRANCH   1  12
BRANCH   2  22
ATOM     22  O   UNL     1       2.764 -58.900 190.535  1.00  0.00    -0.502 OA
ATOM     23  H   UNL     1       2.672 -57.924 190.790  1.00  0.00     0.293 HD
ENDBRANCH   2  22
BRANCH   6  24
ATOM     24  O   UNL     1       5.007 -62.729 187.821  1.00  0.00    -0.507 OA
ATOM     25  H   UNL     1       5.324 -62.795 186.862  1.00  0.00     0.293 HD
ENDBRANCH   6  24
BRANCH   8  26
ATOM     26  O   UNL     1       9.189 -63.269 190.167  1.00  0.00    -0.508 OA
ATOM     27  H   UNL     1       9.635 -63.723 189.379  1.00  0.00     0.293 HD
ENDBRANCH   8  26
TORSDOF 6
ENDMDL
MODEL 6
REMARK VINA RESULT:    -6.016      1.944      3.014
REMARK INTER + INTRA:          -7.740
REMARK INTER:                  -7.480
REMARK INTRA:                  -0.259
REMARK UNBOUND:                -0.316
REMARK SMILES COc1cc(-c2oc3cc(O)cc(O)c3c(=O)c2O)ccc1O
REMARK SMILES IDX 6 1 18 2 16 3 17 4 15 5 13 6 12 7 10 8 9 9 8 10 7 11 5 12
REMARK SMILES IDX 3 13 22 14 4 15 21 16 20 17 2 18 1 19 23 20 19 22 14 24
REMARK SMILES IDX 11 26
REMARK H PARENT 23 21 19 23 14 25 11 27
REMARK Flexibility Score: inf
ROOT
ATOM      1  C   UNL     1       5.736 -59.409 192.196  1.00  0.00     0.180 A 
ATOM      2  C   UNL     1       4.519 -59.276 191.499  1.00  0.00     0.208 A 
ATOM      3  C   UNL     1       4.295 -60.079 190.369  1.00  0.00     0.238 A 
ATOM      4  O   UNL     1       3.214 -59.960 189.729  1.00  0.00    -0.285 OA
ATOM      5  C   UNL     1       5.275 -61.011 189.970  1.00  0.00     0.111 A 
ATOM      6  C   UNL     1       5.125 -61.859 188.847  1.00  0.00     0.134 A 
ATOM      7  C   UNL     1       6.142 -62.768 188.520  1.00  0.00     0.093 A 
ATOM      8  C   UNL     1       7.303 -62.845 189.291  1.00  0.00     0.123 A 
ATOM      9  C   UNL     1       7.458 -62.008 190.403  1.00  0.00     0.094 A 
ATOM     10  C   UNL     1       6.456 -61.096 190.744  1.00  0.00     0.146 A 
ATOM     11  O   UNL     1       6.630 -60.310 191.800  1.00  0.00    -0.452 OA
ENDROOT
BRANCH   1  12
ATOM     12  C   UNL     1       6.054 -58.584 193.385  1.00  0.00     0.025 A 
ATOM     13  C   UNL     1       7.405 -56.885 194.512  1.00  0.00     0.161 A 
ATOM     14  C   UNL     1       6.655 -57.082 195.686  1.00  0.00     0.157 A 
ATOM     15  C   UNL     1       7.102 -57.647 193.366  1.00  0.00     0.062 A 
ATOM     16  C   UNL     1       5.629 -58.031 195.709  1.00  0.00     0.051 A 
ATOM     17  C   UNL     1       5.334 -58.782 194.571  1.00  0.00     0.016 A 
BRANCH  13  18
ATOM     18  O   UNL     1       8.438 -55.934 194.521  1.00  0.00    -0.493 OA
ATOM     19  C   UNL     1       9.818 -56.241 194.695  1.00  0.00     0.278 C 
ENDBRANCH  13  18
BRANCH  14  20
ATOM     20  O   UNL     1       6.919 -56.348 196.842  1.00  0.00    -0.504 OA
ATOM     21  H   UNL     1       6.551 -56.614 197.747  1.00  0.00     0.293 HD
ENDBRANCH  14  20
ENDBRANCH   1  12
BRANCH   2  22
ATOM     22  O   UNL     1       3.544 -58.379 191.943  1.00  0.00    -0.502 OA
ATOM     23  H   UNL     1       3.778 -57.482 192.350  1.00  0.00     0.293 HD
ENDBRANCH   2  22
BRANCH   6  24
ATOM     24  O   UNL     1       3.976 -61.808 188.056  1.00  0.00    -0.507 OA
ATOM     25  H   UNL     1       3.794 -62.495 187.334  1.00  0.00     0.293 HD
ENDBRANCH   6  24
BRANCH   8  26
ATOM     26  O   UNL     1       8.299 -63.757 188.946  1.00  0.00    -0.508 OA
ATOM     27  H   UNL     1       8.801 -63.685 188.069  1.00  0.00     0.293 HD
ENDBRANCH   8  26
TORSDOF 6
ENDMDL
MODEL 7
REMARK VINA RESULT:    -5.768      1.468      6.894
REMARK INTER + INTRA:          -7.434
REMARK INTER:                  -7.687
REMARK INTRA:                   0.254
REMARK UNBOUND:                -0.316
REMARK SMILES COc1cc(-c2oc3cc(O)cc(O)c3c(=O)c2O)ccc1O
REMARK SMILES IDX 6 1 18 2 16 3 17 4 15 5 13 6 12 7 10 8 9 9 8 10 7 11 5 12
REMARK SMILES IDX 3 13 22 14 4 15 21 16 20 17 2 18 1 19 23 20 19 22 14 24
REMARK SMILES IDX 11 26
REMARK H PARENT 23 21 19 23 14 25 11 27
REMARK Flexibility Score: inf
ROOT
ATOM      1  C   UNL     1       3.862 -60.667 189.573  1.00  0.00     0.180 A 
ATOM      2  C   UNL     1       2.856 -59.709 189.339  1.00  0.00     0.208 A 
ATOM      3  C   UNL     1       2.872 -58.514 190.075  1.00  0.00     0.238 A 
ATOM      4  O   UNL     1       1.970 -57.654 189.883  1.00  0.00    -0.285 OA
ATOM      5  C   UNL     1       3.900 -58.288 191.014  1.00  0.00     0.111 A 
ATOM      6  C   UNL     1       3.992 -57.110 191.794  1.00  0.00     0.134 A 
ATOM      7  C   UNL     1       5.051 -56.955 192.699  1.00  0.00     0.093 A 
ATOM      8  C   UNL     1       6.018 -57.952 192.841  1.00  0.00     0.123 A 
ATOM      9  C   UNL     1       5.934 -59.119 192.074  1.00  0.00     0.094 A 
ATOM     10  C   UNL     1       4.885 -59.292 191.167  1.00  0.00     0.146 A 
ATOM     11  O   UNL     1       4.825 -60.412 190.454  1.00  0.00    -0.452 OA
ENDROOT
BRANCH   1  12
ATOM     12  C   UNL     1       3.901 -61.958 188.849  1.00  0.00     0.025 A 
ATOM     13  C   UNL     1       5.141 -63.810 187.840  1.00  0.00     0.161 A 
ATOM     14  C   UNL     1       3.926 -64.383 187.423  1.00  0.00     0.157 A 
ATOM     15  C   UNL     1       5.120 -62.590 188.547  1.00  0.00     0.062 A 
ATOM     16  C   UNL     1       2.717 -63.740 187.704  1.00  0.00     0.051 A 
ATOM     17  C   UNL     1       2.703 -62.534 188.405  1.00  0.00     0.016 A 
BRANCH  13  18
ATOM     18  O   UNL     1       6.342 -64.470 187.533  1.00  0.00    -0.493 OA
ATOM     19  C   UNL     1       7.640 -63.969 187.833  1.00  0.00     0.278 C 
ENDBRANCH  13  18
BRANCH  14  20
ATOM     20  O   UNL     1       3.901 -65.589 186.723  1.00  0.00    -0.504 OA
ATOM     21  H   UNL     1       3.294 -66.355 186.990  1.00  0.00     0.293 HD
ENDBRANCH  14  20
ENDBRANCH   1  12
BRANCH   2  22
ATOM     22  O   UNL     1       1.876 -59.937 188.368  1.00  0.00    -0.502 OA
ATOM     23  H   UNL     1       2.034 -59.753 187.385  1.00  0.00     0.293 HD
ENDBRANCH   2  22
BRANCH   6  24
ATOM     24  O   UNL     1       3.041 -56.094 191.675  1.00  0.00    -0.507 OA
ATOM     25  H   UNL     1       2.507 -55.768 192.471  1.00  0.00     0.293 HD
ENDBRANCH   6  24
BRANCH   8  26
ATOM     26  O   UNL     1       7.062 -57.774 193.748  1.00  0.00    -0.508 OA
ATOM     27  H   UNL     1       7.004 -58.123 194.697  1.00  0.00     0.293 HD
ENDBRANCH   8  26
TORSDOF 6
ENDMDL
MODEL 8
REMARK VINA RESULT:    -5.768      1.489      7.278
REMARK INTER + INTRA:          -7.433
REMARK INTER:                  -7.054
REMARK INTRA:                  -0.379
REMARK UNBOUND:                -0.316
REMARK SMILES COc1cc(-c2oc3cc(O)cc(O)c3c(=O)c2O)ccc1O
REMARK SMILES IDX 6 1 18 2 16 3 17 4 15 5 13 6 12 7 10 8 9 9 8 10 7 11 5 12
REMARK SMILES IDX 3 13 22 14 4 15 21 16 20 17 2 18 1 19 23 20 19 22 14 24
REMARK SMILES IDX 11 26
REMARK H PARENT 23 21 19 23 14 25 11 27
REMARK Flexibility Score: inf
ROOT
ATOM      1  C   UNL     1       5.029 -59.343 190.806  1.00  0.00     0.180 A 
ATOM      2  C   UNL     1       5.269 -58.080 190.231  1.00  0.00     0.208 A 
ATOM      3  C   UNL     1       5.636 -57.012 191.066  1.00  0.00     0.238 A 
ATOM      4  O   UNL     1       5.843 -55.874 190.564  1.00  0.00    -0.285 OA
ATOM      5  C   UNL     1       5.776 -57.229 192.453  1.00  0.00     0.111 A 
ATOM      6  C   UNL     1       6.146 -56.209 193.362  1.00  0.00     0.134 A 
ATOM      7  C   UNL     1       6.275 -56.507 194.727  1.00  0.00     0.093 A 
ATOM      8  C   UNL     1       6.041 -57.800 195.199  1.00  0.00     0.123 A 
ATOM      9  C   UNL     1       5.675 -58.813 194.305  1.00  0.00     0.094 A 
ATOM     10  C   UNL     1       5.541 -58.536 192.942  1.00  0.00     0.146 A 
ATOM     11  O   UNL     1       5.187 -59.513 192.115  1.00  0.00    -0.452 OA
ENDROOT
BRANCH   1  12
ATOM     12  C   UNL     1       4.620 -60.511 189.993  1.00  0.00     0.025 A 
ATOM     13  C   UNL     1       5.165 -62.519 188.706  1.00  0.00     0.161 A 
ATOM     14  C   UNL     1       3.800 -62.685 188.406  1.00  0.00     0.157 A 
ATOM     15  C   UNL     1       5.568 -61.423 189.495  1.00  0.00     0.062 A 
ATOM     16  C   UNL     1       2.863 -61.764 188.884  1.00  0.00     0.051 A 
ATOM     17  C   UNL     1       3.269 -60.681 189.665  1.00  0.00     0.016 A 
BRANCH  13  18
ATOM     18  O   UNL     1       6.086 -63.452 188.203  1.00  0.00    -0.493 OA
ATOM     19  C   UNL     1       7.492 -63.401 188.426  1.00  0.00     0.278 C 
ENDBRANCH  13  18
BRANCH  14  20
ATOM     20  O   UNL     1       3.357 -63.756 187.632  1.00  0.00    -0.504 OA
ATOM     21  H   UNL     1       2.744 -63.630 186.835  1.00  0.00     0.293 HD
ENDBRANCH  14  20
ENDBRANCH   1  12
BRANCH   2  22
ATOM     22  O   UNL     1       5.171 -57.903 188.848  1.00  0.00    -0.502 OA
ATOM     23  H   UNL     1       5.940 -58.101 188.220  1.00  0.00     0.293 HD
ENDBRANCH   2  22
BRANCH   6  24
ATOM     24  O   UNL     1       6.388 -54.907 192.922  1.00  0.00    -0.507 OA
ATOM     25  H   UNL     1       6.392 -54.669 191.938  1.00  0.00     0.293 HD
ENDBRANCH   6  24
BRANCH   8  26
ATOM     26  O   UNL     1       6.176 -58.070 196.560  1.00  0.00    -0.508 OA
ATOM     27  H   UNL     1       6.914 -58.669 196.909  1.00  0.00     0.293 HD
ENDBRANCH   8  26
TORSDOF 6
ENDMDL
MODEL 9
REMARK VINA RESULT:    -5.676      9.567     11.720
REMARK INTER + INTRA:          -7.319
REMARK INTER:                  -6.960
REMARK INTRA:                  -0.359
REMARK UNBOUND:                -0.316
REMARK SMILES COc1cc(-c2oc3cc(O)cc(O)c3c(=O)c2O)ccc1O
REMARK SMILES IDX 6 1 18 2 16 3 17 4 15 5 13 6 12 7 10 8 9 9 8 10 7 11 5 12
REMARK SMILES IDX 3 13 22 14 4 15 21 16 20 17 2 18 1 19 23 20 19 22 14 24
REMARK SMILES IDX 11 26
REMARK H PARENT 23 21 19 23 14 25 11 27
REMARK Flexibility Score: inf
ROOT
ATOM      1  C   UNL     1      11.378 -56.371 197.382  1.00  0.00     0.180 A 
ATOM      2  C   UNL     1      10.490 -56.309 196.290  1.00  0.00     0.208 A 
ATOM      3  C   UNL     1      10.959 -55.816 195.062  1.00  0.00     0.238 A 
ATOM      4  O   UNL     1      10.170 -55.744 194.081  1.00  0.00    -0.285 OA
ATOM      5  C   UNL     1      12.306 -55.415 194.940  1.00  0.00     0.111 A 
ATOM      6  C   UNL     1      12.858 -54.911 193.738  1.00  0.00     0.134 A 
ATOM      7  C   UNL     1      14.211 -54.543 193.694  1.00  0.00     0.093 A 
ATOM      8  C   UNL     1      15.020 -54.668 194.825  1.00  0.00     0.123 A 
ATOM      9  C   UNL     1      14.480 -55.165 196.017  1.00  0.00     0.094 A 
ATOM     10  C   UNL     1      13.134 -55.536 196.081  1.00  0.00     0.146 A 
ATOM     11  O   UNL     1      12.645 -56.000 197.225  1.00  0.00    -0.452 OA
ENDROOT
BRANCH   1  12
ATOM     12  C   UNL     1      10.953 -56.862 198.713  1.00  0.00     0.025 A 
ATOM     13  C   UNL     1       9.808 -56.533 200.850  1.00  0.00     0.161 A 
ATOM     14  C   UNL     1      10.218 -57.816 201.256  1.00  0.00     0.157 A 
ATOM     15  C   UNL     1      10.188 -56.059 199.578  1.00  0.00     0.062 A 
ATOM     16  C   UNL     1      10.998 -58.603 200.403  1.00  0.00     0.051 A 
ATOM     17  C   UNL     1      11.370 -58.128 199.145  1.00  0.00     0.016 A 
BRANCH  13  18
ATOM     18  O   UNL     1       9.036 -55.759 201.731  1.00  0.00    -0.493 OA
ATOM     19  C   UNL     1       9.439 -54.506 202.273  1.00  0.00     0.278 C 
ENDBRANCH  13  18
BRANCH  14  20
ATOM     20  O   UNL     1       9.862 -58.325 202.504  1.00  0.00    -0.504 OA
ATOM     21  H   UNL     1       9.200 -57.856 203.110  1.00  0.00     0.293 HD
ENDBRANCH  14  20
ENDBRANCH   1  12
BRANCH   2  22
ATOM     22  O   UNL     1       9.174 -56.758 196.424  1.00  0.00    -0.502 OA
ATOM     23  H   UNL     1       8.401 -56.127 196.596  1.00  0.00     0.293 HD
ENDBRANCH   2  22
BRANCH   6  24
ATOM     24  O   UNL     1      12.076 -54.775 192.590  1.00  0.00    -0.507 OA
ATOM     25  H   UNL     1      11.251 -55.342 192.436  1.00  0.00     0.293 HD
ENDBRANCH   6  24
BRANCH   8  26
ATOM     26  O   UNL     1      16.361 -54.295 194.756  1.00  0.00    -0.508 OA
ATOM     27  H   UNL     1      17.099 -54.913 195.072  1.00  0.00     0.293 HD
ENDBRANCH   8  26
TORSDOF 6
ENDMDL
