MODEL 1
REMARK VINA RESULT:    -5.630      0.000      0.000
REMARK INTER + INTRA:          -5.630
REMARK INTER:                  -5.630
REMARK INTRA:                   0.000
REMARK UNBOUND:                 0.000
REMARK SMILES C=C1CCC[C@]2(C)CC(=O)C(=C(C)C)C[C@@H]12
REMARK SMILES IDX 13 1 12 2 11 3 15 4 16 5 2 6 1 7 3 8 4 9 5 10 6 11 8 12 9 13
REMARK SMILES IDX 10 14 7 15 14 16
REMARK H PARENT
REMARK Flexibility Score: inf
ROOT
ATOM      1  C   UNL     1      -9.746  73.093  25.647  1.00  0.00     0.039 C 
ATOM      2  C   UNL     1      -8.931  73.649  24.501  1.00  0.00    -0.070 C 
ATOM      3  C   UNL     1      -7.694  73.151  24.204  1.00  0.00    -0.006 C 
ATOM      4  C   UNL     1      -7.076  72.031  25.031  1.00  0.00     0.047 C 
ATOM      5  C   UNL     1      -5.529  72.102  25.076  1.00  0.00     0.025 C 
ATOM      6  C   UNL     1      -4.850  70.978  25.859  1.00  0.00    -0.073 C 
ATOM      7  C   UNL     1      -5.512  69.976  26.469  1.00  0.00     0.008 C 
ATOM      8  C   UNL     1      -3.346  71.056  25.970  1.00  0.00     0.031 C 
ATOM      9  C   UNL     1      -2.716  71.198  24.581  1.00  0.00     0.005 C 
ATOM     10  C   UNL     1      -3.351  72.351  23.785  1.00  0.00     0.008 C 
ATOM     11  C   UNL     1      -4.898  72.224  23.653  1.00  0.00    -0.018 C 
ATOM     12  C   UNL     1      -5.432  73.515  22.985  1.00  0.00     0.088 C 
ATOM     13  C   UNL     1      -6.932  73.579  22.994  1.00  0.00     0.159 C 
ATOM     14  O   UNL     1      -7.525  73.987  21.959  1.00  0.00    -0.295 OA
ATOM     15  C   UNL     1      -5.246  71.002  22.759  1.00  0.00     0.012 C 
ATOM     16  C   UNL     1      -9.533  74.800  23.729  1.00  0.00     0.039 C 
ENDROOT
TORSDOF 0
ENDMDL
MODEL 2
REMARK VINA RESULT:    -5.402      3.076      6.373
REMARK INTER + INTRA:          -5.402
REMARK INTER:                  -5.402
REMARK INTRA:                   0.000
REMARK UNBOUND:                 0.000
REMARK SMILES C=C1CCC[C@]2(C)CC(=O)C(=C(C)C)C[C@@H]12
REMARK SMILES IDX 13 1 12 2 11 3 15 4 16 5 2 6 1 7 3 8 4 9 5 10 6 11 8 12 9 13
REMARK SMILES IDX 10 14 7 15 14 16
REMARK H PARENT
REMARK Flexibility Score: inf
ROOT
ATOM      1  C   UNL     1      -6.309  71.700  26.033  1.00  0.00     0.039 C 
ATOM      2  C   UNL     1      -7.423  72.477  25.369  1.00  0.00    -0.070 C 
ATOM      3  C   UNL     1      -8.405  73.077  26.105  1.00  0.00    -0.006 C 
ATOM      4  C   UNL     1      -8.431  72.967  27.624  1.00  0.00     0.047 C 
ATOM      5  C   UNL     1      -9.866  73.011  28.204  1.00  0.00     0.025 C 
ATOM      6  C   UNL     1      -9.952  72.946  29.730  1.00  0.00    -0.073 C 
ATOM      7  C   UNL     1      -8.881  72.865  30.543  1.00  0.00     0.008 C 
ATOM      8  C   UNL     1     -11.342  72.927  30.320  1.00  0.00     0.031 C 
ATOM      9  C   UNL     1     -12.162  74.106  29.787  1.00  0.00     0.005 C 
ATOM     10  C   UNL     1     -12.130  74.172  28.251  1.00  0.00     0.008 C 
ATOM     11  C   UNL     1     -10.685  74.229  27.671  1.00  0.00    -0.018 C 
ATOM     12  C   UNL     1     -10.779  74.124  26.129  1.00  0.00     0.088 C 
ATOM     13  C   UNL     1      -9.431  73.968  25.488  1.00  0.00     0.159 C 
ATOM     14  O   UNL     1      -9.186  74.615  24.434  1.00  0.00    -0.295 OA
ATOM     15  C   UNL     1     -10.024  75.583  28.054  1.00  0.00     0.012 C 
ATOM     16  C   UNL     1      -7.416  72.526  23.858  1.00  0.00     0.039 C 
ENDROOT
TORSDOF 0
ENDMDL
MODEL 3
REMARK VINA RESULT:    -5.269      1.791      3.189
REMARK INTER + INTRA:          -5.269
REMARK INTER:                  -5.269
REMARK INTRA:                   0.000
REMARK UNBOUND:                 0.000
REMARK SMILES C=C1CCC[C@]2(C)CC(=O)C(=C(C)C)C[C@@H]12
REMARK SMILES IDX 13 1 12 2 11 3 15 4 16 5 2 6 1 7 3 8 4 9 5 10 6 11 8 12 9 13
REMARK SMILES IDX 10 14 7 15 14 16
REMARK H PARENT
REMARK Flexibility Score: inf
ROOT
ATOM      1  C   UNL     1      -9.376  75.001  22.744  1.00  0.00     0.039 C 
ATOM      2  C   UNL     1      -9.149  74.024  23.876  1.00  0.00    -0.070 C 
ATOM      3  C   UNL     1      -7.967  73.350  24.003  1.00  0.00    -0.006 C 
ATOM      4  C   UNL     1      -6.840  73.538  22.996  1.00  0.00     0.047 C 
ATOM      5  C   UNL     1      -5.968  72.269  22.828  1.00  0.00     0.025 C 
ATOM      6  C   UNL     1      -4.794  72.412  21.859  1.00  0.00    -0.073 C 
ATOM      7  C   UNL     1      -4.501  73.544  21.190  1.00  0.00     0.008 C 
ATOM      8  C   UNL     1      -3.963  71.172  21.630  1.00  0.00     0.031 C 
ATOM      9  C   UNL     1      -3.487  70.596  22.967  1.00  0.00     0.005 C 
ATOM     10  C   UNL     1      -4.655  70.400  23.949  1.00  0.00     0.008 C 
ATOM     11  C   UNL     1      -5.471  71.704  24.196  1.00  0.00    -0.018 C 
ATOM     12  C   UNL     1      -6.705  71.344  25.060  1.00  0.00     0.088 C 
ATOM     13  C   UNL     1      -7.662  72.493  25.186  1.00  0.00     0.159 C 
ATOM     14  O   UNL     1      -8.186  72.721  26.310  1.00  0.00    -0.295 OA
ATOM     15  C   UNL     1      -4.591  72.732  24.961  1.00  0.00     0.012 C 
ATOM     16  C   UNL     1     -10.299  73.804  24.830  1.00  0.00     0.039 C 
ENDROOT
TORSDOF 0
ENDMDL
MODEL 4
REMARK VINA RESULT:    -5.116      4.545      7.194
REMARK INTER + INTRA:          -5.116
REMARK INTER:                  -5.116
REMARK INTRA:                   0.000
REMARK UNBOUND:                 0.000
REMARK SMILES C=C1CCC[C@]2(C)CC(=O)C(=C(C)C)C[C@@H]12
REMARK SMILES IDX 13 1 12 2 11 3 15 4 16 5 2 6 1 7 3 8 4 9 5 10 6 11 8 12 9 13
REMARK SMILES IDX 10 14 7 15 14 16
REMARK H PARENT
REMARK Flexibility Score: inf
ROOT
ATOM      1  C   UNL     1      -8.093  72.467  25.764  1.00  0.00     0.039 C 
ATOM      2  C   UNL     1      -9.061  73.591  26.060  1.00  0.00    -0.070 C 
ATOM      3  C   UNL     1      -9.462  73.863  27.337  1.00  0.00    -0.006 C 
ATOM      4  C   UNL     1      -8.968  73.030  28.513  1.00  0.00     0.047 C 
ATOM      5  C   UNL     1      -9.999  72.950  29.665  1.00  0.00     0.025 C 
ATOM      6  C   UNL     1      -9.542  72.159  30.892  1.00  0.00    -0.073 C 
ATOM      7  C   UNL     1      -8.335  71.571  31.003  1.00  0.00     0.008 C 
ATOM      8  C   UNL     1     -10.550  72.014  32.007  1.00  0.00     0.031 C 
ATOM      9  C   UNL     1     -11.084  73.388  32.424  1.00  0.00     0.005 C 
ATOM     10  C   UNL     1     -11.593  74.190  31.214  1.00  0.00     0.008 C 
ATOM     11  C   UNL     1     -10.520  74.358  30.096  1.00  0.00    -0.018 C 
ATOM     12  C   UNL     1     -11.196  75.029  28.875  1.00  0.00     0.088 C 
ATOM     13  C   UNL     1     -10.298  75.053  27.673  1.00  0.00     0.159 C 
ATOM     14  O   UNL     1     -10.260  76.098  26.969  1.00  0.00    -0.295 OA
ATOM     15  C   UNL     1      -9.370  75.267  30.611  1.00  0.00     0.012 C 
ATOM     16  C   UNL     1      -9.587  74.369  24.876  1.00  0.00     0.039 C 
ENDROOT
TORSDOF 0
ENDMDL
MODEL 5
REMARK VINA RESULT:    -5.063      3.121      5.314
REMARK INTER + INTRA:          -5.063
REMARK INTER:                  -5.063
REMARK INTRA:                   0.000
REMARK UNBOUND:                 0.000
REMARK SMILES C=C1CCC[C@]2(C)CC(=O)C(=C(C)C)C[C@@H]12
REMARK SMILES IDX 13 1 12 2 11 3 15 4 16 5 2 6 1 7 3 8 4 9 5 10 6 11 8 12 9 13
REMARK SMILES IDX 10 14 7 15 14 16
REMARK H PARENT
REMARK Flexibility Score: inf
ROOT
ATOM      1  C   UNL     1      -8.623  72.457  30.324  1.00  0.00     0.039 C 
ATOM      2  C   UNL     1      -9.461  73.541  29.684  1.00  0.00    -0.070 C 
ATOM      3  C   UNL     1      -9.526  73.679  28.326  1.00  0.00    -0.006 C 
ATOM      4  C   UNL     1      -8.736  72.760  27.403  1.00  0.00     0.047 C 
ATOM      5  C   UNL     1      -8.322  73.451  26.080  1.00  0.00     0.025 C 
ATOM      6  C   UNL     1      -7.562  72.564  25.094  1.00  0.00    -0.073 C 
ATOM      7  C   UNL     1      -7.264  71.270  25.318  1.00  0.00     0.008 C 
ATOM      8  C   UNL     1      -7.093  73.229  23.822  1.00  0.00     0.031 C 
ATOM      9  C   UNL     1      -8.265  73.925  23.122  1.00  0.00     0.005 C 
ATOM     10  C   UNL     1      -9.023  74.859  24.080  1.00  0.00     0.008 C 
ATOM     11  C   UNL     1      -9.529  74.138  25.366  1.00  0.00    -0.018 C 
ATOM     12  C   UNL     1     -10.122  75.207  26.316  1.00  0.00     0.088 C 
ATOM     13  C   UNL     1     -10.455  74.642  27.667  1.00  0.00     0.159 C 
ATOM     14  O   UNL     1     -11.535  74.989  28.216  1.00  0.00    -0.295 OA
ATOM     15  C   UNL     1     -10.636  73.116  24.987  1.00  0.00     0.012 C 
ATOM     16  C   UNL     1     -10.189  74.481  30.616  1.00  0.00     0.039 C 
ENDROOT
TORSDOF 0
ENDMDL
MODEL 6
REMARK VINA RESULT:    -4.999      9.175     11.802
REMARK INTER + INTRA:          -4.999
REMARK INTER:                  -4.999
REMARK INTRA:                   0.000
REMARK UNBOUND:                 0.000
REMARK SMILES C=C1CCC[C@]2(C)CC(=O)C(=C(C)C)C[C@@H]12
REMARK SMILES IDX 13 1 12 2 11 3 15 4 16 5 2 6 1 7 3 8 4 9 5 10 6 11 8 12 9 13
REMARK SMILES IDX 10 14 7 15 14 16
REMARK H PARENT
REMARK Flexibility Score: inf
ROOT
ATOM      1  C   UNL     1      -6.006  66.610  31.347  1.00  0.00     0.039 C 
ATOM      2  C   UNL     1      -4.735  67.293  31.801  1.00  0.00    -0.070 C 
ATOM      3  C   UNL     1      -4.620  67.812  33.059  1.00  0.00    -0.006 C 
ATOM      4  C   UNL     1      -5.776  67.747  34.048  1.00  0.00     0.047 C 
ATOM      5  C   UNL     1      -5.787  68.937  35.038  1.00  0.00     0.025 C 
ATOM      6  C   UNL     1      -6.903  68.903  36.083  1.00  0.00    -0.073 C 
ATOM      7  C   UNL     1      -7.822  67.922  36.173  1.00  0.00     0.008 C 
ATOM      8  C   UNL     1      -6.974  70.082  37.024  1.00  0.00     0.031 C 
ATOM      9  C   UNL     1      -5.617  70.308  37.697  1.00  0.00     0.005 C 
ATOM     10  C   UNL     1      -4.478  70.390  36.667  1.00  0.00     0.008 C 
ATOM     11  C   UNL     1      -4.405  69.143  35.735  1.00  0.00    -0.018 C 
ATOM     12  C   UNL     1      -3.338  69.417  34.646  1.00  0.00     0.088 C 
ATOM     13  C   UNL     1      -3.333  68.359  33.580  1.00  0.00     0.159 C 
ATOM     14  O   UNL     1      -2.224  67.941  33.152  1.00  0.00    -0.295 OA
ATOM     15  C   UNL     1      -3.984  67.898  36.564  1.00  0.00     0.012 C 
ATOM     16  C   UNL     1      -3.619  67.403  30.788  1.00  0.00     0.039 C 
ENDROOT
TORSDOF 0
ENDMDL
MODEL 7
REMARK VINA RESULT:    -4.893     11.858     13.858
REMARK INTER + INTRA:          -4.893
REMARK INTER:                  -4.893
REMARK INTRA:                   0.000
REMARK UNBOUND:                 0.000
REMARK SMILES C=C1CCC[C@]2(C)CC(=O)C(=C(C)C)C[C@@H]12
REMARK SMILES IDX 13 1 12 2 11 3 15 4 16 5 2 6 1 7 3 8 4 9 5 10 6 11 8 12 9 13
REMARK SMILES IDX 10 14 7 15 14 16
REMARK H PARENT
REMARK Flexibility Score: inf
ROOT
ATOM      1  C   UNL     1      -9.826  72.536  35.866  1.00  0.00     0.039 C 
ATOM      2  C   UNL     1     -10.308  71.622  36.971  1.00  0.00    -0.070 C 
ATOM      3  C   UNL     1      -9.672  70.445  37.246  1.00  0.00    -0.006 C 
ATOM      4  C   UNL     1      -8.465  69.994  36.434  1.00  0.00     0.047 C 
ATOM      5  C   UNL     1      -8.347  68.452  36.341  1.00  0.00     0.025 C 
ATOM      6  C   UNL     1      -7.129  67.939  35.572  1.00  0.00    -0.073 C 
ATOM      7  C   UNL     1      -6.200  68.736  35.011  1.00  0.00     0.008 C 
ATOM      8  C   UNL     1      -7.022  66.441  35.414  1.00  0.00     0.031 C 
ATOM      9  C   UNL     1      -7.122  65.753  36.779  1.00  0.00     0.005 C 
ATOM     10  C   UNL     1      -8.364  66.218  37.559  1.00  0.00     0.008 C 
ATOM     11  C   UNL     1      -8.428  67.764  37.741  1.00  0.00    -0.018 C 
ATOM     12  C   UNL     1      -9.791  68.117  38.386  1.00  0.00     0.088 C 
ATOM     13  C   UNL     1     -10.036  69.598  38.419  1.00  0.00     0.159 C 
ATOM     14  O   UNL     1     -10.539  70.103  39.459  1.00  0.00    -0.295 OA
ATOM     15  C   UNL     1      -7.280  68.227  38.680  1.00  0.00     0.012 C 
ATOM     16  C   UNL     1     -11.543  72.057  37.726  1.00  0.00     0.039 C 
ENDROOT
TORSDOF 0
ENDMDL
MODEL 8
REMARK VINA RESULT:    -4.747      9.201     11.277
REMARK INTER + INTRA:          -4.747
REMARK INTER:                  -4.747
REMARK INTRA:                   0.000
REMARK UNBOUND:                 0.000
REMARK SMILES C=C1CCC[C@]2(C)CC(=O)C(=C(C)C)C[C@@H]12
REMARK SMILES IDX 13 1 12 2 11 3 15 4 16 5 2 6 1 7 3 8 4 9 5 10 6 11 8 12 9 13
REMARK SMILES IDX 10 14 7 15 14 16
REMARK H PARENT
REMARK Flexibility Score: inf
ROOT
ATOM      1  C   UNL     1      -3.412  70.409  36.869  1.00  0.00     0.039 C 
ATOM      2  C   UNL     1      -4.808  69.932  36.533  1.00  0.00    -0.070 C 
ATOM      3  C   UNL     1      -5.033  69.078  35.491  1.00  0.00    -0.006 C 
ATOM      4  C   UNL     1      -3.891  68.591  34.610  1.00  0.00     0.047 C 
ATOM      5  C   UNL     1      -4.337  68.302  33.155  1.00  0.00     0.025 C 
ATOM      6  C   UNL     1      -3.239  67.770  32.233  1.00  0.00    -0.073 C 
ATOM      7  C   UNL     1      -1.969  67.546  32.622  1.00  0.00     0.008 C 
ATOM      8  C   UNL     1      -3.632  67.537  30.793  1.00  0.00     0.031 C 
ATOM      9  C   UNL     1      -4.874  66.643  30.718  1.00  0.00     0.005 C 
ATOM     10  C   UNL     1      -6.012  67.178  31.604  1.00  0.00     0.008 C 
ATOM     11  C   UNL     1      -5.590  67.373  33.091  1.00  0.00    -0.018 C 
ATOM     12  C   UNL     1      -6.757  68.066  33.837  1.00  0.00     0.088 C 
ATOM     13  C   UNL     1      -6.374  68.479  35.228  1.00  0.00     0.159 C 
ATOM     14  O   UNL     1      -7.203  68.296  36.161  1.00  0.00    -0.295 OA
ATOM     15  C   UNL     1      -5.317  65.988  33.740  1.00  0.00     0.012 C 
ATOM     16  C   UNL     1      -5.937  70.473  37.380  1.00  0.00     0.039 C 
ENDROOT
TORSDOF 0
ENDMDL
MODEL 9
REMARK VINA RESULT:    -4.661     10.231     12.764
REMARK INTER + INTRA:          -4.661
REMARK INTER:                  -4.661
REMARK INTRA:                   0.000
REMARK UNBOUND:                 0.000
REMARK SMILES C=C1CCC[C@]2(C)CC(=O)C(=C(C)C)C[C@@H]12
REMARK SMILES IDX 13 1 12 2 11 3 15 4 16 5 2 6 1 7 3 8 4 9 5 10 6 11 8 12 9 13
REMARK SMILES IDX 10 14 7 15 14 16
REMARK H PARENT
REMARK Flexibility Score: inf
ROOT
ATOM      1  C   UNL     1      -4.020  66.915  32.199  1.00  0.00     0.039 C 
ATOM      2  C   UNL     1      -3.733  68.070  33.131  1.00  0.00    -0.070 C 
ATOM      3  C   UNL     1      -4.449  68.248  34.281  1.00  0.00    -0.006 C 
ATOM      4  C   UNL     1      -5.582  67.302  34.658  1.00  0.00     0.047 C 
ATOM      5  C   UNL     1      -6.697  67.997  35.477  1.00  0.00     0.025 C 
ATOM      6  C   UNL     1      -7.843  67.086  35.919  1.00  0.00    -0.073 C 
ATOM      7  C   UNL     1      -7.908  65.769  35.645  1.00  0.00     0.008 C 
ATOM      8  C   UNL     1      -8.973  67.751  36.668  1.00  0.00     0.031 C 
ATOM      9  C   UNL     1      -8.429  68.544  37.860  1.00  0.00     0.005 C 
ATOM     10  C   UNL     1      -7.302  69.503  37.437  1.00  0.00     0.008 C 
ATOM     11  C   UNL     1      -6.132  68.784  36.701  1.00  0.00    -0.018 C 
ATOM     12  C   UNL     1      -5.152  69.866  36.184  1.00  0.00     0.088 C 
ATOM     13  C   UNL     1      -4.094  69.289  35.288  1.00  0.00     0.159 C 
ATOM     14  O   UNL     1      -2.907  69.695  35.418  1.00  0.00    -0.295 OA
ATOM     15  C   UNL     1      -5.388  67.850  37.696  1.00  0.00     0.012 C 
ATOM     16  C   UNL     1      -2.646  69.033  32.712  1.00  0.00     0.039 C 
ENDROOT
TORSDOF 0
ENDMDL
