MODEL 1
REMARK VINA RESULT:    -3.806      0.000      0.000
REMARK INTER + INTRA:          -5.976
REMARK INTER:                  -5.252
REMARK INTRA:                  -0.724
REMARK UNBOUND:                -0.724
REMARK SMILES OC[C@H](O)C(O)[C@@H](O)CO
REMARK SMILES IDX 5 1 7 2 9 3 10 4 8 6 3 8 2 9 1 10 4 12 6 14
REMARK H PARENT 10 5 8 7 1 11 4 13 6 15
REMARK Flexibility Score: inf
ROOT
ATOM      1  C   UNL     1      43.457   4.970 102.227  1.00  0.00     0.176 C 
ENDROOT
BRANCH   1   2
ATOM      2  C   UNL     1      42.512   4.160 103.154  1.00  0.00     0.171 C 
BRANCH   2   3
ATOM      3  C   UNL     1      41.514   3.301 102.357  1.00  0.00     0.190 C 
BRANCH   3   4
ATOM      4  O   UNL     1      40.348   4.025 102.062  1.00  0.00    -0.394 OA
ATOM      5  H   UNL     1      40.582   4.678 101.352  1.00  0.00     0.210 HD
ENDBRANCH   3   4
ENDBRANCH   2   3
BRANCH   2   6
ATOM      6  O   UNL     1      41.822   5.026 104.020  1.00  0.00    -0.388 OA
ATOM      7  H   UNL     1      42.062   4.760 104.946  1.00  0.00     0.211 HD
ENDBRANCH   2   6
ENDBRANCH   1   2
BRANCH   1   8
ATOM      8  C   UNL     1      44.472   5.824 103.032  1.00  0.00     0.171 C 
BRANCH   8   9
ATOM      9  C   UNL     1      44.177   7.328 102.911  1.00  0.00     0.190 C 
BRANCH   9  10
ATOM     10  O   UNL     1      43.098   7.683 103.732  1.00  0.00    -0.394 OA
ATOM     11  H   UNL     1      43.169   7.113 104.542  1.00  0.00     0.210 HD
ENDBRANCH   9  10
ENDBRANCH   8   9
BRANCH   8  12
ATOM     12  O   UNL     1      45.769   5.577 102.550  1.00  0.00    -0.388 OA
ATOM     13  H   UNL     1      45.890   6.140 101.741  1.00  0.00     0.211 HD
ENDBRANCH   8  12
ENDBRANCH   1   8
BRANCH   1  14
ATOM     14  O   UNL     1      42.720   5.770 101.334  1.00  0.00    -0.388 OA
ATOM     15  H   UNL     1      43.256   5.869 100.505  1.00  0.00     0.211 HD
ENDBRANCH   1  14
TORSDOF 9
ENDMDL
MODEL 2
REMARK VINA RESULT:    -3.739      2.642      4.175
REMARK INTER + INTRA:          -5.883
REMARK INTER:                  -5.418
REMARK INTRA:                  -0.465
REMARK UNBOUND:                -0.724
REMARK SMILES OC[C@H](O)C(O)[C@@H](O)CO
REMARK SMILES IDX 5 1 7 2 9 3 10 4 8 6 3 8 2 9 1 10 4 12 6 14
REMARK H PARENT 10 5 8 7 1 11 4 13 6 15
REMARK Flexibility Score: inf
ROOT
ATOM      1  C   UNL     1      41.123   3.673 104.271  1.00  0.00     0.176 C 
ENDROOT
BRANCH   1   2
ATOM      2  C   UNL     1      42.187   3.892 103.162  1.00  0.00     0.171 C 
BRANCH   2   3
ATOM      3  C   UNL     1      41.570   3.867 101.753  1.00  0.00     0.190 C 
BRANCH   3   4
ATOM      4  O   UNL     1      40.172   3.977 101.812  1.00  0.00    -0.394 OA
ATOM      5  H   UNL     1      39.863   3.383 102.544  1.00  0.00     0.210 HD
ENDBRANCH   3   4
ENDBRANCH   2   3
BRANCH   2   6
ATOM      6  O   UNL     1      43.201   2.923 103.264  1.00  0.00    -0.388 OA
ATOM      7  H   UNL     1      44.012   3.309 102.842  1.00  0.00     0.211 HD
ENDBRANCH   2   6
ENDBRANCH   1   2
BRANCH   1   8
ATOM      8  C   UNL     1      41.614   4.168 105.657  1.00  0.00     0.171 C 
BRANCH   8   9
ATOM      9  C   UNL     1      41.010   3.344 106.806  1.00  0.00     0.190 C 
BRANCH   9  10
ATOM     10  O   UNL     1      39.617   3.265 106.673  1.00  0.00    -0.394 OA
ATOM     11  H   UNL     1      39.449   2.761 105.834  1.00  0.00     0.210 HD
ENDBRANCH   9  10
ENDBRANCH   8   9
BRANCH   8  12
ATOM     12  O   UNL     1      41.247   5.515 105.823  1.00  0.00    -0.388 OA
ATOM     13  H   UNL     1      40.422   5.658 105.289  1.00  0.00     0.211 HD
ENDBRANCH   8  12
ENDBRANCH   1   8
BRANCH   1  14
ATOM     14  O   UNL     1      40.728   2.323 104.328  1.00  0.00    -0.388 OA
ATOM     15  H   UNL     1      40.889   1.923 103.433  1.00  0.00     0.211 HD
ENDBRANCH   1  14
TORSDOF 9
ENDMDL
MODEL 3
REMARK VINA RESULT:    -3.715      2.169      3.666
REMARK INTER + INTRA:          -5.850
REMARK INTER:                  -5.562
REMARK INTRA:                  -0.288
REMARK UNBOUND:                -0.724
REMARK SMILES OC[C@H](O)C(O)[C@@H](O)CO
REMARK SMILES IDX 5 1 7 2 9 3 10 4 8 6 3 8 2 9 1 10 4 12 6 14
REMARK H PARENT 10 5 8 7 1 11 4 13 6 15
REMARK Flexibility Score: inf
ROOT
ATOM      1  C   UNL     1      41.593   4.655 103.939  1.00  0.00     0.176 C 
ENDROOT
BRANCH   1   2
ATOM      2  C   UNL     1      41.549   3.931 105.311  1.00  0.00     0.171 C 
BRANCH   2   3
ATOM      3  C   UNL     1      40.587   2.730 105.302  1.00  0.00     0.190 C 
BRANCH   3   4
ATOM      4  O   UNL     1      39.606   2.861 106.298  1.00  0.00    -0.394 OA
ATOM      5  H   UNL     1      39.944   3.525 106.954  1.00  0.00     0.210 HD
ENDBRANCH   3   4
ENDBRANCH   2   3
BRANCH   2   6
ATOM      6  O   UNL     1      41.186   4.835 106.325  1.00  0.00    -0.388 OA
ATOM      7  H   UNL     1      40.721   5.593 105.884  1.00  0.00     0.211 HD
ENDBRANCH   2   6
ENDBRANCH   1   2
BRANCH   1   8
ATOM      8  C   UNL     1      41.384   3.674 102.755  1.00  0.00     0.171 C 
BRANCH   8   9
ATOM      9  C   UNL     1      42.499   3.802 101.703  1.00  0.00     0.190 C 
BRANCH   9  10
ATOM     10  O   UNL     1      42.364   5.000 100.989  1.00  0.00    -0.394 OA
ATOM     11  H   UNL     1      41.412   5.268 101.078  1.00  0.00     0.210 HD
ENDBRANCH   9  10
ENDBRANCH   8   9
BRANCH   8  12
ATOM     12  O   UNL     1      40.149   3.945 102.141  1.00  0.00    -0.388 OA
ATOM     13  H   UNL     1      40.089   3.362 101.339  1.00  0.00     0.211 HD
ENDBRANCH   8  12
ENDBRANCH   1   8
BRANCH   1  14
ATOM     14  O   UNL     1      42.791   5.378 103.791  1.00  0.00    -0.388 OA
ATOM     15  H   UNL     1      42.584   6.205 103.282  1.00  0.00     0.211 HD
ENDBRANCH   1  14
TORSDOF 9
ENDMDL
MODEL 4
REMARK VINA RESULT:    -3.634      2.420      3.912
REMARK INTER + INTRA:          -5.739
REMARK INTER:                  -5.057
REMARK INTRA:                  -0.681
REMARK UNBOUND:                -0.724
REMARK SMILES OC[C@H](O)C(O)[C@@H](O)CO
REMARK SMILES IDX 5 1 7 2 9 3 10 4 8 6 3 8 2 9 1 10 4 12 6 14
REMARK H PARENT 10 5 8 7 1 11 4 13 6 15
REMARK Flexibility Score: inf
ROOT
ATOM      1  C   UNL     1      41.941   3.292 104.483  1.00  0.00     0.176 C 
ENDROOT
BRANCH   1   2
ATOM      2  C   UNL     1      41.803   3.862 105.920  1.00  0.00     0.171 C 
BRANCH   2   3
ATOM      3  C   UNL     1      40.914   2.977 106.812  1.00  0.00     0.190 C 
BRANCH   3   4
ATOM      4  O   UNL     1      39.554   3.247 106.595  1.00  0.00    -0.394 OA
ATOM      5  H   UNL     1      39.224   2.575 105.943  1.00  0.00     0.210 HD
ENDBRANCH   3   4
ENDBRANCH   2   3
BRANCH   2   6
ATOM      6  O   UNL     1      41.294   5.172 105.877  1.00  0.00    -0.388 OA
ATOM      7  H   UNL     1      41.135   5.387 104.920  1.00  0.00     0.211 HD
ENDBRANCH   2   6
ENDBRANCH   1   2
BRANCH   1   8
ATOM      8  C   UNL     1      41.825   4.400 103.403  1.00  0.00     0.171 C 
BRANCH   8   9
ATOM      9  C   UNL     1      41.476   3.818 102.023  1.00  0.00     0.190 C 
BRANCH   9  10
ATOM     10  O   UNL     1      40.095   3.884 101.799  1.00  0.00    -0.394 OA
ATOM     11  H   UNL     1      39.687   4.149 102.665  1.00  0.00     0.210 HD
ENDBRANCH   9  10
ENDBRANCH   8   9
BRANCH   8  12
ATOM     12  O   UNL     1      43.049   5.085 103.310  1.00  0.00    -0.388 OA
ATOM     13  H   UNL     1      43.332   5.045 102.358  1.00  0.00     0.211 HD
ENDBRANCH   8  12
ENDBRANCH   1   8
BRANCH   1  14
ATOM     14  O   UNL     1      41.004   2.266 104.258  1.00  0.00    -0.388 OA
ATOM     15  H   UNL     1      41.505   1.455 103.982  1.00  0.00     0.211 HD
ENDBRANCH   1  14
TORSDOF 9
ENDMDL
MODEL 5
REMARK VINA RESULT:    -3.630     11.206     12.650
REMARK INTER + INTRA:          -5.733
REMARK INTER:                  -5.431
REMARK INTRA:                  -0.302
REMARK UNBOUND:                -0.724
REMARK SMILES OC[C@H](O)C(O)[C@@H](O)CO
REMARK SMILES IDX 5 1 7 2 9 3 10 4 8 6 3 8 2 9 1 10 4 12 6 14
REMARK H PARENT 10 5 8 7 1 11 4 13 6 15
REMARK Flexibility Score: inf
ROOT
ATOM      1  C   UNL     1      39.309  14.319  96.495  1.00  0.00     0.176 C 
ENDROOT
BRANCH   1   2
ATOM      2  C   UNL     1      40.795  14.551  96.877  1.00  0.00     0.171 C 
BRANCH   2   3
ATOM      3  C   UNL     1      41.162  16.045  96.897  1.00  0.00     0.190 C 
BRANCH   3   4
ATOM      4  O   UNL     1      42.554  16.223  96.888  1.00  0.00    -0.394 OA
ATOM      5  H   UNL     1      42.935  15.573  97.534  1.00  0.00     0.210 HD
ENDBRANCH   3   4
ENDBRANCH   2   3
BRANCH   2   6
ATOM      6  O   UNL     1      41.638  13.857  95.991  1.00  0.00    -0.388 OA
ATOM      7  H   UNL     1      41.086  13.606  95.204  1.00  0.00     0.211 HD
ENDBRANCH   2   6
ENDBRANCH   1   2
BRANCH   1   8
ATOM      8  C   UNL     1      38.579  15.647  96.157  1.00  0.00     0.171 C 
BRANCH   8   9
ATOM      9  C   UNL     1      37.501  15.988  97.199  1.00  0.00     0.190 C 
BRANCH   9  10
ATOM     10  O   UNL     1      36.262  15.459  96.814  1.00  0.00    -0.394 OA
ATOM     11  H   UNL     1      35.604  16.196  96.915  1.00  0.00     0.210 HD
ENDBRANCH   9  10
ENDBRANCH   8   9
BRANCH   8  12
ATOM     12  O   UNL     1      37.970  15.531  94.896  1.00  0.00    -0.388 OA
ATOM     13  H   UNL     1      37.047  15.888  94.986  1.00  0.00     0.211 HD
ENDBRANCH   8  12
ENDBRANCH   1   8
BRANCH   1  14
ATOM     14  O   UNL     1      38.633  13.616  97.510  1.00  0.00    -0.388 OA
ATOM     15  H   UNL     1      37.836  13.188  97.101  1.00  0.00     0.211 HD
ENDBRANCH   1  14
TORSDOF 9
ENDMDL
MODEL 6
REMARK VINA RESULT:    -3.600     11.228     12.243
REMARK INTER + INTRA:          -5.692
REMARK INTER:                  -5.268
REMARK INTRA:                  -0.424
REMARK UNBOUND:                -0.724
REMARK SMILES OC[C@H](O)C(O)[C@@H](O)CO
REMARK SMILES IDX 5 1 7 2 9 3 10 4 8 6 3 8 2 9 1 10 4 12 6 14
REMARK H PARENT 10 5 8 7 1 11 4 13 6 15
REMARK Flexibility Score: inf
ROOT
ATOM      1  C   UNL     1      39.857  15.669  96.349  1.00  0.00     0.176 C 
ENDROOT
BRANCH   1   2
ATOM      2  C   UNL     1      38.497  14.928  96.448  1.00  0.00     0.171 C 
BRANCH   2   3
ATOM      3  C   UNL     1      37.375  15.843  96.969  1.00  0.00     0.190 C 
BRANCH   3   4
ATOM      4  O   UNL     1      36.111  15.328  96.642  1.00  0.00    -0.394 OA
ATOM      5  H   UNL     1      35.981  15.471  95.669  1.00  0.00     0.210 HD
ENDBRANCH   3   4
ENDBRANCH   2   3
BRANCH   2   6
ATOM      6  O   UNL     1      38.620  13.795  97.270  1.00  0.00    -0.388 OA
ATOM      7  H   UNL     1      37.712  13.404  97.361  1.00  0.00     0.211 HD
ENDBRANCH   2   6
ENDBRANCH   1   2
BRANCH   1   8
ATOM      8  C   UNL     1      40.994  14.900  97.072  1.00  0.00     0.171 C 
BRANCH   8   9
ATOM      9  C   UNL     1      42.017  15.857  97.708  1.00  0.00     0.190 C 
BRANCH   9  10
ATOM     10  O   UNL     1      42.656  16.618  96.720  1.00  0.00    -0.394 OA
ATOM     11  H   UNL     1      43.545  16.861  97.091  1.00  0.00     0.210 HD
ENDBRANCH   9  10
ENDBRANCH   8   9
BRANCH   8  12
ATOM     12  O   UNL     1      41.658  14.078  96.146  1.00  0.00    -0.388 OA
ATOM     13  H   UNL     1      42.008  13.296  96.651  1.00  0.00     0.211 HD
ENDBRANCH   8  12
ENDBRANCH   1   8
BRANCH   1  14
ATOM     14  O   UNL     1      39.748  16.985  96.835  1.00  0.00    -0.388 OA
ATOM     15  H   UNL     1      40.636  17.418  96.737  1.00  0.00     0.211 HD
ENDBRANCH   1  14
TORSDOF 9
ENDMDL
MODEL 7
REMARK VINA RESULT:    -3.590      2.551      4.018
REMARK INTER + INTRA:          -5.678
REMARK INTER:                  -4.970
REMARK INTRA:                  -0.708
REMARK UNBOUND:                -0.724
REMARK SMILES OC[C@H](O)C(O)[C@@H](O)CO
REMARK SMILES IDX 5 1 7 2 9 3 10 4 8 6 3 8 2 9 1 10 4 12 6 14
REMARK H PARENT 10 5 8 7 1 11 4 13 6 15
REMARK Flexibility Score: inf
ROOT
ATOM      1  C   UNL     1      42.163   4.152 104.593  1.00  0.00     0.176 C 
ENDROOT
BRANCH   1   2
ATOM      2  C   UNL     1      42.313   3.709 103.113  1.00  0.00     0.171 C 
BRANCH   2   3
ATOM      3  C   UNL     1      41.029   3.059 102.569  1.00  0.00     0.190 C 
BRANCH   3   4
ATOM      4  O   UNL     1      40.167   4.023 102.023  1.00  0.00    -0.394 OA
ATOM      5  H   UNL     1      40.736   4.757 101.673  1.00  0.00     0.210 HD
ENDBRANCH   3   4
ENDBRANCH   2   3
BRANCH   2   6
ATOM      6  O   UNL     1      43.399   2.825 102.979  1.00  0.00    -0.388 OA
ATOM      7  H   UNL     1      43.024   1.905 102.987  1.00  0.00     0.211 HD
ENDBRANCH   2   6
ENDBRANCH   1   2
BRANCH   1   8
ATOM      8  C   UNL     1      41.810   2.962 105.525  1.00  0.00     0.171 C 
BRANCH   8   9
ATOM      9  C   UNL     1      41.030   3.421 106.768  1.00  0.00     0.190 C 
BRANCH   9  10
ATOM     10  O   UNL     1      39.651   3.285 106.559  1.00  0.00    -0.394 OA
ATOM     11  H   UNL     1      39.287   4.208 106.509  1.00  0.00     0.210 HD
ENDBRANCH   9  10
ENDBRANCH   8   9
BRANCH   8  12
ATOM     12  O   UNL     1      42.995   2.333 105.941  1.00  0.00    -0.388 OA
ATOM     13  H   UNL     1      43.750   2.847 105.549  1.00  0.00     0.211 HD
ENDBRANCH   8  12
ENDBRANCH   1   8
BRANCH   1  14
ATOM     14  O   UNL     1      41.217   5.186 104.714  1.00  0.00    -0.388 OA
ATOM     15  H   UNL     1      40.996   5.282 105.677  1.00  0.00     0.211 HD
ENDBRANCH   1  14
TORSDOF 9
ENDMDL
MODEL 8
REMARK VINA RESULT:    -3.589      2.344      3.750
REMARK INTER + INTRA:          -5.677
REMARK INTER:                  -5.067
REMARK INTRA:                  -0.610
REMARK UNBOUND:                -0.724
REMARK SMILES OC[C@H](O)C(O)[C@@H](O)CO
REMARK SMILES IDX 5 1 7 2 9 3 10 4 8 6 3 8 2 9 1 10 4 12 6 14
REMARK H PARENT 10 5 8 7 1 11 4 13 6 15
REMARK Flexibility Score: inf
ROOT
ATOM      1  C   UNL     1      41.998   3.712 103.365  1.00  0.00     0.176 C 
ENDROOT
BRANCH   1   2
ATOM      2  C   UNL     1      41.454   3.424 101.941  1.00  0.00     0.171 C 
BRANCH   2   3
ATOM      3  C   UNL     1      42.390   3.958 100.842  1.00  0.00     0.190 C 
BRANCH   3   4
ATOM      4  O   UNL     1      42.095   5.295 100.533  1.00  0.00    -0.394 OA
ATOM      5  H   UNL     1      41.129   5.431 100.719  1.00  0.00     0.210 HD
ENDBRANCH   3   4
ENDBRANCH   2   3
BRANCH   2   6
ATOM      6  O   UNL     1      40.169   3.974 101.791  1.00  0.00    -0.388 OA
ATOM      7  H   UNL     1      40.248   4.719 101.140  1.00  0.00     0.211 HD
ENDBRANCH   2   6
ENDBRANCH   1   2
BRANCH   1   8
ATOM      8  C   UNL     1      40.934   3.443 104.462  1.00  0.00     0.171 C 
BRANCH   8   9
ATOM      9  C   UNL     1      41.466   3.771 105.867  1.00  0.00     0.190 C 
BRANCH   9  10
ATOM     10  O   UNL     1      41.194   5.106 106.195  1.00  0.00    -0.394 OA
ATOM     11  H   UNL     1      40.234   5.251 105.987  1.00  0.00     0.210 HD
ENDBRANCH   9  10
ENDBRANCH   8   9
BRANCH   8  12
ATOM     12  O   UNL     1      40.562   2.089 104.423  1.00  0.00    -0.388 OA
ATOM     13  H   UNL     1      41.070   1.627 105.142  1.00  0.00     0.211 HD
ENDBRANCH   8  12
ENDBRANCH   1   8
BRANCH   1  14
ATOM     14  O   UNL     1      42.496   5.026 103.455  1.00  0.00    -0.388 OA
ATOM     15  H   UNL     1      41.836   5.564 103.964  1.00  0.00     0.211 HD
ENDBRANCH   1  14
TORSDOF 9
ENDMDL
MODEL 9
REMARK VINA RESULT:    -3.588     11.159     12.656
REMARK INTER + INTRA:          -5.675
REMARK INTER:                  -5.249
REMARK INTRA:                  -0.426
REMARK UNBOUND:                -0.724
REMARK SMILES OC[C@H](O)C(O)[C@@H](O)CO
REMARK SMILES IDX 5 1 7 2 9 3 10 4 8 6 3 8 2 9 1 10 4 12 6 14
REMARK H PARENT 10 5 8 7 1 11 4 13 6 15
REMARK Flexibility Score: inf
ROOT
ATOM      1  C   UNL     1      39.598  15.596  97.194  1.00  0.00     0.176 C 
ENDROOT
BRANCH   1   2
ATOM      2  C   UNL     1      40.986  14.904  97.253  1.00  0.00     0.171 C 
BRANCH   2   3
ATOM      3  C   UNL     1      42.131  15.870  96.901  1.00  0.00     0.190 C 
BRANCH   3   4
ATOM      4  O   UNL     1      42.394  16.750  97.963  1.00  0.00    -0.394 OA
ATOM      5  H   UNL     1      41.573  17.289  98.106  1.00  0.00     0.210 HD
ENDBRANCH   3   4
ENDBRANCH   2   3
BRANCH   2   6
ATOM      6  O   UNL     1      41.011  13.791  96.395  1.00  0.00    -0.388 OA
ATOM      7  H   UNL     1      41.291  13.011  96.942  1.00  0.00     0.211 HD
ENDBRANCH   2   6
ENDBRANCH   1   2
BRANCH   1   8
ATOM      8  C   UNL     1      38.526  14.696  96.526  1.00  0.00     0.171 C 
BRANCH   8   9
ATOM      9  C   UNL     1      37.425  15.527  95.846  1.00  0.00     0.190 C 
BRANCH   9  10
ATOM     10  O   UNL     1      36.390  15.802  96.749  1.00  0.00    -0.394 OA
ATOM     11  H   UNL     1      36.385  16.787  96.873  1.00  0.00     0.210 HD
ENDBRANCH   9  10
ENDBRANCH   8   9
BRANCH   8  12
ATOM     12  O   UNL     1      37.936  13.876  97.503  1.00  0.00    -0.388 OA
ATOM     13  H   UNL     1      38.306  12.962  97.377  1.00  0.00     0.211 HD
ENDBRANCH   8  12
ENDBRANCH   1   8
BRANCH   1  14
ATOM     14  O   UNL     1      39.686  16.843  96.547  1.00  0.00    -0.388 OA
ATOM     15  H   UNL     1      39.845  17.533  97.243  1.00  0.00     0.211 HD
ENDBRANCH   1  14
TORSDOF 9
ENDMDL
