MODEL 1
REMARK VINA RESULT:    -3.594      0.000      0.000
REMARK INTER + INTRA:          -3.412
REMARK INTER:                  -4.435
REMARK INTRA:                   1.023
REMARK UNBOUND:                 1.023
REMARK SMILES C=C1[C@H]2CC[C@@H]3[C@H]2C(C)(C)CCC[C@]13C
REMARK SMILES IDX 14 1 6 2 7 3 3 4 2 5 1 6 4 7 5 8 15 9 8 10 9 11 10 12 11 13
REMARK SMILES IDX 13 15 12 16
REMARK H PARENT
REMARK Flexibility Score: 80.00
ROOT
ATOM      1  C   UNL     1      12.964   7.365  18.346  1.00  0.00    -0.008 C 
ATOM      2  C   UNL     1      12.994   6.716  16.909  1.00  0.00     0.003 C 
ATOM      3  C   UNL     1      13.203   5.207  17.167  1.00  0.00     0.006 C 
ATOM      4  C   UNL     1      12.045   5.104  18.150  1.00  0.00     0.019 C 
ATOM      5  C   UNL     1      12.361   6.212  19.115  1.00  0.00    -0.068 C 
ATOM      6  C   UNL     1      12.051   6.198  20.418  1.00  0.00     0.009 C 
ATOM      7  C   UNL     1      10.875   5.601  17.270  1.00  0.00     0.008 C 
ATOM      8  C   UNL     1      11.550   6.642  16.342  1.00  0.00     0.005 C 
ATOM      9  C   UNL     1      12.046   8.612  18.459  1.00  0.00     0.016 C 
ENDROOT
BRANCH   3  10
ATOM     10  C   UNL     1      14.615   4.652  17.597  1.00  0.00    -0.032 C 
ATOM     11  C   UNL     1      15.530   4.619  16.343  1.00  0.00     0.011 C 
ATOM     12  C   UNL     1      14.456   3.186  18.068  1.00  0.00     0.011 C 
BRANCH  10  13
ATOM     13  C   UNL     1      15.322   5.426  18.745  1.00  0.00     0.007 CG0
ATOM     14  G   UNL     1      15.549   6.913  18.464  1.00  0.00     0.000 G0
ENDBRANCH  10  13
ENDBRANCH   3  10
BRANCH   1  15
ATOM     15  C   UNL     1      14.367   7.782  18.877  1.00  0.00     0.011 C 
BRANCH  15  16
ATOM     16  C   UNL     1      15.554   6.918  18.459  1.00  0.00     0.001 CG0
ATOM     17  G   UNL     1      15.344   5.431  18.750  1.00  0.00     0.000 G0
ENDBRANCH  15  16
ENDBRANCH   1  15
TORSDOF 0
ENDMDL
MODEL 2
REMARK VINA RESULT:    -3.491      1.276      1.996
REMARK INTER + INTRA:          -3.285
REMARK INTER:                  -4.301
REMARK INTRA:                   1.016
REMARK UNBOUND:                 1.023
REMARK SMILES C=C1[C@H]2CC[C@@H]3[C@H]2C(C)(C)CCC[C@]13C
REMARK SMILES IDX 14 1 6 2 7 3 3 4 2 5 1 6 4 7 5 8 15 9 8 10 9 11 10 12 11 13
REMARK SMILES IDX 13 15 12 16
REMARK H PARENT
REMARK Flexibility Score: 80.00
ROOT
ATOM      1  C   UNL     1      13.240   5.893  19.884  1.00  0.00    -0.008 C 
ATOM      2  C   UNL     1      12.687   6.697  18.644  1.00  0.00     0.003 C 
ATOM      3  C   UNL     1      13.173   5.898  17.414  1.00  0.00     0.006 C 
ATOM      4  C   UNL     1      12.615   4.574  17.918  1.00  0.00     0.019 C 
ATOM      5  C   UNL     1      13.201   4.500  19.300  1.00  0.00    -0.068 C 
ATOM      6  C   UNL     1      13.526   3.363  19.930  1.00  0.00     0.009 C 
ATOM      7  C   UNL     1      11.122   4.936  18.087  1.00  0.00     0.008 C 
ATOM      8  C   UNL     1      11.165   6.431  18.490  1.00  0.00     0.005 C 
ATOM      9  C   UNL     1      12.332   5.965  21.141  1.00  0.00     0.016 C 
ENDROOT
BRANCH   3  10
ATOM     10  C   UNL     1      14.680   5.961  16.957  1.00  0.00    -0.032 C 
ATOM     11  C   UNL     1      14.915   7.314  16.233  1.00  0.00     0.011 C 
ATOM     12  C   UNL     1      14.935   4.849  15.910  1.00  0.00     0.011 C 
BRANCH  10  13
ATOM     13  C   UNL     1      15.735   5.777  18.084  1.00  0.00     0.007 CG0
ATOM     14  G   UNL     1      15.625   6.785  19.229  1.00  0.00     0.000 G0
ENDBRANCH  10  13
ENDBRANCH   3  10
BRANCH   1  15
ATOM     15  C   UNL     1      14.668   6.327  20.328  1.00  0.00     0.011 C 
BRANCH  15  16
ATOM     16  C   UNL     1      15.630   6.779  19.232  1.00  0.00     0.001 CG0
ATOM     17  G   UNL     1      15.723   5.787  18.071  1.00  0.00     0.000 G0
ENDBRANCH  15  16
ENDBRANCH   1  15
TORSDOF 0
ENDMDL
MODEL 3
REMARK VINA RESULT:    -3.474      1.455      2.747
REMARK INTER + INTRA:          -3.264
REMARK INTER:                  -4.311
REMARK INTRA:                   1.047
REMARK UNBOUND:                 1.023
REMARK SMILES C=C1[C@H]2CC[C@@H]3[C@H]2C(C)(C)CCC[C@]13C
REMARK SMILES IDX 14 1 6 2 7 3 3 4 2 5 1 6 4 7 5 8 15 9 8 10 9 11 10 12 11 13
REMARK SMILES IDX 13 15 12 16
REMARK H PARENT
REMARK Flexibility Score: 80.00
ROOT
ATOM      1  C   UNL     1      12.314   7.007  18.382  1.00  0.00    -0.008 C 
ATOM      2  C   UNL     1      13.853   7.351  18.350  1.00  0.00     0.003 C 
ATOM      3  C   UNL     1      14.409   6.536  17.160  1.00  0.00     0.006 C 
ATOM      4  C   UNL     1      13.373   7.062  16.176  1.00  0.00     0.019 C 
ATOM      5  C   UNL     1      12.088   6.785  16.905  1.00  0.00    -0.068 C 
ATOM      6  C   UNL     1      10.922   6.499  16.310  1.00  0.00     0.009 C 
ATOM      7  C   UNL     1      13.624   8.584  16.279  1.00  0.00     0.008 C 
ATOM      8  C   UNL     1      14.054   8.771  17.755  1.00  0.00     0.005 C 
ATOM      9  C   UNL     1      11.415   8.169  18.886  1.00  0.00     0.016 C 
ENDROOT
BRANCH   3  10
ATOM     10  C   UNL     1      14.620   4.979  17.281  1.00  0.00    -0.032 C 
ATOM     11  C   UNL     1      15.883   4.722  18.145  1.00  0.00     0.011 C 
ATOM     12  C   UNL     1      14.921   4.403  15.875  1.00  0.00     0.011 C 
BRANCH  10  13
ATOM     13  C   UNL     1      13.418   4.178  17.854  1.00  0.00     0.007 CG0
ATOM     14  G   UNL     1      12.984   4.600  19.258  1.00  0.00     0.000 G0
ENDBRANCH  10  13
ENDBRANCH   3  10
BRANCH   1  15
ATOM     15  C   UNL     1      11.968   5.756  19.244  1.00  0.00     0.011 C 
BRANCH  15  16
ATOM     16  C   UNL     1      12.987   4.620  19.262  1.00  0.00     0.001 CG0
ATOM     17  G   UNL     1      13.406   4.170  17.862  1.00  0.00     0.000 G0
ENDBRANCH  15  16
ENDBRANCH   1  15
TORSDOF 0
ENDMDL
MODEL 4
REMARK VINA RESULT:    -3.466      1.566      3.793
REMARK INTER + INTRA:          -3.254
REMARK INTER:                  -4.307
REMARK INTRA:                   1.053
REMARK UNBOUND:                 1.023
REMARK SMILES C=C1[C@H]2CC[C@@H]3[C@H]2C(C)(C)CCC[C@]13C
REMARK SMILES IDX 14 1 6 2 7 3 3 4 2 5 1 6 4 7 5 8 15 9 8 10 9 11 10 12 11 13
REMARK SMILES IDX 13 15 12 16
REMARK H PARENT
REMARK Flexibility Score: 80.00
ROOT
ATOM      1  C   UNL     1      15.216   5.826  17.826  1.00  0.00    -0.008 C 
ATOM      2  C   UNL     1      14.190   5.871  19.023  1.00  0.00     0.003 C 
ATOM      3  C   UNL     1      12.841   5.451  18.397  1.00  0.00     0.006 C 
ATOM      4  C   UNL     1      13.404   4.181  17.773  1.00  0.00     0.019 C 
ATOM      5  C   UNL     1      14.594   4.707  17.022  1.00  0.00    -0.068 C 
ATOM      6  C   UNL     1      15.069   4.184  15.884  1.00  0.00     0.009 C 
ATOM      7  C   UNL     1      13.952   3.462  19.027  1.00  0.00     0.008 C 
ATOM      8  C   UNL     1      14.403   4.633  19.936  1.00  0.00     0.005 C 
ATOM      9  C   UNL     1      16.661   5.437  18.243  1.00  0.00     0.016 C 
ENDROOT
BRANCH   3  10
ATOM     10  C   UNL     1      12.032   6.450  17.485  1.00  0.00    -0.032 C 
ATOM     11  C   UNL     1      11.365   7.513  18.398  1.00  0.00     0.011 C 
ATOM     12  C   UNL     1      10.882   5.677  16.793  1.00  0.00     0.011 C 
BRANCH  10  13
ATOM     13  C   UNL     1      12.848   7.153  16.365  1.00  0.00     0.007 CG0
ATOM     14  G   UNL     1      14.034   7.979  16.866  1.00  0.00     0.000 G0
ENDBRANCH  10  13
ENDBRANCH   3  10
BRANCH   1  15
ATOM     15  C   UNL     1      15.315   7.163  17.033  1.00  0.00     0.011 C 
BRANCH  15  16
ATOM     16  C   UNL     1      14.033   7.977  16.878  1.00  0.00     0.001 CG0
ATOM     17  G   UNL     1      12.858   7.149  16.357  1.00  0.00     0.000 G0
ENDBRANCH  15  16
ENDBRANCH   1  15
TORSDOF 0
ENDMDL
MODEL 5
REMARK VINA RESULT:    -3.432      1.569      3.969
REMARK INTER + INTRA:          -3.212
REMARK INTER:                  -4.216
REMARK INTRA:                   1.004
REMARK UNBOUND:                 1.023
REMARK SMILES C=C1[C@H]2CC[C@@H]3[C@H]2C(C)(C)CCC[C@]13C
REMARK SMILES IDX 14 1 6 2 7 3 3 4 2 5 1 6 4 7 5 8 15 9 8 10 9 11 10 12 11 13
REMARK SMILES IDX 13 15 12 16
REMARK H PARENT
REMARK Flexibility Score: 80.00
ROOT
ATOM      1  C   UNL     1      14.295   4.466  18.322  1.00  0.00    -0.008 C 
ATOM      2  C   UNL     1      13.830   4.548  16.817  1.00  0.00     0.003 C 
ATOM      3  C   UNL     1      13.856   6.056  16.482  1.00  0.00     0.006 C 
ATOM      4  C   UNL     1      15.285   6.250  16.970  1.00  0.00     0.019 C 
ATOM      5  C   UNL     1      15.223   5.658  18.349  1.00  0.00    -0.068 C 
ATOM      6  C   UNL     1      15.962   6.070  19.388  1.00  0.00     0.009 C 
ATOM      7  C   UNL     1      16.034   5.230  16.081  1.00  0.00     0.008 C 
ATOM      8  C   UNL     1      14.993   4.099  15.890  1.00  0.00     0.005 C 
ATOM      9  C   UNL     1      15.082   3.175  18.673  1.00  0.00     0.016 C 
ENDROOT
BRANCH   3  10
ATOM     10  C   UNL     1      12.732   7.019  17.025  1.00  0.00    -0.032 C 
ATOM     11  C   UNL     1      11.452   6.806  16.172  1.00  0.00     0.011 C 
ATOM     12  C   UNL     1      13.175   8.485  16.798  1.00  0.00     0.011 C 
BRANCH  10  13
ATOM     13  C   UNL     1      12.390   6.874  18.534  1.00  0.00     0.007 CG0
ATOM     14  G   UNL     1      11.949   5.471  18.954  1.00  0.00     0.000 G0
ENDBRANCH  10  13
ENDBRANCH   3  10
BRANCH   1  15
ATOM     15  C   UNL     1      13.128   4.581  19.347  1.00  0.00     0.011 C 
BRANCH  15  16
ATOM     16  C   UNL     1      11.954   5.480  18.967  1.00  0.00     0.001 CG0
ATOM     17  G   UNL     1      12.390   6.881  18.533  1.00  0.00     0.000 G0
ENDBRANCH  15  16
ENDBRANCH   1  15
TORSDOF 0
ENDMDL
MODEL 6
REMARK VINA RESULT:    -3.422      1.589      3.583
REMARK INTER + INTRA:          -3.200
REMARK INTER:                  -4.240
REMARK INTRA:                   1.040
REMARK UNBOUND:                 1.023
REMARK SMILES C=C1[C@H]2CC[C@@H]3[C@H]2C(C)(C)CCC[C@]13C
REMARK SMILES IDX 14 1 6 2 7 3 3 4 2 5 1 6 4 7 5 8 15 9 8 10 9 11 10 12 11 13
REMARK SMILES IDX 13 15 12 16
REMARK H PARENT
REMARK Flexibility Score: 80.00
ROOT
ATOM      1  C   UNL     1      13.520   6.515  17.289  1.00  0.00    -0.008 C 
ATOM      2  C   UNL     1      13.058   5.695  18.555  1.00  0.00     0.003 C 
ATOM      3  C   UNL     1      11.983   6.582  19.223  1.00  0.00     0.006 C 
ATOM      4  C   UNL     1      11.173   6.750  17.944  1.00  0.00     0.019 C 
ATOM      5  C   UNL     1      12.221   7.220  16.975  1.00  0.00    -0.068 C 
ATOM      6  C   UNL     1      11.991   8.045  15.945  1.00  0.00     0.009 C 
ATOM      7  C   UNL     1      10.875   5.274  17.595  1.00  0.00     0.008 C 
ATOM      8  C   UNL     1      12.133   4.530  18.109  1.00  0.00     0.005 C 
ATOM      9  C   UNL     1      13.947   5.633  16.084  1.00  0.00     0.016 C 
ENDROOT
BRANCH   3  10
ATOM     10  C   UNL     1      12.393   7.869  20.036  1.00  0.00    -0.032 C 
ATOM     11  C   UNL     1      12.968   7.419  21.405  1.00  0.00     0.011 C 
ATOM     12  C   UNL     1      11.121   8.697  20.340  1.00  0.00     0.011 C 
BRANCH  10  13
ATOM     13  C   UNL     1      13.398   8.821  19.329  1.00  0.00     0.007 CG0
ATOM     14  G   UNL     1      14.726   8.168  18.940  1.00  0.00     0.000 G0
ENDBRANCH  10  13
ENDBRANCH   3  10
BRANCH   1  15
ATOM     15  C   UNL     1      14.693   7.499  17.572  1.00  0.00     0.011 C 
BRANCH  15  16
ATOM     16  C   UNL     1      14.721   8.173  18.942  1.00  0.00     0.001 CG0
ATOM     17  G   UNL     1      13.381   8.801  19.327  1.00  0.00     0.000 G0
ENDBRANCH  15  16
ENDBRANCH   1  15
TORSDOF 0
ENDMDL
MODEL 7
REMARK VINA RESULT:    -3.420      1.300      3.673
REMARK INTER + INTRA:          -3.197
REMARK INTER:                  -4.219
REMARK INTRA:                   1.022
REMARK UNBOUND:                 1.023
REMARK SMILES C=C1[C@H]2CC[C@@H]3[C@H]2C(C)(C)CCC[C@]13C
REMARK SMILES IDX 14 1 6 2 7 3 3 4 2 5 1 6 4 7 5 8 15 9 8 10 9 11 10 12 11 13
REMARK SMILES IDX 13 15 12 16
REMARK H PARENT
REMARK Flexibility Score: 80.00
ROOT
ATOM      1  C   UNL     1      13.397   5.556  18.108  1.00  0.00    -0.008 C 
ATOM      2  C   UNL     1      11.984   6.093  18.560  1.00  0.00     0.003 C 
ATOM      3  C   UNL     1      11.896   7.513  17.957  1.00  0.00     0.006 C 
ATOM      4  C   UNL     1      12.249   7.055  16.549  1.00  0.00     0.019 C 
ATOM      5  C   UNL     1      13.514   6.279  16.786  1.00  0.00    -0.068 C 
ATOM      6  C   UNL     1      14.519   6.173  15.906  1.00  0.00     0.009 C 
ATOM      7  C   UNL     1      11.132   6.017  16.295  1.00  0.00     0.008 C 
ATOM      8  C   UNL     1      10.876   5.423  17.703  1.00  0.00     0.005 C 
ATOM      9  C   UNL     1      13.448   4.021  17.878  1.00  0.00     0.016 C 
ENDROOT
BRANCH   3  10
ATOM     10  C   UNL     1      12.706   8.708  18.591  1.00  0.00    -0.032 C 
ATOM     11  C   UNL     1      11.983   9.154  19.890  1.00  0.00     0.011 C 
ATOM     12  C   UNL     1      12.660   9.915  17.623  1.00  0.00     0.011 C 
BRANCH  10  13
ATOM     13  C   UNL     1      14.204   8.422  18.894  1.00  0.00     0.007 CG0
ATOM     14  G   UNL     1      14.448   7.247  19.842  1.00  0.00     0.000 G0
ENDBRANCH  10  13
ENDBRANCH   3  10
BRANCH   1  15
ATOM     15  C   UNL     1      14.548   5.907  19.097  1.00  0.00     0.011 C 
BRANCH  15  16
ATOM     16  C   UNL     1      14.452   7.242  19.830  1.00  0.00     0.001 CG0
ATOM     17  G   UNL     1      14.198   8.423  18.892  1.00  0.00     0.000 G0
ENDBRANCH  15  16
ENDBRANCH   1  15
TORSDOF 0
ENDMDL
MODEL 8
REMARK VINA RESULT:    -3.371      1.481      3.266
REMARK INTER + INTRA:          -3.136
REMARK INTER:                  -4.124
REMARK INTRA:                   0.988
REMARK UNBOUND:                 1.023
REMARK SMILES C=C1[C@H]2CC[C@@H]3[C@H]2C(C)(C)CCC[C@]13C
REMARK SMILES IDX 14 1 6 2 7 3 3 4 2 5 1 6 4 7 5 8 15 9 8 10 9 11 10 12 11 13
REMARK SMILES IDX 13 15 12 16
REMARK H PARENT
REMARK Flexibility Score: 80.00
ROOT
ATOM      1  C   UNL     1      14.328   6.124  19.171  1.00  0.00    -0.008 C 
ATOM      2  C   UNL     1      13.373   7.377  19.260  1.00  0.00     0.003 C 
ATOM      3  C   UNL     1      12.115   6.965  18.464  1.00  0.00     0.006 C 
ATOM      4  C   UNL     1      11.924   5.663  19.229  1.00  0.00     0.019 C 
ATOM      5  C   UNL     1      13.284   5.033  19.109  1.00  0.00    -0.068 C 
ATOM      6  C   UNL     1      13.511   3.714  19.066  1.00  0.00     0.009 C 
ATOM      7  C   UNL     1      11.806   6.194  20.677  1.00  0.00     0.008 C 
ATOM      8  C   UNL     1      12.728   7.439  20.672  1.00  0.00     0.005 C 
ATOM      9  C   UNL     1      15.229   5.924  20.420  1.00  0.00     0.016 C 
ENDROOT
BRANCH   3  10
ATOM     10  C   UNL     1      12.138   6.923  16.888  1.00  0.00    -0.032 C 
ATOM     11  C   UNL     1      12.034   8.378  16.358  1.00  0.00     0.011 C 
ATOM     12  C   UNL     1      10.876   6.178  16.388  1.00  0.00     0.011 C 
BRANCH  10  13
ATOM     13  C   UNL     1      13.367   6.216  16.250  1.00  0.00     0.007 CG0
ATOM     14  G   UNL     1      14.721   6.780  16.684  1.00  0.00     0.000 G0
ENDBRANCH  10  13
ENDBRANCH   3  10
BRANCH   1  15
ATOM     15  C   UNL     1      15.268   6.137  17.929  1.00  0.00     0.011 C 
BRANCH  15  16
ATOM     16  C   UNL     1      14.724   6.772  16.652  1.00  0.00     0.001 CG0
ATOM     17  G   UNL     1      13.360   6.215  16.240  1.00  0.00     0.000 G0
ENDBRANCH  15  16
ENDBRANCH   1  15
TORSDOF 0
ENDMDL
MODEL 9
REMARK VINA RESULT:    -3.179      1.532      3.337
REMARK INTER + INTRA:          -2.900
REMARK INTER:                  -3.905
REMARK INTRA:                   1.005
REMARK UNBOUND:                 1.023
REMARK SMILES C=C1[C@H]2CC[C@@H]3[C@H]2C(C)(C)CCC[C@]13C
REMARK SMILES IDX 14 1 6 2 7 3 3 4 2 5 1 6 4 7 5 8 15 9 8 10 9 11 10 12 11 13
REMARK SMILES IDX 13 15 12 16
REMARK H PARENT
REMARK Flexibility Score: 80.00
ROOT
ATOM      1  C   UNL     1      12.317   6.109  17.452  1.00  0.00    -0.008 C 
ATOM      2  C   UNL     1      13.104   5.970  18.812  1.00  0.00     0.003 C 
ATOM      3  C   UNL     1      13.827   7.324  18.984  1.00  0.00     0.006 C 
ATOM      4  C   UNL     1      12.563   8.148  18.784  1.00  0.00     0.019 C 
ATOM      5  C   UNL     1      12.035   7.593  17.491  1.00  0.00    -0.068 C 
ATOM      6  C   UNL     1      11.337   8.295  16.589  1.00  0.00     0.009 C 
ATOM      7  C   UNL     1      11.668   7.580  19.910  1.00  0.00     0.008 C 
ATOM      8  C   UNL     1      12.112   6.099  20.000  1.00  0.00     0.005 C 
ATOM      9  C   UNL     1      10.982   5.317  17.408  1.00  0.00     0.016 C 
ENDROOT
BRANCH   3  10
ATOM     10  C   UNL     1      15.102   7.670  18.124  1.00  0.00    -0.032 C 
ATOM     11  C   UNL     1      16.315   6.904  18.717  1.00  0.00     0.011 C 
ATOM     12  C   UNL     1      15.415   9.179  18.275  1.00  0.00     0.011 C 
BRANCH  10  13
ATOM     13  C   UNL     1      14.988   7.378  16.601  1.00  0.00     0.007 CG0
ATOM     14  G   UNL     1      14.644   5.928  16.256  1.00  0.00     0.000 G0
ENDBRANCH  10  13
ENDBRANCH   3  10
BRANCH   1  15
ATOM     15  C   UNL     1      13.142   5.679  16.202  1.00  0.00     0.011 C 
BRANCH  15  16
ATOM     16  C   UNL     1      14.646   5.938  16.239  1.00  0.00     0.001 CG0
ATOM     17  G   UNL     1      14.997   7.378  16.618  1.00  0.00     0.000 G0
ENDBRANCH  15  16
ENDBRANCH   1  15
TORSDOF 0
ENDMDL
