MODEL 1
REMARK VINA RESULT:    17.003      0.000      0.000
REMARK INTER + INTRA:          24.566
REMARK INTER:                  24.955
REMARK INTRA:                  -0.389
REMARK UNBOUND:                -0.389
REMARK SMILES O=c1c(O[C@@H]2O[C@H](CO)[C@@H](O)[C@H](O)[C@H]2O)c(-c2ccc(O)c(O)c2)oc2cc(O)cc(O)c12
REMARK SMILES IDX 4 1 3 2 16 3 25 4 2 5 26 6 1 7 33 8 27 9 31 10 28 11 30 12
REMARK SMILES IDX 17 13 18 14 19 15 20 16 24 17 22 18 21 19 23 21 32 23 29 25
REMARK SMILES IDX 5 27 14 28 6 29 12 30 7 31 10 32 15 33 13 35 8 37 9 38 11 40
REMARK H PARENT 21 20 23 22 32 24 29 26 15 34 13 36 9 39 11 41
REMARK Flexibility Score: inf
ROOT
ATOM      1  O   UNL     1     -12.866  -3.111  18.418  1.00  0.00    -0.454 OA
ENDROOT
BRANCH   1   2
ATOM      2  C   UNL     1     -12.295  -4.154  19.162  1.00  0.00     0.214 A 
ATOM      3  C   UNL     1     -12.412  -4.225  20.565  1.00  0.00     0.180 A 
ATOM      4  O   UNL     1     -11.795  -5.195  21.234  1.00  0.00    -0.452 OA
ATOM      5  C   UNL     1     -11.573  -5.148  18.494  1.00  0.00     0.239 A 
ATOM      6  C   UNL     1     -11.083  -6.146  20.642  1.00  0.00     0.146 A 
ATOM      7  O   UNL     1     -11.487  -5.106  17.236  1.00  0.00    -0.285 OA
ATOM      8  C   UNL     1     -10.940  -6.168  19.234  1.00  0.00     0.111 A 
ATOM      9  C   UNL     1     -10.481  -7.135  21.427  1.00  0.00     0.094 A 
ATOM     10  C   UNL     1     -10.169  -7.193  18.634  1.00  0.00     0.134 A 
ATOM     11  C   UNL     1      -9.731  -8.150  20.831  1.00  0.00     0.123 A 
ATOM     12  C   UNL     1      -9.570  -8.174  19.440  1.00  0.00     0.093 A 
BRANCH   3  13
ATOM     13  C   UNL     1     -13.223  -3.263  21.329  1.00  0.00     0.025 A 
ATOM     14  C   UNL     1     -14.567  -3.044  20.998  1.00  0.00     0.016 A 
ATOM     15  C   UNL     1     -15.332  -2.139  21.735  1.00  0.00     0.051 A 
ATOM     16  C   UNL     1     -14.773  -1.445  22.815  1.00  0.00     0.157 A 
ATOM     17  C   UNL     1     -12.664  -2.594  22.426  1.00  0.00     0.062 A 
ATOM     18  C   UNL     1     -13.419  -1.671  23.161  1.00  0.00     0.158 A 
BRANCH  16  19
ATOM     19  O   UNL     1     -15.586  -0.545  23.507  1.00  0.00    -0.504 OA
ATOM     20  H   UNL     1     -15.965   0.299  23.101  1.00  0.00     0.293 HD
ENDBRANCH  16  19
BRANCH  18  21
ATOM     21  O   UNL     1     -12.785  -1.000  24.210  1.00  0.00    -0.504 OA
ATOM     22  H   UNL     1     -13.034  -1.112  25.183  1.00  0.00     0.293 HD
ENDBRANCH  18  21
ENDBRANCH   3  13
BRANCH  10  23
ATOM     23  O   UNL     1      -9.998  -7.248  17.251  1.00  0.00    -0.507 OA
ATOM     24  H   UNL     1      -9.087  -7.145  16.821  1.00  0.00     0.293 HD
ENDBRANCH  10  23
BRANCH  11  25
ATOM     25  O   UNL     1      -9.146  -9.130  21.632  1.00  0.00    -0.508 OA
ATOM     26  H   UNL     1      -8.393  -8.910  22.272  1.00  0.00     0.293 HD
ENDBRANCH  11  25
ENDBRANCH   1   2
BRANCH   1  27
ATOM     27  C   UNL     1     -14.199  -3.157  17.906  1.00  0.00     0.339 C 
ATOM     28  C   UNL     1     -14.650  -1.707  17.561  1.00  0.00     0.214 C 
ATOM     29  O   UNL     1     -14.213  -4.021  16.778  1.00  0.00    -0.332 OA
ATOM     30  C   UNL     1     -14.644  -1.478  16.035  1.00  0.00     0.180 C 
ATOM     31  C   UNL     1     -15.435  -3.907  16.073  1.00  0.00     0.179 C 
ATOM     32  C   UNL     1     -15.490  -2.557  15.312  1.00  0.00     0.177 C 
BRANCH  28  33
ATOM     33  O   UNL     1     -15.940  -1.483  18.073  1.00  0.00    -0.384 OA
ATOM     34  H   UNL     1     -15.873  -0.721  18.706  1.00  0.00     0.211 HD
ENDBRANCH  28  33
BRANCH  30  35
ATOM     35  O   UNL     1     -13.324  -1.529  15.554  1.00  0.00    -0.387 OA
ATOM     36  H   UNL     1     -13.314  -1.042  14.688  1.00  0.00     0.211 HD
ENDBRANCH  30  35
BRANCH  31  37
ATOM     37  C   UNL     1     -15.579  -5.098  15.118  1.00  0.00     0.191 C 
BRANCH  37  38
ATOM     38  O   UNL     1     -14.614  -6.073  15.405  1.00  0.00    -0.394 OA
ATOM     39  H   UNL     1     -14.902  -6.893  14.928  1.00  0.00     0.210 HD
ENDBRANCH  37  38
ENDBRANCH  31  37
BRANCH  32  40
ATOM     40  O   UNL     1     -16.829  -2.140  15.223  1.00  0.00    -0.387 OA
ATOM     41  H   UNL     1     -17.379  -2.833  15.674  1.00  0.00     0.211 HD
ENDBRANCH  32  40
ENDBRANCH   1  27
TORSDOF 12
ENDMDL
