MODEL 1
REMARK VINA RESULT:    -3.163      0.000      0.000
REMARK INTER + INTRA:          -8.184
REMARK INTER:                  -5.567
REMARK INTRA:                  -2.616
REMARK UNBOUND:                -2.616
REMARK SMILES CCCCCCC=CCCCCCCCC(=O)[O-]
REMARK SMILES IDX 10 1 11 2 12 3 13 4 14 5 15 6 16 7 17 8 18 9 9 10 8 11 7 12
REMARK SMILES IDX 6 13 5 14 4 15 3 16 2 17 1 18
REMARK H PARENT
REMARK Flexibility Score: inf
ROOT
ATOM      1  C   UNL     1      26.279  -3.623 -27.494  1.00  0.00     0.004 C 
ENDROOT
BRANCH   1   2
ATOM      2  C   UNL     1      25.801  -3.574 -28.952  1.00  0.00     0.000 C 
BRANCH   2   3
ATOM      3  C   UNL     1      24.276  -3.745 -29.029  1.00  0.00     0.000 C 
BRANCH   3   4
ATOM      4  C   UNL     1      23.857  -4.903 -29.950  1.00  0.00     0.000 C 
BRANCH   4   5
ATOM      5  C   UNL     1      24.862  -5.135 -31.093  1.00  0.00     0.006 C 
BRANCH   5   6
ATOM      6  C   UNL     1      24.161  -5.102 -32.455  1.00  0.00     0.053 C 
BRANCH   6   7
ATOM      7  C   UNL     1      24.192  -3.718 -33.026  1.00  0.00     0.041 C 
ATOM      8  O   UNL     1      23.253  -2.915 -32.789  1.00  0.00    -0.550 OA
ATOM      9  O   UNL     1      25.278  -3.305 -33.789  1.00  0.00    -0.550 OA
ENDBRANCH   6   7
ENDBRANCH   5   6
ENDBRANCH   4   5
ENDBRANCH   3   4
ENDBRANCH   2   3
ENDBRANCH   1   2
BRANCH   1  10
ATOM     10  C   UNL     1      27.181  -4.832 -27.189  1.00  0.00     0.027 C 
BRANCH  10  11
ATOM     11  C   UNL     1      27.865  -5.427 -28.401  1.00  0.00    -0.031 C 
ATOM     12  C   UNL     1      27.729  -6.694 -28.836  1.00  0.00    -0.031 C 
BRANCH  12  13
ATOM     13  C   UNL     1      26.941  -7.773 -28.140  1.00  0.00     0.027 C 
BRANCH  13  14
ATOM     14  C   UNL     1      25.568  -7.934 -28.800  1.00  0.00     0.004 C 
BRANCH  14  15
ATOM     15  C   UNL     1      24.437  -7.838 -27.768  1.00  0.00     0.000 C 
BRANCH  15  16
ATOM     16  C   UNL     1      24.941  -7.995 -26.326  1.00  0.00    -0.000 C 
BRANCH  16  17
ATOM     17  C   UNL     1      24.652  -6.758 -25.459  1.00  0.00    -0.003 C 
ATOM     18  C   UNL     1      23.615  -5.855 -26.122  1.00  0.00     0.004 C 
ENDBRANCH  16  17
ENDBRANCH  15  16
ENDBRANCH  14  15
ENDBRANCH  13  14
ENDBRANCH  12  13
ENDBRANCH  10  11
ENDBRANCH   1  10
TORSDOF 13
ENDMDL
MODEL 2
REMARK VINA RESULT:    -3.118     11.182     13.204
REMARK INTER + INTRA:          -8.104
REMARK INTER:                  -6.492
REMARK INTRA:                  -1.612
REMARK UNBOUND:                -2.616
REMARK SMILES CCCCCCC=CCCCCCCCC(=O)[O-]
REMARK SMILES IDX 10 1 11 2 12 3 13 4 14 5 15 6 16 7 17 8 18 9 9 10 8 11 7 12
REMARK SMILES IDX 6 13 5 14 4 15 3 16 2 17 1 18
REMARK H PARENT
REMARK Flexibility Score: inf
ROOT
ATOM      1  C   UNL     1      32.227   0.937 -33.839  1.00  0.00     0.004 C 
ENDROOT
BRANCH   1   2
ATOM      2  C   UNL     1      31.699   2.361 -34.062  1.00  0.00     0.000 C 
BRANCH   2   3
ATOM      3  C   UNL     1      32.239   3.315 -32.985  1.00  0.00     0.000 C 
BRANCH   3   4
ATOM      4  C   UNL     1      33.767   3.476 -33.052  1.00  0.00     0.000 C 
BRANCH   4   5
ATOM      5  C   UNL     1      34.201   4.953 -33.059  1.00  0.00     0.006 C 
BRANCH   5   6
ATOM      6  C   UNL     1      33.672   5.686 -31.823  1.00  0.00     0.053 C 
BRANCH   6   7
ATOM      7  C   UNL     1      34.575   6.824 -31.463  1.00  0.00     0.041 C 
ATOM      8  O   UNL     1      34.101   7.976 -31.284  1.00  0.00    -0.550 OA
ATOM      9  O   UNL     1      35.937   6.603 -31.287  1.00  0.00    -0.550 OA
ENDBRANCH   6   7
ENDBRANCH   5   6
ENDBRANCH   4   5
ENDBRANCH   3   4
ENDBRANCH   2   3
ENDBRANCH   1   2
BRANCH   1  10
ATOM     10  C   UNL     1      33.215   0.476 -34.925  1.00  0.00     0.027 C 
BRANCH  10  11
ATOM     11  C   UNL     1      33.159  -1.004 -35.237  1.00  0.00    -0.031 C 
ATOM     12  C   UNL     1      33.189  -1.548 -36.469  1.00  0.00    -0.031 C 
BRANCH  12  13
ATOM     13  C   UNL     1      33.189  -0.774 -37.762  1.00  0.00     0.027 C 
BRANCH  13  14
ATOM     14  C   UNL     1      32.187  -1.389 -38.745  1.00  0.00     0.004 C 
BRANCH  14  15
ATOM     15  C   UNL     1      30.886  -0.578 -38.796  1.00  0.00     0.000 C 
BRANCH  15  16
ATOM     16  C   UNL     1      31.010   0.780 -38.089  1.00  0.00    -0.000 C 
BRANCH  16  17
ATOM     17  C   UNL     1      29.871   1.033 -37.088  1.00  0.00    -0.003 C 
ATOM     18  C   UNL     1      29.622  -0.196 -36.218  1.00  0.00     0.004 C 
ENDBRANCH  16  17
ENDBRANCH  15  16
ENDBRANCH  14  15
ENDBRANCH  13  14
ENDBRANCH  12  13
ENDBRANCH  10  11
ENDBRANCH   1  10
TORSDOF 13
ENDMDL
MODEL 3
REMARK VINA RESULT:    -3.057      7.968     10.755
REMARK INTER + INTRA:          -7.996
REMARK INTER:                  -5.406
REMARK INTRA:                  -2.590
REMARK UNBOUND:                -2.616
REMARK SMILES CCCCCCC=CCCCCCCCC(=O)[O-]
REMARK SMILES IDX 10 1 11 2 12 3 13 4 14 5 15 6 16 7 17 8 18 9 9 10 8 11 7 12
REMARK SMILES IDX 6 13 5 14 4 15 3 16 2 17 1 18
REMARK H PARENT
REMARK Flexibility Score: inf
ROOT
ATOM      1  C   UNL     1      32.155  -2.985 -35.108  1.00  0.00     0.004 C 
ENDROOT
BRANCH   1   2
ATOM      2  C   UNL     1      30.889  -2.132 -35.267  1.00  0.00     0.000 C 
BRANCH   2   3
ATOM      3  C   UNL     1      29.719  -2.986 -35.781  1.00  0.00     0.000 C 
BRANCH   3   4
ATOM      4  C   UNL     1      28.628  -2.144 -36.463  1.00  0.00     0.000 C 
BRANCH   4   5
ATOM      5  C   UNL     1      27.804  -2.960 -37.474  1.00  0.00     0.006 C 
BRANCH   5   6
ATOM      6  C   UNL     1      27.584  -4.392 -36.975  1.00  0.00     0.053 C 
BRANCH   6   7
ATOM      7  C   UNL     1      26.354  -4.467 -36.126  1.00  0.00     0.041 C 
ATOM      8  O   UNL     1      26.351  -5.159 -35.075  1.00  0.00    -0.550 OA
ATOM      9  O   UNL     1      25.221  -3.740 -36.477  1.00  0.00    -0.550 OA
ENDBRANCH   6   7
ENDBRANCH   5   6
ENDBRANCH   4   5
ENDBRANCH   3   4
ENDBRANCH   2   3
ENDBRANCH   1   2
BRANCH   1  10
ATOM     10  C   UNL     1      33.351  -2.458 -35.920  1.00  0.00     0.027 C 
BRANCH  10  11
ATOM     11  C   UNL     1      33.457  -0.950 -35.977  1.00  0.00    -0.031 C 
ATOM     12  C   UNL     1      33.212  -0.186 -37.059  1.00  0.00    -0.031 C 
BRANCH  12  13
ATOM     13  C   UNL     1      32.877  -0.705 -38.432  1.00  0.00     0.027 C 
BRANCH  13  14
ATOM     14  C   UNL     1      31.359  -0.710 -38.640  1.00  0.00     0.004 C 
BRANCH  14  15
ATOM     15  C   UNL     1      30.899  -1.979 -39.367  1.00  0.00     0.000 C 
BRANCH  15  16
ATOM     16  C   UNL     1      31.864  -3.157 -39.163  1.00  0.00    -0.000 C 
BRANCH  16  17
ATOM     17  C   UNL     1      31.136  -4.462 -38.799  1.00  0.00    -0.003 C 
ATOM     18  C   UNL     1      30.026  -4.769 -39.800  1.00  0.00     0.004 C 
ENDBRANCH  16  17
ENDBRANCH  15  16
ENDBRANCH  14  15
ENDBRANCH  13  14
ENDBRANCH  12  13
ENDBRANCH  10  11
ENDBRANCH   1  10
TORSDOF 13
ENDMDL
MODEL 4
REMARK VINA RESULT:    -3.042     14.023     15.975
REMARK INTER + INTRA:          -7.970
REMARK INTER:                  -6.264
REMARK INTRA:                  -1.706
REMARK UNBOUND:                -2.616
REMARK SMILES CCCCCCC=CCCCCCCCC(=O)[O-]
REMARK SMILES IDX 10 1 11 2 12 3 13 4 14 5 15 6 16 7 17 8 18 9 9 10 8 11 7 12
REMARK SMILES IDX 6 13 5 14 4 15 3 16 2 17 1 18
REMARK H PARENT
REMARK Flexibility Score: inf
ROOT
ATOM      1  C   UNL     1      32.888   7.628 -30.175  1.00  0.00     0.004 C 
ENDROOT
BRANCH   1   2
ATOM      2  C   UNL     1      32.759   8.846 -29.250  1.00  0.00     0.000 C 
BRANCH   2   3
ATOM      3  C   UNL     1      31.333   9.415 -29.296  1.00  0.00     0.000 C 
BRANCH   3   4
ATOM      4  C   UNL     1      30.921  10.084 -27.974  1.00  0.00     0.000 C 
BRANCH   4   5
ATOM      5  C   UNL     1      31.595   9.433 -26.752  1.00  0.00     0.006 C 
BRANCH   5   6
ATOM      6  C   UNL     1      31.763  10.444 -25.614  1.00  0.00     0.053 C 
BRANCH   6   7
ATOM      7  C   UNL     1      33.209  10.775 -25.417  1.00  0.00     0.041 C 
ATOM      8  O   UNL     1      33.779  11.599 -26.178  1.00  0.00    -0.550 OA
ATOM      9  O   UNL     1      33.917  10.202 -24.366  1.00  0.00    -0.550 OA
ENDBRANCH   6   7
ENDBRANCH   5   6
ENDBRANCH   4   5
ENDBRANCH   3   4
ENDBRANCH   2   3
ENDBRANCH   1   2
BRANCH   1  10
ATOM     10  C   UNL     1      34.039   7.750 -31.188  1.00  0.00     0.027 C 
BRANCH  10  11
ATOM     11  C   UNL     1      35.165   6.760 -30.983  1.00  0.00    -0.031 C 
ATOM     12  C   UNL     1      35.545   5.810 -31.859  1.00  0.00    -0.031 C 
BRANCH  12  13
ATOM     13  C   UNL     1      34.856   5.505 -33.164  1.00  0.00     0.027 C 
BRANCH  13  14
ATOM     14  C   UNL     1      33.991   4.248 -33.022  1.00  0.00     0.004 C 
BRANCH  14  15
ATOM     15  C   UNL     1      32.523   4.605 -32.758  1.00  0.00     0.000 C 
BRANCH  15  16
ATOM     16  C   UNL     1      32.059   4.189 -31.354  1.00  0.00    -0.000 C 
BRANCH  16  17
ATOM     17  C   UNL     1      33.087   3.306 -30.629  1.00  0.00    -0.003 C 
ATOM     18  C   UNL     1      33.474   3.909 -29.281  1.00  0.00     0.004 C 
ENDBRANCH  16  17
ENDBRANCH  15  16
ENDBRANCH  14  15
ENDBRANCH  13  14
ENDBRANCH  12  13
ENDBRANCH  10  11
ENDBRANCH   1  10
TORSDOF 13
ENDMDL
MODEL 5
REMARK VINA RESULT:    -3.014      9.483     12.142
REMARK INTER + INTRA:          -7.920
REMARK INTER:                  -5.304
REMARK INTRA:                  -2.617
REMARK UNBOUND:                -2.616
REMARK SMILES CCCCCCC=CCCCCCCCC(=O)[O-]
REMARK SMILES IDX 10 1 11 2 12 3 13 4 14 5 15 6 16 7 17 8 18 9 9 10 8 11 7 12
REMARK SMILES IDX 6 13 5 14 4 15 3 16 2 17 1 18
REMARK H PARENT
REMARK Flexibility Score: inf
ROOT
ATOM      1  C   UNL     1      29.305  -1.242 -36.326  1.00  0.00     0.004 C 
ENDROOT
BRANCH   1   2
ATOM      2  C   UNL     1      30.120  -1.506 -35.052  1.00  0.00     0.000 C 
BRANCH   2   3
ATOM      3  C   UNL     1      30.867  -0.237 -34.613  1.00  0.00     0.000 C 
BRANCH   3   4
ATOM      4  C   UNL     1      32.354  -0.499 -34.323  1.00  0.00     0.000 C 
BRANCH   4   5
ATOM      5  C   UNL     1      33.203   0.783 -34.410  1.00  0.00     0.006 C 
BRANCH   5   6
ATOM      6  C   UNL     1      33.090   1.605 -33.123  1.00  0.00     0.053 C 
BRANCH   6   7
ATOM      7  C   UNL     1      32.830   3.044 -33.442  1.00  0.00     0.041 C 
ATOM      8  O   UNL     1      31.676   3.421 -33.774  1.00  0.00    -0.550 OA
ATOM      9  O   UNL     1      33.856   3.977 -33.335  1.00  0.00    -0.550 OA
ENDBRANCH   6   7
ENDBRANCH   5   6
ENDBRANCH   4   5
ENDBRANCH   3   4
ENDBRANCH   2   3
ENDBRANCH   1   2
BRANCH   1  10
ATOM     10  C   UNL     1      29.326   0.231 -36.770  1.00  0.00     0.027 C 
BRANCH  10  11
ATOM     11  C   UNL     1      29.644   0.441 -38.234  1.00  0.00    -0.031 C 
ATOM     12  C   UNL     1      30.878   0.465 -38.774  1.00  0.00    -0.031 C 
BRANCH  12  13
ATOM     13  C   UNL     1      32.167   0.379 -38.000  1.00  0.00     0.027 C 
BRANCH  13  14
ATOM     14  C   UNL     1      33.009  -0.797 -38.506  1.00  0.00     0.004 C 
BRANCH  14  15
ATOM     15  C   UNL     1      33.060  -1.932 -37.476  1.00  0.00     0.000 C 
BRANCH  15  16
ATOM     16  C   UNL     1      32.082  -3.071 -37.806  1.00  0.00    -0.000 C 
BRANCH  16  17
ATOM     17  C   UNL     1      31.718  -3.124 -39.299  1.00  0.00    -0.003 C 
ATOM     18  C   UNL     1      30.205  -3.122 -39.495  1.00  0.00     0.004 C 
ENDBRANCH  16  17
ENDBRANCH  15  16
ENDBRANCH  14  15
ENDBRANCH  13  14
ENDBRANCH  12  13
ENDBRANCH  10  11
ENDBRANCH   1  10
TORSDOF 13
ENDMDL
MODEL 6
REMARK VINA RESULT:    -3.006      8.573     11.608
REMARK INTER + INTRA:          -7.907
REMARK INTER:                  -5.424
REMARK INTRA:                  -2.483
REMARK UNBOUND:                -2.616
REMARK SMILES CCCCCCC=CCCCCCCCC(=O)[O-]
REMARK SMILES IDX 10 1 11 2 12 3 13 4 14 5 15 6 16 7 17 8 18 9 9 10 8 11 7 12
REMARK SMILES IDX 6 13 5 14 4 15 3 16 2 17 1 18
REMARK H PARENT
REMARK Flexibility Score: inf
ROOT
ATOM      1  C   UNL     1      30.952   0.288 -37.366  1.00  0.00     0.004 C 
ENDROOT
BRANCH   1   2
ATOM      2  C   UNL     1      32.185   0.593 -38.228  1.00  0.00     0.000 C 
BRANCH   2   3
ATOM      3  C   UNL     1      33.102  -0.636 -38.319  1.00  0.00     0.000 C 
BRANCH   3   4
ATOM      4  C   UNL     1      32.380  -1.871 -38.885  1.00  0.00     0.000 C 
BRANCH   4   5
ATOM      5  C   UNL     1      32.735  -3.159 -38.120  1.00  0.00     0.006 C 
BRANCH   5   6
ATOM      6  C   UNL     1      32.596  -2.956 -36.609  1.00  0.00     0.053 C 
BRANCH   6   7
ATOM      7  C   UNL     1      32.237  -4.245 -35.938  1.00  0.00     0.041 C 
ATOM      8  O   UNL     1      31.550  -4.240 -34.884  1.00  0.00    -0.550 OA
ATOM      9  O   UNL     1      32.631  -5.455 -36.500  1.00  0.00    -0.550 OA
ENDBRANCH   6   7
ENDBRANCH   5   6
ENDBRANCH   4   5
ENDBRANCH   3   4
ENDBRANCH   2   3
ENDBRANCH   1   2
BRANCH   1  10
ATOM     10  C   UNL     1      29.632   0.761 -38.000  1.00  0.00     0.027 C 
BRANCH  10  11
ATOM     11  C   UNL     1      29.547   0.562 -39.497  1.00  0.00    -0.031 C 
ATOM     12  C   UNL     1      28.861  -0.414 -40.121  1.00  0.00    -0.031 C 
BRANCH  12  13
ATOM     13  C   UNL     1      28.129  -1.538 -39.436  1.00  0.00     0.027 C 
BRANCH  13  14
ATOM     14  C   UNL     1      28.788  -2.880 -39.773  1.00  0.00     0.004 C 
BRANCH  14  15
ATOM     15  C   UNL     1      29.125  -3.672 -38.503  1.00  0.00     0.000 C 
BRANCH  15  16
ATOM     16  C   UNL     1      28.931  -2.843 -37.224  1.00  0.00    -0.000 C 
BRANCH  16  17
ATOM     17  C   UNL     1      28.099  -3.580 -36.161  1.00  0.00    -0.003 C 
ATOM     18  C   UNL     1      26.977  -4.388 -36.807  1.00  0.00     0.004 C 
ENDBRANCH  16  17
ENDBRANCH  15  16
ENDBRANCH  14  15
ENDBRANCH  13  14
ENDBRANCH  12  13
ENDBRANCH  10  11
ENDBRANCH   1  10
TORSDOF 13
ENDMDL
MODEL 7
REMARK VINA RESULT:    -2.991     12.170     14.256
REMARK INTER + INTRA:          -7.880
REMARK INTER:                  -5.463
REMARK INTRA:                  -2.418
REMARK UNBOUND:                -2.616
REMARK SMILES CCCCCCC=CCCCCCCCC(=O)[O-]
REMARK SMILES IDX 10 1 11 2 12 3 13 4 14 5 15 6 16 7 17 8 18 9 9 10 8 11 7 12
REMARK SMILES IDX 6 13 5 14 4 15 3 16 2 17 1 18
REMARK H PARENT
REMARK Flexibility Score: inf
ROOT
ATOM      1  C   UNL     1      32.802   7.145 -30.417  1.00  0.00     0.004 C 
ENDROOT
BRANCH   1   2
ATOM      2  C   UNL     1      32.871   7.242 -28.887  1.00  0.00     0.000 C 
BRANCH   2   3
ATOM      3  C   UNL     1      32.928   5.842 -28.256  1.00  0.00     0.000 C 
BRANCH   3   4
ATOM      4  C   UNL     1      32.778   4.719 -29.296  1.00  0.00     0.000 C 
BRANCH   4   5
ATOM      5  C   UNL     1      34.017   3.809 -29.360  1.00  0.00     0.006 C 
BRANCH   5   6
ATOM      6  C   UNL     1      35.089   4.270 -28.368  1.00  0.00     0.053 C 
BRANCH   6   7
ATOM      7  C   UNL     1      35.400   3.181 -27.389  1.00  0.00     0.041 C 
ATOM      8  O   UNL     1      36.125   2.211 -27.731  1.00  0.00    -0.550 OA
ATOM      9  O   UNL     1      34.919   3.259 -26.086  1.00  0.00    -0.550 OA
ENDBRANCH   6   7
ENDBRANCH   5   6
ENDBRANCH   4   5
ENDBRANCH   3   4
ENDBRANCH   2   3
ENDBRANCH   1   2
BRANCH   1  10
ATOM     10  C   UNL     1      34.039   7.728 -31.122  1.00  0.00     0.027 C 
BRANCH  10  11
ATOM     11  C   UNL     1      35.283   6.873 -31.015  1.00  0.00    -0.031 C 
ATOM     12  C   UNL     1      35.702   5.978 -31.931  1.00  0.00    -0.031 C 
BRANCH  12  13
ATOM     13  C   UNL     1      34.955   5.602 -33.183  1.00  0.00     0.027 C 
BRANCH  13  14
ATOM     14  C   UNL     1      34.246   4.257 -32.991  1.00  0.00     0.004 C 
BRANCH  14  15
ATOM     15  C   UNL     1      32.723   4.430 -32.939  1.00  0.00     0.000 C 
BRANCH  15  16
ATOM     16  C   UNL     1      31.972   3.123 -33.234  1.00  0.00    -0.000 C 
BRANCH  16  17
ATOM     17  C   UNL     1      32.589   1.911 -32.517  1.00  0.00    -0.003 C 
ATOM     18  C   UNL     1      31.573   1.243 -31.595  1.00  0.00     0.004 C 
ENDBRANCH  16  17
ENDBRANCH  15  16
ENDBRANCH  14  15
ENDBRANCH  13  14
ENDBRANCH  12  13
ENDBRANCH  10  11
ENDBRANCH   1  10
TORSDOF 13
ENDMDL
MODEL 8
REMARK VINA RESULT:    -2.967     12.570     14.907
REMARK INTER + INTRA:          -7.837
REMARK INTER:                  -5.373
REMARK INTRA:                  -2.465
REMARK UNBOUND:                -2.616
REMARK SMILES CCCCCCC=CCCCCCCCC(=O)[O-]
REMARK SMILES IDX 10 1 11 2 12 3 13 4 14 5 15 6 16 7 17 8 18 9 9 10 8 11 7 12
REMARK SMILES IDX 6 13 5 14 4 15 3 16 2 17 1 18
REMARK H PARENT
REMARK Flexibility Score: inf
ROOT
ATOM      1  C   UNL     1      31.551   4.618 -31.035  1.00  0.00     0.004 C 
ENDROOT
BRANCH   1   2
ATOM      2  C   UNL     1      32.292   3.594 -30.164  1.00  0.00     0.000 C 
BRANCH   2   3
ATOM      3  C   UNL     1      33.360   4.286 -29.302  1.00  0.00     0.000 C 
BRANCH   3   4
ATOM      4  C   UNL     1      32.749   5.144 -28.182  1.00  0.00     0.000 C 
BRANCH   4   5
ATOM      5  C   UNL     1      33.821   5.747 -27.256  1.00  0.00     0.006 C 
BRANCH   5   6
ATOM      6  C   UNL     1      35.065   4.855 -27.202  1.00  0.00     0.053 C 
BRANCH   6   7
ATOM      7  C   UNL     1      35.187   4.207 -25.859  1.00  0.00     0.041 C 
ATOM      8  O   UNL     1      36.125   4.527 -25.083  1.00  0.00    -0.550 OA
ATOM      9  O   UNL     1      34.241   3.273 -25.449  1.00  0.00    -0.550 OA
ENDBRANCH   6   7
ENDBRANCH   5   6
ENDBRANCH   4   5
ENDBRANCH   3   4
ENDBRANCH   2   3
ENDBRANCH   1   2
BRANCH   1  10
ATOM     10  C   UNL     1      31.809   4.437 -32.541  1.00  0.00     0.027 C 
BRANCH  10  11
ATOM     11  C   UNL     1      33.065   3.663 -32.875  1.00  0.00    -0.031 C 
ATOM     12  C   UNL     1      34.299   4.188 -33.006  1.00  0.00    -0.031 C 
BRANCH  12  13
ATOM     13  C   UNL     1      34.632   5.655 -32.934  1.00  0.00     0.027 C 
BRANCH  13  14
ATOM     14  C   UNL     1      35.669   5.907 -31.834  1.00  0.00     0.004 C 
BRANCH  14  15
ATOM     15  C   UNL     1      35.126   6.863 -30.764  1.00  0.00     0.000 C 
BRANCH  15  16
ATOM     16  C   UNL     1      33.867   7.612 -31.228  1.00  0.00    -0.000 C 
BRANCH  16  17
ATOM     17  C   UNL     1      33.111   8.275 -30.064  1.00  0.00    -0.003 C 
ATOM     18  C   UNL     1      31.614   8.343 -30.352  1.00  0.00     0.004 C 
ENDBRANCH  16  17
ENDBRANCH  15  16
ENDBRANCH  14  15
ENDBRANCH  13  14
ENDBRANCH  12  13
ENDBRANCH  10  11
ENDBRANCH   1  10
TORSDOF 13
ENDMDL
MODEL 9
REMARK VINA RESULT:    -2.925      7.693     10.685
REMARK INTER + INTRA:          -7.765
REMARK INTER:                  -5.397
REMARK INTRA:                  -2.368
REMARK UNBOUND:                -2.616
REMARK SMILES CCCCCCC=CCCCCCCCC(=O)[O-]
REMARK SMILES IDX 10 1 11 2 12 3 13 4 14 5 15 6 16 7 17 8 18 9 9 10 8 11 7 12
REMARK SMILES IDX 6 13 5 14 4 15 3 16 2 17 1 18
REMARK H PARENT
REMARK Flexibility Score: inf
ROOT
ATOM      1  C   UNL     1      31.902  -3.375 -37.967  1.00  0.00     0.004 C 
ENDROOT
BRANCH   1   2
ATOM      2  C   UNL     1      30.461  -3.608 -37.491  1.00  0.00     0.000 C 
BRANCH   2   3
ATOM      3  C   UNL     1      29.459  -2.952 -38.453  1.00  0.00     0.000 C 
BRANCH   3   4
ATOM      4  C   UNL     1      28.008  -3.050 -37.952  1.00  0.00     0.000 C 
BRANCH   4   5
ATOM      5  C   UNL     1      27.729  -4.377 -37.223  1.00  0.00     0.006 C 
BRANCH   5   6
ATOM      6  C   UNL     1      26.380  -4.331 -36.498  1.00  0.00     0.053 C 
BRANCH   6   7
ATOM      7  C   UNL     1      26.568  -3.937 -35.066  1.00  0.00     0.041 C 
ATOM      8  O   UNL     1      25.581  -3.580 -34.372  1.00  0.00    -0.550 OA
ATOM      9  O   UNL     1      27.831  -4.001 -34.487  1.00  0.00    -0.550 OA
ENDBRANCH   6   7
ENDBRANCH   5   6
ENDBRANCH   4   5
ENDBRANCH   3   4
ENDBRANCH   2   3
ENDBRANCH   1   2
BRANCH   1  10
ATOM     10  C   UNL     1      32.029  -2.235 -38.993  1.00  0.00     0.027 C 
BRANCH  10  11
ATOM     11  C   UNL     1      32.856  -1.058 -38.524  1.00  0.00    -0.031 C 
ATOM     12  C   UNL     1      32.384   0.174 -38.251  1.00  0.00    -0.031 C 
BRANCH  12  13
ATOM     13  C   UNL     1      30.961   0.625 -38.454  1.00  0.00     0.027 C 
BRANCH  13  14
ATOM     14  C   UNL     1      30.366   1.106 -37.126  1.00  0.00     0.004 C 
BRANCH  14  15
ATOM     15  C   UNL     1      29.899  -0.074 -36.264  1.00  0.00     0.000 C 
BRANCH  15  16
ATOM     16  C   UNL     1      30.639  -0.150 -34.919  1.00  0.00    -0.000 C 
BRANCH  16  17
ATOM     17  C   UNL     1      31.585  -1.359 -34.832  1.00  0.00    -0.003 C 
ATOM     18  C   UNL     1      33.043  -0.912 -34.782  1.00  0.00     0.004 C 
ENDBRANCH  16  17
ENDBRANCH  15  16
ENDBRANCH  14  15
ENDBRANCH  13  14
ENDBRANCH  12  13
ENDBRANCH  10  11
ENDBRANCH   1  10
TORSDOF 13
ENDMDL
