MODEL 1
REMARK VINA RESULT:    -2.768      0.000      0.000
REMARK INTER + INTRA:          -2.768
REMARK INTER:                  -2.768
REMARK INTRA:                   0.000
REMARK UNBOUND:                 0.000
REMARK SMILES CC(=O)[O-]
REMARK SMILES IDX 1 1 2 2 3 3 4 4
REMARK H PARENT
REMARK Flexibility Score: inf
ROOT
ATOM      1  C   UNL     1     -21.746  28.717  86.631  1.00  0.00     0.063 C 
ATOM      2  C   UNL     1     -21.461  28.884  88.085  1.00  0.00     0.038 C 
ATOM      3  O   UNL     1     -22.044  29.784  88.744  1.00  0.00    -0.550 OA
ATOM      4  O   UNL     1     -20.591  28.013  88.728  1.00  0.00    -0.550 OA
ENDROOT
TORSDOF 0
ENDMDL
MODEL 2
REMARK VINA RESULT:    -2.718      1.919      2.126
REMARK INTER + INTRA:          -2.718
REMARK INTER:                  -2.718
REMARK INTRA:                   0.000
REMARK UNBOUND:                 0.000
REMARK SMILES CC(=O)[O-]
REMARK SMILES IDX 1 1 2 2 3 3 4 4
REMARK H PARENT
REMARK Flexibility Score: inf
ROOT
ATOM      1  C   UNL     1     -20.199  28.760  89.554  1.00  0.00     0.063 C 
ATOM      2  C   UNL     1     -21.674  28.891  89.378  1.00  0.00     0.038 C 
ATOM      3  O   UNL     1     -22.143  29.781  88.622  1.00  0.00    -0.550 OA
ATOM      4  O   UNL     1     -22.532  27.997  90.006  1.00  0.00    -0.550 OA
ENDROOT
TORSDOF 0
ENDMDL
MODEL 3
REMARK VINA RESULT:    -2.693      1.376      1.858
REMARK INTER + INTRA:          -2.693
REMARK INTER:                  -2.693
REMARK INTRA:                   0.000
REMARK UNBOUND:                 0.000
REMARK SMILES CC(=O)[O-]
REMARK SMILES IDX 1 1 2 2 3 3 4 4
REMARK H PARENT
REMARK Flexibility Score: inf
ROOT
ATOM      1  C   UNL     1     -22.715  27.961  89.953  1.00  0.00     0.063 C 
ATOM      2  C   UNL     1     -21.701  28.695  89.143  1.00  0.00     0.038 C 
ATOM      3  O   UNL     1     -21.910  29.888  88.799  1.00  0.00    -0.550 OA
ATOM      4  O   UNL     1     -20.499  28.083  88.811  1.00  0.00    -0.550 OA
ENDROOT
TORSDOF 0
ENDMDL
MODEL 4
REMARK VINA RESULT:    -2.632     15.787     16.154
REMARK INTER + INTRA:          -2.632
REMARK INTER:                  -2.632
REMARK INTRA:                   0.000
REMARK UNBOUND:                 0.000
REMARK SMILES CC(=O)[O-]
REMARK SMILES IDX 1 1 2 2 3 3 4 4
REMARK H PARENT
REMARK Flexibility Score: inf
ROOT
ATOM      1  C   UNL     1     -27.514  44.398  90.571  1.00  0.00     0.063 C 
ATOM      2  C   UNL     1     -28.311  43.170  90.290  1.00  0.00     0.038 C 
ATOM      3  O   UNL     1     -29.041  42.672  91.186  1.00  0.00    -0.550 OA
ATOM      4  O   UNL     1     -28.292  42.602  89.022  1.00  0.00    -0.550 OA
ENDROOT
TORSDOF 0
ENDMDL
MODEL 5
REMARK VINA RESULT:    -2.532      1.404      2.090
REMARK INTER + INTRA:          -2.532
REMARK INTER:                  -2.532
REMARK INTRA:                   0.000
REMARK UNBOUND:                 0.000
REMARK SMILES CC(=O)[O-]
REMARK SMILES IDX 1 1 2 2 3 3 4 4
REMARK H PARENT
REMARK Flexibility Score: inf
ROOT
ATOM      1  C   UNL     1     -20.595  28.085  88.794  1.00  0.00     0.063 C 
ATOM      2  C   UNL     1     -21.550  28.987  88.088  1.00  0.00     0.038 C 
ATOM      3  O   UNL     1     -21.845  28.776  86.883  1.00  0.00    -0.550 OA
ATOM      4  O   UNL     1     -22.159  30.031  88.774  1.00  0.00    -0.550 OA
ENDROOT
TORSDOF 0
ENDMDL
MODEL 6
REMARK VINA RESULT:    -2.495      9.598      9.880
REMARK INTER + INTRA:          -2.495
REMARK INTER:                  -2.495
REMARK INTRA:                   0.000
REMARK UNBOUND:                 0.000
REMARK SMILES CC(=O)[O-]
REMARK SMILES IDX 1 1 2 2 3 3 4 4
REMARK H PARENT
REMARK Flexibility Score: inf
ROOT
ATOM      1  C   UNL     1     -19.219  37.341  83.586  1.00  0.00     0.063 C 
ATOM      2  C   UNL     1     -17.843  36.873  83.918  1.00  0.00     0.038 C 
ATOM      3  O   UNL     1     -17.677  35.934  84.740  1.00  0.00    -0.550 OA
ATOM      4  O   UNL     1     -16.744  37.435  83.282  1.00  0.00    -0.550 OA
ENDROOT
TORSDOF 0
ENDMDL
MODEL 7
REMARK VINA RESULT:    -2.452      9.631      9.863
REMARK INTER + INTRA:          -2.452
REMARK INTER:                  -2.452
REMARK INTRA:                   0.000
REMARK UNBOUND:                 0.000
REMARK SMILES CC(=O)[O-]
REMARK SMILES IDX 1 1 2 2 3 3 4 4
REMARK H PARENT
REMARK Flexibility Score: inf
ROOT
ATOM      1  C   UNL     1     -18.983  37.268  83.570  1.00  0.00     0.063 C 
ATOM      2  C   UNL     1     -17.592  36.806  83.847  1.00  0.00     0.038 C 
ATOM      3  O   UNL     1     -16.616  37.365  83.283  1.00  0.00    -0.550 OA
ATOM      4  O   UNL     1     -17.366  35.792  84.771  1.00  0.00    -0.550 OA
ENDROOT
TORSDOF 0
ENDMDL
MODEL 8
REMARK VINA RESULT:    -2.408      9.350      9.702
REMARK INTER + INTRA:          -2.408
REMARK INTER:                  -2.408
REMARK INTRA:                   0.000
REMARK UNBOUND:                 0.000
REMARK SMILES CC(=O)[O-]
REMARK SMILES IDX 1 1 2 2 3 3 4 4
REMARK H PARENT
REMARK Flexibility Score: inf
ROOT
ATOM      1  C   UNL     1     -16.534  37.042  83.306  1.00  0.00     0.063 C 
ATOM      2  C   UNL     1     -17.772  36.573  83.992  1.00  0.00     0.038 C 
ATOM      3  O   UNL     1     -17.691  35.841  85.012  1.00  0.00    -0.550 OA
ATOM      4  O   UNL     1     -19.019  36.988  83.538  1.00  0.00    -0.550 OA
ENDROOT
TORSDOF 0
ENDMDL
MODEL 9
REMARK VINA RESULT:    -2.384     15.777     15.958
REMARK INTER + INTRA:          -2.384
REMARK INTER:                  -2.384
REMARK INTRA:                   0.000
REMARK UNBOUND:                 0.000
REMARK SMILES CC(=O)[O-]
REMARK SMILES IDX 1 1 2 2 3 3 4 4
REMARK H PARENT
REMARK Flexibility Score: inf
ROOT
ATOM      1  C   UNL     1     -28.087  42.744  89.237  1.00  0.00     0.063 C 
ATOM      2  C   UNL     1     -28.125  43.059  90.694  1.00  0.00     0.038 C 
ATOM      3  O   UNL     1     -27.251  43.808  91.202  1.00  0.00    -0.550 OA
ATOM      4  O   UNL     1     -29.158  42.571  91.484  1.00  0.00    -0.550 OA
ENDROOT
TORSDOF 0
ENDMDL
