MODEL 1
REMARK VINA RESULT:    -5.211      0.000      0.000
REMARK INTER + INTRA:         -10.568
REMARK INTER:                  -8.867
REMARK INTRA:                  -1.701
REMARK UNBOUND:                -1.701
REMARK SMILES CCCCCCCCCCCCCC(=O)[O-]
REMARK SMILES IDX 8 1 9 2 10 3 11 4 12 5 13 6 14 7 15 8 16 9 7 10 6 11 5 12
REMARK SMILES IDX 4 13 3 14 2 15 1 16
REMARK H PARENT
REMARK Flexibility Score: inf
ROOT
ATOM      1  C   UNL     1      11.955  24.385  -9.789  1.00  0.00     0.000 C 
ENDROOT
BRANCH   1   2
ATOM      2  C   UNL     1      10.811  23.434 -10.178  1.00  0.00     0.000 C 
BRANCH   2   3
ATOM      3  C   UNL     1       9.618  23.521  -9.211  1.00  0.00     0.000 C 
BRANCH   3   4
ATOM      4  C   UNL     1       8.385  22.761  -9.727  1.00  0.00     0.000 C 
BRANCH   4   5
ATOM      5  C   UNL     1       7.101  23.123  -8.961  1.00  0.00     0.006 C 
BRANCH   5   6
ATOM      6  C   UNL     1       7.251  24.426  -8.164  1.00  0.00     0.053 C 
BRANCH   6   7
ATOM      7  C   UNL     1       6.810  24.261  -6.742  1.00  0.00     0.041 C 
ATOM      8  O   UNL     1       6.673  23.110  -6.250  1.00  0.00    -0.550 OA
ATOM      9  O   UNL     1       6.586  25.380  -5.948  1.00  0.00    -0.550 OA
ENDBRANCH   6   7
ENDBRANCH   5   6
ENDBRANCH   4   5
ENDBRANCH   3   4
ENDBRANCH   2   3
ENDBRANCH   1   2
BRANCH   1  10
ATOM     10  C   UNL     1      12.202  24.426  -8.269  1.00  0.00     0.000 C 
BRANCH  10  11
ATOM     11  C   UNL     1      13.631  24.007  -7.889  1.00  0.00    -0.000 C 
BRANCH  11  12
ATOM     12  C   UNL     1      13.683  22.622  -7.223  1.00  0.00    -0.000 C 
BRANCH  12  13
ATOM     13  C   UNL     1      12.288  22.066  -6.883  1.00  0.00    -0.000 C 
BRANCH  13  14
ATOM     14  C   UNL     1      11.850  20.846  -7.714  1.00  0.00    -0.000 C 
BRANCH  14  15
ATOM     15  C   UNL     1      10.390  20.443  -7.464  1.00  0.00    -0.003 C 
ATOM     16  C   UNL     1       9.736  21.357  -6.433  1.00  0.00     0.004 C 
ENDBRANCH  14  15
ENDBRANCH  13  14
ENDBRANCH  12  13
ENDBRANCH  11  12
ENDBRANCH  10  11
ENDBRANCH   1  10
TORSDOF 12
ENDMDL
MODEL 2
REMARK VINA RESULT:    -4.926      2.694      6.138
REMARK INTER + INTRA:         -10.083
REMARK INTER:                  -8.814
REMARK INTRA:                  -1.269
REMARK UNBOUND:                -1.701
REMARK SMILES CCCCCCCCCCCCCC(=O)[O-]
REMARK SMILES IDX 8 1 9 2 10 3 11 4 12 5 13 6 14 7 15 8 16 9 7 10 6 11 5 12
REMARK SMILES IDX 4 13 3 14 2 15 1 16
REMARK H PARENT
REMARK Flexibility Score: inf
ROOT
ATOM      1  C   UNL     1       6.786  22.881  -9.850  1.00  0.00     0.000 C 
ENDROOT
BRANCH   1   2
ATOM      2  C   UNL     1       8.015  23.298  -9.026  1.00  0.00     0.000 C 
BRANCH   2   3
ATOM      3  C   UNL     1       9.089  22.198  -8.973  1.00  0.00     0.000 C 
BRANCH   3   4
ATOM      4  C   UNL     1       9.533  21.877  -7.536  1.00  0.00     0.000 C 
BRANCH   4   5
ATOM      5  C   UNL     1      10.548  20.723  -7.473  1.00  0.00     0.006 C 
BRANCH   5   6
ATOM      6  C   UNL     1      11.938  21.147  -7.966  1.00  0.00     0.053 C 
BRANCH   6   7
ATOM      7  C   UNL     1      12.373  22.442  -7.353  1.00  0.00     0.041 C 
ATOM      8  O   UNL     1      12.743  22.481  -6.150  1.00  0.00    -0.550 OA
ATOM      9  O   UNL     1      12.406  23.600  -8.121  1.00  0.00    -0.550 OA
ENDBRANCH   6   7
ENDBRANCH   5   6
ENDBRANCH   4   5
ENDBRANCH   3   4
ENDBRANCH   2   3
ENDBRANCH   1   2
BRANCH   1  10
ATOM     10  C   UNL     1       5.473  23.469  -9.298  1.00  0.00     0.000 C 
BRANCH  10  11
ATOM     11  C   UNL     1       4.412  22.391  -9.023  1.00  0.00    -0.000 C 
BRANCH  11  12
ATOM     12  C   UNL     1       3.845  22.471  -7.595  1.00  0.00    -0.000 C 
BRANCH  12  13
ATOM     13  C   UNL     1       4.640  23.427  -6.687  1.00  0.00    -0.000 C 
BRANCH  13  14
ATOM     14  C   UNL     1       5.742  22.762  -5.843  1.00  0.00    -0.000 C 
BRANCH  14  15
ATOM     15  C   UNL     1       6.939  23.687  -5.583  1.00  0.00    -0.003 C 
ATOM     16  C   UNL     1       6.512  25.152  -5.582  1.00  0.00     0.004 C 
ENDBRANCH  14  15
ENDBRANCH  13  14
ENDBRANCH  12  13
ENDBRANCH  11  12
ENDBRANCH  10  11
ENDBRANCH   1  10
TORSDOF 12
ENDMDL
MODEL 3
REMARK VINA RESULT:    -4.912      2.775      5.909
REMARK INTER + INTRA:         -10.060
REMARK INTER:                  -8.548
REMARK INTRA:                  -1.512
REMARK UNBOUND:                -1.701
REMARK SMILES CCCCCCCCCCCCCC(=O)[O-]
REMARK SMILES IDX 8 1 9 2 10 3 11 4 12 5 13 6 14 7 15 8 16 9 7 10 6 11 5 12
REMARK SMILES IDX 4 13 3 14 2 15 1 16
REMARK H PARENT
REMARK Flexibility Score: inf
ROOT
ATOM      1  C   UNL     1       7.621  22.862  -5.156  1.00  0.00     0.000 C 
ENDROOT
BRANCH   1   2
ATOM      2  C   UNL     1       8.487  21.601  -5.320  1.00  0.00     0.000 C 
BRANCH   2   3
ATOM      3  C   UNL     1       9.719  21.844  -6.208  1.00  0.00     0.000 C 
BRANCH   3   4
ATOM      4  C   UNL     1       9.514  21.346  -7.648  1.00  0.00     0.000 C 
BRANCH   4   5
ATOM      5  C   UNL     1      10.602  21.852  -8.612  1.00  0.00     0.006 C 
BRANCH   5   6
ATOM      6  C   UNL     1      10.437  23.342  -8.939  1.00  0.00     0.053 C 
BRANCH   6   7
ATOM      7  C   UNL     1      11.757  24.047  -9.000  1.00  0.00     0.041 C 
ATOM      8  O   UNL     1      12.605  23.885  -8.083  1.00  0.00    -0.550 OA
ATOM      9  O   UNL     1      12.066  24.855 -10.088  1.00  0.00    -0.550 OA
ENDBRANCH   6   7
ENDBRANCH   5   6
ENDBRANCH   4   5
ENDBRANCH   3   4
ENDBRANCH   2   3
ENDBRANCH   1   2
BRANCH   1  10
ATOM     10  C   UNL     1       6.153  22.630  -5.560  1.00  0.00     0.000 C 
BRANCH  10  11
ATOM     11  C   UNL     1       5.724  23.494  -6.756  1.00  0.00    -0.000 C 
BRANCH  11  12
ATOM     12  C   UNL     1       6.892  24.298  -7.353  1.00  0.00    -0.000 C 
BRANCH  12  13
ATOM     13  C   UNL     1       6.873  24.333  -8.892  1.00  0.00    -0.000 C 
BRANCH  13  14
ATOM     14  C   UNL     1       6.740  22.960  -9.575  1.00  0.00    -0.000 C 
BRANCH  14  15
ATOM     15  C   UNL     1       5.377  22.755 -10.252  1.00  0.00    -0.003 C 
ATOM     16  C   UNL     1       5.108  23.842 -11.288  1.00  0.00     0.004 C 
ENDBRANCH  14  15
ENDBRANCH  13  14
ENDBRANCH  12  13
ENDBRANCH  11  12
ENDBRANCH  10  11
ENDBRANCH   1  10
TORSDOF 12
ENDMDL
MODEL 4
REMARK VINA RESULT:    -4.899      0.999      2.326
REMARK INTER + INTRA:         -10.038
REMARK INTER:                  -8.771
REMARK INTRA:                  -1.266
REMARK UNBOUND:                -1.701
REMARK SMILES CCCCCCCCCCCCCC(=O)[O-]
REMARK SMILES IDX 8 1 9 2 10 3 11 4 12 5 13 6 14 7 15 8 16 9 7 10 6 11 5 12
REMARK SMILES IDX 4 13 3 14 2 15 1 16
REMARK H PARENT
REMARK Flexibility Score: inf
ROOT
ATOM      1  C   UNL     1       9.143  22.250  -9.663  1.00  0.00     0.000 C 
ENDROOT
BRANCH   1   2
ATOM      2  C   UNL     1       7.856  22.520 -10.460  1.00  0.00     0.000 C 
BRANCH   2   3
ATOM      3  C   UNL     1       6.609  22.586  -9.562  1.00  0.00     0.000 C 
BRANCH   3   4
ATOM      4  C   UNL     1       6.199  24.029  -9.227  1.00  0.00     0.000 C 
BRANCH   4   5
ATOM      5  C   UNL     1       7.121  24.682  -8.183  1.00  0.00     0.006 C 
BRANCH   5   6
ATOM      6  C   UNL     1       7.273  23.816  -6.924  1.00  0.00     0.053 C 
BRANCH   6   7
ATOM      7  C   UNL     1       6.126  24.003  -5.980  1.00  0.00     0.041 C 
ATOM      8  O   UNL     1       5.261  23.098  -5.846  1.00  0.00    -0.550 OA
ATOM      9  O   UNL     1       6.032  25.162  -5.219  1.00  0.00    -0.550 OA
ENDBRANCH   6   7
ENDBRANCH   5   6
ENDBRANCH   4   5
ENDBRANCH   3   4
ENDBRANCH   2   3
ENDBRANCH   1   2
BRANCH   1  10
ATOM     10  C   UNL     1      10.299  23.184 -10.067  1.00  0.00     0.000 C 
BRANCH  10  11
ATOM     11  C   UNL     1      10.740  24.109  -8.922  1.00  0.00    -0.000 C 
BRANCH  11  12
ATOM     12  C   UNL     1      12.267  24.278  -8.854  1.00  0.00    -0.000 C 
BRANCH  12  13
ATOM     13  C   UNL     1      12.923  23.381  -7.787  1.00  0.00    -0.000 C 
BRANCH  13  14
ATOM     14  C   UNL     1      11.996  22.322  -7.163  1.00  0.00    -0.000 C 
BRANCH  14  15
ATOM     15  C   UNL     1      12.187  20.925  -7.772  1.00  0.00    -0.003 C 
ATOM     16  C   UNL     1      10.979  20.036  -7.497  1.00  0.00     0.004 C 
ENDBRANCH  14  15
ENDBRANCH  13  14
ENDBRANCH  12  13
ENDBRANCH  11  12
ENDBRANCH  10  11
ENDBRANCH   1  10
TORSDOF 12
ENDMDL
MODEL 5
REMARK VINA RESULT:    -4.888      3.160      5.249
REMARK INTER + INTRA:         -10.018
REMARK INTER:                  -8.522
REMARK INTRA:                  -1.496
REMARK UNBOUND:                -1.701
REMARK SMILES CCCCCCCCCCCCCC(=O)[O-]
REMARK SMILES IDX 8 1 9 2 10 3 11 4 12 5 13 6 14 7 15 8 16 9 7 10 6 11 5 12
REMARK SMILES IDX 4 13 3 14 2 15 1 16
REMARK H PARENT
REMARK Flexibility Score: inf
ROOT
ATOM      1  C   UNL     1      11.778  24.369  -9.367  1.00  0.00     0.000 C 
ENDROOT
BRANCH   1   2
ATOM      2  C   UNL     1      12.856  24.372  -8.270  1.00  0.00     0.000 C 
BRANCH   2   3
ATOM      3  C   UNL     1      13.095  22.975  -7.674  1.00  0.00     0.000 C 
BRANCH   3   4
ATOM      4  C   UNL     1      14.128  22.988  -6.536  1.00  0.00     0.000 C 
BRANCH   4   5
ATOM      5  C   UNL     1      13.528  22.564  -5.184  1.00  0.00     0.006 C 
BRANCH   5   6
ATOM      6  C   UNL     1      14.333  23.110  -3.997  1.00  0.00     0.053 C 
BRANCH   6   7
ATOM      7  C   UNL     1      13.461  23.370  -2.808  1.00  0.00     0.041 C 
ATOM      8  O   UNL     1      12.485  22.614  -2.560  1.00  0.00    -0.550 OA
ATOM      9  O   UNL     1      13.748  24.427  -1.952  1.00  0.00    -0.550 OA
ENDBRANCH   6   7
ENDBRANCH   5   6
ENDBRANCH   4   5
ENDBRANCH   3   4
ENDBRANCH   2   3
ENDBRANCH   1   2
BRANCH   1  10
ATOM     10  C   UNL     1      11.196  22.966  -9.623  1.00  0.00     0.000 C 
BRANCH  10  11
ATOM     11  C   UNL     1       9.673  22.985  -9.830  1.00  0.00    -0.000 C 
BRANCH  11  12
ATOM     12  C   UNL     1       8.923  22.150  -8.779  1.00  0.00    -0.000 C 
BRANCH  12  13
ATOM     13  C   UNL     1       9.351  22.476  -7.336  1.00  0.00    -0.000 C 
BRANCH  13  14
ATOM     14  C   UNL     1      10.091  21.343  -6.602  1.00  0.00    -0.000 C 
BRANCH  14  15
ATOM     15  C   UNL     1      10.158  20.044  -7.417  1.00  0.00    -0.003 C 
ATOM     16  C   UNL     1      11.596  19.707  -7.799  1.00  0.00     0.004 C 
ENDBRANCH  14  15
ENDBRANCH  13  14
ENDBRANCH  12  13
ENDBRANCH  11  12
ENDBRANCH  10  11
ENDBRANCH   1  10
TORSDOF 12
ENDMDL
MODEL 6
REMARK VINA RESULT:    -4.887      2.935      6.063
REMARK INTER + INTRA:         -10.017
REMARK INTER:                  -8.712
REMARK INTRA:                  -1.305
REMARK UNBOUND:                -1.701
REMARK SMILES CCCCCCCCCCCCCC(=O)[O-]
REMARK SMILES IDX 8 1 9 2 10 3 11 4 12 5 13 6 14 7 15 8 16 9 7 10 6 11 5 12
REMARK SMILES IDX 4 13 3 14 2 15 1 16
REMARK H PARENT
REMARK Flexibility Score: inf
ROOT
ATOM      1  C   UNL     1       6.347  23.243  -9.660  1.00  0.00     0.000 C 
ENDROOT
BRANCH   1   2
ATOM      2  C   UNL     1       7.382  22.269 -10.246  1.00  0.00     0.000 C 
BRANCH   2   3
ATOM      3  C   UNL     1       8.821  22.610  -9.820  1.00  0.00     0.000 C 
BRANCH   3   4
ATOM      4  C   UNL     1       8.892  23.189  -8.398  1.00  0.00     0.000 C 
BRANCH   4   5
ATOM      5  C   UNL     1       9.826  22.384  -7.476  1.00  0.00     0.006 C 
BRANCH   5   6
ATOM      6  C   UNL     1      10.765  21.463  -8.266  1.00  0.00     0.053 C 
BRANCH   6   7
ATOM      7  C   UNL     1      10.777  20.073  -7.710  1.00  0.00     0.041 C 
ATOM      8  O   UNL     1       9.756  19.611  -7.136  1.00  0.00    -0.550 OA
ATOM      9  O   UNL     1      11.905  19.274  -7.856  1.00  0.00    -0.550 OA
ENDBRANCH   6   7
ENDBRANCH   5   6
ENDBRANCH   4   5
ENDBRANCH   3   4
ENDBRANCH   2   3
ENDBRANCH   1   2
BRANCH   1  10
ATOM     10  C   UNL     1       4.917  22.672  -9.681  1.00  0.00     0.000 C 
BRANCH  10  11
ATOM     11  C   UNL     1       4.336  22.478  -8.271  1.00  0.00    -0.000 C 
BRANCH  11  12
ATOM     12  C   UNL     1       4.958  23.434  -7.239  1.00  0.00    -0.000 C 
BRANCH  12  13
ATOM     13  C   UNL     1       5.792  22.702  -6.171  1.00  0.00    -0.000 C 
BRANCH  13  14
ATOM     14  C   UNL     1       6.800  23.584  -5.411  1.00  0.00    -0.000 C 
BRANCH  14  15
ATOM     15  C   UNL     1       6.712  25.066  -5.799  1.00  0.00    -0.003 C 
ATOM     16  C   UNL     1       5.819  25.836  -4.830  1.00  0.00     0.004 C 
ENDBRANCH  14  15
ENDBRANCH  13  14
ENDBRANCH  12  13
ENDBRANCH  11  12
ENDBRANCH  10  11
ENDBRANCH   1  10
TORSDOF 12
ENDMDL
MODEL 7
REMARK VINA RESULT:    -4.822      2.768      5.737
REMARK INTER + INTRA:          -9.906
REMARK INTER:                  -8.588
REMARK INTRA:                  -1.318
REMARK UNBOUND:                -1.701
REMARK SMILES CCCCCCCCCCCCCC(=O)[O-]
REMARK SMILES IDX 8 1 9 2 10 3 11 4 12 5 13 6 14 7 15 8 16 9 7 10 6 11 5 12
REMARK SMILES IDX 4 13 3 14 2 15 1 16
REMARK H PARENT
REMARK Flexibility Score: inf
ROOT
ATOM      1  C   UNL     1      10.348  21.759  -6.512  1.00  0.00     0.000 C 
ENDROOT
BRANCH   1   2
ATOM      2  C   UNL     1      11.149  20.861  -7.468  1.00  0.00     0.000 C 
BRANCH   2   3
ATOM      3  C   UNL     1      12.550  21.423  -7.769  1.00  0.00     0.000 C 
BRANCH   3   4
ATOM      4  C   UNL     1      12.812  22.762  -7.061  1.00  0.00     0.000 C 
BRANCH   4   5
ATOM      5  C   UNL     1      13.062  23.916  -8.048  1.00  0.00     0.006 C 
BRANCH   5   6
ATOM      6  C   UNL     1      11.756  24.467  -8.637  1.00  0.00     0.053 C 
BRANCH   6   7
ATOM      7  C   UNL     1      11.714  24.324 -10.127  1.00  0.00     0.041 C 
ATOM      8  O   UNL     1      12.090  25.272 -10.865  1.00  0.00    -0.550 OA
ATOM      9  O   UNL     1      11.294  23.129 -10.700  1.00  0.00    -0.550 OA
ENDBRANCH   6   7
ENDBRANCH   5   6
ENDBRANCH   4   5
ENDBRANCH   3   4
ENDBRANCH   2   3
ENDBRANCH   1   2
BRANCH   1  10
ATOM     10  C   UNL     1       9.062  22.313  -7.155  1.00  0.00     0.000 C 
BRANCH  10  11
ATOM     11  C   UNL     1       8.965  21.993  -8.655  1.00  0.00    -0.000 C 
BRANCH  11  12
ATOM     12  C   UNL     1       8.209  23.076  -9.443  1.00  0.00    -0.000 C 
BRANCH  12  13
ATOM     13  C   UNL     1       7.020  23.665  -8.662  1.00  0.00    -0.000 C 
BRANCH  13  14
ATOM     14  C   UNL     1       5.641  23.098  -9.045  1.00  0.00    -0.000 C 
BRANCH  14  15
ATOM     15  C   UNL     1       5.386  23.110 -10.558  1.00  0.00    -0.003 C 
ATOM     16  C   UNL     1       4.827  24.455 -11.011  1.00  0.00     0.004 C 
ENDBRANCH  14  15
ENDBRANCH  13  14
ENDBRANCH  12  13
ENDBRANCH  11  12
ENDBRANCH  10  11
ENDBRANCH   1  10
TORSDOF 12
ENDMDL
MODEL 8
REMARK VINA RESULT:    -4.773      2.907      5.879
REMARK INTER + INTRA:          -9.822
REMARK INTER:                  -8.699
REMARK INTRA:                  -1.123
REMARK UNBOUND:                -1.701
REMARK SMILES CCCCCCCCCCCCCC(=O)[O-]
REMARK SMILES IDX 8 1 9 2 10 3 11 4 12 5 13 6 14 7 15 8 16 9 7 10 6 11 5 12
REMARK SMILES IDX 4 13 3 14 2 15 1 16
REMARK H PARENT
REMARK Flexibility Score: inf
ROOT
ATOM      1  C   UNL     1      10.344  23.030  -9.019  1.00  0.00     0.000 C 
ENDROOT
BRANCH   1   2
ATOM      2  C   UNL     1      10.034  22.224  -7.748  1.00  0.00     0.000 C 
BRANCH   2   3
ATOM      3  C   UNL     1      10.778  20.878  -7.707  1.00  0.00     0.000 C 
BRANCH   3   4
ATOM      4  C   UNL     1      12.303  21.044  -7.801  1.00  0.00     0.000 C 
BRANCH   4   5
ATOM      5  C   UNL     1      12.860  22.018  -6.748  1.00  0.00     0.006 C 
BRANCH   5   6
ATOM      6  C   UNL     1      14.236  22.571  -7.142  1.00  0.00     0.053 C 
BRANCH   6   7
ATOM      7  C   UNL     1      14.211  24.059  -7.310  1.00  0.00     0.041 C 
ATOM      8  O   UNL     1      15.153  24.763  -6.861  1.00  0.00    -0.550 OA
ATOM      9  O   UNL     1      13.164  24.665  -7.994  1.00  0.00    -0.550 OA
ENDBRANCH   6   7
ENDBRANCH   5   6
ENDBRANCH   4   5
ENDBRANCH   3   4
ENDBRANCH   2   3
ENDBRANCH   1   2
BRANCH   1  10
ATOM     10  C   UNL     1       9.291  22.825 -10.124  1.00  0.00     0.000 C 
BRANCH  10  11
ATOM     11  C   UNL     1       8.025  22.119  -9.612  1.00  0.00    -0.000 C 
BRANCH  11  12
ATOM     12  C   UNL     1       6.734  22.834 -10.044  1.00  0.00    -0.000 C 
BRANCH  12  13
ATOM     13  C   UNL     1       6.017  23.536  -8.875  1.00  0.00    -0.000 C 
BRANCH  13  14
ATOM     14  C   UNL     1       6.931  24.355  -7.946  1.00  0.00    -0.000 C 
BRANCH  14  15
ATOM     15  C   UNL     1       6.889  23.876  -6.488  1.00  0.00    -0.003 C 
ATOM     16  C   UNL     1       5.555  23.209  -6.166  1.00  0.00     0.004 C 
ENDBRANCH  14  15
ENDBRANCH  13  14
ENDBRANCH  12  13
ENDBRANCH  11  12
ENDBRANCH  10  11
ENDBRANCH   1  10
TORSDOF 12
ENDMDL
MODEL 9
REMARK VINA RESULT:    -4.711      1.378      3.127
REMARK INTER + INTRA:          -9.717
REMARK INTER:                  -8.875
REMARK INTRA:                  -0.841
REMARK UNBOUND:                -1.701
REMARK SMILES CCCCCCCCCCCCCC(=O)[O-]
REMARK SMILES IDX 8 1 9 2 10 3 11 4 12 5 13 6 14 7 15 8 16 9 7 10 6 11 5 12
REMARK SMILES IDX 4 13 3 14 2 15 1 16
REMARK H PARENT
REMARK Flexibility Score: inf
ROOT
ATOM      1  C   UNL     1      10.764  22.187  -8.878  1.00  0.00     0.000 C 
ENDROOT
BRANCH   1   2
ATOM      2  C   UNL     1       9.249  22.043  -8.661  1.00  0.00     0.000 C 
BRANCH   2   3
ATOM      3  C   UNL     1       8.433  22.479  -9.890  1.00  0.00     0.000 C 
BRANCH   3   4
ATOM      4  C   UNL     1       7.013  22.939  -9.522  1.00  0.00     0.000 C 
BRANCH   4   5
ATOM      5  C   UNL     1       7.007  24.052  -8.459  1.00  0.00     0.006 C 
BRANCH   5   6
ATOM      6  C   UNL     1       6.084  23.719  -7.279  1.00  0.00     0.053 C 
BRANCH   6   7
ATOM      7  C   UNL     1       6.768  23.924  -5.963  1.00  0.00     0.041 C 
ATOM      8  O   UNL     1       6.565  24.975  -5.300  1.00  0.00    -0.550 OA
ATOM      9  O   UNL     1       7.603  22.939  -5.452  1.00  0.00    -0.550 OA
ENDBRANCH   6   7
ENDBRANCH   5   6
ENDBRANCH   4   5
ENDBRANCH   3   4
ENDBRANCH   2   3
ENDBRANCH   1   2
BRANCH   1  10
ATOM     10  C   UNL     1      11.119  23.326  -9.853  1.00  0.00     0.000 C 
BRANCH  10  11
ATOM     11  C   UNL     1      12.037  24.383  -9.220  1.00  0.00    -0.000 C 
BRANCH  11  12
ATOM     12  C   UNL     1      12.741  23.871  -7.952  1.00  0.00    -0.000 C 
BRANCH  12  13
ATOM     13  C   UNL     1      13.960  24.725  -7.556  1.00  0.00    -0.000 C 
BRANCH  13  14
ATOM     14  C   UNL     1      15.046  23.984  -6.757  1.00  0.00    -0.000 C 
BRANCH  14  15
ATOM     15  C   UNL     1      15.226  22.524  -7.198  1.00  0.00    -0.003 C 
ATOM     16  C   UNL     1      16.674  22.241  -7.586  1.00  0.00     0.004 C 
ENDBRANCH  14  15
ENDBRANCH  13  14
ENDBRANCH  12  13
ENDBRANCH  11  12
ENDBRANCH  10  11
ENDBRANCH   1  10
TORSDOF 12
ENDMDL
