MODEL 1
REMARK VINA RESULT:    -6.245      0.000      0.000
REMARK INTER + INTRA:         -10.655
REMARK INTER:                  -9.165
REMARK INTRA:                  -1.489
REMARK UNBOUND:                -1.489
REMARK SMILES O=c1c(OC[C@H]2O[C@H](O)[C@@H](O)[C@H](O)[C@@H]2O)c(-c2ccc(O)c(O)c2)oc2cc(O)cc(O)c12
REMARK SMILES IDX 4 1 3 2 16 3 25 4 2 5 26 6 1 7 33 8 27 9 31 10 28 11 30 12
REMARK SMILES IDX 17 13 18 14 19 15 20 16 24 17 22 18 21 19 23 21 32 23 29 25
REMARK SMILES IDX 5 27 6 28 14 29 7 30 12 31 8 32 10 33 15 34 13 36 9 38 11 40
REMARK H PARENT 21 20 23 22 32 24 29 26 15 35 13 37 9 39 11 41
REMARK Flexibility Score: inf
ROOT
ATOM      1  O   UNL     1      12.126   1.426   1.005  1.00  0.00    -0.483 OA
ENDROOT
BRANCH   1   2
ATOM      2  C   UNL     1      11.629   2.427   0.148  1.00  0.00     0.211 A 
ATOM      3  C   UNL     1      12.331   2.871  -0.996  1.00  0.00     0.180 A 
ATOM      4  O   UNL     1      11.828   3.839  -1.752  1.00  0.00    -0.452 OA
ATOM      5  C   UNL     1      10.386   3.005   0.431  1.00  0.00     0.239 A 
ATOM      6  C   UNL     1      10.670   4.435  -1.500  1.00  0.00     0.146 A 
ATOM      7  O   UNL     1       9.705   2.560   1.399  1.00  0.00    -0.285 OA
ATOM      8  C   UNL     1       9.899   4.059  -0.375  1.00  0.00     0.111 A 
ATOM      9  C   UNL     1      10.211   5.423  -2.368  1.00  0.00     0.094 A 
ATOM     10  C   UNL     1       8.690   4.748  -0.114  1.00  0.00     0.134 A 
ATOM     11  C   UNL     1       9.010   6.087  -2.115  1.00  0.00     0.123 A 
ATOM     12  C   UNL     1       8.261   5.759  -0.985  1.00  0.00     0.093 A 
BRANCH   3  13
ATOM     13  C   UNL     1      13.597   2.269  -1.428  1.00  0.00     0.025 A 
ATOM     14  C   UNL     1      13.592   1.086  -2.180  1.00  0.00     0.016 A 
ATOM     15  C   UNL     1      14.798   0.540  -2.635  1.00  0.00     0.051 A 
ATOM     16  C   UNL     1      16.018   1.164  -2.320  1.00  0.00     0.157 A 
ATOM     17  C   UNL     1      14.811   2.905  -1.129  1.00  0.00     0.062 A 
ATOM     18  C   UNL     1      16.025   2.353  -1.564  1.00  0.00     0.158 A 
BRANCH  16  19
ATOM     19  O   UNL     1      17.221   0.601  -2.738  1.00  0.00    -0.504 OA
ATOM     20  H   UNL     1      18.114   1.028  -2.511  1.00  0.00     0.293 HD
ENDBRANCH  16  19
BRANCH  18  21
ATOM     21  O   UNL     1      17.221   2.992  -1.231  1.00  0.00    -0.504 OA
ATOM     22  H   UNL     1      18.029   2.981  -1.840  1.00  0.00     0.293 HD
ENDBRANCH  18  21
ENDBRANCH   3  13
BRANCH  10  23
ATOM     23  O   UNL     1       7.916   4.430   1.003  1.00  0.00    -0.507 OA
ATOM     24  H   UNL     1       7.736   3.467   1.273  1.00  0.00     0.293 HD
ENDBRANCH  10  23
BRANCH  11  25
ATOM     25  O   UNL     1       8.579   7.075  -2.998  1.00  0.00    -0.508 OA
ATOM     26  H   UNL     1       8.973   7.184  -3.921  1.00  0.00     0.293 HD
ENDBRANCH  11  25
ENDBRANCH   1   2
BRANCH   1  27
ATOM     27  C   UNL     1      11.986   0.024   0.758  1.00  0.00     0.265 C 
BRANCH  27  28
ATOM     28  C   UNL     1      12.901  -0.799   1.702  1.00  0.00     0.190 C 
ATOM     29  C   UNL     1      13.040  -0.176   3.132  1.00  0.00     0.178 C 
ATOM     30  O   UNL     1      14.155  -1.125   1.108  1.00  0.00    -0.340 OA
ATOM     31  C   UNL     1      14.506   0.094   3.486  1.00  0.00     0.179 C 
ATOM     32  C   UNL     1      15.054  -0.027   0.997  1.00  0.00     0.279 C 
ATOM     33  C   UNL     1      15.179   0.811   2.304  1.00  0.00     0.201 C 
BRANCH  29  34
ATOM     34  O   UNL     1      12.479  -1.024   4.102  1.00  0.00    -0.387 OA
ATOM     35  H   UNL     1      11.518  -1.119   3.878  1.00  0.00     0.211 HD
ENDBRANCH  29  34
BRANCH  31  36
ATOM     36  O   UNL     1      15.168  -1.117   3.759  1.00  0.00    -0.387 OA
ATOM     37  H   UNL     1      14.637  -1.839   3.331  1.00  0.00     0.211 HD
ENDBRANCH  31  36
BRANCH  32  38
ATOM     38  O   UNL     1      16.311  -0.549   0.658  1.00  0.00    -0.366 OA
ATOM     39  H   UNL     1      16.614  -0.090  -0.167  1.00  0.00     0.213 HD
ENDBRANCH  32  38
BRANCH  33  40
ATOM     40  O   UNL     1      14.587   2.072   2.101  1.00  0.00    -0.385 OA
ATOM     41  H   UNL     1      14.319   2.422   2.989  1.00  0.00     0.211 HD
ENDBRANCH  33  40
ENDBRANCH  27  28
ENDBRANCH   1  27
TORSDOF 12
ENDMDL
MODEL 2
REMARK VINA RESULT:    -5.971      2.085      5.394
REMARK INTER + INTRA:         -10.253
REMARK INTER:                 -10.345
REMARK INTRA:                   0.091
REMARK UNBOUND:                -1.489
REMARK SMILES O=c1c(OC[C@H]2O[C@H](O)[C@@H](O)[C@H](O)[C@@H]2O)c(-c2ccc(O)c(O)c2)oc2cc(O)cc(O)c12
REMARK SMILES IDX 4 1 3 2 16 3 25 4 2 5 26 6 1 7 33 8 27 9 31 10 28 11 30 12
REMARK SMILES IDX 17 13 18 14 19 15 20 16 24 17 22 18 21 19 23 21 32 23 29 25
REMARK SMILES IDX 5 27 6 28 14 29 7 30 12 31 8 32 10 33 15 34 13 36 9 38 11 40
REMARK H PARENT 21 20 23 22 32 24 29 26 15 35 13 37 9 39 11 41
REMARK Flexibility Score: inf
ROOT
ATOM      1  O   UNL     1      15.858   2.659   1.039  1.00  0.00    -0.483 OA
ENDROOT
BRANCH   1   2
ATOM      2  C   UNL     1      14.488   2.534   1.344  1.00  0.00     0.211 A 
ATOM      3  C   UNL     1      14.012   1.742   2.413  1.00  0.00     0.180 A 
ATOM      4  O   UNL     1      12.707   1.638   2.635  1.00  0.00    -0.452 OA
ATOM      5  C   UNL     1      13.555   3.229   0.564  1.00  0.00     0.239 A 
ATOM      6  C   UNL     1      11.790   2.252   1.900  1.00  0.00     0.146 A 
ATOM      7  O   UNL     1      13.968   4.010  -0.340  1.00  0.00    -0.285 OA
ATOM      8  C   UNL     1      12.173   3.065   0.808  1.00  0.00     0.111 A 
ATOM      9  C   UNL     1      10.445   2.104   2.229  1.00  0.00     0.094 A 
ATOM     10  C   UNL     1      11.164   3.669   0.019  1.00  0.00     0.134 A 
ATOM     11  C   UNL     1       9.455   2.716   1.459  1.00  0.00     0.123 A 
ATOM     12  C   UNL     1       9.814   3.483   0.351  1.00  0.00     0.093 A 
BRANCH   3  13
ATOM     13  C   UNL     1      14.911   1.047   3.341  1.00  0.00     0.025 A 
ATOM     14  C   UNL     1      14.912  -0.352   3.403  1.00  0.00     0.016 A 
ATOM     15  C   UNL     1      15.806  -1.016   4.252  1.00  0.00     0.051 A 
ATOM     16  C   UNL     1      16.689  -0.279   5.060  1.00  0.00     0.157 A 
ATOM     17  C   UNL     1      15.805   1.785   4.131  1.00  0.00     0.062 A 
ATOM     18  C   UNL     1      16.691   1.129   4.999  1.00  0.00     0.158 A 
BRANCH  16  19
ATOM     19  O   UNL     1      17.553  -0.936   5.933  1.00  0.00    -0.504 OA
ATOM     20  H   UNL     1      17.257  -1.211   6.865  1.00  0.00     0.293 HD
ENDBRANCH  16  19
BRANCH  18  21
ATOM     21  O   UNL     1      17.553   1.887   5.793  1.00  0.00    -0.504 OA
ATOM     22  H   UNL     1      18.108   1.477   6.533  1.00  0.00     0.293 HD
ENDBRANCH  18  21
ENDBRANCH   3  13
BRANCH  10  23
ATOM     23  O   UNL     1      11.497   4.452  -1.087  1.00  0.00    -0.507 OA
ATOM     24  H   UNL     1      11.599   5.460  -1.018  1.00  0.00     0.293 HD
ENDBRANCH  10  23
BRANCH  11  25
ATOM     25  O   UNL     1       8.117   2.546   1.809  1.00  0.00    -0.508 OA
ATOM     26  H   UNL     1       7.363   2.734   1.165  1.00  0.00     0.293 HD
ENDBRANCH  11  25
ENDBRANCH   1   2
BRANCH   1  27
ATOM     27  C   UNL     1      16.379   2.681  -0.293  1.00  0.00     0.265 C 
BRANCH  27  28
ATOM     28  C   UNL     1      16.608   1.241  -0.822  1.00  0.00     0.190 C 
ATOM     29  C   UNL     1      16.736   1.164  -2.380  1.00  0.00     0.178 C 
ATOM     30  O   UNL     1      15.677   0.303  -0.288  1.00  0.00    -0.340 OA
ATOM     31  C   UNL     1      15.699   0.210  -2.981  1.00  0.00     0.179 C 
ATOM     32  C   UNL     1      14.361   0.418  -0.819  1.00  0.00     0.279 C 
ATOM     33  C   UNL     1      14.322   0.524  -2.372  1.00  0.00     0.201 C 
BRANCH  29  34
ATOM     34  O   UNL     1      18.024   0.743  -2.755  1.00  0.00    -0.387 OA
ATOM     35  H   UNL     1      18.650   1.094  -2.072  1.00  0.00     0.211 HD
ENDBRANCH  29  34
BRANCH  31  36
ATOM     36  O   UNL     1      16.056  -1.124  -2.711  1.00  0.00    -0.387 OA
ATOM     37  H   UNL     1      17.048  -1.158  -2.687  1.00  0.00     0.211 HD
ENDBRANCH  31  36
BRANCH  32  38
ATOM     38  O   UNL     1      13.647  -0.720  -0.414  1.00  0.00    -0.366 OA
ATOM     39  H   UNL     1      12.729  -0.429  -0.175  1.00  0.00     0.213 HD
ENDBRANCH  32  38
BRANCH  33  40
ATOM     40  O   UNL     1      13.916   1.822  -2.735  1.00  0.00    -0.385 OA
ATOM     41  H   UNL     1      13.264   2.132  -2.054  1.00  0.00     0.211 HD
ENDBRANCH  33  40
ENDBRANCH  27  28
ENDBRANCH   1  27
TORSDOF 12
ENDMDL
MODEL 3
REMARK VINA RESULT:    -5.917      2.037      6.152
REMARK INTER + INTRA:         -10.173
REMARK INTER:                  -9.622
REMARK INTRA:                  -0.552
REMARK UNBOUND:                -1.489
REMARK SMILES O=c1c(OC[C@H]2O[C@H](O)[C@@H](O)[C@H](O)[C@@H]2O)c(-c2ccc(O)c(O)c2)oc2cc(O)cc(O)c12
REMARK SMILES IDX 4 1 3 2 16 3 25 4 2 5 26 6 1 7 33 8 27 9 31 10 28 11 30 12
REMARK SMILES IDX 17 13 18 14 19 15 20 16 24 17 22 18 21 19 23 21 32 23 29 25
REMARK SMILES IDX 5 27 6 28 14 29 7 30 12 31 8 32 10 33 15 34 13 36 9 38 11 40
REMARK H PARENT 21 20 23 22 32 24 29 26 15 35 13 37 9 39 11 41
REMARK Flexibility Score: inf
ROOT
ATOM      1  O   UNL     1      12.900   3.076   0.200  1.00  0.00    -0.483 OA
ENDROOT
BRANCH   1   2
ATOM      2  C   UNL     1      11.856   2.503   0.953  1.00  0.00     0.211 A 
ATOM      3  C   UNL     1      10.579   3.100   1.067  1.00  0.00     0.180 A 
ATOM      4  O   UNL     1       9.642   2.530   1.815  1.00  0.00    -0.452 OA
ATOM      5  C   UNL     1      12.083   1.288   1.611  1.00  0.00     0.239 A 
ATOM      6  C   UNL     1       9.828   1.397   2.480  1.00  0.00     0.146 A 
ATOM      7  O   UNL     1      13.189   0.697   1.448  1.00  0.00    -0.285 OA
ATOM      8  C   UNL     1      11.074   0.730   2.427  1.00  0.00     0.111 A 
ATOM      9  C   UNL     1       8.774   0.861   3.216  1.00  0.00     0.094 A 
ATOM     10  C   UNL     1      11.248  -0.453   3.185  1.00  0.00     0.134 A 
ATOM     11  C   UNL     1       8.946  -0.315   3.947  1.00  0.00     0.123 A 
ATOM     12  C   UNL     1      10.183  -0.960   3.942  1.00  0.00     0.093 A 
BRANCH   3  13
ATOM     13  C   UNL     1      10.214   4.324   0.347  1.00  0.00     0.025 A 
ATOM     14  C   UNL     1      10.100   5.538   1.038  1.00  0.00     0.016 A 
ATOM     15  C   UNL     1       9.801   6.715   0.341  1.00  0.00     0.051 A 
ATOM     16  C   UNL     1       9.593   6.679  -1.048  1.00  0.00     0.157 A 
ATOM     17  C   UNL     1      10.027   4.288  -1.042  1.00  0.00     0.062 A 
ATOM     18  C   UNL     1       9.708   5.460  -1.746  1.00  0.00     0.158 A 
BRANCH  16  19
ATOM     19  O   UNL     1       9.258   7.842  -1.737  1.00  0.00    -0.504 OA
ATOM     20  H   UNL     1       9.901   8.275  -2.393  1.00  0.00     0.293 HD
ENDBRANCH  16  19
BRANCH  18  21
ATOM     21  O   UNL     1       9.501   5.392  -3.124  1.00  0.00    -0.504 OA
ATOM     22  H   UNL     1       9.122   4.570  -3.575  1.00  0.00     0.293 HD
ENDBRANCH  18  21
ENDBRANCH   3  13
BRANCH  10  23
ATOM     23  O   UNL     1      12.471  -1.125   3.186  1.00  0.00    -0.507 OA
ATOM     24  H   UNL     1      12.536  -2.119   3.383  1.00  0.00     0.293 HD
ENDBRANCH  10  23
BRANCH  11  25
ATOM     25  O   UNL     1       7.876  -0.825   4.679  1.00  0.00    -0.508 OA
ATOM     26  H   UNL     1       6.923  -0.532   4.518  1.00  0.00     0.293 HD
ENDBRANCH  11  25
ENDBRANCH   1   2
BRANCH   1  27
ATOM     27  C   UNL     1      12.939   3.086  -1.229  1.00  0.00     0.265 C 
BRANCH  27  28
ATOM     28  C   UNL     1      14.325   2.620  -1.748  1.00  0.00     0.190 C 
ATOM     29  C   UNL     1      14.798   1.263  -1.126  1.00  0.00     0.178 C 
ATOM     30  O   UNL     1      15.313   3.645  -1.677  1.00  0.00    -0.340 OA
ATOM     31  C   UNL     1      16.156   1.408  -0.432  1.00  0.00     0.179 C 
ATOM     32  C   UNL     1      15.768   3.929  -0.359  1.00  0.00     0.279 C 
ATOM     33  C   UNL     1      16.125   2.657   0.466  1.00  0.00     0.201 C 
BRANCH  29  34
ATOM     34  O   UNL     1      14.887   0.266  -2.113  1.00  0.00    -0.387 OA
ATOM     35  H   UNL     1      15.852   0.081  -2.247  1.00  0.00     0.211 HD
ENDBRANCH  29  34
BRANCH  31  36
ATOM     36  O   UNL     1      17.178   1.526  -1.391  1.00  0.00    -0.387 OA
ATOM     37  H   UNL     1      17.799   2.230  -1.067  1.00  0.00     0.211 HD
ENDBRANCH  31  36
BRANCH  32  38
ATOM     38  O   UNL     1      16.906   4.740  -0.476  1.00  0.00    -0.366 OA
ATOM     39  H   UNL     1      17.685   4.213  -0.160  1.00  0.00     0.213 HD
ENDBRANCH  32  38
BRANCH  33  40
ATOM     40  O   UNL     1      15.176   2.492   1.492  1.00  0.00    -0.385 OA
ATOM     41  H   UNL     1      15.652   2.591   2.358  1.00  0.00     0.211 HD
ENDBRANCH  33  40
ENDBRANCH  27  28
ENDBRANCH   1  27
TORSDOF 12
ENDMDL
MODEL 4
REMARK VINA RESULT:    -5.898      1.723      3.195
REMARK INTER + INTRA:         -10.145
REMARK INTER:                  -8.911
REMARK INTRA:                  -1.234
REMARK UNBOUND:                -1.489
REMARK SMILES O=c1c(OC[C@H]2O[C@H](O)[C@@H](O)[C@H](O)[C@@H]2O)c(-c2ccc(O)c(O)c2)oc2cc(O)cc(O)c12
REMARK SMILES IDX 4 1 3 2 16 3 25 4 2 5 26 6 1 7 33 8 27 9 31 10 28 11 30 12
REMARK SMILES IDX 17 13 18 14 19 15 20 16 24 17 22 18 21 19 23 21 32 23 29 25
REMARK SMILES IDX 5 27 6 28 14 29 7 30 12 31 8 32 10 33 15 34 13 36 9 38 11 40
REMARK H PARENT 21 20 23 22 32 24 29 26 15 35 13 37 9 39 11 41
REMARK Flexibility Score: inf
ROOT
ATOM      1  O   UNL     1      13.822  -0.429   1.136  1.00  0.00    -0.483 OA
ENDROOT
BRANCH   1   2
ATOM      2  C   UNL     1      13.137   0.714   0.678  1.00  0.00     0.211 A 
ATOM      3  C   UNL     1      13.658   1.569  -0.320  1.00  0.00     0.180 A 
ATOM      4  O   UNL     1      12.980   2.649  -0.691  1.00  0.00    -0.452 OA
ATOM      5  C   UNL     1      11.883   1.015   1.225  1.00  0.00     0.239 A 
ATOM      6  C   UNL     1      11.806   2.987  -0.175  1.00  0.00     0.146 A 
ATOM      7  O   UNL     1      11.364   0.213   2.053  1.00  0.00    -0.285 OA
ATOM      8  C   UNL     1      11.208   2.192   0.831  1.00  0.00     0.111 A 
ATOM      9  C   UNL     1      11.157   4.125  -0.650  1.00  0.00     0.094 A 
ATOM     10  C   UNL     1       9.975   2.608   1.388  1.00  0.00     0.134 A 
ATOM     11  C   UNL     1       9.934   4.521  -0.109  1.00  0.00     0.123 A 
ATOM     12  C   UNL     1       9.353   3.773   0.916  1.00  0.00     0.093 A 
BRANCH   3  13
ATOM     13  C   UNL     1      14.919   1.293  -1.015  1.00  0.00     0.025 A 
ATOM     14  C   UNL     1      16.093   1.951  -0.628  1.00  0.00     0.016 A 
ATOM     15  C   UNL     1      17.307   1.650  -1.258  1.00  0.00     0.051 A 
ATOM     16  C   UNL     1      17.345   0.703  -2.296  1.00  0.00     0.157 A 
ATOM     17  C   UNL     1      14.957   0.333  -2.037  1.00  0.00     0.062 A 
ATOM     18  C   UNL     1      16.165   0.039  -2.687  1.00  0.00     0.158 A 
BRANCH  16  19
ATOM     19  O   UNL     1      18.544   0.429  -2.950  1.00  0.00    -0.504 OA
ATOM     20  H   UNL     1      19.093  -0.397  -2.730  1.00  0.00     0.293 HD
ENDBRANCH  16  19
BRANCH  18  21
ATOM     21  O   UNL     1      16.172  -0.902  -3.718  1.00  0.00    -0.504 OA
ATOM     22  H   UNL     1      15.409  -0.990  -4.376  1.00  0.00     0.293 HD
ENDBRANCH  18  21
ENDBRANCH   3  13
BRANCH  10  23
ATOM     23  O   UNL     1       9.367   1.871   2.405  1.00  0.00    -0.507 OA
ATOM     24  H   UNL     1       9.046   2.307   3.264  1.00  0.00     0.293 HD
ENDBRANCH  10  23
BRANCH  11  25
ATOM     25  O   UNL     1       9.311   5.667  -0.600  1.00  0.00    -0.508 OA
ATOM     26  H   UNL     1       9.762   6.569  -0.598  1.00  0.00     0.293 HD
ENDBRANCH  11  25
ENDBRANCH   1   2
BRANCH   1  27
ATOM     27  C   UNL     1      14.966  -0.381   1.993  1.00  0.00     0.265 C 
BRANCH  27  28
ATOM     28  C   UNL     1      14.765   0.657   3.128  1.00  0.00     0.190 C 
ATOM     29  C   UNL     1      16.095   1.348   3.582  1.00  0.00     0.178 C 
ATOM     30  O   UNL     1      14.000   0.144   4.215  1.00  0.00    -0.340 OA
ATOM     31  C   UNL     1      16.343   1.157   5.081  1.00  0.00     0.179 C 
ATOM     32  C   UNL     1      14.697  -0.792   5.031  1.00  0.00     0.279 C 
ATOM     33  C   UNL     1      16.126  -0.324   5.437  1.00  0.00     0.201 C 
BRANCH  29  34
ATOM     34  O   UNL     1      16.068   2.722   3.288  1.00  0.00    -0.387 OA
ATOM     35  H   UNL     1      17.008   3.003   3.144  1.00  0.00     0.211 HD
ENDBRANCH  29  34
BRANCH  31  36
ATOM     36  O   UNL     1      15.464   1.967   5.823  1.00  0.00    -0.387 OA
ATOM     37  H   UNL     1      14.863   2.414   5.171  1.00  0.00     0.211 HD
ENDBRANCH  31  36
BRANCH  32  38
ATOM     38  O   UNL     1      13.928  -0.991   6.188  1.00  0.00    -0.366 OA
ATOM     39  H   UNL     1      14.548  -1.004   6.962  1.00  0.00     0.213 HD
ENDBRANCH  32  38
BRANCH  33  40
ATOM     40  O   UNL     1      17.077  -1.125   4.778  1.00  0.00    -0.385 OA
ATOM     41  H   UNL     1      16.789  -1.213   3.832  1.00  0.00     0.211 HD
ENDBRANCH  33  40
ENDBRANCH  27  28
ENDBRANCH   1  27
TORSDOF 12
ENDMDL
MODEL 5
REMARK VINA RESULT:    -5.782      0.932      1.772
REMARK INTER + INTRA:          -9.976
REMARK INTER:                  -9.334
REMARK INTRA:                  -0.642
REMARK UNBOUND:                -1.489
REMARK SMILES O=c1c(OC[C@H]2O[C@H](O)[C@@H](O)[C@H](O)[C@@H]2O)c(-c2ccc(O)c(O)c2)oc2cc(O)cc(O)c12
REMARK SMILES IDX 4 1 3 2 16 3 25 4 2 5 26 6 1 7 33 8 27 9 31 10 28 11 30 12
REMARK SMILES IDX 17 13 18 14 19 15 20 16 24 17 22 18 21 19 23 21 32 23 29 25
REMARK SMILES IDX 5 27 6 28 14 29 7 30 12 31 8 32 10 33 15 34 13 36 9 38 11 40
REMARK H PARENT 21 20 23 22 32 24 29 26 15 35 13 37 9 39 11 41
REMARK Flexibility Score: inf
ROOT
ATOM      1  O   UNL     1      12.267   0.719   0.802  1.00  0.00    -0.483 OA
ENDROOT
BRANCH   1   2
ATOM      2  C   UNL     1      11.779   1.801   0.043  1.00  0.00     0.211 A 
ATOM      3  C   UNL     1      12.510   2.382  -1.018  1.00  0.00     0.180 A 
ATOM      4  O   UNL     1      12.012   3.420  -1.679  1.00  0.00    -0.452 OA
ATOM      5  C   UNL     1      10.514   2.322   0.344  1.00  0.00     0.239 A 
ATOM      6  C   UNL     1      10.834   3.964  -1.405  1.00  0.00     0.146 A 
ATOM      7  O   UNL     1       9.811   1.759   1.231  1.00  0.00    -0.285 OA
ATOM      8  C   UNL     1      10.033   3.450  -0.358  1.00  0.00     0.111 A 
ATOM      9  C   UNL     1      10.383   5.035  -2.174  1.00  0.00     0.094 A 
ATOM     10  C   UNL     1       8.801   4.084  -0.066  1.00  0.00     0.134 A 
ATOM     11  C   UNL     1       9.160   5.644  -1.893  1.00  0.00     0.123 A 
ATOM     12  C   UNL     1       8.380   5.179  -0.834  1.00  0.00     0.093 A 
BRANCH   3  13
ATOM     13  C   UNL     1      13.802   1.855  -1.468  1.00  0.00     0.025 A 
ATOM     14  C   UNL     1      13.854   0.684  -2.235  1.00  0.00     0.016 A 
ATOM     15  C   UNL     1      15.084   0.209  -2.707  1.00  0.00     0.051 A 
ATOM     16  C   UNL     1      16.271   0.893  -2.393  1.00  0.00     0.157 A 
ATOM     17  C   UNL     1      14.983   2.551  -1.170  1.00  0.00     0.062 A 
ATOM     18  C   UNL     1      16.221   2.071  -1.622  1.00  0.00     0.158 A 
BRANCH  16  19
ATOM     19  O   UNL     1      17.499   0.400  -2.829  1.00  0.00    -0.504 OA
ATOM     20  H   UNL     1      18.129  -0.088  -2.199  1.00  0.00     0.293 HD
ENDBRANCH  16  19
BRANCH  18  21
ATOM     21  O   UNL     1      17.384   2.769  -1.290  1.00  0.00    -0.504 OA
ATOM     22  H   UNL     1      18.237   2.685  -1.827  1.00  0.00     0.293 HD
ENDBRANCH  18  21
ENDBRANCH   3  13
BRANCH  10  23
ATOM     23  O   UNL     1       7.996   3.630   0.980  1.00  0.00    -0.507 OA
ATOM     24  H   UNL     1       8.286   3.707   1.950  1.00  0.00     0.293 HD
ENDBRANCH  10  23
BRANCH  11  25
ATOM     25  O   UNL     1       8.738   6.717  -2.675  1.00  0.00    -0.508 OA
ATOM     26  H   UNL     1       9.057   7.661  -2.514  1.00  0.00     0.293 HD
ENDBRANCH  11  25
ENDBRANCH   1   2
BRANCH   1  27
ATOM     27  C   UNL     1      12.086   0.590   2.214  1.00  0.00     0.265 C 
BRANCH  27  28
ATOM     28  C   UNL     1      13.223   1.310   2.987  1.00  0.00     0.190 C 
ATOM     29  C   UNL     1      14.169   2.147   2.062  1.00  0.00     0.178 C 
ATOM     30  O   UNL     1      13.926   0.440   3.869  1.00  0.00    -0.340 OA
ATOM     31  C   UNL     1      15.629   1.706   2.208  1.00  0.00     0.179 C 
ATOM     32  C   UNL     1      14.791  -0.483   3.216  1.00  0.00     0.279 C 
ATOM     33  C   UNL     1      15.695   0.171   2.129  1.00  0.00     0.201 C 
BRANCH  29  34
ATOM     34  O   UNL     1      14.069   3.518   2.355  1.00  0.00    -0.387 OA
ATOM     35  H   UNL     1      13.279   3.860   1.862  1.00  0.00     0.211 HD
ENDBRANCH  29  34
BRANCH  31  36
ATOM     36  O   UNL     1      16.148   2.152   3.437  1.00  0.00    -0.387 OA
ATOM     37  H   UNL     1      15.398   2.578   3.929  1.00  0.00     0.211 HD
ENDBRANCH  31  36
BRANCH  32  38
ATOM     38  O   UNL     1      15.600  -1.066   4.203  1.00  0.00    -0.366 OA
ATOM     39  H   UNL     1      15.819  -1.987   3.905  1.00  0.00     0.213 HD
ENDBRANCH  32  38
BRANCH  33  40
ATOM     40  O   UNL     1      15.278  -0.268   0.859  1.00  0.00    -0.385 OA
ATOM     41  H   UNL     1      14.950  -1.199   0.958  1.00  0.00     0.211 HD
ENDBRANCH  33  40
ENDBRANCH  27  28
ENDBRANCH   1  27
TORSDOF 12
ENDMDL
MODEL 6
REMARK VINA RESULT:    -5.670      1.357      2.256
REMARK INTER + INTRA:          -9.812
REMARK INTER:                  -8.424
REMARK INTRA:                  -1.388
REMARK UNBOUND:                -1.489
REMARK SMILES O=c1c(OC[C@H]2O[C@H](O)[C@@H](O)[C@H](O)[C@@H]2O)c(-c2ccc(O)c(O)c2)oc2cc(O)cc(O)c12
REMARK SMILES IDX 4 1 3 2 16 3 25 4 2 5 26 6 1 7 33 8 27 9 31 10 28 11 30 12
REMARK SMILES IDX 17 13 18 14 19 15 20 16 24 17 22 18 21 19 23 21 32 23 29 25
REMARK SMILES IDX 5 27 6 28 14 29 7 30 12 31 8 32 10 33 15 34 13 36 9 38 11 40
REMARK H PARENT 21 20 23 22 32 24 29 26 15 35 13 37 9 39 11 41
REMARK Flexibility Score: inf
ROOT
ATOM      1  O   UNL     1      13.499   2.563   1.415  1.00  0.00    -0.483 OA
ENDROOT
BRANCH   1   2
ATOM      2  C   UNL     1      12.697   3.224   0.464  1.00  0.00     0.211 A 
ATOM      3  C   UNL     1      12.893   3.088  -0.930  1.00  0.00     0.180 A 
ATOM      4  O   UNL     1      12.125   3.759  -1.779  1.00  0.00    -0.452 OA
ATOM      5  C   UNL     1      11.655   4.046   0.912  1.00  0.00     0.239 A 
ATOM      6  C   UNL     1      11.150   4.572  -1.396  1.00  0.00     0.146 A 
ATOM      7  O   UNL     1      11.409   4.110   2.150  1.00  0.00    -0.285 OA
ATOM      8  C   UNL     1      10.881   4.772  -0.021  1.00  0.00     0.111 A 
ATOM      9  C   UNL     1      10.377   5.211  -2.363  1.00  0.00     0.094 A 
ATOM     10  C   UNL     1       9.860   5.681   0.350  1.00  0.00     0.134 A 
ATOM     11  C   UNL     1       9.362   6.092  -1.991  1.00  0.00     0.123 A 
ATOM     12  C   UNL     1       9.115   6.337  -0.640  1.00  0.00     0.093 A 
BRANCH   3  13
ATOM     13  C   UNL     1      13.898   2.185  -1.499  1.00  0.00     0.025 A 
ATOM     14  C   UNL     1      13.502   0.986  -2.106  1.00  0.00     0.016 A 
ATOM     15  C   UNL     1      14.457   0.149  -2.695  1.00  0.00     0.051 A 
ATOM     16  C   UNL     1      15.818   0.498  -2.660  1.00  0.00     0.157 A 
ATOM     17  C   UNL     1      15.253   2.547  -1.481  1.00  0.00     0.062 A 
ATOM     18  C   UNL     1      16.220   1.704  -2.052  1.00  0.00     0.158 A 
BRANCH  16  19
ATOM     19  O   UNL     1      16.774  -0.351  -3.212  1.00  0.00    -0.504 OA
ATOM     20  H   UNL     1      17.418  -0.876  -2.627  1.00  0.00     0.293 HD
ENDBRANCH  16  19
BRANCH  18  21
ATOM     21  O   UNL     1      17.564   2.075  -1.997  1.00  0.00    -0.504 OA
ATOM     22  H   UNL     1      18.310   1.447  -2.263  1.00  0.00     0.293 HD
ENDBRANCH  18  21
ENDBRANCH   3  13
BRANCH  10  23
ATOM     23  O   UNL     1       9.585   5.932   1.695  1.00  0.00    -0.507 OA
ATOM     24  H   UNL     1       9.255   5.203   2.319  1.00  0.00     0.293 HD
ENDBRANCH  10  23
BRANCH  11  25
ATOM     25  O   UNL     1       8.610   6.722  -2.981  1.00  0.00    -0.508 OA
ATOM     26  H   UNL     1       8.063   6.206  -3.654  1.00  0.00     0.293 HD
ENDBRANCH  11  25
ENDBRANCH   1   2
BRANCH   1  27
ATOM     27  C   UNL     1      14.826   2.970   1.759  1.00  0.00     0.265 C 
BRANCH  27  28
ATOM     28  C   UNL     1      15.700   1.746   2.137  1.00  0.00     0.190 C 
ATOM     29  C   UNL     1      15.161   0.394   1.558  1.00  0.00     0.178 C 
ATOM     30  O   UNL     1      15.989   1.684   3.531  1.00  0.00    -0.340 OA
ATOM     31  C   UNL     1      14.910  -0.630   2.669  1.00  0.00     0.179 C 
ATOM     32  C   UNL     1      14.885   1.297   4.341  1.00  0.00     0.279 C 
ATOM     33  C   UNL     1      14.123   0.049   3.803  1.00  0.00     0.201 C 
BRANCH  29  34
ATOM     34  O   UNL     1      16.065  -0.146   0.627  1.00  0.00    -0.387 OA
ATOM     35  H   UNL     1      16.918   0.347   0.736  1.00  0.00     0.211 HD
ENDBRANCH  29  34
BRANCH  31  36
ATOM     36  O   UNL     1      16.133  -1.125   3.155  1.00  0.00    -0.387 OA
ATOM     37  H   UNL     1      16.828  -0.887   2.487  1.00  0.00     0.211 HD
ENDBRANCH  31  36
BRANCH  32  38
ATOM     38  O   UNL     1      15.384   1.019   5.622  1.00  0.00    -0.366 OA
ATOM     39  H   UNL     1      16.250   0.549   5.512  1.00  0.00     0.213 HD
ENDBRANCH  32  38
BRANCH  33  40
ATOM     40  O   UNL     1      12.854   0.447   3.343  1.00  0.00    -0.385 OA
ATOM     41  H   UNL     1      12.994   1.128   2.635  1.00  0.00     0.211 HD
ENDBRANCH  33  40
ENDBRANCH  27  28
ENDBRANCH   1  27
TORSDOF 12
ENDMDL
MODEL 7
REMARK VINA RESULT:    -5.643      2.060      6.277
REMARK INTER + INTRA:          -9.772
REMARK INTER:                  -9.005
REMARK INTRA:                  -0.767
REMARK UNBOUND:                -1.489
REMARK SMILES O=c1c(OC[C@H]2O[C@H](O)[C@@H](O)[C@H](O)[C@@H]2O)c(-c2ccc(O)c(O)c2)oc2cc(O)cc(O)c12
REMARK SMILES IDX 4 1 3 2 16 3 25 4 2 5 26 6 1 7 33 8 27 9 31 10 28 11 30 12
REMARK SMILES IDX 17 13 18 14 19 15 20 16 24 17 22 18 21 19 23 21 32 23 29 25
REMARK SMILES IDX 5 27 6 28 14 29 7 30 12 31 8 32 10 33 15 34 13 36 9 38 11 40
REMARK H PARENT 21 20 23 22 32 24 29 26 15 35 13 37 9 39 11 41
REMARK Flexibility Score: inf
ROOT
ATOM      1  O   UNL     1      13.084   3.104   0.774  1.00  0.00    -0.483 OA
ENDROOT
BRANCH   1   2
ATOM      2  C   UNL     1      12.005   2.463   1.415  1.00  0.00     0.211 A 
ATOM      3  C   UNL     1      10.688   2.977   1.391  1.00  0.00     0.180 A 
ATOM      4  O   UNL     1       9.716   2.345   2.038  1.00  0.00    -0.452 OA
ATOM      5  C   UNL     1      12.239   1.263   2.098  1.00  0.00     0.239 A 
ATOM      6  C   UNL     1       9.902   1.225   2.723  1.00  0.00     0.146 A 
ATOM      7  O   UNL     1      13.391   0.745   2.055  1.00  0.00    -0.285 OA
ATOM      8  C   UNL     1      11.187   0.639   2.805  1.00  0.00     0.111 A 
ATOM      9  C   UNL     1       8.813   0.620   3.346  1.00  0.00     0.094 A 
ATOM     10  C   UNL     1      11.356  -0.533   3.581  1.00  0.00     0.134 A 
ATOM     11  C   UNL     1       8.982  -0.544   4.096  1.00  0.00     0.123 A 
ATOM     12  C   UNL     1      10.251  -1.109   4.225  1.00  0.00     0.093 A 
BRANCH   3  13
ATOM     13  C   UNL     1      10.323   4.177   0.632  1.00  0.00     0.025 A 
ATOM     14  C   UNL     1      10.127   5.395   1.295  1.00  0.00     0.016 A 
ATOM     15  C   UNL     1       9.829   6.552   0.564  1.00  0.00     0.051 A 
ATOM     16  C   UNL     1       9.704   6.489  -0.834  1.00  0.00     0.157 A 
ATOM     17  C   UNL     1      10.219   4.115  -0.765  1.00  0.00     0.062 A 
ATOM     18  C   UNL     1       9.901   5.264  -1.504  1.00  0.00     0.158 A 
BRANCH  16  19
ATOM     19  O   UNL     1       9.369   7.630  -1.560  1.00  0.00    -0.504 OA
ATOM     20  H   UNL     1       8.927   7.568  -2.472  1.00  0.00     0.293 HD
ENDBRANCH  16  19
BRANCH  18  21
ATOM     21  O   UNL     1       9.778   5.170  -2.891  1.00  0.00    -0.504 OA
ATOM     22  H   UNL     1       9.735   4.281  -3.372  1.00  0.00     0.293 HD
ENDBRANCH  18  21
ENDBRANCH   3  13
BRANCH  10  23
ATOM     23  O   UNL     1      12.612  -1.124   3.714  1.00  0.00    -0.507 OA
ATOM     24  H   UNL     1      12.762  -1.934   4.309  1.00  0.00     0.293 HD
ENDBRANCH  10  23
BRANCH  11  25
ATOM     25  O   UNL     1       7.875  -1.124   4.713  1.00  0.00    -0.508 OA
ATOM     26  H   UNL     1       7.937  -1.592   5.605  1.00  0.00     0.293 HD
ENDBRANCH  11  25
ENDBRANCH   1   2
BRANCH   1  27
ATOM     27  C   UNL     1      13.648   2.667  -0.465  1.00  0.00     0.265 C 
BRANCH  27  28
ATOM     28  C   UNL     1      15.169   2.398  -0.317  1.00  0.00     0.190 C 
ATOM     29  C   UNL     1      16.001   2.828  -1.571  1.00  0.00     0.178 C 
ATOM     30  O   UNL     1      15.454   1.071   0.117  1.00  0.00    -0.340 OA
ATOM     31  C   UNL     1      16.805   1.655  -2.140  1.00  0.00     0.179 C 
ATOM     32  C   UNL     1      15.252   0.073  -0.877  1.00  0.00     0.279 C 
ATOM     33  C   UNL     1      15.883   0.429  -2.256  1.00  0.00     0.201 C 
BRANCH  29  34
ATOM     34  O   UNL     1      16.879   3.878  -1.251  1.00  0.00    -0.387 OA
ATOM     35  H   UNL     1      17.761   3.644  -1.640  1.00  0.00     0.211 HD
ENDBRANCH  29  34
BRANCH  31  36
ATOM     36  O   UNL     1      17.895   1.364  -1.299  1.00  0.00    -0.387 OA
ATOM     37  H   UNL     1      18.085   2.186  -0.777  1.00  0.00     0.211 HD
ENDBRANCH  31  36
BRANCH  32  38
ATOM     38  O   UNL     1      15.824  -1.115  -0.399  1.00  0.00    -0.366 OA
ATOM     39  H   UNL     1      15.234  -1.466   0.317  1.00  0.00     0.213 HD
ENDBRANCH  32  38
BRANCH  33  40
ATOM     40  O   UNL     1      14.853   0.684  -3.181  1.00  0.00    -0.385 OA
ATOM     41  H   UNL     1      14.122   1.146  -2.695  1.00  0.00     0.211 HD
ENDBRANCH  33  40
ENDBRANCH  27  28
ENDBRANCH   1  27
TORSDOF 12
ENDMDL
MODEL 8
REMARK VINA RESULT:    -5.497      1.733      2.936
REMARK INTER + INTRA:          -9.558
REMARK INTER:                  -8.771
REMARK INTRA:                  -0.787
REMARK UNBOUND:                -1.489
REMARK SMILES O=c1c(OC[C@H]2O[C@H](O)[C@@H](O)[C@H](O)[C@@H]2O)c(-c2ccc(O)c(O)c2)oc2cc(O)cc(O)c12
REMARK SMILES IDX 4 1 3 2 16 3 25 4 2 5 26 6 1 7 33 8 27 9 31 10 28 11 30 12
REMARK SMILES IDX 17 13 18 14 19 15 20 16 24 17 22 18 21 19 23 21 32 23 29 25
REMARK SMILES IDX 5 27 6 28 14 29 7 30 12 31 8 32 10 33 15 34 13 36 9 38 11 40
REMARK H PARENT 21 20 23 22 32 24 29 26 15 35 13 37 9 39 11 41
REMARK Flexibility Score: inf
ROOT
ATOM      1  O   UNL     1      12.574   3.058   1.549  1.00  0.00    -0.483 OA
ENDROOT
BRANCH   1   2
ATOM      2  C   UNL     1      11.891   3.730   0.516  1.00  0.00     0.211 A 
ATOM      3  C   UNL     1      12.194   3.539  -0.851  1.00  0.00     0.180 A 
ATOM      4  O   UNL     1      11.536   4.221  -1.780  1.00  0.00    -0.452 OA
ATOM      5  C   UNL     1      10.862   4.618   0.852  1.00  0.00     0.239 A 
ATOM      6  C   UNL     1      10.579   5.095  -1.503  1.00  0.00     0.146 A 
ATOM      7  O   UNL     1      10.519   4.734   2.063  1.00  0.00    -0.285 OA
ATOM      8  C   UNL     1      10.208   5.353  -0.162  1.00  0.00     0.111 A 
ATOM      9  C   UNL     1       9.925   5.743  -2.549  1.00  0.00     0.094 A 
ATOM     10  C   UNL     1       9.212   6.325   0.097  1.00  0.00     0.134 A 
ATOM     11  C   UNL     1       8.931   6.687  -2.289  1.00  0.00     0.123 A 
ATOM     12  C   UNL     1       8.588   6.987  -0.970  1.00  0.00     0.093 A 
BRANCH   3  13
ATOM     13  C   UNL     1      13.192   2.567  -1.309  1.00  0.00     0.025 A 
ATOM     14  C   UNL     1      12.785   1.318  -1.796  1.00  0.00     0.016 A 
ATOM     15  C   UNL     1      13.735   0.410  -2.280  1.00  0.00     0.051 A 
ATOM     16  C   UNL     1      15.101   0.742  -2.261  1.00  0.00     0.157 A 
ATOM     17  C   UNL     1      14.553   2.909  -1.307  1.00  0.00     0.062 A 
ATOM     18  C   UNL     1      15.513   1.998  -1.773  1.00  0.00     0.158 A 
BRANCH  16  19
ATOM     19  O   UNL     1      16.050  -0.174  -2.707  1.00  0.00    -0.504 OA
ATOM     20  H   UNL     1      16.981  -0.213  -2.302  1.00  0.00     0.293 HD
ENDBRANCH  16  19
BRANCH  18  21
ATOM     21  O   UNL     1      16.862   2.353  -1.736  1.00  0.00    -0.504 OA
ATOM     22  H   UNL     1      17.574   1.737  -1.365  1.00  0.00     0.293 HD
ENDBRANCH  18  21
ENDBRANCH   3  13
BRANCH  10  23
ATOM     23  O   UNL     1       8.841   6.633   1.406  1.00  0.00    -0.507 OA
ATOM     24  H   UNL     1       8.031   7.210   1.611  1.00  0.00     0.293 HD
ENDBRANCH  10  23
BRANCH  11  25
ATOM     25  O   UNL     1       8.299   7.323  -3.355  1.00  0.00    -0.508 OA
ATOM     26  H   UNL     1       7.700   8.125  -3.227  1.00  0.00     0.293 HD
ENDBRANCH  11  25
ENDBRANCH   1   2
BRANCH   1  27
ATOM     27  C   UNL     1      12.714   1.636   1.620  1.00  0.00     0.265 C 
BRANCH  27  28
ATOM     28  C   UNL     1      11.802   1.045   2.727  1.00  0.00     0.190 C 
ATOM     29  C   UNL     1      11.740  -0.520   2.711  1.00  0.00     0.178 C 
ATOM     30  O   UNL     1      10.516   1.657   2.767  1.00  0.00    -0.340 OA
ATOM     31  C   UNL     1      10.300  -1.022   2.569  1.00  0.00     0.179 C 
ATOM     32  C   UNL     1       9.657   1.287   1.694  1.00  0.00     0.279 C 
ATOM     33  C   UNL     1       9.612  -0.248   1.432  1.00  0.00     0.201 C 
BRANCH  29  34
ATOM     34  O   UNL     1      12.304  -1.054   3.882  1.00  0.00    -0.387 OA
ATOM     35  H   UNL     1      11.875  -1.936   4.030  1.00  0.00     0.211 HD
ENDBRANCH  29  34
BRANCH  31  36
ATOM     36  O   UNL     1       9.602  -0.833   3.776  1.00  0.00    -0.387 OA
ATOM     37  H   UNL     1       9.604  -1.704   4.251  1.00  0.00     0.211 HD
ENDBRANCH  31  36
BRANCH  32  38
ATOM     38  O   UNL     1       8.369   1.741   2.014  1.00  0.00    -0.366 OA
ATOM     39  H   UNL     1       8.057   1.226   2.802  1.00  0.00     0.213 HD
ENDBRANCH  32  38
BRANCH  33  40
ATOM     40  O   UNL     1      10.245  -0.524   0.205  1.00  0.00    -0.385 OA
ATOM     41  H   UNL     1       9.752  -0.033  -0.502  1.00  0.00     0.211 HD
ENDBRANCH  33  40
ENDBRANCH  27  28
ENDBRANCH   1  27
TORSDOF 12
ENDMDL
MODEL 9
REMARK VINA RESULT:    -5.481      1.949      6.100
REMARK INTER + INTRA:          -9.534
REMARK INTER:                  -9.365
REMARK INTRA:                  -0.169
REMARK UNBOUND:                -1.489
REMARK SMILES O=c1c(OC[C@H]2O[C@H](O)[C@@H](O)[C@H](O)[C@@H]2O)c(-c2ccc(O)c(O)c2)oc2cc(O)cc(O)c12
REMARK SMILES IDX 4 1 3 2 16 3 25 4 2 5 26 6 1 7 33 8 27 9 31 10 28 11 30 12
REMARK SMILES IDX 17 13 18 14 19 15 20 16 24 17 22 18 21 19 23 21 32 23 29 25
REMARK SMILES IDX 5 27 6 28 14 29 7 30 12 31 8 32 10 33 15 34 13 36 9 38 11 40
REMARK H PARENT 21 20 23 22 32 24 29 26 15 35 13 37 9 39 11 41
REMARK Flexibility Score: inf
ROOT
ATOM      1  O   UNL     1      12.944   3.419  -0.117  1.00  0.00    -0.483 OA
ENDROOT
BRANCH   1   2
ATOM      2  C   UNL     1      11.893   2.824   0.608  1.00  0.00     0.211 A 
ATOM      3  C   UNL     1      10.576   3.338   0.606  1.00  0.00     0.180 A 
ATOM      4  O   UNL     1       9.632   2.752   1.332  1.00  0.00    -0.452 OA
ATOM      5  C   UNL     1      12.156   1.670   1.356  1.00  0.00     0.239 A 
ATOM      6  C   UNL     1       9.848   1.678   2.080  1.00  0.00     0.146 A 
ATOM      7  O   UNL     1      13.306   1.147   1.299  1.00  0.00    -0.285 OA
ATOM      8  C   UNL     1      11.135   1.095   2.146  1.00  0.00     0.111 A 
ATOM      9  C   UNL     1       8.785   1.117   2.786  1.00  0.00     0.094 A 
ATOM     10  C   UNL     1      11.336  -0.024   2.989  1.00  0.00     0.134 A 
ATOM     11  C   UNL     1       8.986   0.003   3.602  1.00  0.00     0.123 A 
ATOM     12  C   UNL     1      10.260  -0.555   3.713  1.00  0.00     0.093 A 
BRANCH   3  13
ATOM     13  C   UNL     1      10.179   4.487  -0.213  1.00  0.00     0.025 A 
ATOM     14  C   UNL     1      10.181   4.388  -1.611  1.00  0.00     0.016 A 
ATOM     15  C   UNL     1       9.753   5.469  -2.391  1.00  0.00     0.051 A 
ATOM     16  C   UNL     1       9.342   6.663  -1.776  1.00  0.00     0.157 A 
ATOM     17  C   UNL     1       9.750   5.671   0.404  1.00  0.00     0.062 A 
ATOM     18  C   UNL     1       9.339   6.766  -0.370  1.00  0.00     0.158 A 
BRANCH  16  19
ATOM     19  O   UNL     1       8.953   7.753  -2.552  1.00  0.00    -0.504 OA
ATOM     20  H   UNL     1       8.407   8.514  -2.161  1.00  0.00     0.293 HD
ENDBRANCH  16  19
BRANCH  18  21
ATOM     21  O   UNL     1       8.941   7.941   0.268  1.00  0.00    -0.504 OA
ATOM     22  H   UNL     1       9.486   8.368   1.006  1.00  0.00     0.293 HD
ENDBRANCH  18  21
ENDBRANCH   3  13
BRANCH  10  23
ATOM     23  O   UNL     1      12.598  -0.609   3.107  1.00  0.00    -0.507 OA
ATOM     24  H   UNL     1      12.844  -1.194   3.900  1.00  0.00     0.293 HD
ENDBRANCH  10  23
BRANCH  11  25
ATOM     25  O   UNL     1       7.906  -0.534   4.300  1.00  0.00    -0.508 OA
ATOM     26  H   UNL     1       6.966  -0.524   3.931  1.00  0.00     0.293 HD
ENDBRANCH  11  25
ENDBRANCH   1   2
BRANCH   1  27
ATOM     27  C   UNL     1      14.289   2.933  -0.115  1.00  0.00     0.265 C 
BRANCH  27  28
ATOM     28  C   UNL     1      14.681   2.382  -1.511  1.00  0.00     0.190 C 
ATOM     29  C   UNL     1      13.806   1.166  -1.968  1.00  0.00     0.178 C 
ATOM     30  O   UNL     1      16.081   2.145  -1.637  1.00  0.00    -0.340 OA
ATOM     31  C   UNL     1      14.670  -0.059  -2.283  1.00  0.00     0.179 C 
ATOM     32  C   UNL     1      16.549   1.006  -0.923  1.00  0.00     0.279 C 
ATOM     33  C   UNL     1      15.676  -0.267  -1.138  1.00  0.00     0.201 C 
BRANCH  29  34
ATOM     34  O   UNL     1      13.043   1.498  -3.100  1.00  0.00    -0.387 OA
ATOM     35  H   UNL     1      13.682   1.633  -3.847  1.00  0.00     0.211 HD
ENDBRANCH  29  34
BRANCH  31  36
ATOM     36  O   UNL     1      15.352   0.131  -3.499  1.00  0.00    -0.387 OA
ATOM     37  H   UNL     1      14.862   0.835  -3.998  1.00  0.00     0.211 HD
ENDBRANCH  31  36
BRANCH  32  38
ATOM     38  O   UNL     1      17.858   0.749  -1.357  1.00  0.00    -0.366 OA
ATOM     39  H   UNL     1      18.170   1.547  -1.858  1.00  0.00     0.213 HD
ENDBRANCH  32  38
BRANCH  33  40
ATOM     40  O   UNL     1      14.995  -0.565   0.058  1.00  0.00    -0.385 OA
ATOM     41  H   UNL     1      14.795   0.296   0.510  1.00  0.00     0.211 HD
ENDBRANCH  33  40
ENDBRANCH  27  28
ENDBRANCH   1  27
TORSDOF 12
ENDMDL
