MODEL 1
REMARK VINA RESULT:    -3.578      0.000      0.000
REMARK INTER + INTRA:          -9.026
REMARK INTER:                  -7.761
REMARK INTRA:                  -1.265
REMARK UNBOUND:                -1.265
REMARK SMILES CCCCCCCCCCCCCCCCCCCCCC(=O)[O-]
REMARK SMILES IDX 12 1 11 2 10 3 9 4 8 5 7 6 6 7 5 8 4 9 3 10 2 11 1 12 13 13
REMARK SMILES IDX 14 14 15 15 16 16 17 17 18 18 19 19 20 20 21 21 22 22 23 23
REMARK SMILES IDX 24 24
REMARK H PARENT
REMARK Flexibility Score: inf
ROOT
ATOM      1  C   UNL     1       4.733   5.283  51.859  1.00  0.00     0.000 C 
ENDROOT
BRANCH   1   2
ATOM      2  C   UNL     1       4.098   5.840  50.574  1.00  0.00     0.000 C 
BRANCH   2   3
ATOM      3  C   UNL     1       2.734   5.200  50.255  1.00  0.00     0.000 C 
BRANCH   3   4
ATOM      4  C   UNL     1       2.454   3.857  50.962  1.00  0.00    -0.000 C 
BRANCH   4   5
ATOM      5  C   UNL     1       1.033   3.300  50.769  1.00  0.00    -0.000 C 
BRANCH   5   6
ATOM      6  C   UNL     1       0.151   4.202  49.894  1.00  0.00    -0.000 C 
BRANCH   6   7
ATOM      7  C   UNL     1      -1.264   4.311  50.474  1.00  0.00    -0.000 C 
BRANCH   7   8
ATOM      8  C   UNL     1      -1.861   2.922  50.741  1.00  0.00    -0.000 C 
BRANCH   8   9
ATOM      9  C   UNL     1      -3.108   2.645  49.877  1.00  0.00    -0.000 C 
BRANCH   9  10
ATOM     10  C   UNL     1      -4.248   3.663  50.079  1.00  0.00    -0.000 C 
BRANCH  10  11
ATOM     11  C   UNL     1      -5.265   3.266  51.165  1.00  0.00    -0.003 C 
ATOM     12  C   UNL     1      -6.116   4.447  51.635  1.00  0.00     0.004 C 
ENDBRANCH  10  11
ENDBRANCH   9  10
ENDBRANCH   8   9
ENDBRANCH   7   8
ENDBRANCH   6   7
ENDBRANCH   5   6
ENDBRANCH   4   5
ENDBRANCH   3   4
ENDBRANCH   2   3
ENDBRANCH   1   2
BRANCH   1  13
ATOM     13  C   UNL     1       6.187   4.819  51.653  1.00  0.00     0.000 C 
BRANCH  13  14
ATOM     14  C   UNL     1       6.507   3.402  52.175  1.00  0.00     0.000 C 
BRANCH  14  15
ATOM     15  C   UNL     1       6.702   2.331  51.087  1.00  0.00     0.000 C 
BRANCH  15  16
ATOM     16  C   UNL     1       8.165   2.195  50.640  1.00  0.00     0.000 C 
BRANCH  16  17
ATOM     17  C   UNL     1       9.092   3.030  51.538  1.00  0.00     0.000 C 
BRANCH  17  18
ATOM     18  C   UNL     1      10.443   2.345  51.797  1.00  0.00     0.000 C 
BRANCH  18  19
ATOM     19  C   UNL     1      11.617   3.074  51.122  1.00  0.00     0.000 C 
BRANCH  19  20
ATOM     20  C   UNL     1      11.156   4.264  50.264  1.00  0.00     0.006 C 
BRANCH  20  21
ATOM     21  C   UNL     1      11.707   5.604  50.768  1.00  0.00     0.053 C 
BRANCH  21  22
ATOM     22  C   UNL     1      10.671   6.326  51.570  1.00  0.00     0.041 C 
ATOM     23  O   UNL     1       9.663   6.824  51.003  1.00  0.00    -0.550 OA
ATOM     24  O   UNL     1      10.793   6.406  52.952  1.00  0.00    -0.550 OA
ENDBRANCH  21  22
ENDBRANCH  20  21
ENDBRANCH  19  20
ENDBRANCH  18  19
ENDBRANCH  17  18
ENDBRANCH  16  17
ENDBRANCH  15  16
ENDBRANCH  14  15
ENDBRANCH  13  14
ENDBRANCH   1  13
TORSDOF 20
ENDMDL
MODEL 2
REMARK VINA RESULT:    -3.310      2.126      2.769
REMARK INTER + INTRA:          -8.444
REMARK INTER:                  -7.074
REMARK INTRA:                  -1.370
REMARK UNBOUND:                -1.265
REMARK SMILES CCCCCCCCCCCCCCCCCCCCCC(=O)[O-]
REMARK SMILES IDX 12 1 11 2 10 3 9 4 8 5 7 6 6 7 5 8 4 9 3 10 2 11 1 12 13 13
REMARK SMILES IDX 14 14 15 15 16 16 17 17 18 18 19 19 20 20 21 21 22 22 23 23
REMARK SMILES IDX 24 24
REMARK H PARENT
REMARK Flexibility Score: inf
ROOT
ATOM      1  C   UNL     1       5.780   3.376  51.547  1.00  0.00     0.000 C 
ENDROOT
BRANCH   1   2
ATOM      2  C   UNL     1       4.429   3.384  50.812  1.00  0.00     0.000 C 
BRANCH   2   3
ATOM      3  C   UNL     1       3.541   4.579  51.206  1.00  0.00     0.000 C 
BRANCH   3   4
ATOM      4  C   UNL     1       2.192   4.670  50.465  1.00  0.00    -0.000 C 
BRANCH   4   5
ATOM      5  C   UNL     1       1.187   3.554  50.796  1.00  0.00    -0.000 C 
BRANCH   5   6
ATOM      6  C   UNL     1      -0.043   3.563  49.876  1.00  0.00    -0.000 C 
BRANCH   6   7
ATOM      7  C   UNL     1      -1.314   3.899  50.665  1.00  0.00    -0.000 C 
BRANCH   7   8
ATOM      8  C   UNL     1      -1.938   2.635  51.272  1.00  0.00    -0.000 C 
BRANCH   8   9
ATOM      9  C   UNL     1      -3.365   2.376  50.748  1.00  0.00    -0.000 C 
BRANCH   9  10
ATOM     10  C   UNL     1      -3.932   3.522  49.887  1.00  0.00    -0.000 C 
BRANCH  10  11
ATOM     11  C   UNL     1      -5.155   4.229  50.503  1.00  0.00    -0.003 C 
ATOM     12  C   UNL     1      -5.163   5.734  50.235  1.00  0.00     0.004 C 
ENDBRANCH  10  11
ENDBRANCH   9  10
ENDBRANCH   8   9
ENDBRANCH   7   8
ENDBRANCH   6   7
ENDBRANCH   5   6
ENDBRANCH   4   5
ENDBRANCH   3   4
ENDBRANCH   2   3
ENDBRANCH   1   2
BRANCH   1  13
ATOM     13  C   UNL     1       6.830   4.280  50.876  1.00  0.00     0.000 C 
BRANCH  13  14
ATOM     14  C   UNL     1       7.830   3.554  49.951  1.00  0.00     0.000 C 
BRANCH  14  15
ATOM     15  C   UNL     1       8.802   2.595  50.660  1.00  0.00     0.000 C 
BRANCH  15  16
ATOM     16  C   UNL     1      10.275   2.972  50.445  1.00  0.00     0.000 C 
BRANCH  16  17
ATOM     17  C   UNL     1      10.936   3.380  51.771  1.00  0.00     0.000 C 
BRANCH  17  18
ATOM     18  C   UNL     1      11.239   4.885  51.847  1.00  0.00     0.000 C 
BRANCH  18  19
ATOM     19  C   UNL     1      10.046   5.704  52.366  1.00  0.00     0.000 C 
BRANCH  19  20
ATOM     20  C   UNL     1       9.116   4.882  53.272  1.00  0.00     0.006 C 
BRANCH  20  21
ATOM     21  C   UNL     1       9.121   5.373  54.725  1.00  0.00     0.053 C 
BRANCH  21  22
ATOM     22  C   UNL     1       7.879   4.930  55.430  1.00  0.00     0.041 C 
ATOM     23  O   UNL     1       7.825   4.941  56.688  1.00  0.00    -0.550 OA
ATOM     24  O   UNL     1       6.762   4.550  54.696  1.00  0.00    -0.550 OA
ENDBRANCH  21  22
ENDBRANCH  20  21
ENDBRANCH  19  20
ENDBRANCH  18  19
ENDBRANCH  17  18
ENDBRANCH  16  17
ENDBRANCH  15  16
ENDBRANCH  14  15
ENDBRANCH  13  14
ENDBRANCH   1  13
TORSDOF 20
ENDMDL
MODEL 3
REMARK VINA RESULT:    -3.304      1.714      2.860
REMARK INTER + INTRA:          -8.433
REMARK INTER:                  -7.109
REMARK INTRA:                  -1.323
REMARK UNBOUND:                -1.265
REMARK SMILES CCCCCCCCCCCCCCCCCCCCCC(=O)[O-]
REMARK SMILES IDX 12 1 11 2 10 3 9 4 8 5 7 6 6 7 5 8 4 9 3 10 2 11 1 12 13 13
REMARK SMILES IDX 14 14 15 15 16 16 17 17 18 18 19 19 20 20 21 21 22 22 23 23
REMARK SMILES IDX 24 24
REMARK H PARENT
REMARK Flexibility Score: inf
ROOT
ATOM      1  C   UNL     1       5.686   3.510  52.137  1.00  0.00     0.000 C 
ENDROOT
BRANCH   1   2
ATOM      2  C   UNL     1       4.997   4.198  50.947  1.00  0.00     0.000 C 
BRANCH   2   3
ATOM      3  C   UNL     1       4.021   5.308  51.381  1.00  0.00     0.000 C 
BRANCH   3   4
ATOM      4  C   UNL     1       3.521   6.227  50.248  1.00  0.00    -0.000 C 
BRANCH   4   5
ATOM      5  C   UNL     1       2.039   6.058  49.875  1.00  0.00    -0.000 C 
BRANCH   5   6
ATOM      6  C   UNL     1       1.585   4.591  49.875  1.00  0.00    -0.000 C 
BRANCH   6   7
ATOM      7  C   UNL     1       0.325   4.408  50.728  1.00  0.00    -0.000 C 
BRANCH   7   8
ATOM      8  C   UNL     1      -0.354   3.063  50.431  1.00  0.00    -0.000 C 
BRANCH   8   9
ATOM      9  C   UNL     1      -1.787   3.237  49.891  1.00  0.00    -0.000 C 
BRANCH   9  10
ATOM     10  C   UNL     1      -2.886   3.053  50.957  1.00  0.00    -0.000 C 
BRANCH  10  11
ATOM     11  C   UNL     1      -4.318   3.027  50.391  1.00  0.00    -0.003 C 
ATOM     12  C   UNL     1      -4.958   4.414  50.343  1.00  0.00     0.004 C 
ENDBRANCH  10  11
ENDBRANCH   9  10
ENDBRANCH   8   9
ENDBRANCH   7   8
ENDBRANCH   6   7
ENDBRANCH   5   6
ENDBRANCH   4   5
ENDBRANCH   3   4
ENDBRANCH   2   3
ENDBRANCH   1   2
BRANCH   1  13
ATOM     13  C   UNL     1       7.050   2.899  51.765  1.00  0.00     0.000 C 
BRANCH  13  14
ATOM     14  C   UNL     1       8.235   3.348  52.645  1.00  0.00     0.000 C 
BRANCH  14  15
ATOM     15  C   UNL     1       8.452   4.869  52.727  1.00  0.00     0.000 C 
BRANCH  15  16
ATOM     16  C   UNL     1       9.830   5.246  53.290  1.00  0.00     0.000 C 
BRANCH  16  17
ATOM     17  C   UNL     1      10.283   6.616  52.760  1.00  0.00     0.000 C 
BRANCH  17  18
ATOM     18  C   UNL     1      10.462   6.634  51.234  1.00  0.00     0.000 C 
BRANCH  18  19
ATOM     19  C   UNL     1      11.931   6.484  50.807  1.00  0.00     0.000 C 
BRANCH  19  20
ATOM     20  C   UNL     1      12.362   5.014  50.684  1.00  0.00     0.006 C 
BRANCH  20  21
ATOM     21  C   UNL     1      11.366   4.171  49.877  1.00  0.00     0.053 C 
BRANCH  21  22
ATOM     22  C   UNL     1      11.027   2.915  50.614  1.00  0.00     0.041 C 
ATOM     23  O   UNL     1      11.665   2.597  51.652  1.00  0.00    -0.550 OA
ATOM     24  O   UNL     1       9.974   2.118  50.182  1.00  0.00    -0.550 OA
ENDBRANCH  21  22
ENDBRANCH  20  21
ENDBRANCH  19  20
ENDBRANCH  18  19
ENDBRANCH  17  18
ENDBRANCH  16  17
ENDBRANCH  15  16
ENDBRANCH  14  15
ENDBRANCH  13  14
ENDBRANCH   1  13
TORSDOF 20
ENDMDL
MODEL 4
REMARK VINA RESULT:    -2.981      3.717     10.260
REMARK INTER + INTRA:          -7.732
REMARK INTER:                  -6.499
REMARK INTRA:                  -1.232
REMARK UNBOUND:                -1.265
REMARK SMILES CCCCCCCCCCCCCCCCCCCCCC(=O)[O-]
REMARK SMILES IDX 12 1 11 2 10 3 9 4 8 5 7 6 6 7 5 8 4 9 3 10 2 11 1 12 13 13
REMARK SMILES IDX 14 14 15 15 16 16 17 17 18 18 19 19 20 20 21 21 22 22 23 23
REMARK SMILES IDX 24 24
REMARK H PARENT
REMARK Flexibility Score: inf
ROOT
ATOM      1  C   UNL     1       6.547   4.677  53.829  1.00  0.00     0.000 C 
ENDROOT
BRANCH   1   2
ATOM      2  C   UNL     1       6.520   4.385  55.339  1.00  0.00     0.000 C 
BRANCH   2   3
ATOM      3  C   UNL     1       7.822   4.796  56.051  1.00  0.00     0.000 C 
BRANCH   3   4
ATOM      4  C   UNL     1       8.631   5.910  55.355  1.00  0.00    -0.000 C 
BRANCH   4   5
ATOM      5  C   UNL     1       9.801   5.422  54.485  1.00  0.00    -0.000 C 
BRANCH   5   6
ATOM      6  C   UNL     1      10.085   6.347  53.292  1.00  0.00    -0.000 C 
BRANCH   6   7
ATOM      7  C   UNL     1      10.156   5.548  51.986  1.00  0.00    -0.000 C 
BRANCH   7   8
ATOM      8  C   UNL     1      11.603   5.154  51.655  1.00  0.00    -0.000 C 
BRANCH   8   9
ATOM      9  C   UNL     1      11.804   3.626  51.641  1.00  0.00    -0.000 C 
BRANCH   9  10
ATOM     10  C   UNL     1      10.546   2.824  52.030  1.00  0.00    -0.000 C 
BRANCH  10  11
ATOM     11  C   UNL     1      10.034   1.877  50.927  1.00  0.00    -0.003 C 
ATOM     12  C   UNL     1       9.181   2.597  49.882  1.00  0.00     0.004 C 
ENDBRANCH  10  11
ENDBRANCH   9  10
ENDBRANCH   8   9
ENDBRANCH   7   8
ENDBRANCH   6   7
ENDBRANCH   5   6
ENDBRANCH   4   5
ENDBRANCH   3   4
ENDBRANCH   2   3
ENDBRANCH   1   2
BRANCH   1  13
ATOM     13  C   UNL     1       6.322   3.416  52.973  1.00  0.00     0.000 C 
BRANCH  13  14
ATOM     14  C   UNL     1       6.488   3.615  51.452  1.00  0.00     0.000 C 
BRANCH  14  15
ATOM     15  C   UNL     1       6.780   5.059  51.007  1.00  0.00     0.000 C 
BRANCH  15  16
ATOM     16  C   UNL     1       5.599   5.705  50.267  1.00  0.00     0.000 C 
BRANCH  16  17
ATOM     17  C   UNL     1       4.350   4.813  50.344  1.00  0.00     0.000 C 
BRANCH  17  18
ATOM     18  C   UNL     1       3.041   5.618  50.311  1.00  0.00     0.000 C 
BRANCH  18  19
ATOM     19  C   UNL     1       1.830   4.764  49.902  1.00  0.00     0.000 C 
BRANCH  19  20
ATOM     20  C   UNL     1       0.514   5.558  49.926  1.00  0.00     0.006 C 
BRANCH  20  21
ATOM     21  C   UNL     1      -0.589   4.852  50.727  1.00  0.00     0.053 C 
BRANCH  21  22
ATOM     22  C   UNL     1      -0.564   3.380  50.462  1.00  0.00     0.041 C 
ATOM     23  O   UNL     1       0.431   2.690  50.807  1.00  0.00    -0.550 OA
ATOM     24  O   UNL     1      -1.662   2.761  49.877  1.00  0.00    -0.550 OA
ENDBRANCH  21  22
ENDBRANCH  20  21
ENDBRANCH  19  20
ENDBRANCH  18  19
ENDBRANCH  17  18
ENDBRANCH  16  17
ENDBRANCH  15  16
ENDBRANCH  14  15
ENDBRANCH  13  14
ENDBRANCH   1  13
TORSDOF 20
ENDMDL
MODEL 5
REMARK VINA RESULT:    -2.752      1.242      2.027
REMARK INTER + INTRA:          -7.233
REMARK INTER:                  -6.203
REMARK INTRA:                  -1.030
REMARK UNBOUND:                -1.265
REMARK SMILES CCCCCCCCCCCCCCCCCCCCCC(=O)[O-]
REMARK SMILES IDX 12 1 11 2 10 3 9 4 8 5 7 6 6 7 5 8 4 9 3 10 2 11 1 12 13 13
REMARK SMILES IDX 14 14 15 15 16 16 17 17 18 18 19 19 20 20 21 21 22 22 23 23
REMARK SMILES IDX 24 24
REMARK H PARENT
REMARK Flexibility Score: inf
ROOT
ATOM      1  C   UNL     1       5.652   4.535  52.891  1.00  0.00     0.000 C 
ENDROOT
BRANCH   1   2
ATOM      2  C   UNL     1       4.764   4.200  51.681  1.00  0.00     0.000 C 
BRANCH   2   3
ATOM      3  C   UNL     1       4.501   5.419  50.777  1.00  0.00     0.000 C 
BRANCH   3   4
ATOM      4  C   UNL     1       3.014   5.760  50.545  1.00  0.00    -0.000 C 
BRANCH   4   5
ATOM      5  C   UNL     1       2.119   4.565  50.176  1.00  0.00    -0.000 C 
BRANCH   5   6
ATOM      6  C   UNL     1       1.777   3.678  51.382  1.00  0.00    -0.000 C 
BRANCH   6   7
ATOM      7  C   UNL     1       0.505   2.864  51.119  1.00  0.00    -0.000 C 
BRANCH   7   8
ATOM      8  C   UNL     1      -0.233   3.379  49.875  1.00  0.00    -0.000 C 
BRANCH   8   9
ATOM      9  C   UNL     1      -1.720   3.676  50.158  1.00  0.00    -0.000 C 
BRANCH   9  10
ATOM     10  C   UNL     1      -2.340   2.782  51.252  1.00  0.00    -0.000 C 
BRANCH  10  11
ATOM     11  C   UNL     1      -3.875   2.677  51.186  1.00  0.00    -0.003 C 
ATOM     12  C   UNL     1      -4.516   3.860  50.459  1.00  0.00     0.004 C 
ENDBRANCH  10  11
ENDBRANCH   9  10
ENDBRANCH   8   9
ENDBRANCH   7   8
ENDBRANCH   6   7
ENDBRANCH   5   6
ENDBRANCH   4   5
ENDBRANCH   3   4
ENDBRANCH   2   3
ENDBRANCH   1   2
BRANCH   1  13
ATOM     13  C   UNL     1       7.020   3.829  52.841  1.00  0.00     0.000 C 
BRANCH  13  14
ATOM     14  C   UNL     1       7.157   2.734  51.762  1.00  0.00     0.000 C 
BRANCH  14  15
ATOM     15  C   UNL     1       8.554   2.609  51.129  1.00  0.00     0.000 C 
BRANCH  15  16
ATOM     16  C   UNL     1       9.651   2.308  52.160  1.00  0.00     0.000 C 
BRANCH  16  17
ATOM     17  C   UNL     1      11.048   2.495  51.545  1.00  0.00     0.000 C 
BRANCH  17  18
ATOM     18  C   UNL     1      11.143   3.744  50.655  1.00  0.00     0.000 C 
BRANCH  18  19
ATOM     19  C   UNL     1      11.991   4.860  51.288  1.00  0.00     0.000 C 
BRANCH  19  20
ATOM     20  C   UNL     1      11.307   6.234  51.214  1.00  0.00     0.006 C 
BRANCH  20  21
ATOM     21  C   UNL     1      10.530   6.439  49.907  1.00  0.00     0.053 C 
BRANCH  21  22
ATOM     22  C   UNL     1       9.125   6.860  50.195  1.00  0.00     0.041 C 
ATOM     23  O   UNL     1       8.770   8.054  50.011  1.00  0.00    -0.550 OA
ATOM     24  O   UNL     1       8.192   5.922  50.620  1.00  0.00    -0.550 OA
ENDBRANCH  21  22
ENDBRANCH  20  21
ENDBRANCH  19  20
ENDBRANCH  18  19
ENDBRANCH  17  18
ENDBRANCH  16  17
ENDBRANCH  15  16
ENDBRANCH  14  15
ENDBRANCH  13  14
ENDBRANCH   1  13
TORSDOF 20
ENDMDL
MODEL 6
REMARK VINA RESULT:    -2.674      1.935      2.653
REMARK INTER + INTRA:          -7.066
REMARK INTER:                  -6.822
REMARK INTRA:                  -0.244
REMARK UNBOUND:                -1.265
REMARK SMILES CCCCCCCCCCCCCCCCCCCCCC(=O)[O-]
REMARK SMILES IDX 12 1 11 2 10 3 9 4 8 5 7 6 6 7 5 8 4 9 3 10 2 11 1 12 13 13
REMARK SMILES IDX 14 14 15 15 16 16 17 17 18 18 19 19 20 20 21 21 22 22 23 23
REMARK SMILES IDX 24 24
REMARK H PARENT
REMARK Flexibility Score: inf
ROOT
ATOM      1  C   UNL     1       5.818   4.502  52.504  1.00  0.00     0.000 C 
ENDROOT
BRANCH   1   2
ATOM      2  C   UNL     1       4.683   4.117  51.541  1.00  0.00     0.000 C 
BRANCH   2   3
ATOM      3  C   UNL     1       4.364   5.223  50.519  1.00  0.00     0.000 C 
BRANCH   3   4
ATOM      4  C   UNL     1       2.925   5.776  50.571  1.00  0.00    -0.000 C 
BRANCH   4   5
ATOM      5  C   UNL     1       1.850   4.859  49.964  1.00  0.00    -0.000 C 
BRANCH   5   6
ATOM      6  C   UNL     1       1.523   3.651  50.854  1.00  0.00    -0.000 C 
BRANCH   6   7
ATOM      7  C   UNL     1       0.074   3.194  50.645  1.00  0.00    -0.000 C 
BRANCH   7   8
ATOM      8  C   UNL     1      -0.734   4.252  49.880  1.00  0.00    -0.000 C 
BRANCH   8   9
ATOM      9  C   UNL     1      -1.206   5.401  50.794  1.00  0.00    -0.000 C 
BRANCH   9  10
ATOM     10  C   UNL     1      -1.210   6.783  50.110  1.00  0.00    -0.000 C 
BRANCH  10  11
ATOM     11  C   UNL     1      -2.540   7.549  50.243  1.00  0.00    -0.003 C 
ATOM     12  C   UNL     1      -2.385   9.049  49.986  1.00  0.00     0.004 C 
ENDBRANCH  10  11
ENDBRANCH   9  10
ENDBRANCH   8   9
ENDBRANCH   7   8
ENDBRANCH   6   7
ENDBRANCH   5   6
ENDBRANCH   4   5
ENDBRANCH   3   4
ENDBRANCH   2   3
ENDBRANCH   1   2
BRANCH   1  13
ATOM     13  C   UNL     1       7.171   3.879  52.112  1.00  0.00     0.000 C 
BRANCH  13  14
ATOM     14  C   UNL     1       7.086   2.655  51.176  1.00  0.00     0.000 C 
BRANCH  14  15
ATOM     15  C   UNL     1       8.324   2.415  50.295  1.00  0.00     0.000 C 
BRANCH  15  16
ATOM     16  C   UNL     1       9.634   2.412  51.096  1.00  0.00     0.000 C 
BRANCH  16  17
ATOM     17  C   UNL     1      10.795   2.960  50.251  1.00  0.00     0.000 C 
BRANCH  17  18
ATOM     18  C   UNL     1      10.613   4.439  49.876  1.00  0.00     0.000 C 
BRANCH  18  19
ATOM     19  C   UNL     1      11.930   5.231  49.929  1.00  0.00     0.000 C 
BRANCH  19  20
ATOM     20  C   UNL     1      11.888   6.377  50.953  1.00  0.00     0.006 C 
BRANCH  20  21
ATOM     21  C   UNL     1      10.473   6.642  51.486  1.00  0.00     0.053 C 
BRANCH  21  22
ATOM     22  C   UNL     1      10.270   5.948  52.795  1.00  0.00     0.041 C 
ATOM     23  O   UNL     1       9.177   5.378  53.048  1.00  0.00    -0.550 OA
ATOM     24  O   UNL     1      11.307   5.889  53.719  1.00  0.00    -0.550 OA
ENDBRANCH  21  22
ENDBRANCH  20  21
ENDBRANCH  19  20
ENDBRANCH  18  19
ENDBRANCH  17  18
ENDBRANCH  16  17
ENDBRANCH  15  16
ENDBRANCH  14  15
ENDBRANCH  13  14
ENDBRANCH   1  13
TORSDOF 20
ENDMDL
MODEL 7
REMARK VINA RESULT:    -2.645      1.786      3.340
REMARK INTER + INTRA:          -7.002
REMARK INTER:                  -6.582
REMARK INTRA:                  -0.420
REMARK UNBOUND:                -1.265
REMARK SMILES CCCCCCCCCCCCCCCCCCCCCC(=O)[O-]
REMARK SMILES IDX 12 1 11 2 10 3 9 4 8 5 7 6 6 7 5 8 4 9 3 10 2 11 1 12 13 13
REMARK SMILES IDX 14 14 15 15 16 16 17 17 18 18 19 19 20 20 21 21 22 22 23 23
REMARK SMILES IDX 24 24
REMARK H PARENT
REMARK Flexibility Score: inf
ROOT
ATOM      1  C   UNL     1       8.262   5.153  54.062  1.00  0.00     0.000 C 
ENDROOT
BRANCH   1   2
ATOM      2  C   UNL     1       7.188   4.071  53.864  1.00  0.00     0.000 C 
BRANCH   2   3
ATOM      3  C   UNL     1       5.794   4.658  53.575  1.00  0.00     0.000 C 
BRANCH   3   4
ATOM      4  C   UNL     1       5.244   4.386  52.160  1.00  0.00    -0.000 C 
BRANCH   4   5
ATOM      5  C   UNL     1       4.772   5.632  51.391  1.00  0.00    -0.000 C 
BRANCH   5   6
ATOM      6  C   UNL     1       3.613   5.337  50.428  1.00  0.00    -0.000 C 
BRANCH   6   7
ATOM      7  C   UNL     1       3.006   3.958  50.708  1.00  0.00    -0.000 C 
BRANCH   7   8
ATOM      8  C   UNL     1       1.597   3.841  50.108  1.00  0.00    -0.000 C 
BRANCH   8   9
ATOM      9  C   UNL     1       0.676   2.935  50.950  1.00  0.00    -0.000 C 
BRANCH   9  10
ATOM     10  C   UNL     1      -0.269   2.051  50.112  1.00  0.00    -0.000 C 
BRANCH  10  11
ATOM     11  C   UNL     1      -1.663   2.664  49.875  1.00  0.00    -0.003 C 
ATOM     12  C   UNL     1      -2.653   2.322  50.989  1.00  0.00     0.004 C 
ENDBRANCH  10  11
ENDBRANCH   9  10
ENDBRANCH   8   9
ENDBRANCH   7   8
ENDBRANCH   6   7
ENDBRANCH   5   6
ENDBRANCH   4   5
ENDBRANCH   3   4
ENDBRANCH   2   3
ENDBRANCH   1   2
BRANCH   1  13
ATOM     13  C   UNL     1       9.219   5.272  52.861  1.00  0.00     0.000 C 
BRANCH  13  14
ATOM     14  C   UNL     1       8.536   5.357  51.480  1.00  0.00     0.000 C 
BRANCH  14  15
ATOM     15  C   UNL     1       8.248   4.004  50.806  1.00  0.00     0.000 C 
BRANCH  15  16
ATOM     16  C   UNL     1       9.391   3.537  49.893  1.00  0.00     0.000 C 
BRANCH  16  17
ATOM     17  C   UNL     1      10.056   2.269  50.452  1.00  0.00     0.000 C 
BRANCH  17  18
ATOM     18  C   UNL     1      10.663   2.481  51.849  1.00  0.00     0.000 C 
BRANCH  18  19
ATOM     19  C   UNL     1      11.925   3.358  51.820  1.00  0.00     0.000 C 
BRANCH  19  20
ATOM     20  C   UNL     1      11.953   4.311  50.614  1.00  0.00     0.006 C 
BRANCH  20  21
ATOM     21  C   UNL     1      13.103   5.324  50.687  1.00  0.00     0.053 C 
BRANCH  21  22
ATOM     22  C   UNL     1      12.637   6.676  50.248  1.00  0.00     0.041 C 
ATOM     23  O   UNL     1      13.455   7.627  50.148  1.00  0.00    -0.550 OA
ATOM     24  O   UNL     1      11.305   6.873  49.904  1.00  0.00    -0.550 OA
ENDBRANCH  21  22
ENDBRANCH  20  21
ENDBRANCH  19  20
ENDBRANCH  18  19
ENDBRANCH  17  18
ENDBRANCH  16  17
ENDBRANCH  15  16
ENDBRANCH  14  15
ENDBRANCH  13  14
ENDBRANCH   1  13
TORSDOF 20
ENDMDL
MODEL 8
REMARK VINA RESULT:    -2.590      4.483     12.072
REMARK INTER + INTRA:          -6.882
REMARK INTER:                  -7.156
REMARK INTRA:                   0.274
REMARK UNBOUND:                -1.265
REMARK SMILES CCCCCCCCCCCCCCCCCCCCCC(=O)[O-]
REMARK SMILES IDX 12 1 11 2 10 3 9 4 8 5 7 6 6 7 5 8 4 9 3 10 2 11 1 12 13 13
REMARK SMILES IDX 14 14 15 15 16 16 17 17 18 18 19 19 20 20 21 21 22 22 23 23
REMARK SMILES IDX 24 24
REMARK H PARENT
REMARK Flexibility Score: inf
ROOT
ATOM      1  C   UNL     1       3.030   5.072  50.364  1.00  0.00     0.000 C 
ENDROOT
BRANCH   1   2
ATOM      2  C   UNL     1       4.511   5.074  49.948  1.00  0.00     0.000 C 
BRANCH   2   3
ATOM      3  C   UNL     1       5.470   5.053  51.153  1.00  0.00     0.000 C 
BRANCH   3   4
ATOM      4  C   UNL     1       5.681   3.671  51.805  1.00  0.00    -0.000 C 
BRANCH   4   5
ATOM      5  C   UNL     1       7.146   3.221  51.926  1.00  0.00    -0.000 C 
BRANCH   5   6
ATOM      6  C   UNL     1       8.128   4.399  52.012  1.00  0.00    -0.000 C 
BRANCH   6   7
ATOM      7  C   UNL     1       8.537   4.873  50.613  1.00  0.00    -0.000 C 
BRANCH   7   8
ATOM      8  C   UNL     1       9.737   5.829  50.682  1.00  0.00    -0.000 C 
BRANCH   8   9
ATOM      9  C   UNL     1      10.744   5.426  51.778  1.00  0.00    -0.000 C 
BRANCH   9  10
ATOM     10  C   UNL     1      12.072   4.864  51.232  1.00  0.00    -0.000 C 
BRANCH  10  11
ATOM     11  C   UNL     1      12.658   5.662  50.051  1.00  0.00    -0.003 C 
ATOM     12  C   UNL     1      14.096   6.115  50.302  1.00  0.00     0.004 C 
ENDBRANCH  10  11
ENDBRANCH   9  10
ENDBRANCH   8   9
ENDBRANCH   7   8
ENDBRANCH   6   7
ENDBRANCH   5   6
ENDBRANCH   4   5
ENDBRANCH   3   4
ENDBRANCH   2   3
ENDBRANCH   1   2
BRANCH   1  13
ATOM     13  C   UNL     1       2.594   3.746  51.015  1.00  0.00     0.000 C 
BRANCH  13  14
ATOM     14  C   UNL     1       1.455   2.999  50.290  1.00  0.00     0.000 C 
BRANCH  14  15
ATOM     15  C   UNL     1       0.192   3.835  50.017  1.00  0.00     0.000 C 
BRANCH  15  16
ATOM     16  C   UNL     1       0.292   5.264  50.571  1.00  0.00     0.000 C 
BRANCH  16  17
ATOM     17  C   UNL     1      -0.830   6.150  50.005  1.00  0.00     0.000 C 
BRANCH  17  18
ATOM     18  C   UNL     1      -2.159   5.980  50.758  1.00  0.00     0.000 C 
BRANCH  18  19
ATOM     19  C   UNL     1      -3.382   6.281  49.877  1.00  0.00     0.000 C 
BRANCH  19  20
ATOM     20  C   UNL     1      -4.631   5.500  50.315  1.00  0.00     0.006 C 
BRANCH  20  21
ATOM     21  C   UNL     1      -4.584   4.025  49.896  1.00  0.00     0.053 C 
BRANCH  21  22
ATOM     22  C   UNL     1      -4.510   3.142  51.100  1.00  0.00     0.041 C 
ATOM     23  O   UNL     1      -3.522   2.380  51.268  1.00  0.00    -0.550 OA
ATOM     24  O   UNL     1      -5.509   3.196  52.064  1.00  0.00    -0.550 OA
ENDBRANCH  21  22
ENDBRANCH  20  21
ENDBRANCH  19  20
ENDBRANCH  18  19
ENDBRANCH  17  18
ENDBRANCH  16  17
ENDBRANCH  15  16
ENDBRANCH  14  15
ENDBRANCH  13  14
ENDBRANCH   1  13
TORSDOF 20
ENDMDL
MODEL 9
REMARK VINA RESULT:    -2.571      4.749     11.684
REMARK INTER + INTRA:          -6.842
REMARK INTER:                  -6.528
REMARK INTRA:                  -0.314
REMARK UNBOUND:                -1.265
REMARK SMILES CCCCCCCCCCCCCCCCCCCCCC(=O)[O-]
REMARK SMILES IDX 12 1 11 2 10 3 9 4 8 5 7 6 6 7 5 8 4 9 3 10 2 11 1 12 13 13
REMARK SMILES IDX 14 14 15 15 16 16 17 17 18 18 19 19 20 20 21 21 22 22 23 23
REMARK SMILES IDX 24 24
REMARK H PARENT
REMARK Flexibility Score: inf
ROOT
ATOM      1  C   UNL     1       5.662   5.577  50.121  1.00  0.00     0.000 C 
ENDROOT
BRANCH   1   2
ATOM      2  C   UNL     1       6.862   5.340  51.053  1.00  0.00     0.000 C 
BRANCH   2   3
ATOM      3  C   UNL     1       6.896   3.915  51.635  1.00  0.00     0.000 C 
BRANCH   3   4
ATOM      4  C   UNL     1       6.857   3.829  53.174  1.00  0.00    -0.000 C 
BRANCH   4   5
ATOM      5  C   UNL     1       8.139   4.288  53.888  1.00  0.00    -0.000 C 
BRANCH   5   6
ATOM      6  C   UNL     1       8.928   5.334  53.087  1.00  0.00    -0.000 C 
BRANCH   6   7
ATOM      7  C   UNL     1      10.389   4.904  52.917  1.00  0.00    -0.000 C 
BRANCH   7   8
ATOM      8  C   UNL     1      11.253   6.068  52.411  1.00  0.00    -0.000 C 
BRANCH   8   9
ATOM      9  C   UNL     1      12.288   5.616  51.361  1.00  0.00    -0.000 C 
BRANCH   9  10
ATOM     10  C   UNL     1      11.708   5.449  49.942  1.00  0.00    -0.000 C 
BRANCH  10  11
ATOM     11  C   UNL     1      10.423   4.601  49.880  1.00  0.00    -0.003 C 
ATOM     12  C   UNL     1      10.708   3.099  49.909  1.00  0.00     0.004 C 
ENDBRANCH  10  11
ENDBRANCH   9  10
ENDBRANCH   8   9
ENDBRANCH   7   8
ENDBRANCH   6   7
ENDBRANCH   5   6
ENDBRANCH   4   5
ENDBRANCH   3   4
ENDBRANCH   2   3
ENDBRANCH   1   2
BRANCH   1  13
ATOM     13  C   UNL     1       4.394   6.011  50.880  1.00  0.00     0.000 C 
BRANCH  13  14
ATOM     14  C   UNL     1       3.317   6.705  50.020  1.00  0.00     0.000 C 
BRANCH  14  15
ATOM     15  C   UNL     1       1.919   6.064  50.077  1.00  0.00     0.000 C 
BRANCH  15  16
ATOM     16  C   UNL     1       1.847   4.876  51.047  1.00  0.00     0.000 C 
BRANCH  16  17
ATOM     17  C   UNL     1       0.563   4.061  50.821  1.00  0.00     0.000 C 
BRANCH  17  18
ATOM     18  C   UNL     1      -0.432   4.766  49.885  1.00  0.00     0.000 C 
BRANCH  18  19
ATOM     19  C   UNL     1      -1.410   5.682  50.640  1.00  0.00     0.000 C 
BRANCH  19  20
ATOM     20  C   UNL     1      -2.742   5.863  49.895  1.00  0.00     0.006 C 
BRANCH  20  21
ATOM     21  C   UNL     1      -3.708   4.692  50.117  1.00  0.00     0.053 C 
BRANCH  21  22
ATOM     22  C   UNL     1      -5.073   5.199  50.457  1.00  0.00     0.041 C 
ATOM     23  O   UNL     1      -5.305   6.436  50.472  1.00  0.00    -0.550 OA
ATOM     24  O   UNL     1      -6.104   4.302  50.709  1.00  0.00    -0.550 OA
ENDBRANCH  21  22
ENDBRANCH  20  21
ENDBRANCH  19  20
ENDBRANCH  18  19
ENDBRANCH  17  18
ENDBRANCH  16  17
ENDBRANCH  15  16
ENDBRANCH  14  15
ENDBRANCH  13  14
ENDBRANCH   1  13
TORSDOF 20
ENDMDL
