MODEL 1
REMARK VINA RESULT:    -3.088      0.000      0.000
REMARK INTER + INTRA:          -4.311
REMARK INTER:                  -4.081
REMARK INTRA:                  -0.230
REMARK UNBOUND:                -0.230
REMARK SMILES CCCCCCCO
REMARK SMILES IDX 5 1 4 2 3 3 2 4 1 5 6 6 7 7 8 8
REMARK H PARENT 8 9
REMARK Flexibility Score: inf
ROOT
ATOM      1  C   UNL     1     166.779 159.999 167.149  1.00  0.00     0.002 C 
ENDROOT
BRANCH   1   2
ATOM      2  C   UNL     1     167.011 160.901 168.374  1.00  0.00     0.000 C 
BRANCH   2   3
ATOM      3  C   UNL     1     167.575 160.184 169.617  1.00  0.00    -0.000 C 
BRANCH   3   4
ATOM      4  C   UNL     1     169.049 159.759 169.509  1.00  0.00    -0.003 C 
ATOM      5  C   UNL     1     169.240 158.245 169.593  1.00  0.00     0.004 C 
ENDBRANCH   3   4
ENDBRANCH   2   3
ENDBRANCH   1   2
BRANCH   1   6
ATOM      6  C   UNL     1     166.119 158.660 167.511  1.00  0.00     0.028 C 
BRANCH   6   7
ATOM      7  C   UNL     1     165.507 157.995 166.274  1.00  0.00     0.156 C 
BRANCH   7   8
ATOM      8  O   UNL     1     164.713 156.905 166.652  1.00  0.00    -0.396 OA
ATOM      9  H   UNL     1     164.843 156.206 165.960  1.00  0.00     0.210 HD
ENDBRANCH   7   8
ENDBRANCH   6   7
ENDBRANCH   1   6
TORSDOF 6
ENDMDL
MODEL 2
REMARK VINA RESULT:    -3.076     12.462     13.717
REMARK INTER + INTRA:          -4.295
REMARK INTER:                  -4.187
REMARK INTRA:                  -0.108
REMARK UNBOUND:                -0.230
REMARK SMILES CCCCCCCO
REMARK SMILES IDX 5 1 4 2 3 3 2 4 1 5 6 6 7 7 8 8
REMARK H PARENT 8 9
REMARK Flexibility Score: inf
ROOT
ATOM      1  C   UNL     1     164.496 171.189 167.040  1.00  0.00     0.002 C 
ENDROOT
BRANCH   1   2
ATOM      2  C   UNL     1     164.203 170.331 168.283  1.00  0.00     0.000 C 
BRANCH   2   3
ATOM      3  C   UNL     1     163.721 171.114 169.520  1.00  0.00    -0.000 C 
BRANCH   3   4
ATOM      4  C   UNL     1     162.228 171.486 169.512  1.00  0.00    -0.003 C 
ATOM      5  C   UNL     1     161.496 171.041 170.778  1.00  0.00     0.004 C 
ENDBRANCH   3   4
ENDBRANCH   2   3
ENDBRANCH   1   2
BRANCH   1   6
ATOM      6  C   UNL     1     164.971 172.607 167.392  1.00  0.00     0.028 C 
BRANCH   6   7
ATOM      7  C   UNL     1     165.754 173.229 166.234  1.00  0.00     0.156 C 
BRANCH   7   8
ATOM      8  O   UNL     1     166.506 174.321 166.688  1.00  0.00    -0.396 OA
ATOM      9  H   UNL     1     166.441 175.021 165.987  1.00  0.00     0.210 HD
ENDBRANCH   7   8
ENDBRANCH   6   7
ENDBRANCH   1   6
TORSDOF 6
ENDMDL
MODEL 3
REMARK VINA RESULT:    -3.062      7.829      9.041
REMARK INTER + INTRA:          -4.276
REMARK INTER:                  -4.109
REMARK INTRA:                  -0.167
REMARK UNBOUND:                -0.230
REMARK SMILES CCCCCCCO
REMARK SMILES IDX 5 1 4 2 3 3 2 4 1 5 6 6 7 7 8 8
REMARK H PARENT 8 9
REMARK Flexibility Score: inf
ROOT
ATOM      1  C   UNL     1     171.337 166.854 167.972  1.00  0.00     0.002 C 
ENDROOT
BRANCH   1   2
ATOM      2  C   UNL     1     170.632 166.792 166.605  1.00  0.00     0.000 C 
BRANCH   2   3
ATOM      3  C   UNL     1     169.129 166.456 166.658  1.00  0.00    -0.000 C 
BRANCH   3   4
ATOM      4  C   UNL     1     168.526 166.398 168.073  1.00  0.00    -0.003 C 
ATOM      5  C   UNL     1     167.044 166.024 168.074  1.00  0.00     0.004 C 
ENDBRANCH   3   4
ENDBRANCH   2   3
ENDBRANCH   1   2
BRANCH   1   6
ATOM      6  C   UNL     1     172.745 166.242 167.946  1.00  0.00     0.028 C 
BRANCH   6   7
ATOM      7  C   UNL     1     173.086 165.704 166.553  1.00  0.00     0.156 C 
BRANCH   7   8
ATOM      8  O   UNL     1     174.155 164.802 166.630  1.00  0.00    -0.396 OA
ATOM      9  H   UNL     1     174.960 165.289 166.314  1.00  0.00     0.210 HD
ENDBRANCH   7   8
ENDBRANCH   6   7
ENDBRANCH   1   6
TORSDOF 6
ENDMDL
MODEL 4
REMARK VINA RESULT:    -3.059      1.892      2.893
REMARK INTER + INTRA:          -4.272
REMARK INTER:                  -4.173
REMARK INTRA:                  -0.099
REMARK UNBOUND:                -0.230
REMARK SMILES CCCCCCCO
REMARK SMILES IDX 5 1 4 2 3 3 2 4 1 5 6 6 7 7 8 8
REMARK H PARENT 8 9
REMARK Flexibility Score: inf
ROOT
ATOM      1  C   UNL     1     166.762 160.224 166.902  1.00  0.00     0.002 C 
ENDROOT
BRANCH   1   2
ATOM      2  C   UNL     1     166.782 161.258 168.042  1.00  0.00     0.000 C 
BRANCH   2   3
ATOM      3  C   UNL     1     166.399 162.694 167.630  1.00  0.00    -0.000 C 
BRANCH   3   4
ATOM      4  C   UNL     1     166.265 163.690 168.794  1.00  0.00    -0.003 C 
ATOM      5  C   UNL     1     166.438 163.032 170.163  1.00  0.00     0.004 C 
ENDBRANCH   3   4
ENDBRANCH   2   3
ENDBRANCH   1   2
BRANCH   1   6
ATOM      6  C   UNL     1     166.253 158.848 167.354  1.00  0.00     0.028 C 
BRANCH   6   7
ATOM      7  C   UNL     1     165.592 158.096 166.195  1.00  0.00     0.156 C 
BRANCH   7   8
ATOM      8  O   UNL     1     164.803 157.047 166.684  1.00  0.00    -0.396 OA
ATOM      9  H   UNL     1     164.628 157.246 167.641  1.00  0.00     0.210 HD
ENDBRANCH   7   8
ENDBRANCH   6   7
ENDBRANCH   1   6
TORSDOF 6
ENDMDL
MODEL 5
REMARK VINA RESULT:    -3.054     11.046     12.348
REMARK INTER + INTRA:          -4.266
REMARK INTER:                  -4.152
REMARK INTRA:                  -0.114
REMARK UNBOUND:                -0.230
REMARK SMILES CCCCCCCO
REMARK SMILES IDX 5 1 4 2 3 3 2 4 1 5 6 6 7 7 8 8
REMARK H PARENT 8 9
REMARK Flexibility Score: inf
ROOT
ATOM      1  C   UNL     1     164.597 171.061 167.200  1.00  0.00     0.002 C 
ENDROOT
BRANCH   1   2
ATOM      2  C   UNL     1     164.018 170.423 168.476  1.00  0.00     0.000 C 
BRANCH   2   3
ATOM      3  C   UNL     1     164.625 169.059 168.859  1.00  0.00    -0.000 C 
BRANCH   3   4
ATOM      4  C   UNL     1     164.933 168.129 167.672  1.00  0.00    -0.003 C 
ATOM      5  C   UNL     1     165.882 166.989 168.040  1.00  0.00     0.004 C 
ENDBRANCH   3   4
ENDBRANCH   2   3
ENDBRANCH   1   2
BRANCH   1   6
ATOM      6  C   UNL     1     164.934 172.548 167.378  1.00  0.00     0.028 C 
BRANCH   6   7
ATOM      7  C   UNL     1     165.789 173.062 166.216  1.00  0.00     0.156 C 
BRANCH   7   8
ATOM      8  O   UNL     1     166.473 174.225 166.594  1.00  0.00    -0.396 OA
ATOM      9  H   UNL     1     165.783 174.921 166.753  1.00  0.00     0.210 HD
ENDBRANCH   7   8
ENDBRANCH   6   7
ENDBRANCH   1   6
TORSDOF 6
ENDMDL
MODEL 6
REMARK VINA RESULT:    -3.038      8.312      9.179
REMARK INTER + INTRA:          -4.245
REMARK INTER:                  -4.155
REMARK INTRA:                  -0.090
REMARK UNBOUND:                -0.230
REMARK SMILES CCCCCCCO
REMARK SMILES IDX 5 1 4 2 3 3 2 4 1 5 6 6 7 7 8 8
REMARK H PARENT 8 9
REMARK Flexibility Score: inf
ROOT
ATOM      1  C   UNL     1     159.809 164.091 167.519  1.00  0.00     0.002 C 
ENDROOT
BRANCH   1   2
ATOM      2  C   UNL     1     161.182 164.609 167.056  1.00  0.00     0.000 C 
BRANCH   2   3
ATOM      3  C   UNL     1     162.286 164.588 168.131  1.00  0.00    -0.000 C 
BRANCH   3   4
ATOM      4  C   UNL     1     163.594 165.294 167.733  1.00  0.00    -0.003 C 
ATOM      5  C   UNL     1     163.929 165.135 166.250  1.00  0.00     0.004 C 
ENDBRANCH   3   4
ENDBRANCH   2   3
ENDBRANCH   1   2
BRANCH   1   6
ATOM      6  C   UNL     1     158.787 165.218 167.730  1.00  0.00     0.028 C 
BRANCH   6   7
ATOM      7  C   UNL     1     158.156 165.645 166.401  1.00  0.00     0.156 C 
BRANCH   7   8
ATOM      8  O   UNL     1     157.005 166.409 166.634  1.00  0.00    -0.396 OA
ATOM      9  H   UNL     1     156.395 166.243 165.869  1.00  0.00     0.210 HD
ENDBRANCH   7   8
ENDBRANCH   6   7
ENDBRANCH   1   6
TORSDOF 6
ENDMDL
MODEL 7
REMARK VINA RESULT:    -2.977      8.971      9.858
REMARK INTER + INTRA:          -4.165
REMARK INTER:                  -4.038
REMARK INTRA:                  -0.127
REMARK UNBOUND:                -0.230
REMARK SMILES CCCCCCCO
REMARK SMILES IDX 5 1 4 2 3 3 2 4 1 5 6 6 7 7 8 8
REMARK H PARENT 8 9
REMARK Flexibility Score: inf
ROOT
ATOM      1  C   UNL     1     171.145 166.671 167.341  1.00  0.00     0.002 C 
ENDROOT
BRANCH   1   2
ATOM      2  C   UNL     1     170.387 166.917 168.658  1.00  0.00     0.000 C 
BRANCH   2   3
ATOM      3  C   UNL     1     171.217 167.575 169.778  1.00  0.00    -0.000 C 
BRANCH   3   4
ATOM      4  C   UNL     1     171.350 169.104 169.674  1.00  0.00    -0.003 C 
ATOM      5  C   UNL     1     171.163 169.811 171.016  1.00  0.00     0.004 C 
ENDBRANCH   3   4
ENDBRANCH   2   3
ENDBRANCH   1   2
BRANCH   1   6
ATOM      6  C   UNL     1     172.594 166.214 167.565  1.00  0.00     0.028 C 
BRANCH   6   7
ATOM      7  C   UNL     1     173.156 165.533 166.313  1.00  0.00     0.156 C 
BRANCH   7   8
ATOM      8  O   UNL     1     174.241 164.715 166.652  1.00  0.00    -0.396 OA
ATOM      9  H   UNL     1     175.036 165.092 166.191  1.00  0.00     0.210 HD
ENDBRANCH   7   8
ENDBRANCH   6   7
ENDBRANCH   1   6
TORSDOF 6
ENDMDL
MODEL 8
REMARK VINA RESULT:    -2.912      2.392      3.983
REMARK INTER + INTRA:          -4.079
REMARK INTER:                  -3.780
REMARK INTRA:                  -0.299
REMARK UNBOUND:                -0.230
REMARK SMILES CCCCCCCO
REMARK SMILES IDX 5 1 4 2 3 3 2 4 1 5 6 6 7 7 8 8
REMARK H PARENT 8 9
REMARK Flexibility Score: inf
ROOT
ATOM      1  C   UNL     1     166.621 158.633 168.961  1.00  0.00     0.002 C 
ENDROOT
BRANCH   1   2
ATOM      2  C   UNL     1     166.298 158.986 167.498  1.00  0.00     0.000 C 
BRANCH   2   3
ATOM      3  C   UNL     1     166.684 160.415 167.068  1.00  0.00    -0.000 C 
BRANCH   3   4
ATOM      4  C   UNL     1     166.784 161.433 168.217  1.00  0.00    -0.003 C 
ATOM      5  C   UNL     1     166.296 162.826 167.822  1.00  0.00     0.004 C 
ENDBRANCH   3   4
ENDBRANCH   2   3
ENDBRANCH   1   2
BRANCH   1   6
ATOM      6  C   UNL     1     167.959 157.894 169.114  1.00  0.00     0.028 C 
BRANCH   6   7
ATOM      7  C   UNL     1     169.041 158.825 169.670  1.00  0.00     0.156 C 
BRANCH   7   8
ATOM      8  O   UNL     1     169.801 159.363 168.623  1.00  0.00    -0.396 OA
ATOM      9  H   UNL     1     169.923 158.637 167.957  1.00  0.00     0.210 HD
ENDBRANCH   7   8
ENDBRANCH   6   7
ENDBRANCH   1   6
TORSDOF 6
ENDMDL
MODEL 9
REMARK VINA RESULT:    -2.903      2.799      4.132
REMARK INTER + INTRA:          -4.067
REMARK INTER:                  -4.004
REMARK INTRA:                  -0.063
REMARK UNBOUND:                -0.230
REMARK SMILES CCCCCCCO
REMARK SMILES IDX 5 1 4 2 3 3 2 4 1 5 6 6 7 7 8 8
REMARK H PARENT 8 9
REMARK Flexibility Score: inf
ROOT
ATOM      1  C   UNL     1     166.747 161.152 167.105  1.00  0.00     0.002 C 
ENDROOT
BRANCH   1   2
ATOM      2  C   UNL     1     166.486 162.284 168.114  1.00  0.00     0.000 C 
BRANCH   2   3
ATOM      3  C   UNL     1     166.124 163.646 167.489  1.00  0.00    -0.000 C 
BRANCH   3   4
ATOM      4  C   UNL     1     166.697 164.871 168.223  1.00  0.00    -0.003 C 
ATOM      5  C   UNL     1     167.146 165.979 167.273  1.00  0.00     0.004 C 
ENDBRANCH   3   4
ENDBRANCH   2   3
ENDBRANCH   1   2
BRANCH   1   6
ATOM      6  C   UNL     1     167.191 159.845 167.778  1.00  0.00     0.028 C 
BRANCH   6   7
ATOM      7  C   UNL     1     166.225 158.702 167.451  1.00  0.00     0.156 C 
BRANCH   7   8
ATOM      8  O   UNL     1     165.709 158.150 168.631  1.00  0.00    -0.396 OA
ATOM      9  H   UNL     1     166.411 157.548 168.994  1.00  0.00     0.210 HD
ENDBRANCH   7   8
ENDBRANCH   6   7
ENDBRANCH   1   6
TORSDOF 6
ENDMDL
