MODEL 1
REMARK VINA RESULT:    -7.256      0.000      0.000
REMARK INTER + INTRA:          -8.560
REMARK INTER:                  -8.317
REMARK INTRA:                  -0.243
REMARK UNBOUND:                -0.243
REMARK SMILES CC1(C)CC[C@]23CO[C@@]4(C=C[C@@H]5[C@@]6(C)CC[C@H](O)[C@](C)(CO)[C@@H]6CC[C@]5(C)[C@]4(C)C[C@@H]2O)[C@H]3C1
REMARK SMILES IDX 1 1 2 2 4 3 5 4 6 5 7 6 8 7 9 8 33 9 34 10 10 11 11 12 12 13
REMARK SMILES IDX 13 14 15 15 16 16 17 17 19 18 23 19 24 20 25 21 26 22 28 23
REMARK SMILES IDX 30 24 31 25 29 26 27 27 20 28 14 29 3 30 32 31 21 33 22 34
REMARK SMILES IDX 18 36
REMARK H PARENT 32 32 22 35 18 37
REMARK Flexibility Score: inf
ROOT
ATOM      1  C   UNL     1     164.910 157.093 177.655  1.00  0.00     0.011 C 
ATOM      2  C   UNL     1     164.886 158.006 176.408  1.00  0.00    -0.035 C 
ATOM      3  C   UNL     1     166.256 157.881 175.686  1.00  0.00     0.007 C 
ATOM      4  C   UNL     1     166.497 159.030 174.709  1.00  0.00     0.013 C 
ATOM      5  C   UNL     1     166.468 160.432 175.406  1.00  0.00     0.026 C 
ATOM      6  C   UNL     1     165.525 161.424 174.688  1.00  0.00     0.171 C 
ATOM      7  O   UNL     1     164.968 162.299 175.658  1.00  0.00    -0.369 OA
ATOM      8  C   UNL     1     165.523 161.953 176.908  1.00  0.00     0.096 C 
ATOM      9  C   UNL     1     165.831 160.425 176.790  1.00  0.00     0.037 C 
ATOM     10  C   UNL     1     164.584 159.487 176.831  1.00  0.00     0.014 C 
ATOM     11  C   UNL     1     164.524 162.258 178.000  1.00  0.00     0.005 C 
ATOM     12  C   UNL     1     164.425 163.459 178.571  1.00  0.00    -0.024 C 
ATOM     13  C   UNL     1     165.187 164.697 178.131  1.00  0.00     0.024 C 
ATOM     14  C   UNL     1     164.156 165.824 177.659  1.00  0.00    -0.022 C 
ATOM     15  C   UNL     1     163.423 166.368 178.937  1.00  0.00     0.010 C 
ATOM     16  C   UNL     1     162.671 167.681 178.730  1.00  0.00     0.033 C 
ATOM     17  C   UNL     1     163.611 168.778 178.215  1.00  0.00     0.123 C 
ATOM     18  C   UNL     1     164.234 168.409 176.830  1.00  0.00     0.020 C 
ATOM     19  C   UNL     1     164.954 166.987 176.983  1.00  0.00     0.006 C 
ATOM     20  C   UNL     1     165.732 166.501 175.736  1.00  0.00     0.005 C 
ATOM     21  C   UNL     1     166.272 165.055 175.796  1.00  0.00     0.008 C 
ATOM     22  C   UNL     1     166.478 164.423 177.218  1.00  0.00    -0.017 C 
ATOM     23  C   UNL     1     166.839 162.825 177.162  1.00  0.00     0.009 C 
ATOM     24  C   UNL     1     167.891 162.497 176.035  1.00  0.00     0.043 C 
ATOM     25  C   UNL     1     167.911 161.025 175.552  1.00  0.00     0.124 C 
ATOM     26  C   UNL     1     167.504 162.394 178.519  1.00  0.00     0.015 C 
ATOM     27  C   UNL     1     167.711 165.199 177.810  1.00  0.00     0.013 C 
ATOM     28  C   UNL     1     165.319 169.479 176.515  1.00  0.00     0.017 C 
ATOM     29  C   UNL     1     163.091 165.219 176.694  1.00  0.00     0.012 C 
ATOM     30  C   UNL     1     163.758 157.506 175.477  1.00  0.00     0.011 C 
ENDROOT
BRANCH  25  31
ATOM     31  O   UNL     1     168.583 160.964 174.318  1.00  0.00    -0.392 OA
ATOM     32  H   UNL     1     169.307 160.293 174.413  1.00  0.00     0.210 HD
ENDBRANCH  25  31
BRANCH  18  33
ATOM     33  C   UNL     1     163.130 168.553 175.722  1.00  0.00     0.165 C 
BRANCH  33  34
ATOM     34  O   UNL     1     162.807 169.887 175.443  1.00  0.00    -0.396 OA
ATOM     35  H   UNL     1     162.552 169.925 174.485  1.00  0.00     0.210 HD
ENDBRANCH  33  34
ENDBRANCH  18  33
BRANCH  17  36
ATOM     36  O   UNL     1     162.895 169.990 178.146  1.00  0.00    -0.392 OA
ATOM     37  H   UNL     1     162.428 170.009 177.270  1.00  0.00     0.210 HD
ENDBRANCH  17  36
TORSDOF 4
ENDMDL
MODEL 2
REMARK VINA RESULT:    -7.089      3.108      5.421
REMARK INTER + INTRA:          -8.368
REMARK INTER:                  -8.103
REMARK INTRA:                  -0.264
REMARK UNBOUND:                -0.243
REMARK SMILES CC1(C)CC[C@]23CO[C@@]4(C=C[C@@H]5[C@@]6(C)CC[C@H](O)[C@](C)(CO)[C@@H]6CC[C@]5(C)[C@]4(C)C[C@@H]2O)[C@H]3C1
REMARK SMILES IDX 1 1 2 2 4 3 5 4 6 5 7 6 8 7 9 8 33 9 34 10 10 11 11 12 12 13
REMARK SMILES IDX 13 14 15 15 16 16 17 17 19 18 23 19 24 20 25 21 26 22 28 23
REMARK SMILES IDX 30 24 31 25 29 26 27 27 20 28 14 29 3 30 32 31 21 33 22 34
REMARK SMILES IDX 18 36
REMARK H PARENT 32 32 22 35 18 37
REMARK Flexibility Score: inf
ROOT
ATOM      1  C   UNL     1     164.900 157.390 176.141  1.00  0.00     0.011 C 
ATOM      2  C   UNL     1     164.877 158.414 177.298  1.00  0.00    -0.035 C 
ATOM      3  C   UNL     1     163.473 159.076 177.334  1.00  0.00     0.007 C 
ATOM      4  C   UNL     1     163.470 160.374 178.138  1.00  0.00     0.013 C 
ATOM      5  C   UNL     1     164.469 161.439 177.572  1.00  0.00     0.026 C 
ATOM      6  C   UNL     1     165.404 162.006 178.665  1.00  0.00     0.171 C 
ATOM      7  O   UNL     1     166.655 162.318 178.071  1.00  0.00    -0.369 OA
ATOM      8  C   UNL     1     166.554 162.027 176.694  1.00  0.00     0.096 C 
ATOM      9  C   UNL     1     165.508 160.869 176.614  1.00  0.00     0.037 C 
ATOM     10  C   UNL     1     166.016 159.475 177.100  1.00  0.00     0.014 C 
ATOM     11  C   UNL     1     167.909 161.619 176.167  1.00  0.00     0.005 C 
ATOM     12  C   UNL     1     168.813 162.502 175.739  1.00  0.00    -0.024 C 
ATOM     13  C   UNL     1     168.668 164.010 175.835  1.00  0.00     0.024 C 
ATOM     14  C   UNL     1     169.835 164.605 176.751  1.00  0.00    -0.022 C 
ATOM     15  C   UNL     1     171.179 164.490 175.948  1.00  0.00     0.010 C 
ATOM     16  C   UNL     1     172.330 165.322 176.508  1.00  0.00     0.033 C 
ATOM     17  C   UNL     1     171.948 166.806 176.588  1.00  0.00     0.123 C 
ATOM     18  C   UNL     1     170.733 167.044 177.542  1.00  0.00     0.020 C 
ATOM     19  C   UNL     1     169.531 166.113 177.040  1.00  0.00     0.006 C 
ATOM     20  C   UNL     1     168.192 166.294 177.797  1.00  0.00     0.005 C 
ATOM     21  C   UNL     1     167.080 165.277 177.458  1.00  0.00     0.008 C 
ATOM     22  C   UNL     1     167.173 164.546 176.072  1.00  0.00    -0.017 C 
ATOM     23  C   UNL     1     166.076 163.338 175.911  1.00  0.00     0.009 C 
ATOM     24  C   UNL     1     164.653 163.758 176.444  1.00  0.00     0.043 C 
ATOM     25  C   UNL     1     163.712 162.586 176.821  1.00  0.00     0.124 C 
ATOM     26  C   UNL     1     165.890 163.004 174.387  1.00  0.00     0.015 C 
ATOM     27  C   UNL     1     166.846 165.667 175.020  1.00  0.00     0.013 C 
ATOM     28  C   UNL     1     170.305 168.531 177.377  1.00  0.00     0.017 C 
ATOM     29  C   UNL     1     169.969 163.782 178.068  1.00  0.00     0.012 C 
ATOM     30  C   UNL     1     165.125 157.646 178.615  1.00  0.00     0.011 C 
ENDROOT
BRANCH  25  31
ATOM     31  O   UNL     1     162.672 163.085 177.627  1.00  0.00    -0.392 OA
ATOM     32  H   UNL     1     163.049 163.226 178.534  1.00  0.00     0.210 HD
ENDBRANCH  25  31
BRANCH  18  33
ATOM     33  C   UNL     1     171.213 166.879 179.028  1.00  0.00     0.165 C 
BRANCH  33  34
ATOM     34  O   UNL     1     171.597 168.091 179.615  1.00  0.00    -0.396 OA
ATOM     35  H   UNL     1     171.773 168.725 178.872  1.00  0.00     0.210 HD
ENDBRANCH  33  34
ENDBRANCH  18  33
BRANCH  17  36
ATOM     36  O   UNL     1     173.075 167.540 177.006  1.00  0.00    -0.392 OA
ATOM     37  H   UNL     1     173.814 166.893 177.158  1.00  0.00     0.210 HD
ENDBRANCH  17  36
TORSDOF 4
ENDMDL
MODEL 3
REMARK VINA RESULT:    -7.044      4.001     10.305
REMARK INTER + INTRA:          -8.316
REMARK INTER:                  -8.062
REMARK INTRA:                  -0.255
REMARK UNBOUND:                -0.243
REMARK SMILES CC1(C)CC[C@]23CO[C@@]4(C=C[C@@H]5[C@@]6(C)CC[C@H](O)[C@](C)(CO)[C@@H]6CC[C@]5(C)[C@]4(C)C[C@@H]2O)[C@H]3C1
REMARK SMILES IDX 1 1 2 2 4 3 5 4 6 5 7 6 8 7 9 8 33 9 34 10 10 11 11 12 12 13
REMARK SMILES IDX 13 14 15 15 16 16 17 17 19 18 23 19 24 20 25 21 26 22 28 23
REMARK SMILES IDX 30 24 31 25 29 26 27 27 20 28 14 29 3 30 32 31 21 33 22 34
REMARK SMILES IDX 18 36
REMARK H PARENT 32 32 22 35 18 37
REMARK Flexibility Score: inf
ROOT
ATOM      1  C   UNL     1     168.775 175.634 176.748  1.00  0.00     0.011 C 
ATOM      2  C   UNL     1     168.834 174.665 175.546  1.00  0.00    -0.035 C 
ATOM      3  C   UNL     1     167.473 174.733 174.800  1.00  0.00     0.007 C 
ATOM      4  C   UNL     1     167.265 173.536 173.874  1.00  0.00     0.013 C 
ATOM      5  C   UNL     1     167.307 172.169 174.636  1.00  0.00     0.026 C 
ATOM      6  C   UNL     1     168.277 171.160 173.978  1.00  0.00     0.171 C 
ATOM      7  O   UNL     1     168.833 170.341 174.995  1.00  0.00    -0.369 OA
ATOM      8  C   UNL     1     168.254 170.735 176.220  1.00  0.00     0.096 C 
ATOM      9  C   UNL     1     167.922 172.251 176.026  1.00  0.00     0.037 C 
ATOM     10  C   UNL     1     169.153 173.211 176.041  1.00  0.00     0.014 C 
ATOM     11  C   UNL     1     169.240 170.498 177.340  1.00  0.00     0.005 C 
ATOM     12  C   UNL     1     169.351 169.326 177.967  1.00  0.00    -0.024 C 
ATOM     13  C   UNL     1     168.616 168.057 177.574  1.00  0.00     0.024 C 
ATOM     14  C   UNL     1     169.672 166.927 177.170  1.00  0.00    -0.022 C 
ATOM     15  C   UNL     1     170.394 166.456 178.482  1.00  0.00     0.010 C 
ATOM     16  C   UNL     1     171.170 165.147 178.347  1.00  0.00     0.033 C 
ATOM     17  C   UNL     1     170.256 164.012 177.871  1.00  0.00     0.123 C 
ATOM     18  C   UNL     1     169.649 164.306 176.461  1.00  0.00     0.020 C 
ATOM     19  C   UNL     1     168.903 165.721 176.537  1.00  0.00     0.006 C 
ATOM     20  C   UNL     1     168.137 166.135 175.257  1.00  0.00     0.005 C 
ATOM     21  C   UNL     1     167.573 167.573 175.243  1.00  0.00     0.008 C 
ATOM     22  C   UNL     1     167.334 168.266 176.631  1.00  0.00    -0.017 C 
ATOM     23  C   UNL     1     166.948 169.853 176.495  1.00  0.00     0.009 C 
ATOM     24  C   UNL     1     165.908 170.112 175.339  1.00  0.00     0.043 C 
ATOM     25  C   UNL     1     165.872 171.559 174.788  1.00  0.00     0.124 C 
ATOM     26  C   UNL     1     166.255 170.335 177.821  1.00  0.00     0.015 C 
ATOM     27  C   UNL     1     166.105 167.498 177.240  1.00  0.00     0.013 C 
ATOM     28  C   UNL     1     168.586 163.203 176.180  1.00  0.00     0.017 C 
ATOM     29  C   UNL     1     170.742 167.505 176.193  1.00  0.00     0.012 C 
ATOM     30  C   UNL     1     169.967 175.140 174.610  1.00  0.00     0.011 C 
ENDROOT
BRANCH  25  31
ATOM     31  O   UNL     1     165.217 171.551 173.543  1.00  0.00    -0.392 OA
ATOM     32  H   UNL     1     165.333 170.643 173.159  1.00  0.00     0.210 HD
ENDBRANCH  25  31
BRANCH  18  33
ATOM     33  C   UNL     1     170.772 164.129 175.377  1.00  0.00     0.165 C 
BRANCH  33  34
ATOM     34  O   UNL     1     171.081 162.787 175.125  1.00  0.00    -0.396 OA
ATOM     35  H   UNL     1     172.024 162.764 174.815  1.00  0.00     0.210 HD
ENDBRANCH  33  34
ENDBRANCH  18  33
BRANCH  17  36
ATOM     36  O   UNL     1     170.993 162.810 177.868  1.00  0.00    -0.392 OA
ATOM     37  H   UNL     1     170.983 162.452 178.794  1.00  0.00     0.210 HD
ENDBRANCH  17  36
TORSDOF 4
ENDMDL
MODEL 4
REMARK VINA RESULT:    -6.981      4.368      7.847
REMARK INTER + INTRA:          -8.245
REMARK INTER:                  -8.004
REMARK INTRA:                  -0.241
REMARK UNBOUND:                -0.243
REMARK SMILES CC1(C)CC[C@]23CO[C@@]4(C=C[C@@H]5[C@@]6(C)CC[C@H](O)[C@](C)(CO)[C@@H]6CC[C@]5(C)[C@]4(C)C[C@@H]2O)[C@H]3C1
REMARK SMILES IDX 1 1 2 2 4 3 5 4 6 5 7 6 8 7 9 8 33 9 34 10 10 11 11 12 12 13
REMARK SMILES IDX 13 14 15 15 16 16 17 17 19 18 23 19 24 20 25 21 26 22 28 23
REMARK SMILES IDX 30 24 31 25 29 26 27 27 20 28 14 29 3 30 32 31 21 33 22 34
REMARK SMILES IDX 18 36
REMARK H PARENT 32 32 22 35 18 37
REMARK Flexibility Score: inf
ROOT
ATOM      1  C   UNL     1     163.536 163.984 178.380  1.00  0.00     0.011 C 
ATOM      2  C   UNL     1     163.190 165.468 178.638  1.00  0.00    -0.035 C 
ATOM      3  C   UNL     1     161.895 165.809 177.851  1.00  0.00     0.007 C 
ATOM      4  C   UNL     1     161.701 167.316 177.690  1.00  0.00     0.013 C 
ATOM      5  C   UNL     1     162.892 168.001 176.939  1.00  0.00     0.026 C 
ATOM      6  C   UNL     1     163.442 169.226 177.706  1.00  0.00     0.171 C 
ATOM      7  O   UNL     1     164.835 169.327 177.454  1.00  0.00    -0.369 OA
ATOM      8  C   UNL     1     165.181 168.290 176.561  1.00  0.00     0.096 C 
ATOM      9  C   UNL     1     164.154 167.152 176.869  1.00  0.00     0.037 C 
ATOM     10  C   UNL     1     164.390 166.383 178.208  1.00  0.00     0.014 C 
ATOM     11  C   UNL     1     166.608 167.865 176.816  1.00  0.00     0.005 C 
ATOM     12  C   UNL     1     167.652 168.469 176.246  1.00  0.00    -0.024 C 
ATOM     13  C   UNL     1     167.572 169.718 175.386  1.00  0.00     0.024 C 
ATOM     14  C   UNL     1     168.401 170.899 176.074  1.00  0.00    -0.022 C 
ATOM     15  C   UNL     1     169.926 170.550 175.945  1.00  0.00     0.010 C 
ATOM     16  C   UNL     1     170.873 171.717 176.222  1.00  0.00     0.033 C 
ATOM     17  C   UNL     1     170.573 172.900 175.293  1.00  0.00     0.123 C 
ATOM     18  C   UNL     1     169.126 173.453 175.502  1.00  0.00     0.020 C 
ATOM     19  C   UNL     1     168.107 172.233 175.312  1.00  0.00     0.006 C 
ATOM     20  C   UNL     1     166.606 172.609 175.371  1.00  0.00     0.005 C 
ATOM     21  C   UNL     1     165.612 171.426 175.380  1.00  0.00     0.008 C 
ATOM     22  C   UNL     1     166.117 170.058 174.798  1.00  0.00    -0.017 C 
ATOM     23  C   UNL     1     165.067 168.827 175.059  1.00  0.00     0.009 C 
ATOM     24  C   UNL     1     163.575 169.254 174.783  1.00  0.00     0.043 C 
ATOM     25  C   UNL     1     162.496 168.382 175.472  1.00  0.00     0.124 C 
ATOM     26  C   UNL     1     165.379 167.657 174.056  1.00  0.00     0.015 C 
ATOM     27  C   UNL     1     166.225 170.312 173.251  1.00  0.00     0.013 C 
ATOM     28  C   UNL     1     168.865 174.493 174.374  1.00  0.00     0.017 C 
ATOM     29  C   UNL     1     168.041 171.009 177.588  1.00  0.00     0.012 C 
ATOM     30  C   UNL     1     162.942 165.640 180.153  1.00  0.00     0.011 C 
ENDROOT
BRANCH  25  31
ATOM     31  O   UNL     1     161.278 169.087 175.470  1.00  0.00    -0.392 OA
ATOM     32  H   UNL     1     160.563 168.435 175.689  1.00  0.00     0.210 HD
ENDBRANCH  25  31
BRANCH  18  33
ATOM     33  C   UNL     1     169.075 174.243 176.859  1.00  0.00     0.165 C 
BRANCH  33  34
ATOM     34  O   UNL     1     169.750 175.468 176.803  1.00  0.00    -0.396 OA
ATOM     35  H   UNL     1     170.636 175.289 176.393  1.00  0.00     0.210 HD
ENDBRANCH  33  34
ENDBRANCH  18  33
BRANCH  17  36
ATOM     36  O   UNL     1     171.538 173.903 175.514  1.00  0.00    -0.392 OA
ATOM     37  H   UNL     1     171.288 174.379 176.349  1.00  0.00     0.210 HD
ENDBRANCH  17  36
TORSDOF 4
ENDMDL
MODEL 5
REMARK VINA RESULT:    -6.762      3.667      7.732
REMARK INTER + INTRA:          -7.994
REMARK INTER:                  -7.720
REMARK INTRA:                  -0.274
REMARK UNBOUND:                -0.243
REMARK SMILES CC1(C)CC[C@]23CO[C@@]4(C=C[C@@H]5[C@@]6(C)CC[C@H](O)[C@](C)(CO)[C@@H]6CC[C@]5(C)[C@]4(C)C[C@@H]2O)[C@H]3C1
REMARK SMILES IDX 1 1 2 2 4 3 5 4 6 5 7 6 8 7 9 8 33 9 34 10 10 11 11 12 12 13
REMARK SMILES IDX 13 14 15 15 16 16 17 17 19 18 23 19 24 20 25 21 26 22 28 23
REMARK SMILES IDX 30 24 31 25 29 26 27 27 20 28 14 29 3 30 32 31 21 33 22 34
REMARK SMILES IDX 18 36
REMARK H PARENT 32 32 22 35 18 37
REMARK Flexibility Score: inf
ROOT
ATOM      1  C   UNL     1     159.919 167.714 173.042  1.00  0.00     0.011 C 
ATOM      2  C   UNL     1     160.296 166.890 174.294  1.00  0.00    -0.035 C 
ATOM      3  C   UNL     1     159.856 167.688 175.551  1.00  0.00     0.007 C 
ATOM      4  C   UNL     1     160.543 167.186 176.820  1.00  0.00     0.013 C 
ATOM      5  C   UNL     1     162.104 167.276 176.738  1.00  0.00     0.026 C 
ATOM      6  C   UNL     1     162.789 165.941 177.111  1.00  0.00     0.171 C 
ATOM      7  O   UNL     1     163.985 165.821 176.356  1.00  0.00    -0.369 OA
ATOM      8  C   UNL     1     164.114 166.992 175.579  1.00  0.00     0.096 C 
ATOM      9  C   UNL     1     162.643 167.457 175.325  1.00  0.00     0.037 C 
ATOM     10  C   UNL     1     161.837 166.596 174.301  1.00  0.00     0.014 C 
ATOM     11  C   UNL     1     164.845 166.666 174.298  1.00  0.00     0.005 C 
ATOM     12  C   UNL     1     166.176 166.666 174.208  1.00  0.00    -0.024 C 
ATOM     13  C   UNL     1     167.127 166.862 175.376  1.00  0.00     0.024 C 
ATOM     14  C   UNL     1     168.032 165.557 175.557  1.00  0.00    -0.022 C 
ATOM     15  C   UNL     1     169.044 165.507 174.358  1.00  0.00     0.010 C 
ATOM     16  C   UNL     1     170.211 164.540 174.549  1.00  0.00     0.033 C 
ATOM     17  C   UNL     1     170.997 164.871 175.824  1.00  0.00     0.123 C 
ATOM     18  C   UNL     1     170.109 164.742 177.105  1.00  0.00     0.020 C 
ATOM     19  C   UNL     1     168.823 165.674 176.901  1.00  0.00     0.006 C 
ATOM     20  C   UNL     1     167.874 165.767 178.121  1.00  0.00     0.005 C 
ATOM     21  C   UNL     1     166.537 166.504 177.883  1.00  0.00     0.008 C 
ATOM     22  C   UNL     1     166.480 167.522 176.689  1.00  0.00    -0.017 C 
ATOM     23  C   UNL     1     164.965 168.074 176.392  1.00  0.00     0.009 C 
ATOM     24  C   UNL     1     164.197 168.433 177.721  1.00  0.00     0.043 C 
ATOM     25  C   UNL     1     162.651 168.457 177.609  1.00  0.00     0.124 C 
ATOM     26  C   UNL     1     165.052 169.408 175.565  1.00  0.00     0.015 C 
ATOM     27  C   UNL     1     167.373 168.725 177.163  1.00  0.00     0.013 C 
ATOM     28  C   UNL     1     170.940 165.302 178.297  1.00  0.00     0.017 C 
ATOM     29  C   UNL     1     167.150 164.271 175.518  1.00  0.00     0.012 C 
ATOM     30  C   UNL     1     159.527 165.552 174.229  1.00  0.00     0.011 C 
ENDROOT
BRANCH  25  31
ATOM     31  O   UNL     1     162.105 168.395 178.904  1.00  0.00    -0.392 OA
ATOM     32  H   UNL     1     162.760 167.914 179.474  1.00  0.00     0.210 HD
ENDBRANCH  25  31
BRANCH  18  33
ATOM     33  C   UNL     1     169.869 163.220 177.405  1.00  0.00     0.165 C 
BRANCH  33  34
ATOM     34  O   UNL     1     170.932 162.625 178.096  1.00  0.00    -0.396 OA
ATOM     35  H   UNL     1     170.556 161.845 178.582  1.00  0.00     0.210 HD
ENDBRANCH  33  34
ENDBRANCH  18  33
BRANCH  17  36
ATOM     36  O   UNL     1     172.120 164.023 175.895  1.00  0.00    -0.392 OA
ATOM     37  H   UNL     1     172.777 164.448 176.506  1.00  0.00     0.210 HD
ENDBRANCH  17  36
TORSDOF 4
ENDMDL
MODEL 6
REMARK VINA RESULT:    -6.715      5.718      8.022
REMARK INTER + INTRA:          -7.939
REMARK INTER:                  -7.868
REMARK INTRA:                  -0.071
REMARK UNBOUND:                -0.243
REMARK SMILES CC1(C)CC[C@]23CO[C@@]4(C=C[C@@H]5[C@@]6(C)CC[C@H](O)[C@](C)(CO)[C@@H]6CC[C@]5(C)[C@]4(C)C[C@@H]2O)[C@H]3C1
REMARK SMILES IDX 1 1 2 2 4 3 5 4 6 5 7 6 8 7 9 8 33 9 34 10 10 11 11 12 12 13
REMARK SMILES IDX 13 14 15 15 16 16 17 17 19 18 23 19 24 20 25 21 26 22 28 23
REMARK SMILES IDX 30 24 31 25 29 26 27 27 20 28 14 29 3 30 32 31 21 33 22 34
REMARK SMILES IDX 18 36
REMARK H PARENT 32 32 22 35 18 37
REMARK Flexibility Score: inf
ROOT
ATOM      1  C   UNL     1     170.312 163.432 173.500  1.00  0.00     0.011 C 
ATOM      2  C   UNL     1     171.236 164.511 174.109  1.00  0.00    -0.035 C 
ATOM      3  C   UNL     1     171.525 164.127 175.586  1.00  0.00     0.007 C 
ATOM      4  C   UNL     1     172.061 165.308 176.392  1.00  0.00     0.013 C 
ATOM      5  C   UNL     1     171.072 166.522 176.415  1.00  0.00     0.026 C 
ATOM      6  C   UNL     1     171.762 167.847 176.018  1.00  0.00     0.171 C 
ATOM      7  O   UNL     1     170.813 168.667 175.352  1.00  0.00    -0.369 OA
ATOM      8  C   UNL     1     169.584 167.972 175.345  1.00  0.00     0.096 C 
ATOM      9  C   UNL     1     169.990 166.462 175.346  1.00  0.00     0.037 C 
ATOM     10  C   UNL     1     170.561 165.923 173.997  1.00  0.00     0.014 C 
ATOM     11  C   UNL     1     168.798 168.359 174.114  1.00  0.00     0.005 C 
ATOM     12  C   UNL     1     167.998 169.425 174.075  1.00  0.00    -0.024 C 
ATOM     13  C   UNL     1     167.863 170.452 175.186  1.00  0.00     0.024 C 
ATOM     14  C   UNL     1     168.318 171.887 174.649  1.00  0.00    -0.022 C 
ATOM     15  C   UNL     1     167.221 172.393 173.646  1.00  0.00     0.010 C 
ATOM     16  C   UNL     1     167.302 173.880 173.310  1.00  0.00     0.033 C 
ATOM     17  C   UNL     1     167.218 174.737 174.579  1.00  0.00     0.123 C 
ATOM     18  C   UNL     1     168.403 174.445 175.557  1.00  0.00     0.020 C 
ATOM     19  C   UNL     1     168.408 172.873 175.860  1.00  0.00     0.006 C 
ATOM     20  C   UNL     1     169.449 172.405 176.907  1.00  0.00     0.005 C 
ATOM     21  C   UNL     1     169.600 170.876 177.073  1.00  0.00     0.008 C 
ATOM     22  C   UNL     1     168.389 169.982 176.628  1.00  0.00    -0.017 C 
ATOM     23  C   UNL     1     168.739 168.380 176.640  1.00  0.00     0.009 C 
ATOM     24  C   UNL     1     169.547 167.962 177.927  1.00  0.00     0.043 C 
ATOM     25  C   UNL     1     170.359 166.648 177.805  1.00  0.00     0.124 C 
ATOM     26  C   UNL     1     167.402 167.556 176.678  1.00  0.00     0.015 C 
ATOM     27  C   UNL     1     167.281 170.265 177.706  1.00  0.00     0.013 C 
ATOM     28  C   UNL     1     168.099 175.202 176.884  1.00  0.00     0.017 C 
ATOM     29  C   UNL     1     169.676 171.781 173.891  1.00  0.00     0.012 C 
ATOM     30  C   UNL     1     172.554 164.516 173.303  1.00  0.00     0.011 C 
ENDROOT
BRANCH  25  31
ATOM     31  O   UNL     1     171.311 166.609 178.840  1.00  0.00    -0.392 OA
ATOM     32  H   UNL     1     172.071 167.181 178.559  1.00  0.00     0.210 HD
ENDBRANCH  25  31
BRANCH  18  33
ATOM     33  C   UNL     1     169.714 175.081 174.971  1.00  0.00     0.165 C 
BRANCH  33  34
ATOM     34  O   UNL     1     170.634 175.446 175.962  1.00  0.00    -0.396 OA
ATOM     35  H   UNL     1     170.557 176.429 176.075  1.00  0.00     0.210 HD
ENDBRANCH  33  34
ENDBRANCH  18  33
BRANCH  17  36
ATOM     36  O   UNL     1     167.188 176.095 174.206  1.00  0.00    -0.392 OA
ATOM     37  H   UNL     1     167.001 176.132 173.231  1.00  0.00     0.210 HD
ENDBRANCH  17  36
TORSDOF 4
ENDMDL
MODEL 7
REMARK VINA RESULT:    -6.690      1.656      2.085
REMARK INTER + INTRA:          -7.911
REMARK INTER:                  -7.637
REMARK INTRA:                  -0.274
REMARK UNBOUND:                -0.243
REMARK SMILES CC1(C)CC[C@]23CO[C@@]4(C=C[C@@H]5[C@@]6(C)CC[C@H](O)[C@](C)(CO)[C@@H]6CC[C@]5(C)[C@]4(C)C[C@@H]2O)[C@H]3C1
REMARK SMILES IDX 1 1 2 2 4 3 5 4 6 5 7 6 8 7 9 8 33 9 34 10 10 11 11 12 12 13
REMARK SMILES IDX 13 14 15 15 16 16 17 17 19 18 23 19 24 20 25 21 26 22 28 23
REMARK SMILES IDX 30 24 31 25 29 26 27 27 20 28 14 29 3 30 32 31 21 33 22 34
REMARK SMILES IDX 18 36
REMARK H PARENT 32 32 22 35 18 37
REMARK Flexibility Score: inf
ROOT
ATOM      1  C   UNL     1     164.935 158.400 176.297  1.00  0.00     0.011 C 
ATOM      2  C   UNL     1     165.422 159.408 175.231  1.00  0.00    -0.035 C 
ATOM      3  C   UNL     1     166.891 159.058 174.865  1.00  0.00     0.007 C 
ATOM      4  C   UNL     1     167.598 160.213 174.159  1.00  0.00     0.013 C 
ATOM      5  C   UNL     1     167.634 161.518 175.023  1.00  0.00     0.026 C 
ATOM      6  C   UNL     1     167.124 162.752 174.245  1.00  0.00     0.171 C 
ATOM      7  O   UNL     1     166.491 163.633 175.161  1.00  0.00    -0.369 OA
ATOM      8  C   UNL     1     166.607 163.062 176.446  1.00  0.00     0.096 C 
ATOM      9  C   UNL     1     166.651 161.521 176.187  1.00  0.00     0.037 C 
ATOM     10  C   UNL     1     165.292 160.873 175.776  1.00  0.00     0.014 C 
ATOM     11  C   UNL     1     165.420 163.473 177.285  1.00  0.00     0.005 C 
ATOM     12  C   UNL     1     165.389 164.610 177.982  1.00  0.00    -0.024 C 
ATOM     13  C   UNL     1     166.456 165.689 177.933  1.00  0.00     0.024 C 
ATOM     14  C   UNL     1     165.819 167.050 177.387  1.00  0.00    -0.022 C 
ATOM     15  C   UNL     1     164.875 167.619 178.506  1.00  0.00     0.010 C 
ATOM     16  C   UNL     1     164.463 169.077 178.311  1.00  0.00     0.033 C 
ATOM     17  C   UNL     1     165.692 169.989 178.214  1.00  0.00     0.123 C 
ATOM     18  C   UNL     1     166.594 169.623 176.991  1.00  0.00     0.020 C 
ATOM     19  C   UNL     1     166.971 168.072 177.110  1.00  0.00     0.006 C 
ATOM     20  C   UNL     1     167.960 167.547 176.041  1.00  0.00     0.005 C 
ATOM     21  C   UNL     1     168.188 166.019 176.022  1.00  0.00     0.008 C 
ATOM     22  C   UNL     1     167.876 165.229 177.343  1.00  0.00    -0.017 C 
ATOM     23  C   UNL     1     167.940 163.603 177.146  1.00  0.00     0.009 C 
ATOM     24  C   UNL     1     169.183 163.161 176.284  1.00  0.00     0.043 C 
ATOM     25  C   UNL     1     169.065 161.770 175.611  1.00  0.00     0.124 C 
ATOM     26  C   UNL     1     168.115 162.916 178.548  1.00  0.00     0.015 C 
ATOM     27  C   UNL     1     169.018 165.663 178.332  1.00  0.00     0.013 C 
ATOM     28  C   UNL     1     167.901 170.459 177.118  1.00  0.00     0.017 C 
ATOM     29  C   UNL     1     164.969 166.781 176.108  1.00  0.00     0.012 C 
ATOM     30  C   UNL     1     164.522 159.251 173.985  1.00  0.00     0.011 C 
ENDROOT
BRANCH  25  31
ATOM     31  O   UNL     1     170.028 161.680 174.590  1.00  0.00    -0.392 OA
ATOM     32  H   UNL     1     169.930 160.785 174.175  1.00  0.00     0.210 HD
ENDBRANCH  25  31
BRANCH  18  33
ATOM     33  C   UNL     1     165.883 170.103 175.675  1.00  0.00     0.165 C 
BRANCH  33  34
ATOM     34  O   UNL     1     166.096 171.460 175.403  1.00  0.00    -0.396 OA
ATOM     35  H   UNL     1     166.087 171.931 176.277  1.00  0.00     0.210 HD
ENDBRANCH  33  34
ENDBRANCH  18  33
BRANCH  17  36
ATOM     36  O   UNL     1     165.258 171.327 178.145  1.00  0.00    -0.392 OA
ATOM     37  H   UNL     1     165.953 171.841 177.657  1.00  0.00     0.210 HD
ENDBRANCH  17  36
TORSDOF 4
ENDMDL
MODEL 8
REMARK VINA RESULT:    -6.688      4.367      9.137
REMARK INTER + INTRA:          -7.908
REMARK INTER:                  -7.798
REMARK INTRA:                  -0.111
REMARK UNBOUND:                -0.243
REMARK SMILES CC1(C)CC[C@]23CO[C@@]4(C=C[C@@H]5[C@@]6(C)CC[C@H](O)[C@](C)(CO)[C@@H]6CC[C@]5(C)[C@]4(C)C[C@@H]2O)[C@H]3C1
REMARK SMILES IDX 1 1 2 2 4 3 5 4 6 5 7 6 8 7 9 8 33 9 34 10 10 11 11 12 12 13
REMARK SMILES IDX 13 14 15 15 16 16 17 17 19 18 23 19 24 20 25 21 26 22 28 23
REMARK SMILES IDX 30 24 31 25 29 26 27 27 20 28 14 29 3 30 32 31 21 33 22 34
REMARK SMILES IDX 18 36
REMARK H PARENT 32 32 22 35 18 37
REMARK Flexibility Score: inf
ROOT
ATOM      1  C   UNL     1     167.986 175.184 174.874  1.00  0.00     0.011 C 
ATOM      2  C   UNL     1     168.174 174.269 176.106  1.00  0.00    -0.035 C 
ATOM      3  C   UNL     1     169.588 173.633 176.027  1.00  0.00     0.007 C 
ATOM      4  C   UNL     1     169.721 172.413 176.937  1.00  0.00     0.013 C 
ATOM      5  C   UNL     1     168.687 171.288 176.593  1.00  0.00     0.026 C 
ATOM      6  C   UNL     1     167.906 170.808 177.837  1.00  0.00     0.171 C 
ATOM      7  O   UNL     1     166.601 170.426 177.431  1.00  0.00    -0.369 OA
ATOM      8  C   UNL     1     166.528 170.592 176.031  1.00  0.00     0.096 C 
ATOM      9  C   UNL     1     167.527 171.754 175.723  1.00  0.00     0.037 C 
ATOM     10  C   UNL     1     167.046 173.179 176.143  1.00  0.00     0.014 C 
ATOM     11  C   UNL     1     165.109 170.933 175.641  1.00  0.00     0.005 C 
ATOM     12  C   UNL     1     164.183 170.002 175.405  1.00  0.00    -0.024 C 
ATOM     13  C   UNL     1     164.376 168.510 175.615  1.00  0.00     0.024 C 
ATOM     14  C   UNL     1     163.344 167.984 176.716  1.00  0.00    -0.022 C 
ATOM     15  C   UNL     1     161.910 168.007 176.077  1.00  0.00     0.010 C 
ATOM     16  C   UNL     1     160.856 167.212 176.845  1.00  0.00     0.033 C 
ATOM     17  C   UNL     1     161.282 165.748 177.008  1.00  0.00     0.123 C 
ATOM     18  C   UNL     1     162.609 165.615 177.823  1.00  0.00     0.020 C 
ATOM     19  C   UNL     1     163.718 166.513 177.098  1.00  0.00     0.006 C 
ATOM     20  C   UNL     1     165.142 166.420 177.698  1.00  0.00     0.005 C 
ATOM     21  C   UNL     1     166.179 167.418 177.137  1.00  0.00     0.008 C 
ATOM     22  C   UNL     1     165.902 168.020 175.714  1.00  0.00    -0.017 C 
ATOM     23  C   UNL     1     166.940 169.223 175.315  1.00  0.00     0.009 C 
ATOM     24  C   UNL     1     168.427 168.874 175.704  1.00  0.00     0.043 C 
ATOM     25  C   UNL     1     169.377 170.088 175.859  1.00  0.00     0.124 C 
ATOM     26  C   UNL     1     166.933 169.421 173.756  1.00  0.00     0.015 C 
ATOM     27  C   UNL     1     166.127 166.812 174.733  1.00  0.00     0.013 C 
ATOM     28  C   UNL     1     163.051 164.124 177.739  1.00  0.00     0.017 C 
ATOM     29  C   UNL     1     163.349 168.921 177.963  1.00  0.00     0.012 C 
ATOM     30  C   UNL     1     168.067 175.150 177.370  1.00  0.00     0.011 C 
ENDROOT
BRANCH  25  31
ATOM     31  O   UNL     1     170.519 169.679 176.572  1.00  0.00    -0.392 OA
ATOM     32  H   UNL     1     170.373 169.925 177.522  1.00  0.00     0.210 HD
ENDBRANCH  25  31
BRANCH  18  33
ATOM     33  C   UNL     1     162.308 165.906 179.336  1.00  0.00     0.165 C 
BRANCH  33  34
ATOM     34  O   UNL     1     163.022 165.073 180.206  1.00  0.00    -0.396 OA
ATOM     35  H   UNL     1     162.532 165.073 181.069  1.00  0.00     0.210 HD
ENDBRANCH  33  34
ENDBRANCH  18  33
BRANCH  17  36
ATOM     36  O   UNL     1     160.232 165.038 177.624  1.00  0.00    -0.392 OA
ATOM     37  H   UNL     1     159.378 165.412 177.281  1.00  0.00     0.210 HD
ENDBRANCH  17  36
TORSDOF 4
ENDMDL
MODEL 9
REMARK VINA RESULT:    -6.658      3.819      7.678
REMARK INTER + INTRA:          -7.875
REMARK INTER:                  -7.599
REMARK INTRA:                  -0.275
REMARK UNBOUND:                -0.243
REMARK SMILES CC1(C)CC[C@]23CO[C@@]4(C=C[C@@H]5[C@@]6(C)CC[C@H](O)[C@](C)(CO)[C@@H]6CC[C@]5(C)[C@]4(C)C[C@@H]2O)[C@H]3C1
REMARK SMILES IDX 1 1 2 2 4 3 5 4 6 5 7 6 8 7 9 8 33 9 34 10 10 11 11 12 12 13
REMARK SMILES IDX 13 14 15 15 16 16 17 17 19 18 23 19 24 20 25 21 26 22 28 23
REMARK SMILES IDX 30 24 31 25 29 26 27 27 20 28 14 29 3 30 32 31 21 33 22 34
REMARK SMILES IDX 18 36
REMARK H PARENT 32 32 22 35 18 37
REMARK Flexibility Score: inf
ROOT
ATOM      1  C   UNL     1     164.465 163.201 176.151  1.00  0.00     0.011 C 
ATOM      2  C   UNL     1     164.780 164.272 177.219  1.00  0.00    -0.035 C 
ATOM      3  C   UNL     1     163.447 164.682 177.904  1.00  0.00     0.007 C 
ATOM      4  C   UNL     1     163.571 166.005 178.656  1.00  0.00     0.013 C 
ATOM      5  C   UNL     1     163.998 167.191 177.727  1.00  0.00     0.026 C 
ATOM      6  C   UNL     1     165.203 167.976 178.293  1.00  0.00     0.171 C 
ATOM      7  O   UNL     1     165.974 168.464 177.205  1.00  0.00    -0.369 OA
ATOM      8  C   UNL     1     165.319 168.080 176.016  1.00  0.00     0.096 C 
ATOM      9  C   UNL     1     164.578 166.754 176.389  1.00  0.00     0.037 C 
ATOM     10  C   UNL     1     165.494 165.501 176.555  1.00  0.00     0.014 C 
ATOM     11  C   UNL     1     166.342 167.882 174.922  1.00  0.00     0.005 C 
ATOM     12  C   UNL     1     166.780 168.881 174.154  1.00  0.00    -0.024 C 
ATOM     13  C   UNL     1     166.422 170.344 174.345  1.00  0.00     0.024 C 
ATOM     14  C   UNL     1     167.747 171.186 174.649  1.00  0.00    -0.022 C 
ATOM     15  C   UNL     1     168.583 171.258 173.322  1.00  0.00     0.010 C 
ATOM     16  C   UNL     1     169.691 172.309 173.322  1.00  0.00     0.033 C 
ATOM     17  C   UNL     1     169.124 173.706 173.605  1.00  0.00     0.123 C 
ATOM     18  C   UNL     1     168.446 173.785 175.011  1.00  0.00     0.020 C 
ATOM     19  C   UNL     1     167.338 172.632 175.084  1.00  0.00     0.006 C 
ATOM     20  C   UNL     1     166.475 172.623 176.370  1.00  0.00     0.005 C 
ATOM     21  C   UNL     1     165.534 171.411 176.544  1.00  0.00     0.008 C 
ATOM     22  C   UNL     1     165.124 170.626 175.247  1.00  0.00    -0.017 C 
ATOM     23  C   UNL     1     164.312 169.239 175.570  1.00  0.00     0.009 C 
ATOM     24  C   UNL     1     163.231 169.437 176.699  1.00  0.00     0.043 C 
ATOM     25  C   UNL     1     162.790 168.144 177.431  1.00  0.00     0.124 C 
ATOM     26  C   UNL     1     163.524 168.788 174.286  1.00  0.00     0.015 C 
ATOM     27  C   UNL     1     164.163 171.610 174.487  1.00  0.00     0.013 C 
ATOM     28  C   UNL     1     167.729 175.164 175.098  1.00  0.00     0.017 C 
ATOM     29  C   UNL     1     168.606 170.478 175.741  1.00  0.00     0.012 C 
ATOM     30  C   UNL     1     165.728 163.638 178.260  1.00  0.00     0.011 C 
ENDROOT
BRANCH  25  31
ATOM     31  O   UNL     1     162.152 168.502 178.633  1.00  0.00    -0.392 OA
ATOM     32  H   UNL     1     162.043 169.488 178.622  1.00  0.00     0.210 HD
ENDBRANCH  25  31
BRANCH  18  33
ATOM     33  C   UNL     1     169.564 173.795 176.114  1.00  0.00     0.165 C 
BRANCH  33  34
ATOM     34  O   UNL     1     170.031 175.082 176.408  1.00  0.00    -0.396 OA
ATOM     35  H   UNL     1     169.250 175.691 176.343  1.00  0.00     0.210 HD
ENDBRANCH  33  34
ENDBRANCH  18  33
BRANCH  17  36
ATOM     36  O   UNL     1     170.165 174.648 173.487  1.00  0.00    -0.392 OA
ATOM     37  H   UNL     1     169.862 175.484 173.930  1.00  0.00     0.210 HD
ENDBRANCH  17  36
TORSDOF 4
ENDMDL
