MODEL 1
REMARK VINA RESULT:     0.364      0.000      0.000
REMARK INTER + INTRA:           0.970
REMARK INTER:                   0.449
REMARK INTRA:                   0.521
REMARK UNBOUND:                 0.521
REMARK SMILES O=c1c(O)c(-c2cc(O)c(O)c(O)c2)oc2cc(O)cc(O)c12
REMARK SMILES IDX 5 1 3 2 2 3 1 4 23 5 21 6 20 7 18 8 17 9 16 10 15 11 6 12
REMARK SMILES IDX 7 13 8 14 14 15 10 16 12 17 9 18 11 20 13 22 4 24 22 26
REMARK SMILES IDX 19 28
REMARK H PARENT 9 19 11 21 13 23 4 25 22 27 19 29
REMARK Flexibility Score: inf
ROOT
ATOM      1  C   UNL     1      18.998   0.646  12.031  1.00  0.00     0.180 A 
ATOM      2  C   UNL     1      18.469  -0.064  10.940  1.00  0.00     0.208 A 
ATOM      3  C   UNL     1      18.508  -1.468  10.957  1.00  0.00     0.238 A 
ATOM      4  O   UNL     1      17.983  -2.099  10.002  1.00  0.00    -0.285 OA
ATOM      5  C   UNL     1      19.092  -2.143  12.055  1.00  0.00     0.111 A 
ATOM      6  C   UNL     1      19.222  -3.560  12.159  1.00  0.00     0.134 A 
ATOM      7  C   UNL     1      19.698  -4.125  13.349  1.00  0.00     0.093 A 
ATOM      8  C   UNL     1      20.109  -3.323  14.413  1.00  0.00     0.123 A 
ATOM      9  C   UNL     1      20.041  -1.934  14.300  1.00  0.00     0.094 A 
ATOM     10  C   UNL     1      19.537  -1.342  13.139  1.00  0.00     0.146 A 
ATOM     11  O   UNL     1      19.480  -0.017  13.076  1.00  0.00    -0.452 OA
ENDROOT
BRANCH   1  12
ATOM     12  C   UNL     1      19.015   2.126  12.074  1.00  0.00     0.029 A 
ATOM     13  C   UNL     1      19.455   2.820  13.215  1.00  0.00     0.062 A 
ATOM     14  C   UNL     1      19.441   4.221  13.245  1.00  0.00     0.162 A 
ATOM     15  C   UNL     1      18.527   2.855  10.978  1.00  0.00     0.062 A 
ATOM     16  C   UNL     1      18.974   4.941  12.138  1.00  0.00     0.200 A 
ATOM     17  C   UNL     1      18.512   4.256  11.002  1.00  0.00     0.162 A 
BRANCH  14  18
ATOM     18  O   UNL     1      19.886   4.905  14.375  1.00  0.00    -0.504 OA
ATOM     19  H   UNL     1      20.751   5.433  14.369  1.00  0.00     0.293 HD
ENDBRANCH  14  18
BRANCH  16  20
ATOM     20  O   UNL     1      18.971   6.336  12.184  1.00  0.00    -0.502 OA
ATOM     21  H   UNL     1      18.183   6.862  12.542  1.00  0.00     0.293 HD
ENDBRANCH  16  20
BRANCH  17  22
ATOM     22  O   UNL     1      18.039   4.969   9.902  1.00  0.00    -0.504 OA
ATOM     23  H   UNL     1      17.708   4.500   9.066  1.00  0.00     0.293 HD
ENDBRANCH  17  22
ENDBRANCH   1  12
BRANCH   2  24
ATOM     24  O   UNL     1      17.877   0.622   9.876  1.00  0.00    -0.502 OA
ATOM     25  H   UNL     1      17.167   0.204   9.286  1.00  0.00     0.293 HD
ENDBRANCH   2  24
BRANCH   6  26
ATOM     26  O   UNL     1      18.927  -4.449  11.121  1.00  0.00    -0.507 OA
ATOM     27  H   UNL     1      18.157  -5.099  11.123  1.00  0.00     0.293 HD
ENDBRANCH   6  26
BRANCH   8  28
ATOM     28  O   UNL     1      20.591  -3.919  15.576  1.00  0.00    -0.508 OA
ATOM     29  H   UNL     1      21.202  -3.420  16.212  1.00  0.00     0.293 HD
ENDBRANCH   8  28
TORSDOF 7
ENDMDL
