MODEL 1
REMARK VINA RESULT:    -3.435      0.000      0.000
REMARK INTER + INTRA:          -7.705
REMARK INTER:                  -6.045
REMARK INTRA:                  -1.659
REMARK UNBOUND:                -1.659
REMARK SMILES CCCCCCCCCCCCCCC(=O)[O-]
REMARK SMILES IDX 9 1 10 2 11 3 12 4 13 5 14 6 15 7 16 8 17 9 8 10 7 11 6 12
REMARK SMILES IDX 5 13 4 14 3 15 2 16 1 17
REMARK H PARENT
REMARK Flexibility Score: inf
ROOT
ATOM      1  C   UNL     1      15.984 -13.810 187.255  1.00  0.00     0.000 C 
ENDROOT
BRANCH   1   2
ATOM      2  C   UNL     1      17.191 -14.552 186.654  1.00  0.00     0.000 C 
BRANCH   2   3
ATOM      3  C   UNL     1      18.522 -13.811 186.876  1.00  0.00     0.000 C 
BRANCH   3   4
ATOM      4  C   UNL     1      18.415 -12.276 186.937  1.00  0.00     0.000 C 
BRANCH   4   5
ATOM      5  C   UNL     1      19.621 -11.618 187.629  1.00  0.00     0.006 C 
BRANCH   5   6
ATOM      6  C   UNL     1      19.860 -10.185 187.133  1.00  0.00     0.053 C 
BRANCH   6   7
ATOM      7  C   UNL     1      19.423  -9.168 188.142  1.00  0.00     0.041 C 
ATOM      8  O   UNL     1      19.102  -8.007 187.775  1.00  0.00    -0.550 OA
ATOM      9  O   UNL     1      19.393  -9.495 189.492  1.00  0.00    -0.550 OA
ENDBRANCH   6   7
ENDBRANCH   5   6
ENDBRANCH   4   5
ENDBRANCH   3   4
ENDBRANCH   2   3
ENDBRANCH   1   2
BRANCH   1  10
ATOM     10  C   UNL     1      14.743 -13.876 186.349  1.00  0.00     0.000 C 
BRANCH  10  11
ATOM     11  C   UNL     1      15.087 -14.299 184.910  1.00  0.00    -0.000 C 
BRANCH  11  12
ATOM     12  C   UNL     1      14.919 -13.151 183.901  1.00  0.00    -0.000 C 
BRANCH  12  13
ATOM     13  C   UNL     1      16.083 -12.150 183.939  1.00  0.00    -0.000 C 
BRANCH  13  14
ATOM     14  C   UNL     1      15.565 -10.708 183.995  1.00  0.00    -0.000 C 
BRANCH  14  15
ATOM     15  C   UNL     1      16.186  -9.945 185.176  1.00  0.00    -0.000 C 
BRANCH  15  16
ATOM     16  C   UNL     1      17.236  -8.918 184.727  1.00  0.00    -0.003 C 
ATOM     17  C   UNL     1      16.869  -7.487 185.120  1.00  0.00     0.004 C 
ENDBRANCH  15  16
ENDBRANCH  14  15
ENDBRANCH  13  14
ENDBRANCH  12  13
ENDBRANCH  11  12
ENDBRANCH  10  11
ENDBRANCH   1  10
TORSDOF 13
ENDMDL
MODEL 2
REMARK VINA RESULT:    -3.364      3.057      5.391
REMARK INTER + INTRA:          -7.580
REMARK INTER:                  -6.175
REMARK INTRA:                  -1.405
REMARK UNBOUND:                -1.659
REMARK SMILES CCCCCCCCCCCCCCC(=O)[O-]
REMARK SMILES IDX 9 1 10 2 11 3 12 4 13 5 14 6 15 7 16 8 17 9 8 10 7 11 6 12
REMARK SMILES IDX 5 13 4 14 3 15 2 16 1 17
REMARK H PARENT
REMARK Flexibility Score: inf
ROOT
ATOM      1  C   UNL     1      20.122  -9.689 187.652  1.00  0.00     0.000 C 
ENDROOT
BRANCH   1   2
ATOM      2  C   UNL     1      19.034 -10.735 187.954  1.00  0.00     0.000 C 
BRANCH   2   3
ATOM      3  C   UNL     1      19.292 -12.085 187.260  1.00  0.00     0.000 C 
BRANCH   3   4
ATOM      4  C   UNL     1      18.029 -12.850 186.825  1.00  0.00     0.000 C 
BRANCH   4   5
ATOM      5  C   UNL     1      18.213 -14.377 186.855  1.00  0.00     0.006 C 
BRANCH   5   6
ATOM      6  C   UNL     1      17.078 -15.082 187.611  1.00  0.00     0.053 C 
BRANCH   6   7
ATOM      7  C   UNL     1      15.995 -15.542 186.685  1.00  0.00     0.041 C 
ATOM      8  O   UNL     1      14.794 -15.543 187.063  1.00  0.00    -0.550 OA
ATOM      9  O   UNL     1      16.315 -15.995 185.411  1.00  0.00    -0.550 OA
ENDBRANCH   6   7
ENDBRANCH   5   6
ENDBRANCH   4   5
ENDBRANCH   3   4
ENDBRANCH   2   3
ENDBRANCH   1   2
BRANCH   1  10
ATOM     10  C   UNL     1      19.923  -9.012 186.285  1.00  0.00     0.000 C 
BRANCH  10  11
ATOM     11  C   UNL     1      18.603  -8.225 186.205  1.00  0.00    -0.000 C 
BRANCH  11  12
ATOM     12  C   UNL     1      17.756  -8.618 184.984  1.00  0.00    -0.000 C 
BRANCH  12  13
ATOM     13  C   UNL     1      16.861  -9.838 185.249  1.00  0.00    -0.000 C 
BRANCH  13  14
ATOM     14  C   UNL     1      15.825 -10.010 184.132  1.00  0.00    -0.000 C 
BRANCH  14  15
ATOM     15  C   UNL     1      14.562 -10.711 184.656  1.00  0.00    -0.000 C 
BRANCH  15  16
ATOM     16  C   UNL     1      14.824 -12.168 185.064  1.00  0.00    -0.003 C 
ATOM     17  C   UNL     1      15.165 -13.065 183.875  1.00  0.00     0.004 C 
ENDBRANCH  15  16
ENDBRANCH  14  15
ENDBRANCH  13  14
ENDBRANCH  12  13
ENDBRANCH  11  12
ENDBRANCH  10  11
ENDBRANCH   1  10
TORSDOF 13
ENDMDL
MODEL 3
REMARK VINA RESULT:    -3.356      1.544      2.691
REMARK INTER + INTRA:          -7.566
REMARK INTER:                  -5.452
REMARK INTRA:                  -2.114
REMARK UNBOUND:                -1.659
REMARK SMILES CCCCCCCCCCCCCCC(=O)[O-]
REMARK SMILES IDX 9 1 10 2 11 3 12 4 13 5 14 6 15 7 16 8 17 9 8 10 7 11 6 12
REMARK SMILES IDX 5 13 4 14 3 15 2 16 1 17
REMARK H PARENT
REMARK Flexibility Score: inf
ROOT
ATOM      1  C   UNL     1      17.424 -15.037 186.801  1.00  0.00     0.000 C 
ENDROOT
BRANCH   1   2
ATOM      2  C   UNL     1      18.626 -14.077 186.863  1.00  0.00     0.000 C 
BRANCH   2   3
ATOM      3  C   UNL     1      18.209 -12.595 186.892  1.00  0.00     0.000 C 
BRANCH   3   4
ATOM      4  C   UNL     1      19.337 -11.603 187.227  1.00  0.00     0.000 C 
BRANCH   4   5
ATOM      5  C   UNL     1      18.891 -10.490 188.190  1.00  0.00     0.006 C 
BRANCH   5   6
ATOM      6  C   UNL     1      18.073  -9.403 187.478  1.00  0.00     0.053 C 
BRANCH   6   7
ATOM      7  C   UNL     1      18.831  -8.796 186.337  1.00  0.00     0.041 C 
ATOM      8  O   UNL     1      18.380  -8.870 185.164  1.00  0.00    -0.550 OA
ATOM      9  O   UNL     1      20.049  -8.169 186.567  1.00  0.00    -0.550 OA
ENDBRANCH   6   7
ENDBRANCH   5   6
ENDBRANCH   4   5
ENDBRANCH   3   4
ENDBRANCH   2   3
ENDBRANCH   1   2
BRANCH   1  10
ATOM     10  C   UNL     1      16.217 -14.520 187.601  1.00  0.00     0.000 C 
BRANCH  10  11
ATOM     11  C   UNL     1      14.896 -14.650 186.822  1.00  0.00    -0.000 C 
BRANCH  11  12
ATOM     12  C   UNL     1      13.950 -13.463 187.063  1.00  0.00    -0.000 C 
BRANCH  12  13
ATOM     13  C   UNL     1      14.522 -12.438 188.054  1.00  0.00    -0.000 C 
BRANCH  13  14
ATOM     14  C   UNL     1      14.861 -11.121 187.346  1.00  0.00    -0.000 C 
BRANCH  14  15
ATOM     15  C   UNL     1      14.401 -11.150 185.880  1.00  0.00    -0.000 C 
BRANCH  15  16
ATOM     16  C   UNL     1      15.548 -10.869 184.897  1.00  0.00    -0.003 C 
ATOM     17  C   UNL     1      15.887 -12.076 184.024  1.00  0.00     0.004 C 
ENDBRANCH  15  16
ENDBRANCH  14  15
ENDBRANCH  13  14
ENDBRANCH  12  13
ENDBRANCH  11  12
ENDBRANCH  10  11
ENDBRANCH   1  10
TORSDOF 13
ENDMDL
MODEL 4
REMARK VINA RESULT:    -3.348      1.188      1.791
REMARK INTER + INTRA:          -7.551
REMARK INTER:                  -5.341
REMARK INTRA:                  -2.210
REMARK UNBOUND:                -1.659
REMARK SMILES CCCCCCCCCCCCCCC(=O)[O-]
REMARK SMILES IDX 9 1 10 2 11 3 12 4 13 5 14 6 15 7 16 8 17 9 8 10 7 11 6 12
REMARK SMILES IDX 5 13 4 14 3 15 2 16 1 17
REMARK H PARENT
REMARK Flexibility Score: inf
ROOT
ATOM      1  C   UNL     1      16.102 -14.011 187.303  1.00  0.00     0.000 C 
ENDROOT
BRANCH   1   2
ATOM      2  C   UNL     1      17.370 -14.483 186.569  1.00  0.00     0.000 C 
BRANCH   2   3
ATOM      3  C   UNL     1      18.625 -13.686 186.965  1.00  0.00     0.000 C 
BRANCH   3   4
ATOM      4  C   UNL     1      18.479 -12.155 186.891  1.00  0.00     0.000 C 
BRANCH   4   5
ATOM      5  C   UNL     1      19.521 -11.411 187.744  1.00  0.00     0.006 C 
BRANCH   5   6
ATOM      6  C   UNL     1      19.991 -10.111 187.078  1.00  0.00     0.053 C 
BRANCH   6   7
ATOM      7  C   UNL     1      18.893  -9.094 187.006  1.00  0.00     0.041 C 
ATOM      8  O   UNL     1      18.365  -8.655 188.061  1.00  0.00    -0.550 OA
ATOM      9  O   UNL     1      18.436  -8.650 185.771  1.00  0.00    -0.550 OA
ENDBRANCH   6   7
ENDBRANCH   5   6
ENDBRANCH   4   5
ENDBRANCH   3   4
ENDBRANCH   2   3
ENDBRANCH   1   2
BRANCH   1  10
ATOM     10  C   UNL     1      14.856 -14.037 186.401  1.00  0.00     0.000 C 
BRANCH  10  11
ATOM     11  C   UNL     1      15.208 -14.239 184.917  1.00  0.00    -0.000 C 
BRANCH  11  12
ATOM     12  C   UNL     1      14.903 -12.997 184.065  1.00  0.00    -0.000 C 
BRANCH  12  13
ATOM     13  C   UNL     1      16.096 -12.035 183.967  1.00  0.00    -0.000 C 
BRANCH  13  14
ATOM     14  C   UNL     1      15.829 -10.749 184.760  1.00  0.00    -0.000 C 
BRANCH  14  15
ATOM     15  C   UNL     1      14.330 -10.585 185.053  1.00  0.00    -0.000 C 
BRANCH  15  16
ATOM     16  C   UNL     1      14.040 -10.377 186.547  1.00  0.00    -0.003 C 
ATOM     17  C   UNL     1      15.309 -10.361 187.399  1.00  0.00     0.004 C 
ENDBRANCH  15  16
ENDBRANCH  14  15
ENDBRANCH  13  14
ENDBRANCH  12  13
ENDBRANCH  11  12
ENDBRANCH  10  11
ENDBRANCH   1  10
TORSDOF 13
ENDMDL
MODEL 5
REMARK VINA RESULT:    -3.340      1.539      4.021
REMARK INTER + INTRA:          -7.538
REMARK INTER:                  -5.875
REMARK INTRA:                  -1.663
REMARK UNBOUND:                -1.659
REMARK SMILES CCCCCCCCCCCCCCC(=O)[O-]
REMARK SMILES IDX 9 1 10 2 11 3 12 4 13 5 14 6 15 7 16 8 17 9 8 10 7 11 6 12
REMARK SMILES IDX 5 13 4 14 3 15 2 16 1 17
REMARK H PARENT
REMARK Flexibility Score: inf
ROOT
ATOM      1  C   UNL     1      14.627 -14.784 185.955  1.00  0.00     0.000 C 
ENDROOT
BRANCH   1   2
ATOM      2  C   UNL     1      14.401 -13.355 185.428  1.00  0.00     0.000 C 
BRANCH   2   3
ATOM      3  C   UNL     1      14.991 -13.134 184.023  1.00  0.00     0.000 C 
BRANCH   3   4
ATOM      4  C   UNL     1      15.998 -11.975 183.910  1.00  0.00     0.000 C 
BRANCH   4   5
ATOM      5  C   UNL     1      15.343 -10.593 184.082  1.00  0.00     0.006 C 
BRANCH   5   6
ATOM      6  C   UNL     1      15.722  -9.935 185.415  1.00  0.00     0.053 C 
BRANCH   6   7
ATOM      7  C   UNL     1      16.770  -8.880 185.236  1.00  0.00     0.041 C 
ATOM      8  O   UNL     1      17.599  -8.962 184.292  1.00  0.00    -0.550 OA
ATOM      9  O   UNL     1      16.846  -7.817 186.127  1.00  0.00    -0.550 OA
ENDBRANCH   6   7
ENDBRANCH   5   6
ENDBRANCH   4   5
ENDBRANCH   3   4
ENDBRANCH   2   3
ENDBRANCH   1   2
BRANCH   1  10
ATOM     10  C   UNL     1      16.018 -15.331 185.594  1.00  0.00     0.000 C 
BRANCH  10  11
ATOM     11  C   UNL     1      16.946 -15.431 186.818  1.00  0.00    -0.000 C 
BRANCH  11  12
ATOM     12  C   UNL     1      18.088 -14.403 186.778  1.00  0.00    -0.000 C 
BRANCH  12  13
ATOM     13  C   UNL     1      17.630 -12.991 187.174  1.00  0.00    -0.000 C 
BRANCH  13  14
ATOM     14  C   UNL     1      18.530 -11.925 186.537  1.00  0.00    -0.000 C 
BRANCH  14  15
ATOM     15  C   UNL     1      19.688 -11.550 187.475  1.00  0.00    -0.000 C 
BRANCH  15  16
ATOM     16  C   UNL     1      19.778 -10.037 187.725  1.00  0.00    -0.003 C 
ATOM     17  C   UNL     1      18.699  -9.530 188.681  1.00  0.00     0.004 C 
ENDBRANCH  15  16
ENDBRANCH  14  15
ENDBRANCH  13  14
ENDBRANCH  12  13
ENDBRANCH  11  12
ENDBRANCH  10  11
ENDBRANCH   1  10
TORSDOF 13
ENDMDL
MODEL 6
REMARK VINA RESULT:    -3.325     18.452     20.518
REMARK INTER + INTRA:          -7.512
REMARK INTER:                  -5.307
REMARK INTRA:                  -2.204
REMARK UNBOUND:                -1.659
REMARK SMILES CCCCCCCCCCCCCCC(=O)[O-]
REMARK SMILES IDX 9 1 10 2 11 3 12 4 13 5 14 6 15 7 16 8 17 9 8 10 7 11 6 12
REMARK SMILES IDX 5 13 4 14 3 15 2 16 1 17
REMARK H PARENT
REMARK Flexibility Score: inf
ROOT
ATOM      1  C   UNL     1      13.934  -2.984 202.144  1.00  0.00     0.000 C 
ENDROOT
BRANCH   1   2
ATOM      2  C   UNL     1      13.692  -2.452 203.568  1.00  0.00     0.000 C 
BRANCH   2   3
ATOM      3  C   UNL     1      12.426  -1.584 203.676  1.00  0.00     0.000 C 
BRANCH   3   4
ATOM      4  C   UNL     1      11.244  -2.036 202.800  1.00  0.00     0.000 C 
BRANCH   4   5
ATOM      5  C   UNL     1      10.719  -0.922 201.878  1.00  0.00     0.006 C 
BRANCH   5   6
ATOM      6  C   UNL     1      10.763   0.455 202.553  1.00  0.00     0.053 C 
BRANCH   6   7
ATOM      7  C   UNL     1       9.495   1.222 202.334  1.00  0.00     0.041 C 
ATOM      8  O   UNL     1       9.330   2.345 202.879  1.00  0.00    -0.550 OA
ATOM      9  O   UNL     1       8.484   0.684 201.548  1.00  0.00    -0.550 OA
ENDBRANCH   6   7
ENDBRANCH   5   6
ENDBRANCH   4   5
ENDBRANCH   3   4
ENDBRANCH   2   3
ENDBRANCH   1   2
BRANCH   1  10
ATOM     10  C   UNL     1      14.816  -2.043 201.306  1.00  0.00     0.000 C 
BRANCH  10  11
ATOM     11  C   UNL     1      13.999  -1.215 200.298  1.00  0.00    -0.000 C 
BRANCH  11  12
ATOM     12  C   UNL     1      13.966   0.280 200.653  1.00  0.00    -0.000 C 
BRANCH  12  13
ATOM     13  C   UNL     1      15.245   0.752 201.359  1.00  0.00    -0.000 C 
BRANCH  13  14
ATOM     14  C   UNL     1      14.950   1.174 202.804  1.00  0.00    -0.000 C 
BRANCH  14  15
ATOM     15  C   UNL     1      15.931   0.512 203.783  1.00  0.00    -0.000 C 
BRANCH  15  16
ATOM     16  C   UNL     1      17.368   0.473 203.242  1.00  0.00    -0.003 C 
ATOM     17  C   UNL     1      17.914  -0.948 203.113  1.00  0.00     0.004 C 
ENDBRANCH  15  16
ENDBRANCH  14  15
ENDBRANCH  13  14
ENDBRANCH  12  13
ENDBRANCH  11  12
ENDBRANCH  10  11
ENDBRANCH   1  10
TORSDOF 13
ENDMDL
MODEL 7
REMARK VINA RESULT:    -3.308      1.717      4.166
REMARK INTER + INTRA:          -7.482
REMARK INTER:                  -6.014
REMARK INTRA:                  -1.468
REMARK UNBOUND:                -1.659
REMARK SMILES CCCCCCCCCCCCCCC(=O)[O-]
REMARK SMILES IDX 9 1 10 2 11 3 12 4 13 5 14 6 15 7 16 8 17 9 8 10 7 11 6 12
REMARK SMILES IDX 5 13 4 14 3 15 2 16 1 17
REMARK H PARENT
REMARK Flexibility Score: inf
ROOT
ATOM      1  C   UNL     1      17.020 -11.519 186.706  1.00  0.00     0.000 C 
ENDROOT
BRANCH   1   2
ATOM      2  C   UNL     1      18.245 -12.444 186.821  1.00  0.00     0.000 C 
BRANCH   2   3
ATOM      3  C   UNL     1      19.459 -11.753 187.466  1.00  0.00     0.000 C 
BRANCH   3   4
ATOM      4  C   UNL     1      19.138 -10.482 188.274  1.00  0.00     0.000 C 
BRANCH   4   5
ATOM      5  C   UNL     1      19.933  -9.253 187.800  1.00  0.00     0.006 C 
BRANCH   5   6
ATOM      6  C   UNL     1      19.705  -8.956 186.312  1.00  0.00     0.053 C 
BRANCH   6   7
ATOM      7  C   UNL     1      18.755  -7.814 186.112  1.00  0.00     0.041 C 
ATOM      8  O   UNL     1      17.628  -8.011 185.589  1.00  0.00    -0.550 OA
ATOM      9  O   UNL     1      19.127  -6.528 186.484  1.00  0.00    -0.550 OA
ENDBRANCH   6   7
ENDBRANCH   5   6
ENDBRANCH   4   5
ENDBRANCH   3   4
ENDBRANCH   2   3
ENDBRANCH   1   2
BRANCH   1  10
ATOM     10  C   UNL     1      16.557 -11.334 185.251  1.00  0.00     0.000 C 
BRANCH  10  11
ATOM     11  C   UNL     1      15.243 -12.078 184.953  1.00  0.00    -0.000 C 
BRANCH  11  12
ATOM     12  C   UNL     1      15.458 -13.578 184.700  1.00  0.00    -0.000 C 
BRANCH  12  13
ATOM     13  C   UNL     1      15.052 -14.448 185.899  1.00  0.00    -0.000 C 
BRANCH  13  14
ATOM     14  C   UNL     1      16.136 -15.487 186.214  1.00  0.00    -0.000 C 
BRANCH  14  15
ATOM     15  C   UNL     1      16.432 -15.533 187.721  1.00  0.00    -0.000 C 
BRANCH  15  16
ATOM     16  C   UNL     1      17.815 -16.124 188.032  1.00  0.00    -0.003 C 
ATOM     17  C   UNL     1      18.852 -15.801 186.957  1.00  0.00     0.004 C 
ENDBRANCH  15  16
ENDBRANCH  14  15
ENDBRANCH  13  14
ENDBRANCH  12  13
ENDBRANCH  11  12
ENDBRANCH  10  11
ENDBRANCH   1  10
TORSDOF 13
ENDMDL
MODEL 8
REMARK VINA RESULT:    -3.296     18.288     20.251
REMARK INTER + INTRA:          -7.460
REMARK INTER:                  -5.183
REMARK INTRA:                  -2.278
REMARK UNBOUND:                -1.659
REMARK SMILES CCCCCCCCCCCCCCC(=O)[O-]
REMARK SMILES IDX 9 1 10 2 11 3 12 4 13 5 14 6 15 7 16 8 17 9 8 10 7 11 6 12
REMARK SMILES IDX 5 13 4 14 3 15 2 16 1 17
REMARK H PARENT
REMARK Flexibility Score: inf
ROOT
ATOM      1  C   UNL     1      15.253  -0.452 200.159  1.00  0.00     0.000 C 
ENDROOT
BRANCH   1   2
ATOM      2  C   UNL     1      14.242  -1.379 200.858  1.00  0.00     0.000 C 
BRANCH   2   3
ATOM      3  C   UNL     1      14.917  -2.488 201.684  1.00  0.00     0.000 C 
BRANCH   3   4
ATOM      4  C   UNL     1      14.142  -2.939 202.935  1.00  0.00     0.000 C 
BRANCH   4   5
ATOM      5  C   UNL     1      13.559  -1.761 203.736  1.00  0.00     0.006 C 
BRANCH   5   6
ATOM      6  C   UNL     1      12.055  -1.924 203.991  1.00  0.00     0.053 C 
BRANCH   6   7
ATOM      7  C   UNL     1      11.239  -1.450 202.827  1.00  0.00     0.041 C 
ATOM      8  O   UNL     1      10.897  -2.256 201.922  1.00  0.00    -0.550 OA
ATOM      9  O   UNL     1      10.878  -0.113 202.729  1.00  0.00    -0.550 OA
ENDBRANCH   6   7
ENDBRANCH   5   6
ENDBRANCH   4   5
ENDBRANCH   3   4
ENDBRANCH   2   3
ENDBRANCH   1   2
BRANCH   1  10
ATOM     10  C   UNL     1      15.065   1.024 200.548  1.00  0.00     0.000 C 
BRANCH  10  11
ATOM     11  C   UNL     1      14.015   1.210 201.658  1.00  0.00    -0.000 C 
BRANCH  11  12
ATOM     12  C   UNL     1      14.618   1.786 202.949  1.00  0.00    -0.000 C 
BRANCH  12  13
ATOM     13  C   UNL     1      16.137   1.574 203.043  1.00  0.00    -0.000 C 
BRANCH  13  14
ATOM     14  C   UNL     1      16.462   0.270 203.783  1.00  0.00    -0.000 C 
BRANCH  14  15
ATOM     15  C   UNL     1      17.943  -0.104 203.613  1.00  0.00    -0.000 C 
BRANCH  15  16
ATOM     16  C   UNL     1      18.132  -1.488 202.975  1.00  0.00    -0.003 C 
ATOM     17  C   UNL     1      18.537  -1.412 201.504  1.00  0.00     0.004 C 
ENDBRANCH  15  16
ENDBRANCH  14  15
ENDBRANCH  13  14
ENDBRANCH  12  13
ENDBRANCH  11  12
ENDBRANCH  10  11
ENDBRANCH   1  10
TORSDOF 13
ENDMDL
MODEL 9
REMARK VINA RESULT:    -3.218     17.309     19.855
REMARK INTER + INTRA:          -7.323
REMARK INTER:                  -4.701
REMARK INTRA:                  -2.622
REMARK UNBOUND:                -1.659
REMARK SMILES CCCCCCCCCCCCCCC(=O)[O-]
REMARK SMILES IDX 9 1 10 2 11 3 12 4 13 5 14 6 15 7 16 8 17 9 8 10 7 11 6 12
REMARK SMILES IDX 5 13 4 14 3 15 2 16 1 17
REMARK H PARENT
REMARK Flexibility Score: inf
ROOT
ATOM      1  C   UNL     1      12.323   0.746 202.522  1.00  0.00     0.000 C 
ENDROOT
BRANCH   1   2
ATOM      2  C   UNL     1      13.243   1.106 201.342  1.00  0.00     0.000 C 
BRANCH   2   3
ATOM      3  C   UNL     1      14.696   1.374 201.775  1.00  0.00     0.000 C 
BRANCH   3   4
ATOM      4  C   UNL     1      14.933   1.397 203.296  1.00  0.00     0.000 C 
BRANCH   4   5
ATOM      5  C   UNL     1      16.057   0.446 203.743  1.00  0.00     0.006 C 
BRANCH   5   6
ATOM      6  C   UNL     1      17.408   0.814 203.114  1.00  0.00     0.053 C 
BRANCH   6   7
ATOM      7  C   UNL     1      18.126  -0.394 202.595  1.00  0.00     0.041 C 
ATOM      8  O   UNL     1      18.713  -1.174 203.391  1.00  0.00    -0.550 OA
ATOM      9  O   UNL     1      18.168  -0.645 201.230  1.00  0.00    -0.550 OA
ENDBRANCH   6   7
ENDBRANCH   5   6
ENDBRANCH   4   5
ENDBRANCH   3   4
ENDBRANCH   2   3
ENDBRANCH   1   2
BRANCH   1  10
ATOM     10  C   UNL     1      11.260  -0.299 202.141  1.00  0.00     0.000 C 
BRANCH  10  11
ATOM     11  C   UNL     1      11.497  -1.656 202.825  1.00  0.00    -0.000 C 
BRANCH  11  12
ATOM     12  C   UNL     1      12.549  -1.577 203.944  1.00  0.00    -0.000 C 
BRANCH  12  13
ATOM     13  C   UNL     1      13.732  -2.530 203.716  1.00  0.00    -0.000 C 
BRANCH  13  14
ATOM     14  C   UNL     1      13.825  -2.945 202.243  1.00  0.00    -0.000 C 
BRANCH  14  15
ATOM     15  C   UNL     1      15.146  -2.467 201.619  1.00  0.00    -0.000 C 
BRANCH  15  16
ATOM     16  C   UNL     1      14.962  -1.919 200.196  1.00  0.00    -0.003 C 
ATOM     17  C   UNL     1      13.566  -2.186 199.635  1.00  0.00     0.004 C 
ENDBRANCH  15  16
ENDBRANCH  14  15
ENDBRANCH  13  14
ENDBRANCH  12  13
ENDBRANCH  11  12
ENDBRANCH  10  11
ENDBRANCH   1  10
TORSDOF 13
ENDMDL
