MODEL 1
REMARK VINA RESULT:    -3.460      0.000      0.000
REMARK INTER + INTRA:          -8.604
REMARK INTER:                  -6.292
REMARK INTRA:                  -2.313
REMARK UNBOUND:                -2.313
REMARK SMILES CCCCCCCCCCCCCC[C@@H](C)C(=O)[O-]
REMARK SMILES IDX 9 1 10 2 11 3 12 4 13 5 14 6 15 7 16 8 17 9 18 10 19 11 8 12
REMARK SMILES IDX 7 13 6 14 5 15 4 16 3 17 2 18 1 19
REMARK H PARENT
REMARK Flexibility Score: inf
ROOT
ATOM      1  C   UNL     1      62.525  32.893  60.624  1.00  0.00     0.000 C 
ENDROOT
BRANCH   1   2
ATOM      2  C   UNL     1      61.171  32.528  59.990  1.00  0.00     0.000 C 
BRANCH   2   3
ATOM      3  C   UNL     1      60.724  31.096  60.318  1.00  0.00     0.000 C 
BRANCH   3   4
ATOM      4  C   UNL     1      61.230  30.669  61.705  1.00  0.00     0.000 C 
BRANCH   4   5
ATOM      5  C   UNL     1      62.103  29.405  61.656  1.00  0.00     0.001 C 
BRANCH   5   6
ATOM      6  C   UNL     1      63.604  29.727  61.550  1.00  0.00     0.009 C 
BRANCH   6   7
ATOM      7  C   UNL     1      64.172  29.455  60.139  1.00  0.00     0.032 C 
ATOM      8  C   UNL     1      65.600  29.995  59.970  1.00  0.00     0.014 C 
BRANCH   7   9
ATOM      9  C   UNL     1      64.153  27.979  59.853  1.00  0.00     0.044 C 
ATOM     10  O   UNL     1      63.518  27.526  58.862  1.00  0.00    -0.550 OA
ATOM     11  O   UNL     1      64.838  27.102  60.684  1.00  0.00    -0.550 OA
ENDBRANCH   7   9
ENDBRANCH   6   7
ENDBRANCH   5   6
ENDBRANCH   4   5
ENDBRANCH   3   4
ENDBRANCH   2   3
ENDBRANCH   1   2
BRANCH   1  12
ATOM     12  C   UNL     1      63.660  33.186  59.621  1.00  0.00     0.000 C 
BRANCH  12  13
ATOM     13  C   UNL     1      64.591  34.347  60.014  1.00  0.00    -0.000 C 
BRANCH  13  14
ATOM     14  C   UNL     1      64.369  34.823  61.461  1.00  0.00    -0.000 C 
BRANCH  14  15
ATOM     15  C   UNL     1      64.218  36.349  61.566  1.00  0.00    -0.000 C 
BRANCH  15  16
ATOM     16  C   UNL     1      63.127  36.898  60.631  1.00  0.00    -0.000 C 
BRANCH  16  17
ATOM     17  C   UNL     1      61.713  36.474  61.062  1.00  0.00    -0.000 C 
BRANCH  17  18
ATOM     18  C   UNL     1      60.763  36.283  59.870  1.00  0.00    -0.003 C 
ATOM     19  C   UNL     1      61.543  36.069  58.576  1.00  0.00     0.004 C 
ENDBRANCH  17  18
ENDBRANCH  16  17
ENDBRANCH  15  16
ENDBRANCH  14  15
ENDBRANCH  13  14
ENDBRANCH  12  13
ENDBRANCH   1  12
TORSDOF 14
ENDMDL
MODEL 2
REMARK VINA RESULT:    -3.375     11.605     13.444
REMARK INTER + INTRA:          -8.449
REMARK INTER:                  -6.536
REMARK INTRA:                  -1.913
REMARK UNBOUND:                -2.313
REMARK SMILES CCCCCCCCCCCCCC[C@@H](C)C(=O)[O-]
REMARK SMILES IDX 9 1 10 2 11 3 12 4 13 5 14 6 15 7 16 8 17 9 18 10 19 11 8 12
REMARK SMILES IDX 7 13 6 14 5 15 4 16 3 17 2 18 1 19
REMARK H PARENT
REMARK Flexibility Score: inf
ROOT
ATOM      1  C   UNL     1      57.061  27.556  51.538  1.00  0.00     0.000 C 
ENDROOT
BRANCH   1   2
ATOM      2  C   UNL     1      57.092  28.645  50.451  1.00  0.00     0.000 C 
BRANCH   2   3
ATOM      3  C   UNL     1      58.494  29.236  50.237  1.00  0.00     0.000 C 
BRANCH   3   4
ATOM      4  C   UNL     1      59.154  28.640  48.984  1.00  0.00     0.000 C 
BRANCH   4   5
ATOM      5  C   UNL     1      60.344  27.725  49.316  1.00  0.00     0.001 C 
BRANCH   5   6
ATOM      6  C   UNL     1      59.911  26.279  49.619  1.00  0.00     0.009 C 
BRANCH   6   7
ATOM      7  C   UNL     1      60.760  25.624  50.731  1.00  0.00     0.032 C 
ATOM      8  C   UNL     1      59.946  25.358  52.007  1.00  0.00     0.014 C 
BRANCH   7   9
ATOM      9  C   UNL     1      61.355  24.336  50.233  1.00  0.00     0.044 C 
ATOM     10  O   UNL     1      62.594  24.123  50.328  1.00  0.00    -0.550 OA
ATOM     11  O   UNL     1      60.536  23.369  49.661  1.00  0.00    -0.550 OA
ENDBRANCH   7   9
ENDBRANCH   6   7
ENDBRANCH   5   6
ENDBRANCH   4   5
ENDBRANCH   3   4
ENDBRANCH   2   3
ENDBRANCH   1   2
BRANCH   1  12
ATOM     12  C   UNL     1      56.283  26.278  51.162  1.00  0.00     0.000 C 
BRANCH  12  13
ATOM     13  C   UNL     1      55.653  26.291  49.758  1.00  0.00    -0.000 C 
BRANCH  13  14
ATOM     14  C   UNL     1      54.361  25.457  49.679  1.00  0.00    -0.000 C 
BRANCH  14  15
ATOM     15  C   UNL     1      53.095  26.328  49.657  1.00  0.00    -0.000 C 
BRANCH  15  16
ATOM     16  C   UNL     1      53.409  27.817  49.426  1.00  0.00    -0.000 C 
BRANCH  16  17
ATOM     17  C   UNL     1      52.875  28.714  50.555  1.00  0.00    -0.000 C 
BRANCH  17  18
ATOM     18  C   UNL     1      53.763  29.942  50.806  1.00  0.00    -0.003 C 
ATOM     19  C   UNL     1      53.223  30.781  51.962  1.00  0.00     0.004 C 
ENDBRANCH  17  18
ENDBRANCH  16  17
ENDBRANCH  15  16
ENDBRANCH  14  15
ENDBRANCH  13  14
ENDBRANCH  12  13
ENDBRANCH   1  12
TORSDOF 14
ENDMDL
MODEL 3
REMARK VINA RESULT:    -3.341     11.458     13.756
REMARK INTER + INTRA:          -8.387
REMARK INTER:                  -6.577
REMARK INTRA:                  -1.811
REMARK UNBOUND:                -2.313
REMARK SMILES CCCCCCCCCCCCCC[C@@H](C)C(=O)[O-]
REMARK SMILES IDX 9 1 10 2 11 3 12 4 13 5 14 6 15 7 16 8 17 9 18 10 19 11 8 12
REMARK SMILES IDX 7 13 6 14 5 15 4 16 3 17 2 18 1 19
REMARK H PARENT
REMARK Flexibility Score: inf
ROOT
ATOM      1  C   UNL     1      55.937  28.160  50.494  1.00  0.00     0.000 C 
ENDROOT
BRANCH   1   2
ATOM      2  C   UNL     1      56.740  29.144  51.363  1.00  0.00     0.000 C 
BRANCH   2   3
ATOM      3  C   UNL     1      58.251  29.080  51.098  1.00  0.00     0.000 C 
BRANCH   3   4
ATOM      4  C   UNL     1      58.547  29.154  49.592  1.00  0.00     0.000 C 
BRANCH   4   5
ATOM      5  C   UNL     1      59.653  28.180  49.153  1.00  0.00     0.001 C 
BRANCH   5   6
ATOM      6  C   UNL     1      59.284  26.710  49.415  1.00  0.00     0.009 C 
BRANCH   6   7
ATOM      7  C   UNL     1      60.470  25.887  49.966  1.00  0.00     0.032 C 
ATOM      8  C   UNL     1      61.125  26.553  51.186  1.00  0.00     0.014 C 
BRANCH   7   9
ATOM      9  C   UNL     1      60.010  24.503  50.332  1.00  0.00     0.044 C 
ATOM     10  O   UNL     1      59.052  24.338  51.135  1.00  0.00    -0.550 OA
ATOM     11  O   UNL     1      60.642  23.394  49.784  1.00  0.00    -0.550 OA
ENDBRANCH   7   9
ENDBRANCH   6   7
ENDBRANCH   5   6
ENDBRANCH   4   5
ENDBRANCH   3   4
ENDBRANCH   2   3
ENDBRANCH   1   2
BRANCH   1  12
ATOM     12  C   UNL     1      54.480  28.577  50.208  1.00  0.00     0.000 C 
BRANCH  12  13
ATOM     13  C   UNL     1      53.583  27.460  49.644  1.00  0.00    -0.000 C 
BRANCH  13  14
ATOM     14  C   UNL     1      54.364  26.171  49.333  1.00  0.00    -0.000 C 
BRANCH  14  15
ATOM     15  C   UNL     1      53.604  24.902  49.752  1.00  0.00    -0.000 C 
BRANCH  15  16
ATOM     16  C   UNL     1      53.142  24.951  51.219  1.00  0.00    -0.000 C 
BRANCH  16  17
ATOM     17  C   UNL     1      54.319  24.948  52.207  1.00  0.00    -0.000 C 
BRANCH  17  18
ATOM     18  C   UNL     1      53.954  25.568  53.565  1.00  0.00    -0.003 C 
ATOM     19  C   UNL     1      54.278  27.059  53.591  1.00  0.00     0.004 C 
ENDBRANCH  17  18
ENDBRANCH  16  17
ENDBRANCH  15  16
ENDBRANCH  14  15
ENDBRANCH  13  14
ENDBRANCH  12  13
ENDBRANCH   1  12
TORSDOF 14
ENDMDL
MODEL 4
REMARK VINA RESULT:    -3.341      1.586      2.981
REMARK INTER + INTRA:          -8.387
REMARK INTER:                  -6.231
REMARK INTRA:                  -2.156
REMARK UNBOUND:                -2.313
REMARK SMILES CCCCCCCCCCCCCC[C@@H](C)C(=O)[O-]
REMARK SMILES IDX 9 1 10 2 11 3 12 4 13 5 14 6 15 7 16 8 17 9 18 10 19 11 8 12
REMARK SMILES IDX 7 13 6 14 5 15 4 16 3 17 2 18 1 19
REMARK H PARENT
REMARK Flexibility Score: inf
ROOT
ATOM      1  C   UNL     1      60.980  31.198  59.503  1.00  0.00     0.000 C 
ENDROOT
BRANCH   1   2
ATOM      2  C   UNL     1      61.030  31.572  60.995  1.00  0.00     0.000 C 
BRANCH   2   3
ATOM      3  C   UNL     1      61.494  30.412  61.888  1.00  0.00     0.000 C 
BRANCH   3   4
ATOM      4  C   UNL     1      61.571  29.103  61.088  1.00  0.00     0.000 C 
BRANCH   4   5
ATOM      5  C   UNL     1      62.977  28.479  61.099  1.00  0.00     0.001 C 
BRANCH   5   6
ATOM      6  C   UNL     1      64.082  29.518  61.356  1.00  0.00     0.009 C 
BRANCH   6   7
ATOM      7  C   UNL     1      64.802  29.954  60.060  1.00  0.00     0.032 C 
ATOM      8  C   UNL     1      64.717  31.470  59.827  1.00  0.00     0.014 C 
BRANCH   7   9
ATOM      9  C   UNL     1      66.244  29.529  60.105  1.00  0.00     0.044 C 
ATOM     10  O   UNL     1      67.038  29.858  59.182  1.00  0.00    -0.550 OA
ATOM     11  O   UNL     1      66.710  28.768  61.170  1.00  0.00    -0.550 OA
ENDBRANCH   7   9
ENDBRANCH   6   7
ENDBRANCH   5   6
ENDBRANCH   4   5
ENDBRANCH   3   4
ENDBRANCH   2   3
ENDBRANCH   1   2
BRANCH   1  12
ATOM     12  C   UNL     1      61.267  32.357  58.527  1.00  0.00     0.000 C 
BRANCH  12  13
ATOM     13  C   UNL     1      60.017  33.025  57.927  1.00  0.00    -0.000 C 
BRANCH  13  14
ATOM     14  C   UNL     1      60.054  34.560  58.036  1.00  0.00    -0.000 C 
BRANCH  14  15
ATOM     15  C   UNL     1      61.307  35.073  58.765  1.00  0.00    -0.000 C 
BRANCH  15  16
ATOM     16  C   UNL     1      60.971  35.752  60.104  1.00  0.00    -0.000 C 
BRANCH  16  17
ATOM     17  C   UNL     1      62.194  35.866  61.029  1.00  0.00    -0.000 C 
BRANCH  17  18
ATOM     18  C   UNL     1      63.095  34.624  60.976  1.00  0.00    -0.003 C 
ATOM     19  C   UNL     1      64.548  34.988  61.269  1.00  0.00     0.004 C 
ENDBRANCH  17  18
ENDBRANCH  16  17
ENDBRANCH  15  16
ENDBRANCH  14  15
ENDBRANCH  13  14
ENDBRANCH  12  13
ENDBRANCH   1  12
TORSDOF 14
ENDMDL
MODEL 5
REMARK VINA RESULT:    -3.318      3.123      6.664
REMARK INTER + INTRA:          -8.346
REMARK INTER:                  -6.489
REMARK INTRA:                  -1.857
REMARK UNBOUND:                -2.313
REMARK SMILES CCCCCCCCCCCCCC[C@@H](C)C(=O)[O-]
REMARK SMILES IDX 9 1 10 2 11 3 12 4 13 5 14 6 15 7 16 8 17 9 18 10 19 11 8 12
REMARK SMILES IDX 7 13 6 14 5 15 4 16 3 17 2 18 1 19
REMARK H PARENT
REMARK Flexibility Score: inf
ROOT
ATOM      1  C   UNL     1      64.979  35.516  61.557  1.00  0.00     0.000 C 
ENDROOT
BRANCH   1   2
ATOM      2  C   UNL     1      64.155  36.810  61.673  1.00  0.00     0.000 C 
BRANCH   2   3
ATOM      3  C   UNL     1      63.150  36.984  60.525  1.00  0.00     0.000 C 
BRANCH   3   4
ATOM      4  C   UNL     1      61.711  37.031  61.059  1.00  0.00     0.000 C 
BRANCH   4   5
ATOM      5  C   UNL     1      60.797  35.982  60.403  1.00  0.00     0.001 C 
BRANCH   5   6
ATOM      6  C   UNL     1      59.801  36.605  59.409  1.00  0.00     0.009 C 
BRANCH   6   7
ATOM      7  C   UNL     1      59.832  35.918  58.026  1.00  0.00     0.032 C 
ATOM      8  C   UNL     1      61.100  35.076  57.820  1.00  0.00     0.014 C 
BRANCH   7   9
ATOM      9  C   UNL     1      58.616  35.051  57.855  1.00  0.00     0.044 C 
ATOM     10  O   UNL     1      57.459  35.545  57.942  1.00  0.00    -0.550 OA
ATOM     11  O   UNL     1      58.762  33.693  57.599  1.00  0.00    -0.550 OA
ENDBRANCH   7   9
ENDBRANCH   6   7
ENDBRANCH   5   6
ENDBRANCH   4   5
ENDBRANCH   3   4
ENDBRANCH   2   3
ENDBRANCH   1   2
BRANCH   1  12
ATOM     12  C   UNL     1      64.152  34.227  61.370  1.00  0.00     0.000 C 
BRANCH  12  13
ATOM     13  C   UNL     1      64.326  33.537  60.006  1.00  0.00    -0.000 C 
BRANCH  13  14
ATOM     14  C   UNL     1      63.129  32.642  59.635  1.00  0.00    -0.000 C 
BRANCH  14  15
ATOM     15  C   UNL     1      61.982  32.736  60.655  1.00  0.00    -0.000 C 
BRANCH  15  16
ATOM     16  C   UNL     1      61.144  31.447  60.717  1.00  0.00    -0.000 C 
BRANCH  16  17
ATOM     17  C   UNL     1      61.610  30.494  61.830  1.00  0.00    -0.000 C 
BRANCH  17  18
ATOM     18  C   UNL     1      62.396  29.291  61.289  1.00  0.00    -0.003 C 
ATOM     19  C   UNL     1      63.900  29.541  61.362  1.00  0.00     0.004 C 
ENDBRANCH  17  18
ENDBRANCH  16  17
ENDBRANCH  15  16
ENDBRANCH  14  15
ENDBRANCH  13  14
ENDBRANCH  12  13
ENDBRANCH   1  12
TORSDOF 14
ENDMDL
MODEL 6
REMARK VINA RESULT:    -3.264      1.634      2.457
REMARK INTER + INTRA:          -8.249
REMARK INTER:                  -6.175
REMARK INTRA:                  -2.074
REMARK UNBOUND:                -2.313
REMARK SMILES CCCCCCCCCCCCCC[C@@H](C)C(=O)[O-]
REMARK SMILES IDX 9 1 10 2 11 3 12 4 13 5 14 6 15 7 16 8 17 9 18 10 19 11 8 12
REMARK SMILES IDX 7 13 6 14 5 15 4 16 3 17 2 18 1 19
REMARK H PARENT
REMARK Flexibility Score: inf
ROOT
ATOM      1  C   UNL     1      61.450  32.404  59.468  1.00  0.00     0.000 C 
ENDROOT
BRANCH   1   2
ATOM      2  C   UNL     1      60.559  31.230  59.910  1.00  0.00     0.000 C 
BRANCH   2   3
ATOM      3  C   UNL     1      60.796  30.817  61.370  1.00  0.00     0.000 C 
BRANCH   3   4
ATOM      4  C   UNL     1      61.707  29.583  61.449  1.00  0.00     0.000 C 
BRANCH   4   5
ATOM      5  C   UNL     1      63.178  29.944  61.718  1.00  0.00     0.001 C 
BRANCH   5   6
ATOM      6  C   UNL     1      64.158  29.025  60.968  1.00  0.00     0.009 C 
BRANCH   6   7
ATOM      7  C   UNL     1      65.026  29.790  59.944  1.00  0.00     0.032 C 
ATOM      8  C   UNL     1      64.909  31.313  60.102  1.00  0.00     0.014 C 
BRANCH   7   9
ATOM      9  C   UNL     1      66.465  29.376  60.079  1.00  0.00     0.044 C 
ATOM     10  O   UNL     1      67.294  29.633  59.164  1.00  0.00    -0.550 OA
ATOM     11  O   UNL     1      66.891  28.705  61.219  1.00  0.00    -0.550 OA
ENDBRANCH   7   9
ENDBRANCH   6   7
ENDBRANCH   5   6
ENDBRANCH   4   5
ENDBRANCH   3   4
ENDBRANCH   2   3
ENDBRANCH   1   2
BRANCH   1  12
ATOM     12  C   UNL     1      61.907  33.344  60.602  1.00  0.00     0.000 C 
BRANCH  12  13
ATOM     13  C   UNL     1      61.503  34.818  60.427  1.00  0.00    -0.000 C 
BRANCH  13  14
ATOM     14  C   UNL     1      62.559  35.793  60.976  1.00  0.00    -0.000 C 
BRANCH  14  15
ATOM     15  C   UNL     1      63.890  35.099  61.308  1.00  0.00    -0.000 C 
BRANCH  15  16
ATOM     16  C   UNL     1      64.876  35.122  60.127  1.00  0.00    -0.000 C 
BRANCH  16  17
ATOM     17  C   UNL     1      64.575  36.254  59.131  1.00  0.00    -0.000 C 
BRANCH  17  18
ATOM     18  C   UNL     1      64.328  35.738  57.705  1.00  0.00    -0.003 C 
ATOM     19  C   UNL     1      64.334  34.212  57.666  1.00  0.00     0.004 C 
ENDBRANCH  17  18
ENDBRANCH  16  17
ENDBRANCH  15  16
ENDBRANCH  14  15
ENDBRANCH  13  14
ENDBRANCH  12  13
ENDBRANCH   1  12
TORSDOF 14
ENDMDL
MODEL 7
REMARK VINA RESULT:    -3.256     11.581     13.612
REMARK INTER + INTRA:          -8.234
REMARK INTER:                  -6.234
REMARK INTRA:                  -2.000
REMARK UNBOUND:                -2.313
REMARK SMILES CCCCCCCCCCCCCC[C@@H](C)C(=O)[O-]
REMARK SMILES IDX 9 1 10 2 11 3 12 4 13 5 14 6 15 7 16 8 17 9 18 10 19 11 8 12
REMARK SMILES IDX 7 13 6 14 5 15 4 16 3 17 2 18 1 19
REMARK H PARENT
REMARK Flexibility Score: inf
ROOT
ATOM      1  C   UNL     1      59.447  26.354  49.408  1.00  0.00     0.000 C 
ENDROOT
BRANCH   1   2
ATOM      2  C   UNL     1      59.910  27.792  49.114  1.00  0.00     0.000 C 
BRANCH   2   3
ATOM      3  C   UNL     1      59.493  28.789  50.205  1.00  0.00     0.000 C 
BRANCH   3   4
ATOM      4  C   UNL     1      58.049  29.266  49.987  1.00  0.00     0.000 C 
BRANCH   4   5
ATOM      5  C   UNL     1      57.085  28.761  51.074  1.00  0.00     0.001 C 
BRANCH   5   6
ATOM      6  C   UNL     1      55.745  28.274  50.495  1.00  0.00     0.009 C 
BRANCH   6   7
ATOM      7  C   UNL     1      55.788  26.793  50.058  1.00  0.00     0.032 C 
ATOM      8  C   UNL     1      56.222  25.860  51.199  1.00  0.00     0.014 C 
BRANCH   7   9
ATOM      9  C   UNL     1      54.440  26.369  49.544  1.00  0.00     0.044 C 
ATOM     10  O   UNL     1      54.212  25.161  49.264  1.00  0.00    -0.550 OA
ATOM     11  O   UNL     1      53.435  27.312  49.372  1.00  0.00    -0.550 OA
ENDBRANCH   7   9
ENDBRANCH   6   7
ENDBRANCH   5   6
ENDBRANCH   4   5
ENDBRANCH   3   4
ENDBRANCH   2   3
ENDBRANCH   1   2
BRANCH   1  12
ATOM     12  C   UNL     1      59.981  25.750  50.723  1.00  0.00     0.000 C 
BRANCH  12  13
ATOM     13  C   UNL     1      60.367  24.262  50.644  1.00  0.00    -0.000 C 
BRANCH  13  14
ATOM     14  C   UNL     1      61.833  24.050  50.226  1.00  0.00    -0.000 C 
BRANCH  14  15
ATOM     15  C   UNL     1      62.805  24.964  50.990  1.00  0.00    -0.000 C 
BRANCH  15  16
ATOM     16  C   UNL     1      63.868  25.591  50.071  1.00  0.00    -0.000 C 
BRANCH  16  17
ATOM     17  C   UNL     1      63.374  26.878  49.390  1.00  0.00    -0.000 C 
BRANCH  17  18
ATOM     18  C   UNL     1      63.365  28.084  50.340  1.00  0.00    -0.003 C 
ATOM     19  C   UNL     1      64.722  28.258  51.018  1.00  0.00     0.004 C 
ENDBRANCH  17  18
ENDBRANCH  16  17
ENDBRANCH  15  16
ENDBRANCH  14  15
ENDBRANCH  13  14
ENDBRANCH  12  13
ENDBRANCH   1  12
TORSDOF 14
ENDMDL
MODEL 8
REMARK VINA RESULT:    -3.216      3.266      6.543
REMARK INTER + INTRA:          -8.160
REMARK INTER:                  -6.071
REMARK INTRA:                  -2.089
REMARK UNBOUND:                -2.313
REMARK SMILES CCCCCCCCCCCCCC[C@@H](C)C(=O)[O-]
REMARK SMILES IDX 9 1 10 2 11 3 12 4 13 5 14 6 15 7 16 8 17 9 18 10 19 11 8 12
REMARK SMILES IDX 7 13 6 14 5 15 4 16 3 17 2 18 1 19
REMARK H PARENT
REMARK Flexibility Score: inf
ROOT
ATOM      1  C   UNL     1      61.442  32.031  59.190  1.00  0.00     0.000 C 
ENDROOT
BRANCH   1   2
ATOM      2  C   UNL     1      60.586  33.153  58.575  1.00  0.00     0.000 C 
BRANCH   2   3
ATOM      3  C   UNL     1      61.429  34.275  57.953  1.00  0.00     0.000 C 
BRANCH   3   4
ATOM      4  C   UNL     1      61.262  35.585  58.738  1.00  0.00     0.000 C 
BRANCH   4   5
ATOM      5  C   UNL     1      62.535  35.989  59.501  1.00  0.00     0.001 C 
BRANCH   5   6
ATOM      6  C   UNL     1      62.556  35.450  60.942  1.00  0.00     0.009 C 
BRANCH   6   7
ATOM      7  C   UNL     1      63.925  34.851  61.333  1.00  0.00     0.032 C 
ATOM      8  C   UNL     1      64.471  33.893  60.264  1.00  0.00     0.014 C 
BRANCH   7   9
ATOM      9  C   UNL     1      64.918  35.954  61.578  1.00  0.00     0.044 C 
ATOM     10  O   UNL     1      66.042  35.942  61.008  1.00  0.00    -0.550 OA
ATOM     11  O   UNL     1      64.598  36.997  62.439  1.00  0.00    -0.550 OA
ENDBRANCH   7   9
ENDBRANCH   6   7
ENDBRANCH   5   6
ENDBRANCH   4   5
ENDBRANCH   3   4
ENDBRANCH   2   3
ENDBRANCH   1   2
BRANCH   1  12
ATOM     12  C   UNL     1      61.420  31.959  60.730  1.00  0.00     0.000 C 
BRANCH  12  13
ATOM     13  C   UNL     1      60.979  30.604  61.311  1.00  0.00    -0.000 C 
BRANCH  13  14
ATOM     14  C   UNL     1      62.151  29.801  61.902  1.00  0.00    -0.000 C 
BRANCH  14  15
ATOM     15  C   UNL     1      63.522  30.361  61.488  1.00  0.00    -0.000 C 
BRANCH  15  16
ATOM     16  C   UNL     1      64.492  29.260  61.026  1.00  0.00    -0.000 C 
BRANCH  16  17
ATOM     17  C   UNL     1      63.762  28.003  60.524  1.00  0.00    -0.000 C 
BRANCH  17  18
ATOM     18  C   UNL     1      63.726  27.911  58.991  1.00  0.00    -0.003 C 
ATOM     19  C   UNL     1      62.415  28.464  58.439  1.00  0.00     0.004 C 
ENDBRANCH  17  18
ENDBRANCH  16  17
ENDBRANCH  15  16
ENDBRANCH  14  15
ENDBRANCH  13  14
ENDBRANCH  12  13
ENDBRANCH   1  12
TORSDOF 14
ENDMDL
MODEL 9
REMARK VINA RESULT:    -3.211      1.323      3.046
REMARK INTER + INTRA:          -8.152
REMARK INTER:                  -5.804
REMARK INTRA:                  -2.348
REMARK UNBOUND:                -2.313
REMARK SMILES CCCCCCCCCCCCCC[C@@H](C)C(=O)[O-]
REMARK SMILES IDX 9 1 10 2 11 3 12 4 13 5 14 6 15 7 16 8 17 9 18 10 19 11 8 12
REMARK SMILES IDX 7 13 6 14 5 15 4 16 3 17 2 18 1 19
REMARK H PARENT
REMARK Flexibility Score: inf
ROOT
ATOM      1  C   UNL     1      61.374  33.811  57.725  1.00  0.00     0.000 C 
ENDROOT
BRANCH   1   2
ATOM      2  C   UNL     1      60.011  33.144  57.977  1.00  0.00     0.000 C 
BRANCH   2   3
ATOM      3  C   UNL     1      60.131  31.782  58.676  1.00  0.00     0.000 C 
BRANCH   3   4
ATOM      4  C   UNL     1      61.049  31.877  59.904  1.00  0.00     0.000 C 
BRANCH   4   5
ATOM      5  C   UNL     1      60.765  30.782  60.947  1.00  0.00     0.001 C 
BRANCH   5   6
ATOM      6  C   UNL     1      62.015  30.401  61.759  1.00  0.00     0.009 C 
BRANCH   6   7
ATOM      7  C   UNL     1      62.460  28.941  61.518  1.00  0.00     0.032 C 
ATOM      8  C   UNL     1      61.336  28.079  60.923  1.00  0.00     0.014 C 
BRANCH   7   9
ATOM      9  C   UNL     1      63.656  28.912  60.606  1.00  0.00     0.044 C 
ATOM     10  O   UNL     1      64.824  28.907  61.081  1.00  0.00    -0.550 OA
ATOM     11  O   UNL     1      63.478  28.892  59.228  1.00  0.00    -0.550 OA
ENDBRANCH   7   9
ENDBRANCH   6   7
ENDBRANCH   5   6
ENDBRANCH   4   5
ENDBRANCH   3   4
ENDBRANCH   2   3
ENDBRANCH   1   2
BRANCH   1  12
ATOM     12  C   UNL     1      61.462  35.297  58.129  1.00  0.00     0.000 C 
BRANCH  12  13
ATOM     13  C   UNL     1      60.604  35.691  59.344  1.00  0.00    -0.000 C 
BRANCH  13  14
ATOM     14  C   UNL     1      61.314  35.423  60.684  1.00  0.00    -0.000 C 
BRANCH  14  15
ATOM     15  C   UNL     1      62.468  36.402  60.949  1.00  0.00    -0.000 C 
BRANCH  15  16
ATOM     16  C   UNL     1      63.782  35.681  61.300  1.00  0.00    -0.000 C 
BRANCH  16  17
ATOM     17  C   UNL     1      63.739  34.182  60.964  1.00  0.00    -0.000 C 
BRANCH  17  18
ATOM     18  C   UNL     1      64.516  33.840  59.684  1.00  0.00    -0.003 C 
ATOM     19  C   UNL     1      64.587  32.330  59.472  1.00  0.00     0.004 C 
ENDBRANCH  17  18
ENDBRANCH  16  17
ENDBRANCH  15  16
ENDBRANCH  14  15
ENDBRANCH  13  14
ENDBRANCH  12  13
ENDBRANCH   1  12
TORSDOF 14
ENDMDL
