MODEL 1
REMARK VINA RESULT:    -4.530      0.000      0.000
REMARK INTER + INTRA:          -5.244
REMARK INTER:                  -5.192
REMARK INTRA:                  -0.052
REMARK UNBOUND:                -0.052
REMARK SMILES O=C([O-])c1cc(O)c(O)c(O)c1
REMARK SMILES IDX 4 1 5 2 12 3 6 4 10 5 8 6 2 7 1 8 3 9 7 10 11 12 9 14
REMARK H PARENT 7 11 11 13 9 15
REMARK Flexibility Score: inf
ROOT
ATOM      1  C   UNL     1       8.614  -3.460  18.597  1.00  0.00     0.005 A 
ATOM      2  C   UNL     1       7.864  -2.313  18.280  1.00  0.00     0.060 A 
ATOM      3  C   UNL     1      10.002  -3.448  18.378  1.00  0.00     0.060 A 
ATOM      4  C   UNL     1       8.489  -1.173  17.755  1.00  0.00     0.162 A 
ATOM      5  C   UNL     1      10.631  -2.311  17.853  1.00  0.00     0.162 A 
ATOM      6  C   UNL     1       9.877  -1.173  17.540  1.00  0.00     0.200 A 
ENDROOT
BRANCH   1   7
ATOM      7  C   UNL     1       7.955  -4.663  19.153  1.00  0.00     0.072 C 
ATOM      8  O   UNL     1       8.508  -5.791  19.069  1.00  0.00    -0.545 OA
ATOM      9  O   UNL     1       6.717  -4.564  19.777  1.00  0.00    -0.545 OA
ENDBRANCH   1   7
BRANCH   4  10
ATOM     10  O   UNL     1       7.734  -0.043  17.445  1.00  0.00    -0.504 OA
ATOM     11  H   UNL     1       7.892   0.844  17.908  1.00  0.00     0.293 HD
ENDBRANCH   4  10
BRANCH   5  12
ATOM     12  O   UNL     1      12.008  -2.305  17.638  1.00  0.00    -0.504 OA
ATOM     13  H   UNL     1      12.413  -2.651  16.776  1.00  0.00     0.293 HD
ENDBRANCH   5  12
BRANCH   6  14
ATOM     14  O   UNL     1      10.521  -0.050  17.018  1.00  0.00    -0.502 OA
ATOM     15  H   UNL     1      10.699   0.056  16.026  1.00  0.00     0.293 HD
ENDBRANCH   6  14
TORSDOF 4
ENDMDL
MODEL 2
REMARK VINA RESULT:    -4.525      0.039      2.422
REMARK INTER + INTRA:          -5.238
REMARK INTER:                  -5.187
REMARK INTRA:                  -0.052
REMARK UNBOUND:                -0.052
REMARK SMILES O=C([O-])c1cc(O)c(O)c(O)c1
REMARK SMILES IDX 4 1 5 2 12 3 6 4 10 5 8 6 2 7 1 8 3 9 7 10 11 12 9 14
REMARK H PARENT 7 11 11 13 9 15
REMARK Flexibility Score: inf
ROOT
ATOM      1  C   UNL     1       8.623  -3.439  18.603  1.00  0.00     0.005 A 
ATOM      2  C   UNL     1      10.010  -3.443  18.368  1.00  0.00     0.060 A 
ATOM      3  C   UNL     1       7.883  -2.286  18.295  1.00  0.00     0.060 A 
ATOM      4  C   UNL     1      10.646  -2.314  17.833  1.00  0.00     0.162 A 
ATOM      5  C   UNL     1       8.515  -1.154  17.760  1.00  0.00     0.162 A 
ATOM      6  C   UNL     1       9.896  -1.166  17.529  1.00  0.00     0.200 A 
ENDROOT
BRANCH   1   7
ATOM      7  C   UNL     1       7.950  -4.631  19.166  1.00  0.00     0.072 C 
ATOM      8  O   UNL     1       8.473  -5.772  19.061  1.00  0.00    -0.545 OA
ATOM      9  O   UNL     1       6.730  -4.508  19.821  1.00  0.00    -0.545 OA
ENDBRANCH   1   7
BRANCH   4  10
ATOM     10  O   UNL     1      12.021  -2.329  17.604  1.00  0.00    -0.504 OA
ATOM     11  H   UNL     1      12.612  -1.548  17.863  1.00  0.00     0.293 HD
ENDBRANCH   4  10
BRANCH   5  12
ATOM     12  O   UNL     1       7.775  -0.013  17.457  1.00  0.00    -0.504 OA
ATOM     13  H   UNL     1       7.805   0.812  18.045  1.00  0.00     0.293 HD
ENDBRANCH   5  12
BRANCH   6  14
ATOM     14  O   UNL     1      10.507  -0.030  16.997  1.00  0.00    -0.502 OA
ATOM     15  H   UNL     1      10.107   0.485  16.222  1.00  0.00     0.293 HD
ENDBRANCH   6  14
TORSDOF 4
ENDMDL
MODEL 3
REMARK VINA RESULT:    -4.521      2.584      5.197
REMARK INTER + INTRA:          -5.234
REMARK INTER:                  -5.181
REMARK INTRA:                  -0.053
REMARK UNBOUND:                -0.052
REMARK SMILES O=C([O-])c1cc(O)c(O)c(O)c1
REMARK SMILES IDX 4 1 5 2 12 3 6 4 10 5 8 6 2 7 1 8 3 9 7 10 11 12 9 14
REMARK H PARENT 7 11 11 13 9 15
REMARK Flexibility Score: inf
ROOT
ATOM      1  C   UNL     1       9.561  -4.624  19.630  1.00  0.00     0.005 A 
ATOM      2  C   UNL     1       8.209  -4.253  19.739  1.00  0.00     0.060 A 
ATOM      3  C   UNL     1       9.901  -5.986  19.686  1.00  0.00     0.060 A 
ATOM      4  C   UNL     1       7.213  -5.227  19.900  1.00  0.00     0.162 A 
ATOM      5  C   UNL     1       8.908  -6.963  19.847  1.00  0.00     0.162 A 
ATOM      6  C   UNL     1       7.564  -6.585  19.954  1.00  0.00     0.200 A 
ENDROOT
BRANCH   1   7
ATOM      7  C   UNL     1      10.613  -3.598  19.460  1.00  0.00     0.072 C 
ATOM      8  O   UNL     1      10.337  -2.374  19.565  1.00  0.00    -0.545 OA
ATOM      9  O   UNL     1      11.924  -3.971  19.181  1.00  0.00    -0.545 OA
ENDBRANCH   1   7
BRANCH   4  10
ATOM     10  O   UNL     1       5.875  -4.847  20.006  1.00  0.00    -0.504 OA
ATOM     11  H   UNL     1       5.127  -5.530  19.993  1.00  0.00     0.293 HD
ENDBRANCH   4  10
BRANCH   5  12
ATOM     12  O   UNL     1       9.252  -8.312  19.901  1.00  0.00    -0.504 OA
ATOM     13  H   UNL     1       8.925  -8.972  19.205  1.00  0.00     0.293 HD
ENDBRANCH   5  12
BRANCH   6  14
ATOM     14  O   UNL     1       6.590  -7.572  20.114  1.00  0.00    -0.502 OA
ATOM     15  H   UNL     1       6.078  -7.689  20.980  1.00  0.00     0.293 HD
ENDBRANCH   6  14
TORSDOF 4
ENDMDL
MODEL 4
REMARK VINA RESULT:    -4.377      1.297      2.056
REMARK INTER + INTRA:          -5.068
REMARK INTER:                  -5.017
REMARK INTRA:                  -0.051
REMARK UNBOUND:                -0.052
REMARK SMILES O=C([O-])c1cc(O)c(O)c(O)c1
REMARK SMILES IDX 4 1 5 2 12 3 6 4 10 5 8 6 2 7 1 8 3 9 7 10 11 12 9 14
REMARK H PARENT 7 11 11 13 9 15
REMARK Flexibility Score: inf
ROOT
ATOM      1  C   UNL     1       9.306  -3.470  18.725  1.00  0.00     0.005 A 
ATOM      2  C   UNL     1       7.915  -3.274  18.684  1.00  0.00     0.060 A 
ATOM      3  C   UNL     1      10.151  -2.477  18.204  1.00  0.00     0.060 A 
ATOM      4  C   UNL     1       7.375  -2.104  18.131  1.00  0.00     0.162 A 
ATOM      5  C   UNL     1       9.616  -1.305  17.650  1.00  0.00     0.162 A 
ATOM      6  C   UNL     1       8.228  -1.117  17.613  1.00  0.00     0.200 A 
ENDROOT
BRANCH   1   7
ATOM      7  C   UNL     1       9.878  -4.705  19.310  1.00  0.00     0.072 C 
ATOM      8  O   UNL     1      11.040  -4.705  19.794  1.00  0.00    -0.545 OA
ATOM      9  O   UNL     1       9.137  -5.882  19.333  1.00  0.00    -0.545 OA
ENDBRANCH   1   7
BRANCH   4  10
ATOM     10  O   UNL     1       5.993  -1.921  18.095  1.00  0.00    -0.504 OA
ATOM     11  H   UNL     1       5.399  -2.210  18.864  1.00  0.00     0.293 HD
ENDBRANCH   4  10
BRANCH   5  12
ATOM     12  O   UNL     1      10.458  -0.322  17.134  1.00  0.00    -0.504 OA
ATOM     13  H   UNL     1      10.114   0.599  16.891  1.00  0.00     0.293 HD
ENDBRANCH   5  12
BRANCH   6  14
ATOM     14  O   UNL     1       7.714   0.055  17.057  1.00  0.00    -0.502 OA
ATOM     15  H   UNL     1       7.114   0.047  16.241  1.00  0.00     0.293 HD
ENDBRANCH   6  14
TORSDOF 4
ENDMDL
MODEL 5
REMARK VINA RESULT:    -4.269      1.346      2.910
REMARK INTER + INTRA:          -4.944
REMARK INTER:                  -4.891
REMARK INTRA:                  -0.052
REMARK UNBOUND:                -0.052
REMARK SMILES O=C([O-])c1cc(O)c(O)c(O)c1
REMARK SMILES IDX 4 1 5 2 12 3 6 4 10 5 8 6 2 7 1 8 3 9 7 10 11 12 9 14
REMARK H PARENT 7 11 11 13 9 15
REMARK Flexibility Score: inf
ROOT
ATOM      1  C   UNL     1       9.551  -3.429  18.741  1.00  0.00     0.005 A 
ATOM      2  C   UNL     1      10.365  -2.348  18.361  1.00  0.00     0.060 A 
ATOM      3  C   UNL     1       8.161  -3.332  18.563  1.00  0.00     0.060 A 
ATOM      4  C   UNL     1       9.800  -1.188  17.811  1.00  0.00     0.162 A 
ATOM      5  C   UNL     1       7.592  -2.175  18.013  1.00  0.00     0.162 A 
ATOM      6  C   UNL     1       8.410  -1.102  17.637  1.00  0.00     0.200 A 
ENDROOT
BRANCH   1   7
ATOM      7  C   UNL     1      10.145  -4.654  19.321  1.00  0.00     0.072 C 
ATOM      8  O   UNL     1       9.451  -5.695  19.469  1.00  0.00    -0.545 OA
ATOM      9  O   UNL     1      11.480  -4.674  19.710  1.00  0.00    -0.545 OA
ENDBRANCH   1   7
BRANCH   4  10
ATOM     10  O   UNL     1      10.618  -0.122  17.437  1.00  0.00    -0.504 OA
ATOM     11  H   UNL     1      11.390   0.184  18.018  1.00  0.00     0.293 HD
ENDBRANCH   4  10
BRANCH   5  12
ATOM     12  O   UNL     1       6.212  -2.084  17.838  1.00  0.00    -0.504 OA
ATOM     13  H   UNL     1       5.674  -1.324  18.240  1.00  0.00     0.293 HD
ENDBRANCH   5  12
BRANCH   6  14
ATOM     14  O   UNL     1       7.825   0.042  17.092  1.00  0.00    -0.502 OA
ATOM     15  H   UNL     1       7.024   0.493  17.517  1.00  0.00     0.293 HD
ENDBRANCH   6  14
TORSDOF 4
ENDMDL
MODEL 6
REMARK VINA RESULT:    -4.113      1.645      3.197
REMARK INTER + INTRA:          -4.765
REMARK INTER:                  -4.719
REMARK INTRA:                  -0.046
REMARK UNBOUND:                -0.052
REMARK SMILES O=C([O-])c1cc(O)c(O)c(O)c1
REMARK SMILES IDX 4 1 5 2 12 3 6 4 10 5 8 6 2 7 1 8 3 9 7 10 11 12 9 14
REMARK H PARENT 7 11 11 13 9 15
REMARK Flexibility Score: inf
ROOT
ATOM      1  C   UNL     1       9.837  -3.988  19.084  1.00  0.00     0.005 A 
ATOM      2  C   UNL     1      11.074  -4.355  19.644  1.00  0.00     0.060 A 
ATOM      3  C   UNL     1       9.802  -2.975  18.112  1.00  0.00     0.060 A 
ATOM      4  C   UNL     1      12.257  -3.721  19.238  1.00  0.00     0.162 A 
ATOM      5  C   UNL     1      10.982  -2.338  17.703  1.00  0.00     0.162 A 
ATOM      6  C   UNL     1      12.210  -2.709  18.265  1.00  0.00     0.200 A 
ENDROOT
BRANCH   1   7
ATOM      7  C   UNL     1       8.587  -4.658  19.511  1.00  0.00     0.072 C 
ATOM      8  O   UNL     1       8.427  -5.893  19.324  1.00  0.00    -0.545 OA
ATOM      9  O   UNL     1       7.573  -3.932  20.125  1.00  0.00    -0.545 OA
ENDBRANCH   1   7
BRANCH   4  10
ATOM     10  O   UNL     1      13.477  -4.093  19.800  1.00  0.00    -0.504 OA
ATOM     11  H   UNL     1      13.577  -4.254  20.795  1.00  0.00     0.293 HD
ENDBRANCH   4  10
BRANCH   5  12
ATOM     12  O   UNL     1      10.941  -1.334  16.738  1.00  0.00    -0.504 OA
ATOM     13  H   UNL     1      11.302  -0.405  16.921  1.00  0.00     0.293 HD
ENDBRANCH   5  12
BRANCH   6  14
ATOM     14  O   UNL     1      13.374  -2.064  17.846  1.00  0.00    -0.502 OA
ATOM     15  H   UNL     1      13.356  -1.288  17.196  1.00  0.00     0.293 HD
ENDBRANCH   6  14
TORSDOF 4
ENDMDL
MODEL 7
REMARK VINA RESULT:    -4.071      1.357      4.294
REMARK INTER + INTRA:          -4.718
REMARK INTER:                  -4.669
REMARK INTRA:                  -0.048
REMARK UNBOUND:                -0.052
REMARK SMILES O=C([O-])c1cc(O)c(O)c(O)c1
REMARK SMILES IDX 4 1 5 2 12 3 6 4 10 5 8 6 2 7 1 8 3 9 7 10 11 12 9 14
REMARK H PARENT 7 11 11 13 9 15
REMARK Flexibility Score: inf
ROOT
ATOM      1  C   UNL     1      10.733  -1.661  18.172  1.00  0.00     0.005 A 
ATOM      2  C   UNL     1      10.175  -2.939  18.352  1.00  0.00     0.060 A 
ATOM      3  C   UNL     1       9.890  -0.589  17.836  1.00  0.00     0.060 A 
ATOM      4  C   UNL     1       8.796  -3.143  18.201  1.00  0.00     0.162 A 
ATOM      5  C   UNL     1       8.510  -0.789  17.684  1.00  0.00     0.162 A 
ATOM      6  C   UNL     1       7.962  -2.065  17.865  1.00  0.00     0.200 A 
ENDROOT
BRANCH   1   7
ATOM      7  C   UNL     1      12.189  -1.444  18.332  1.00  0.00     0.072 C 
ATOM      8  O   UNL     1      13.016  -2.243  17.820  1.00  0.00    -0.545 OA
ATOM      9  O   UNL     1      12.663  -0.352  19.051  1.00  0.00    -0.545 OA
ENDBRANCH   1   7
BRANCH   4  10
ATOM     10  O   UNL     1       8.254  -4.415  18.383  1.00  0.00    -0.504 OA
ATOM     11  H   UNL     1       7.986  -4.995  17.597  1.00  0.00     0.293 HD
ENDBRANCH   4  10
BRANCH   5  12
ATOM     12  O   UNL     1       7.678   0.278  17.351  1.00  0.00    -0.504 OA
ATOM     13  H   UNL     1       7.487   1.028  18.005  1.00  0.00     0.293 HD
ENDBRANCH   5  12
BRANCH   6  14
ATOM     14  O   UNL     1       6.586  -2.244  17.709  1.00  0.00    -0.502 OA
ATOM     15  H   UNL     1       6.150  -2.296  16.796  1.00  0.00     0.293 HD
ENDBRANCH   6  14
TORSDOF 4
ENDMDL
MODEL 8
REMARK VINA RESULT:    -4.060      1.358      3.892
REMARK INTER + INTRA:          -4.705
REMARK INTER:                  -4.656
REMARK INTRA:                  -0.049
REMARK UNBOUND:                -0.052
REMARK SMILES O=C([O-])c1cc(O)c(O)c(O)c1
REMARK SMILES IDX 4 1 5 2 12 3 6 4 10 5 8 6 2 7 1 8 3 9 7 10 11 12 9 14
REMARK H PARENT 7 11 11 13 9 15
REMARK Flexibility Score: inf
ROOT
ATOM      1  C   UNL     1      10.727  -1.654  18.153  1.00  0.00     0.005 A 
ATOM      2  C   UNL     1       9.883  -0.579  17.825  1.00  0.00     0.060 A 
ATOM      3  C   UNL     1      10.166  -2.929  18.341  1.00  0.00     0.060 A 
ATOM      4  C   UNL     1       8.501  -0.772  17.685  1.00  0.00     0.162 A 
ATOM      5  C   UNL     1       8.785  -3.127  18.202  1.00  0.00     0.162 A 
ATOM      6  C   UNL     1       7.951  -2.051  17.874  1.00  0.00     0.200 A 
ENDROOT
BRANCH   1   7
ATOM      7  C   UNL     1      12.185  -1.452  18.300  1.00  0.00     0.072 C 
ATOM      8  O   UNL     1      12.999  -2.269  17.796  1.00  0.00    -0.545 OA
ATOM      9  O   UNL     1      12.678  -0.354  18.997  1.00  0.00    -0.545 OA
ENDBRANCH   1   7
BRANCH   4  10
ATOM     10  O   UNL     1       7.674   0.302  17.359  1.00  0.00    -0.504 OA
ATOM     11  H   UNL     1       8.028   1.250  17.316  1.00  0.00     0.293 HD
ENDBRANCH   4  10
BRANCH   5  12
ATOM     12  O   UNL     1       8.234  -4.393  18.389  1.00  0.00    -0.504 OA
ATOM     13  H   UNL     1       8.664  -5.075  19.004  1.00  0.00     0.293 HD
ENDBRANCH   5  12
BRANCH   6  14
ATOM     14  O   UNL     1       6.579  -2.267  17.741  1.00  0.00    -0.502 OA
ATOM     15  H   UNL     1       6.041  -1.868  16.982  1.00  0.00     0.293 HD
ENDBRANCH   6  14
TORSDOF 4
ENDMDL
