MODEL 1
REMARK VINA RESULT:    -4.265      0.000      0.000
REMARK INTER + INTRA:          -8.618
REMARK INTER:                  -8.004
REMARK INTRA:                  -0.613
REMARK UNBOUND:                -0.613
REMARK SMILES O=C([O-])CCCCCCCCCCCCCCC(=O)[O-]
REMARK SMILES IDX 10 1 9 2 8 3 7 4 6 5 5 6 4 7 2 8 1 9 3 10 11 11 12 12 13 13
REMARK SMILES IDX 14 14 15 15 16 16 17 17 18 18 19 19 20 20
REMARK H PARENT
REMARK Flexibility Score: inf
ROOT
ATOM      1  C   UNL     1      29.624  -8.188 -14.067  1.00  0.00     0.000 C 
ENDROOT
BRANCH   1   2
ATOM      2  C   UNL     1      29.245  -7.376 -12.820  1.00  0.00     0.000 C 
BRANCH   2   3
ATOM      3  C   UNL     1      28.783  -5.964 -13.205  1.00  0.00     0.000 C 
BRANCH   3   4
ATOM      4  C   UNL     1      29.832  -4.882 -12.889  1.00  0.00     0.000 C 
BRANCH   4   5
ATOM      5  C   UNL     1      30.789  -5.216 -11.730  1.00  0.00     0.000 C 
BRANCH   5   6
ATOM      6  C   UNL     1      32.176  -5.743 -12.148  1.00  0.00     0.006 C 
BRANCH   6   7
ATOM      7  C   UNL     1      32.712  -6.875 -11.250  1.00  0.00     0.053 C 
BRANCH   7   8
ATOM      8  C   UNL     1      32.937  -6.432  -9.836  1.00  0.00     0.041 C 
ATOM      9  O   UNL     1      32.400  -5.377  -9.408  1.00  0.00    -0.550 OA
ATOM     10  O   UNL     1      33.772  -7.164  -9.001  1.00  0.00    -0.550 OA
ENDBRANCH   7   8
ENDBRANCH   6   7
ENDBRANCH   5   6
ENDBRANCH   4   5
ENDBRANCH   3   4
ENDBRANCH   2   3
ENDBRANCH   1   2
BRANCH   1  11
ATOM     11  C   UNL     1      29.606  -7.349 -15.358  1.00  0.00     0.000 C 
BRANCH  11  12
ATOM     12  C   UNL     1      30.995  -6.940 -15.893  1.00  0.00     0.000 C 
BRANCH  12  13
ATOM     13  C   UNL     1      31.321  -5.439 -15.782  1.00  0.00     0.000 C 
BRANCH  13  14
ATOM     14  C   UNL     1      32.268  -4.900 -16.871  1.00  0.00     0.000 C 
BRANCH  14  15
ATOM     15  C   UNL     1      33.698  -5.475 -16.787  1.00  0.00     0.000 C 
BRANCH  15  16
ATOM     16  C   UNL     1      34.426  -5.439 -18.142  1.00  0.00     0.006 C 
BRANCH  16  17
ATOM     17  C   UNL     1      35.903  -5.838 -18.018  1.00  0.00     0.053 C 
BRANCH  17  18
ATOM     18  C   UNL     1      36.698  -4.808 -17.277  1.00  0.00     0.041 C 
ATOM     19  O   UNL     1      36.634  -3.596 -17.612  1.00  0.00    -0.550 OA
ATOM     20  O   UNL     1      37.536  -5.191 -16.236  1.00  0.00    -0.550 OA
ENDBRANCH  17  18
ENDBRANCH  16  17
ENDBRANCH  15  16
ENDBRANCH  14  15
ENDBRANCH  13  14
ENDBRANCH  12  13
ENDBRANCH  11  12
ENDBRANCH   1  11
TORSDOF 15
ENDMDL
MODEL 2
REMARK VINA RESULT:    -4.217      0.999      6.436
REMARK INTER + INTRA:          -8.529
REMARK INTER:                  -7.505
REMARK INTRA:                  -1.024
REMARK UNBOUND:                -0.613
REMARK SMILES O=C([O-])CCCCCCCCCCCCCCC(=O)[O-]
REMARK SMILES IDX 10 1 9 2 8 3 7 4 6 5 5 6 4 7 2 8 1 9 3 10 11 11 12 12 13 13
REMARK SMILES IDX 14 14 15 15 16 16 17 17 18 18 19 19 20 20
REMARK H PARENT
REMARK Flexibility Score: inf
ROOT
ATOM      1  C   UNL     1      30.978  -6.941 -15.894  1.00  0.00     0.000 C 
ENDROOT
BRANCH   1   2
ATOM      2  C   UNL     1      31.143  -5.423 -15.734  1.00  0.00     0.000 C 
BRANCH   2   3
ATOM      3  C   UNL     1      32.115  -4.864 -16.782  1.00  0.00     0.000 C 
BRANCH   3   4
ATOM      4  C   UNL     1      33.514  -5.502 -16.704  1.00  0.00     0.000 C 
BRANCH   4   5
ATOM      5  C   UNL     1      34.355  -5.397 -17.989  1.00  0.00     0.000 C 
BRANCH   5   6
ATOM      6  C   UNL     1      35.617  -4.517 -17.884  1.00  0.00     0.006 C 
BRANCH   6   7
ATOM      7  C   UNL     1      36.938  -5.305 -17.982  1.00  0.00     0.053 C 
BRANCH   7   8
ATOM      8  C   UNL     1      37.422  -5.787 -16.648  1.00  0.00     0.041 C 
ATOM      9  O   UNL     1      37.128  -5.156 -15.599  1.00  0.00    -0.550 OA
ATOM     10  O   UNL     1      38.230  -6.914 -16.566  1.00  0.00    -0.550 OA
ENDBRANCH   7   8
ENDBRANCH   6   7
ENDBRANCH   5   6
ENDBRANCH   4   5
ENDBRANCH   3   4
ENDBRANCH   2   3
ENDBRANCH   1   2
BRANCH   1  11
ATOM     11  C   UNL     1      29.623  -7.456 -15.377  1.00  0.00     0.000 C 
BRANCH  11  12
ATOM     12  C   UNL     1      29.686  -8.261 -14.062  1.00  0.00     0.000 C 
BRANCH  12  13
ATOM     13  C   UNL     1      29.289  -7.478 -12.797  1.00  0.00     0.000 C 
BRANCH  13  14
ATOM     14  C   UNL     1      28.723  -6.070 -13.058  1.00  0.00     0.000 C 
BRANCH  14  15
ATOM     15  C   UNL     1      29.662  -4.931 -12.605  1.00  0.00     0.000 C 
BRANCH  15  16
ATOM     16  C   UNL     1      31.127  -5.386 -12.493  1.00  0.00     0.006 C 
BRANCH  16  17
ATOM     17  C   UNL     1      31.650  -5.316 -11.052  1.00  0.00     0.053 C 
BRANCH  17  18
ATOM     18  C   UNL     1      32.673  -6.374 -10.777  1.00  0.00     0.041 C 
ATOM     19  O   UNL     1      33.060  -7.136 -11.702  1.00  0.00    -0.550 OA
ATOM     20  O   UNL     1      33.176  -6.541  -9.493  1.00  0.00    -0.550 OA
ENDBRANCH  17  18
ENDBRANCH  16  17
ENDBRANCH  15  16
ENDBRANCH  14  15
ENDBRANCH  13  14
ENDBRANCH  12  13
ENDBRANCH  11  12
ENDBRANCH   1  11
TORSDOF 15
ENDMDL
MODEL 3
REMARK VINA RESULT:    -4.190      0.278      6.426
REMARK INTER + INTRA:          -8.478
REMARK INTER:                  -7.701
REMARK INTRA:                  -0.777
REMARK UNBOUND:                -0.613
REMARK SMILES O=C([O-])CCCCCCCCCCCCCCC(=O)[O-]
REMARK SMILES IDX 10 1 9 2 8 3 7 4 6 5 5 6 4 7 2 8 1 9 3 10 11 11 12 12 13 13
REMARK SMILES IDX 14 14 15 15 16 16 17 17 18 18 19 19 20 20
REMARK H PARENT
REMARK Flexibility Score: inf
ROOT
ATOM      1  C   UNL     1      29.577  -7.728 -15.404  1.00  0.00     0.000 C 
ENDROOT
BRANCH   1   2
ATOM      2  C   UNL     1      30.722  -7.153 -16.249  1.00  0.00     0.000 C 
BRANCH   2   3
ATOM      3  C   UNL     1      31.236  -5.835 -15.652  1.00  0.00     0.000 C 
BRANCH   3   4
ATOM      4  C   UNL     1      32.118  -5.037 -16.630  1.00  0.00     0.000 C 
BRANCH   4   5
ATOM      5  C   UNL     1      33.603  -5.444 -16.656  1.00  0.00     0.000 C 
BRANCH   5   6
ATOM      6  C   UNL     1      34.260  -5.459 -18.050  1.00  0.00     0.006 C 
BRANCH   6   7
ATOM      7  C   UNL     1      35.762  -5.799 -18.029  1.00  0.00     0.053 C 
BRANCH   7   8
ATOM      8  C   UNL     1      36.570  -4.799 -17.259  1.00  0.00     0.041 C 
ATOM      9  O   UNL     1      37.076  -5.110 -16.149  1.00  0.00    -0.550 OA
ATOM     10  O   UNL     1      36.734  -3.509 -17.750  1.00  0.00    -0.550 OA
ENDBRANCH   7   8
ENDBRANCH   6   7
ENDBRANCH   5   6
ENDBRANCH   4   5
ENDBRANCH   3   4
ENDBRANCH   2   3
ENDBRANCH   1   2
BRANCH   1  11
ATOM     11  C   UNL     1      30.013  -8.097 -13.974  1.00  0.00     0.000 C 
BRANCH  11  12
ATOM     12  C   UNL     1      29.225  -7.396 -12.847  1.00  0.00     0.000 C 
BRANCH  12  13
ATOM     13  C   UNL     1      28.758  -5.965 -13.170  1.00  0.00     0.000 C 
BRANCH  13  14
ATOM     14  C   UNL     1      29.860  -4.892 -13.094  1.00  0.00     0.000 C 
BRANCH  14  15
ATOM     15  C   UNL     1      30.718  -4.974 -11.813  1.00  0.00     0.000 C 
BRANCH  15  16
ATOM     16  C   UNL     1      32.125  -5.533 -12.084  1.00  0.00     0.006 C 
BRANCH  16  17
ATOM     17  C   UNL     1      32.428  -6.779 -11.240  1.00  0.00     0.053 C 
BRANCH  17  18
ATOM     18  C   UNL     1      32.873  -6.420  -9.856  1.00  0.00     0.041 C 
ATOM     19  O   UNL     1      32.373  -5.425  -9.268  1.00  0.00    -0.550 OA
ATOM     20  O   UNL     1      33.863  -7.165  -9.227  1.00  0.00    -0.550 OA
ENDBRANCH  17  18
ENDBRANCH  16  17
ENDBRANCH  15  16
ENDBRANCH  14  15
ENDBRANCH  13  14
ENDBRANCH  12  13
ENDBRANCH  11  12
ENDBRANCH   1  11
TORSDOF 15
ENDMDL
MODEL 4
REMARK VINA RESULT:    -4.109      0.954      6.465
REMARK INTER + INTRA:          -8.325
REMARK INTER:                  -7.591
REMARK INTRA:                  -0.734
REMARK UNBOUND:                -0.613
REMARK SMILES O=C([O-])CCCCCCCCCCCCCCC(=O)[O-]
REMARK SMILES IDX 10 1 9 2 8 3 7 4 6 5 5 6 4 7 2 8 1 9 3 10 11 11 12 12 13 13
REMARK SMILES IDX 14 14 15 15 16 16 17 17 18 18 19 19 20 20
REMARK H PARENT
REMARK Flexibility Score: inf
ROOT
ATOM      1  C   UNL     1      30.584  -7.096 -16.188  1.00  0.00     0.000 C 
ENDROOT
BRANCH   1   2
ATOM      2  C   UNL     1      31.082  -5.812 -15.510  1.00  0.00     0.000 C 
BRANCH   2   3
ATOM      3  C   UNL     1      31.904  -4.959 -16.488  1.00  0.00     0.000 C 
BRANCH   3   4
ATOM      4  C   UNL     1      33.322  -5.513 -16.720  1.00  0.00     0.000 C 
BRANCH   4   5
ATOM      5  C   UNL     1      33.956  -5.144 -18.075  1.00  0.00     0.000 C 
BRANCH   5   6
ATOM      6  C   UNL     1      35.251  -5.902 -18.427  1.00  0.00     0.006 C 
BRANCH   6   7
ATOM      7  C   UNL     1      36.117  -6.261 -17.204  1.00  0.00     0.053 C 
BRANCH   7   8
ATOM      8  C   UNL     1      37.102  -5.186 -16.859  1.00  0.00     0.041 C 
ATOM      9  O   UNL     1      37.920  -5.353 -15.917  1.00  0.00    -0.550 OA
ATOM     10  O   UNL     1      37.092  -3.982 -17.553  1.00  0.00    -0.550 OA
ENDBRANCH   7   8
ENDBRANCH   6   7
ENDBRANCH   5   6
ENDBRANCH   4   5
ENDBRANCH   3   4
ENDBRANCH   2   3
ENDBRANCH   1   2
BRANCH   1  11
ATOM     11  C   UNL     1      29.499  -7.824 -15.374  1.00  0.00     0.000 C 
BRANCH  11  12
ATOM     12  C   UNL     1      29.934  -8.284 -13.966  1.00  0.00     0.000 C 
BRANCH  12  13
ATOM     13  C   UNL     1      29.241  -7.558 -12.799  1.00  0.00     0.000 C 
BRANCH  13  14
ATOM     14  C   UNL     1      28.668  -6.171 -13.147  1.00  0.00     0.000 C 
BRANCH  14  15
ATOM     15  C   UNL     1      29.438  -5.002 -12.497  1.00  0.00     0.000 C 
BRANCH  15  16
ATOM     16  C   UNL     1      30.961  -5.217 -12.517  1.00  0.00     0.006 C 
BRANCH  16  17
ATOM     17  C   UNL     1      31.560  -5.258 -11.104  1.00  0.00     0.053 C 
BRANCH  17  18
ATOM     18  C   UNL     1      32.541  -6.379 -10.948  1.00  0.00     0.041 C 
ATOM     19  O   UNL     1      33.082  -6.596  -9.831  1.00  0.00    -0.550 OA
ATOM     20  O   UNL     1      32.884  -7.163 -12.042  1.00  0.00    -0.550 OA
ENDBRANCH  17  18
ENDBRANCH  16  17
ENDBRANCH  15  16
ENDBRANCH  14  15
ENDBRANCH  13  14
ENDBRANCH  12  13
ENDBRANCH  11  12
ENDBRANCH   1  11
TORSDOF 15
ENDMDL
MODEL 5
REMARK VINA RESULT:    -4.082      1.017      1.700
REMARK INTER + INTRA:          -8.274
REMARK INTER:                  -7.304
REMARK INTRA:                  -0.970
REMARK UNBOUND:                -0.613
REMARK SMILES O=C([O-])CCCCCCCCCCCCCCC(=O)[O-]
REMARK SMILES IDX 10 1 9 2 8 3 7 4 6 5 5 6 4 7 2 8 1 9 3 10 11 11 12 12 13 13
REMARK SMILES IDX 14 14 15 15 16 16 17 17 18 18 19 19 20 20
REMARK H PARENT
REMARK Flexibility Score: inf
ROOT
ATOM      1  C   UNL     1      29.602  -7.447 -15.471  1.00  0.00     0.000 C 
ENDROOT
BRANCH   1   2
ATOM      2  C   UNL     1      29.651  -8.319 -14.207  1.00  0.00     0.000 C 
BRANCH   2   3
ATOM      3  C   UNL     1      29.478  -7.463 -12.944  1.00  0.00     0.000 C 
BRANCH   3   4
ATOM      4  C   UNL     1      28.864  -6.081 -13.235  1.00  0.00     0.000 C 
BRANCH   4   5
ATOM      5  C   UNL     1      29.679  -4.880 -12.720  1.00  0.00     0.000 C 
BRANCH   5   6
ATOM      6  C   UNL     1      31.178  -5.150 -12.487  1.00  0.00     0.006 C 
BRANCH   6   7
ATOM      7  C   UNL     1      31.538  -5.453 -11.019  1.00  0.00     0.053 C 
BRANCH   7   8
ATOM      8  C   UNL     1      32.680  -6.414 -10.892  1.00  0.00     0.041 C 
ATOM      9  O   UNL     1      33.006  -7.145 -11.864  1.00  0.00    -0.550 OA
ATOM     10  O   UNL     1      33.362  -6.531  -9.687  1.00  0.00    -0.550 OA
ENDBRANCH   7   8
ENDBRANCH   6   7
ENDBRANCH   5   6
ENDBRANCH   4   5
ENDBRANCH   3   4
ENDBRANCH   2   3
ENDBRANCH   1   2
BRANCH   1  11
ATOM     11  C   UNL     1      30.996  -7.003 -15.948  1.00  0.00     0.000 C 
BRANCH  11  12
ATOM     12  C   UNL     1      31.299  -5.499 -15.779  1.00  0.00     0.000 C 
BRANCH  12  13
ATOM     13  C   UNL     1      32.234  -4.897 -16.844  1.00  0.00     0.000 C 
BRANCH  13  14
ATOM     14  C   UNL     1      33.668  -5.459 -16.839  1.00  0.00     0.000 C 
BRANCH  14  15
ATOM     15  C   UNL     1      34.444  -5.188 -18.145  1.00  0.00     0.000 C 
BRANCH  15  16
ATOM     16  C   UNL     1      35.761  -4.431 -17.901  1.00  0.00     0.006 C 
BRANCH  16  17
ATOM     17  C   UNL     1      36.984  -5.356 -17.972  1.00  0.00     0.053 C 
BRANCH  17  18
ATOM     18  C   UNL     1      37.428  -5.799 -16.613  1.00  0.00     0.041 C 
ATOM     19  O   UNL     1      37.061  -5.166 -15.588  1.00  0.00    -0.550 OA
ATOM     20  O   UNL     1      38.274  -6.893 -16.479  1.00  0.00    -0.550 OA
ENDBRANCH  17  18
ENDBRANCH  16  17
ENDBRANCH  15  16
ENDBRANCH  14  15
ENDBRANCH  13  14
ENDBRANCH  12  13
ENDBRANCH  11  12
ENDBRANCH   1  11
TORSDOF 15
ENDMDL
MODEL 6
REMARK VINA RESULT:    -3.457      1.197      2.437
REMARK INTER + INTRA:          -7.101
REMARK INTER:                  -7.017
REMARK INTRA:                  -0.085
REMARK UNBOUND:                -0.613
REMARK SMILES O=C([O-])CCCCCCCCCCCCCCC(=O)[O-]
REMARK SMILES IDX 10 1 9 2 8 3 7 4 6 5 5 6 4 7 2 8 1 9 3 10 11 11 12 12 13 13
REMARK SMILES IDX 14 14 15 15 16 16 17 17 18 18 19 19 20 20
REMARK H PARENT
REMARK Flexibility Score: inf
ROOT
ATOM      1  C   UNL     1      30.889  -6.956 -16.037  1.00  0.00     0.000 C 
ENDROOT
BRANCH   1   2
ATOM      2  C   UNL     1      29.574  -7.408 -15.386  1.00  0.00     0.000 C 
BRANCH   2   3
ATOM      3  C   UNL     1      29.842  -8.148 -14.068  1.00  0.00     0.000 C 
BRANCH   3   4
ATOM      4  C   UNL     1      29.269  -7.413 -12.841  1.00  0.00     0.000 C 
BRANCH   4   5
ATOM      5  C   UNL     1      29.258  -5.876 -12.944  1.00  0.00     0.000 C 
BRANCH   5   6
ATOM      6  C   UNL     1      30.612  -5.186 -12.688  1.00  0.00     0.006 C 
BRANCH   6   7
ATOM      7  C   UNL     1      31.135  -5.350 -11.248  1.00  0.00     0.053 C 
BRANCH   7   8
ATOM      8  C   UNL     1      32.319  -6.264 -11.163  1.00  0.00     0.041 C 
ATOM      9  O   UNL     1      32.653  -6.963 -12.156  1.00  0.00    -0.550 OA
ATOM     10  O   UNL     1      33.033  -6.373  -9.977  1.00  0.00    -0.550 OA
ENDBRANCH   7   8
ENDBRANCH   6   7
ENDBRANCH   5   6
ENDBRANCH   4   5
ENDBRANCH   3   4
ENDBRANCH   2   3
ENDBRANCH   1   2
BRANCH   1  11
ATOM     11  C   UNL     1      31.240  -5.490 -15.726  1.00  0.00     0.000 C 
BRANCH  11  12
ATOM     12  C   UNL     1      32.197  -4.817 -16.732  1.00  0.00     0.000 C 
BRANCH  12  13
ATOM     13  C   UNL     1      33.566  -5.505 -16.891  1.00  0.00     0.000 C 
BRANCH  13  14
ATOM     14  C   UNL     1      34.114  -5.530 -18.331  1.00  0.00     0.000 C 
BRANCH  14  15
ATOM     15  C   UNL     1      35.616  -5.187 -18.427  1.00  0.00     0.000 C 
BRANCH  15  16
ATOM     16  C   UNL     1      36.094  -4.307 -17.259  1.00  0.00     0.006 C 
BRANCH  16  17
ATOM     17  C   UNL     1      37.428  -4.793 -16.675  1.00  0.00     0.053 C 
BRANCH  17  18
ATOM     18  C   UNL     1      37.496  -6.287 -16.608  1.00  0.00     0.041 C 
ATOM     19  O   UNL     1      38.602  -6.877 -16.727  1.00  0.00    -0.550 OA
ATOM     20  O   UNL     1      36.333  -7.031 -16.446  1.00  0.00    -0.550 OA
ENDBRANCH  17  18
ENDBRANCH  16  17
ENDBRANCH  15  16
ENDBRANCH  14  15
ENDBRANCH  13  14
ENDBRANCH  12  13
ENDBRANCH  11  12
ENDBRANCH   1  11
TORSDOF 15
ENDMDL
MODEL 7
REMARK VINA RESULT:    -3.024      3.500      5.090
REMARK INTER + INTRA:          -6.289
REMARK INTER:                  -5.410
REMARK INTRA:                  -0.880
REMARK UNBOUND:                -0.613
REMARK SMILES O=C([O-])CCCCCCCCCCCCCCC(=O)[O-]
REMARK SMILES IDX 10 1 9 2 8 3 7 4 6 5 5 6 4 7 2 8 1 9 3 10 11 11 12 12 13 13
REMARK SMILES IDX 14 14 15 15 16 16 17 17 18 18 19 19 20 20
REMARK H PARENT
REMARK Flexibility Score: inf
ROOT
ATOM      1  C   UNL     1      30.035  -5.164 -13.787  1.00  0.00     0.000 C 
ENDROOT
BRANCH   1   2
ATOM      2  C   UNL     1      31.042  -5.935 -12.921  1.00  0.00     0.000 C 
BRANCH   2   3
ATOM      3  C   UNL     1      30.646  -7.414 -12.805  1.00  0.00     0.000 C 
BRANCH   3   4
ATOM      4  C   UNL     1      29.504  -7.806 -13.761  1.00  0.00     0.000 C 
BRANCH   4   5
ATOM      5  C   UNL     1      29.766  -9.057 -14.619  1.00  0.00     0.000 C 
BRANCH   5   6
ATOM      6  C   UNL     1      29.883  -8.807 -16.135  1.00  0.00     0.006 C 
BRANCH   6   7
ATOM      7  C   UNL     1      28.532  -8.572 -16.836  1.00  0.00     0.053 C 
BRANCH   7   8
ATOM      8  C   UNL     1      28.485  -9.161 -18.213  1.00  0.00     0.041 C 
ATOM      9  O   UNL     1      27.384  -9.294 -18.810  1.00  0.00    -0.550 OA
ATOM     10  O   UNL     1      29.653  -9.600 -18.823  1.00  0.00    -0.550 OA
ENDBRANCH   7   8
ENDBRANCH   6   7
ENDBRANCH   5   6
ENDBRANCH   4   5
ENDBRANCH   3   4
ENDBRANCH   2   3
ENDBRANCH   1   2
BRANCH   1  11
ATOM     11  C   UNL     1      30.433  -5.118 -15.273  1.00  0.00     0.000 C 
BRANCH  11  12
ATOM     12  C   UNL     1      31.800  -5.752 -15.606  1.00  0.00     0.000 C 
BRANCH  12  13
ATOM     13  C   UNL     1      32.525  -5.140 -16.819  1.00  0.00     0.000 C 
BRANCH  13  14
ATOM     14  C   UNL     1      34.042  -5.403 -16.866  1.00  0.00     0.000 C 
BRANCH  14  15
ATOM     15  C   UNL     1      34.732  -4.828 -18.121  1.00  0.00     0.000 C 
BRANCH  15  16
ATOM     16  C   UNL     1      36.161  -5.367 -18.306  1.00  0.00     0.006 C 
BRANCH  16  17
ATOM     17  C   UNL     1      36.478  -6.517 -17.340  1.00  0.00     0.053 C 
BRANCH  17  18
ATOM     18  C   UNL     1      37.674  -6.219 -16.490  1.00  0.00     0.041 C 
ATOM     19  O   UNL     1      37.847  -5.062 -16.024  1.00  0.00    -0.550 OA
ATOM     20  O   UNL     1      38.616  -7.209 -16.240  1.00  0.00    -0.550 OA
ENDBRANCH  17  18
ENDBRANCH  16  17
ENDBRANCH  15  16
ENDBRANCH  14  15
ENDBRANCH  13  14
ENDBRANCH  12  13
ENDBRANCH  11  12
ENDBRANCH   1  11
TORSDOF 15
ENDMDL
MODEL 8
REMARK VINA RESULT:    -2.733      3.498      6.952
REMARK INTER + INTRA:          -5.744
REMARK INTER:                  -5.350
REMARK INTRA:                  -0.394
REMARK UNBOUND:                -0.613
REMARK SMILES O=C([O-])CCCCCCCCCCCCCCC(=O)[O-]
REMARK SMILES IDX 10 1 9 2 8 3 7 4 6 5 5 6 4 7 2 8 1 9 3 10 11 11 12 12 13 13
REMARK SMILES IDX 14 14 15 15 16 16 17 17 18 18 19 19 20 20
REMARK H PARENT
REMARK Flexibility Score: inf
ROOT
ATOM      1  C   UNL     1      30.396  -4.741 -14.876  1.00  0.00     0.000 C 
ENDROOT
BRANCH   1   2
ATOM      2  C   UNL     1      31.546  -5.644 -15.345  1.00  0.00     0.000 C 
BRANCH   2   3
ATOM      3  C   UNL     1      32.001  -5.263 -16.761  1.00  0.00     0.000 C 
BRANCH   3   4
ATOM      4  C   UNL     1      33.532  -5.176 -16.896  1.00  0.00     0.000 C 
BRANCH   4   5
ATOM      5  C   UNL     1      34.063  -5.152 -18.341  1.00  0.00     0.000 C 
BRANCH   5   6
ATOM      6  C   UNL     1      35.363  -5.944 -18.581  1.00  0.00     0.006 C 
BRANCH   6   7
ATOM      7  C   UNL     1      36.119  -6.311 -17.290  1.00  0.00     0.053 C 
BRANCH   7   8
ATOM      8  C   UNL     1      37.027  -5.214 -16.822  1.00  0.00     0.041 C 
ATOM      9  O   UNL     1      37.378  -5.152 -15.614  1.00  0.00    -0.550 OA
ATOM     10  O   UNL     1      37.457  -4.237 -17.711  1.00  0.00    -0.550 OA
ENDBRANCH   7   8
ENDBRANCH   6   7
ENDBRANCH   5   6
ENDBRANCH   4   5
ENDBRANCH   3   4
ENDBRANCH   2   3
ENDBRANCH   1   2
BRANCH   1  11
ATOM     11  C   UNL     1      30.021  -4.963 -13.400  1.00  0.00     0.000 C 
BRANCH  11  12
ATOM     12  C   UNL     1      28.773  -5.840 -13.166  1.00  0.00     0.000 C 
BRANCH  12  13
ATOM     13  C   UNL     1      29.052  -7.349 -13.031  1.00  0.00     0.000 C 
BRANCH  13  14
ATOM     14  C   UNL     1      30.071  -7.912 -14.040  1.00  0.00     0.000 C 
BRANCH  14  15
ATOM     15  C   UNL     1      29.604  -9.210 -14.732  1.00  0.00     0.000 C 
BRANCH  15  16
ATOM     16  C   UNL     1      29.854  -9.189 -16.250  1.00  0.00     0.006 C 
BRANCH  16  17
ATOM     17  C   UNL     1      28.713  -8.509 -17.018  1.00  0.00     0.053 C 
BRANCH  17  18
ATOM     18  C   UNL     1      28.465  -9.162 -18.342  1.00  0.00     0.041 C 
ATOM     19  O   UNL     1      29.424  -9.392 -19.125  1.00  0.00    -0.550 OA
ATOM     20  O   UNL     1      27.170  -9.489 -18.727  1.00  0.00    -0.550 OA
ENDBRANCH  17  18
ENDBRANCH  16  17
ENDBRANCH  15  16
ENDBRANCH  14  15
ENDBRANCH  13  14
ENDBRANCH  12  13
ENDBRANCH  11  12
ENDBRANCH   1  11
TORSDOF 15
ENDMDL
MODEL 9
REMARK VINA RESULT:    -2.482      3.008      6.692
REMARK INTER + INTRA:          -5.271
REMARK INTER:                  -4.919
REMARK INTRA:                  -0.351
REMARK UNBOUND:                -0.613
REMARK SMILES O=C([O-])CCCCCCCCCCCCCCC(=O)[O-]
REMARK SMILES IDX 10 1 9 2 8 3 7 4 6 5 5 6 4 7 2 8 1 9 3 10 11 11 12 12 13 13
REMARK SMILES IDX 14 14 15 15 16 16 17 17 18 18 19 19 20 20
REMARK H PARENT
REMARK Flexibility Score: inf
ROOT
ATOM      1  C   UNL     1      32.217  -6.079 -14.265  1.00  0.00     0.000 C 
ENDROOT
BRANCH   1   2
ATOM      2  C   UNL     1      31.381  -5.175 -15.182  1.00  0.00     0.000 C 
BRANCH   2   3
ATOM      3  C   UNL     1      32.006  -5.084 -16.581  1.00  0.00     0.000 C 
BRANCH   3   4
ATOM      4  C   UNL     1      33.502  -5.448 -16.594  1.00  0.00     0.000 C 
BRANCH   4   5
ATOM      5  C   UNL     1      34.200  -5.302 -17.959  1.00  0.00     0.000 C 
BRANCH   5   6
ATOM      6  C   UNL     1      35.598  -4.653 -17.921  1.00  0.00     0.006 C 
BRANCH   6   7
ATOM      7  C   UNL     1      36.758  -5.664 -18.001  1.00  0.00     0.053 C 
BRANCH   7   8
ATOM      8  C   UNL     1      37.397  -5.916 -16.669  1.00  0.00     0.041 C 
ATOM      9  O   UNL     1      37.110  -5.192 -15.680  1.00  0.00    -0.550 OA
ATOM     10  O   UNL     1      38.337  -6.929 -16.527  1.00  0.00    -0.550 OA
ENDBRANCH   7   8
ENDBRANCH   6   7
ENDBRANCH   5   6
ENDBRANCH   4   5
ENDBRANCH   3   4
ENDBRANCH   2   3
ENDBRANCH   1   2
BRANCH   1  11
ATOM     11  C   UNL     1      32.286  -5.566 -12.816  1.00  0.00     0.000 C 
BRANCH  11  12
ATOM     12  C   UNL     1      30.979  -5.706 -12.008  1.00  0.00     0.000 C 
BRANCH  12  13
ATOM     13  C   UNL     1      29.721  -5.146 -12.698  1.00  0.00     0.000 C 
BRANCH  13  14
ATOM     14  C   UNL     1      28.752  -6.212 -13.241  1.00  0.00     0.000 C 
BRANCH  14  15
ATOM     15  C   UNL     1      29.201  -7.661 -12.955  1.00  0.00     0.000 C 
BRANCH  15  16
ATOM     16  C   UNL     1      29.888  -8.315 -14.166  1.00  0.00     0.006 C 
BRANCH  16  17
ATOM     17  C   UNL     1      29.323  -7.805 -15.499  1.00  0.00     0.053 C 
BRANCH  17  18
ATOM     18  C   UNL     1      29.440  -8.832 -16.583  1.00  0.00     0.041 C 
ATOM     19  O   UNL     1      30.496  -9.506 -16.706  1.00  0.00    -0.550 OA
ATOM     20  O   UNL     1      28.394  -9.022 -17.478  1.00  0.00    -0.550 OA
ENDBRANCH  17  18
ENDBRANCH  16  17
ENDBRANCH  15  16
ENDBRANCH  14  15
ENDBRANCH  13  14
ENDBRANCH  12  13
ENDBRANCH  11  12
ENDBRANCH   1  11
TORSDOF 15
ENDMDL
