MODEL 1
REMARK VINA RESULT:    -2.442      0.000      0.000
REMARK INTER + INTRA:          -2.442
REMARK INTER:                  -2.442
REMARK INTRA:                   0.000
REMARK UNBOUND:                 0.000
REMARK SMILES CC(=O)[O-]
REMARK SMILES IDX 1 1 2 2 3 3 4 4
REMARK H PARENT
REMARK Flexibility Score: inf
ROOT
ATOM      1  C   UNL     1     243.336 258.103 256.822  1.00  0.00     0.063 C 
ATOM      2  C   UNL     1     244.471 257.662 255.962  1.00  0.00     0.038 C 
ATOM      3  O   UNL     1     245.606 258.191 256.092  1.00  0.00    -0.550 OA
ATOM      4  O   UNL     1     244.293 256.628 255.052  1.00  0.00    -0.550 OA
ENDROOT
TORSDOF 0
ENDMDL
MODEL 2
REMARK VINA RESULT:    -2.323      1.373      1.769
REMARK INTER + INTRA:          -2.323
REMARK INTER:                  -2.323
REMARK INTRA:                   0.000
REMARK UNBOUND:                 0.000
REMARK SMILES CC(=O)[O-]
REMARK SMILES IDX 1 1 2 2 3 3 4 4
REMARK H PARENT
REMARK Flexibility Score: inf
ROOT
ATOM      1  C   UNL     1     243.941 256.668 255.175  1.00  0.00     0.063 C 
ATOM      2  C   UNL     1     244.326 257.814 256.047  1.00  0.00     0.038 C 
ATOM      3  O   UNL     1     245.540 258.119 256.189  1.00  0.00    -0.550 OA
ATOM      4  O   UNL     1     243.346 258.582 256.660  1.00  0.00    -0.550 OA
ENDROOT
TORSDOF 0
ENDMDL
MODEL 3
REMARK VINA RESULT:    -2.193     11.705     12.009
REMARK INTER + INTRA:          -2.193
REMARK INTER:                  -2.193
REMARK INTRA:                   0.000
REMARK UNBOUND:                 0.000
REMARK SMILES CC(=O)[O-]
REMARK SMILES IDX 1 1 2 2 3 3 4 4
REMARK H PARENT
REMARK Flexibility Score: inf
ROOT
ATOM      1  C   UNL     1     249.369 263.847 245.849  1.00  0.00     0.063 C 
ATOM      2  C   UNL     1     249.672 262.501 246.412  1.00  0.00     0.038 C 
ATOM      3  O   UNL     1     250.785 262.280 246.958  1.00  0.00    -0.550 OA
ATOM      4  O   UNL     1     248.707 261.502 246.385  1.00  0.00    -0.550 OA
ENDROOT
TORSDOF 0
ENDMDL
MODEL 4
REMARK VINA RESULT:    -2.140     10.818     11.162
REMARK INTER + INTRA:          -2.140
REMARK INTER:                  -2.140
REMARK INTRA:                   0.000
REMARK UNBOUND:                 0.000
REMARK SMILES CC(=O)[O-]
REMARK SMILES IDX 1 1 2 2 3 3 4 4
REMARK H PARENT
REMARK Flexibility Score: inf
ROOT
ATOM      1  C   UNL     1     249.988 262.135 246.840  1.00  0.00     0.063 C 
ATOM      2  C   UNL     1     249.303 260.826 246.643  1.00  0.00     0.038 C 
ATOM      3  O   UNL     1     248.485 260.676 245.698  1.00  0.00    -0.550 OA
ATOM      4  O   UNL     1     249.606 259.751 247.469  1.00  0.00    -0.550 OA
ENDROOT
TORSDOF 0
ENDMDL
MODEL 5
REMARK VINA RESULT:    -2.121     11.298     11.451
REMARK INTER + INTRA:          -2.121
REMARK INTER:                  -2.121
REMARK INTRA:                   0.000
REMARK UNBOUND:                 0.000
REMARK SMILES CC(=O)[O-]
REMARK SMILES IDX 1 1 2 2 3 3 4 4
REMARK H PARENT
REMARK Flexibility Score: inf
ROOT
ATOM      1  C   UNL     1     247.280 259.186 245.074  1.00  0.00     0.063 C 
ATOM      2  C   UNL     1     247.144 257.710 244.914  1.00  0.00     0.038 C 
ATOM      3  O   UNL     1     248.165 256.998 244.726  1.00  0.00    -0.550 OA
ATOM      4  O   UNL     1     245.897 257.110 245.026  1.00  0.00    -0.550 OA
ENDROOT
TORSDOF 0
ENDMDL
MODEL 6
REMARK VINA RESULT:    -2.107      9.895     10.426
REMARK INTER + INTRA:          -2.107
REMARK INTER:                  -2.107
REMARK INTRA:                   0.000
REMARK UNBOUND:                 0.000
REMARK SMILES CC(=O)[O-]
REMARK SMILES IDX 1 1 2 2 3 3 4 4
REMARK H PARENT
REMARK Flexibility Score: inf
ROOT
ATOM      1  C   UNL     1     254.863 261.988 254.310  1.00  0.00     0.063 C 
ATOM      2  C   UNL     1     254.175 260.727 254.709  1.00  0.00     0.038 C 
ATOM      3  O   UNL     1     254.506 260.135 255.770  1.00  0.00    -0.550 OA
ATOM      4  O   UNL     1     253.129 260.232 253.941  1.00  0.00    -0.550 OA
ENDROOT
TORSDOF 0
ENDMDL
MODEL 7
REMARK VINA RESULT:    -2.077     10.219     10.638
REMARK INTER + INTRA:          -2.077
REMARK INTER:                  -2.077
REMARK INTRA:                   0.000
REMARK UNBOUND:                 0.000
REMARK SMILES CC(=O)[O-]
REMARK SMILES IDX 1 1 2 2 3 3 4 4
REMARK H PARENT
REMARK Flexibility Score: inf
ROOT
ATOM      1  C   UNL     1     253.342 260.329 253.976  1.00  0.00     0.063 C 
ATOM      2  C   UNL     1     254.438 260.858 254.837  1.00  0.00     0.038 C 
ATOM      3  O   UNL     1     254.931 261.994 254.605  1.00  0.00    -0.550 OA
ATOM      4  O   UNL     1     254.880 260.125 255.930  1.00  0.00    -0.550 OA
ENDROOT
TORSDOF 0
ENDMDL
MODEL 8
REMARK VINA RESULT:    -2.025     10.750     11.137
REMARK INTER + INTRA:          -2.025
REMARK INTER:                  -2.025
REMARK INTRA:                   0.000
REMARK UNBOUND:                 0.000
REMARK SMILES CC(=O)[O-]
REMARK SMILES IDX 1 1 2 2 3 3 4 4
REMARK H PARENT
REMARK Flexibility Score: inf
ROOT
ATOM      1  C   UNL     1     246.130 257.227 245.046  1.00  0.00     0.063 C 
ATOM      2  C   UNL     1     247.155 258.268 245.344  1.00  0.00     0.038 C 
ATOM      3  O   UNL     1     247.998 258.081 246.260  1.00  0.00    -0.550 OA
ATOM      4  O   UNL     1     247.217 259.423 244.575  1.00  0.00    -0.550 OA
ENDROOT
TORSDOF 0
ENDMDL
MODEL 9
REMARK VINA RESULT:    -2.014     10.439     10.748
REMARK INTER + INTRA:          -2.014
REMARK INTER:                  -2.014
REMARK INTRA:                   0.000
REMARK UNBOUND:                 0.000
REMARK SMILES CC(=O)[O-]
REMARK SMILES IDX 1 1 2 2 3 3 4 4
REMARK H PARENT
REMARK Flexibility Score: inf
ROOT
ATOM      1  C   UNL     1     249.405 260.979 246.851  1.00  0.00     0.063 C 
ATOM      2  C   UNL     1     250.081 259.675 247.106  1.00  0.00     0.038 C 
ATOM      3  O   UNL     1     251.325 259.566 246.947  1.00  0.00    -0.550 OA
ATOM      4  O   UNL     1     249.349 258.591 247.573  1.00  0.00    -0.550 OA
ENDROOT
TORSDOF 0
ENDMDL
