MODEL 1
REMARK VINA RESULT:    -7.215      0.000      0.000
REMARK INTER + INTRA:          -8.713
REMARK INTER:                  -8.691
REMARK INTRA:                  -0.022
REMARK UNBOUND:                -0.022
REMARK SMILES O=c1c(O)c(-c2ccc(O)c(O)c2)oc2cc(O)cc(O)c12
REMARK SMILES IDX 5 1 3 2 2 3 1 4 22 5 20 6 19 7 17 8 16 9 15 10 14 11 6 12
REMARK SMILES IDX 7 13 8 14 9 15 13 16 11 17 10 18 12 20 4 22 21 24 18 26
REMARK H PARENT 10 19 12 21 4 23 21 25 18 27
REMARK Flexibility Score: inf
ROOT
ATOM      1  C   UNL     1       6.830  -0.922  35.745  1.00  0.00     0.180 A 
ATOM      2  C   UNL     1       5.757  -0.259  36.363  1.00  0.00     0.208 A 
ATOM      3  C   UNL     1       4.681  -1.016  36.855  1.00  0.00     0.238 A 
ATOM      4  O   UNL     1       3.748  -0.422  37.455  1.00  0.00    -0.285 OA
ATOM      5  C   UNL     1       4.687  -2.424  36.710  1.00  0.00     0.111 A 
ATOM      6  C   UNL     1       3.632  -3.287  37.135  1.00  0.00     0.134 A 
ATOM      7  C   UNL     1       3.802  -4.675  37.059  1.00  0.00     0.093 A 
ATOM      8  C   UNL     1       4.962  -5.230  36.513  1.00  0.00     0.123 A 
ATOM      9  C   UNL     1       5.971  -4.395  36.040  1.00  0.00     0.094 A 
ATOM     10  C   UNL     1       5.846  -3.007  36.136  1.00  0.00     0.146 A 
ATOM     11  O   UNL     1       6.837  -2.248  35.682  1.00  0.00    -0.452 OA
ENDROOT
BRANCH   1  12
ATOM     12  C   UNL     1       7.988  -0.190  35.178  1.00  0.00     0.025 A 
ATOM     13  C   UNL     1       8.405  -0.396  33.852  1.00  0.00     0.016 A 
ATOM     14  C   UNL     1       9.514   0.287  33.347  1.00  0.00     0.051 A 
ATOM     15  C   UNL     1      10.229   1.175  34.161  1.00  0.00     0.157 A 
ATOM     16  C   UNL     1       8.720   0.685  35.997  1.00  0.00     0.062 A 
ATOM     17  C   UNL     1       9.831   1.371  35.494  1.00  0.00     0.158 A 
BRANCH  15  18
ATOM     18  O   UNL     1      11.333   1.857  33.653  1.00  0.00    -0.504 OA
ATOM     19  H   UNL     1      11.254   2.800  33.290  1.00  0.00     0.293 HD
ENDBRANCH  15  18
BRANCH  17  20
ATOM     20  O   UNL     1      10.526   2.243  36.332  1.00  0.00    -0.504 OA
ATOM     21  H   UNL     1      11.103   2.993  35.969  1.00  0.00     0.293 HD
ENDBRANCH  17  20
ENDBRANCH   1  12
BRANCH   2  22
ATOM     22  O   UNL     1       5.782   1.131  36.515  1.00  0.00    -0.502 OA
ATOM     23  H   UNL     1       6.622   1.678  36.371  1.00  0.00     0.293 HD
ENDBRANCH   2  22
BRANCH   6  24
ATOM     24  O   UNL     1       2.397  -2.835  37.611  1.00  0.00    -0.507 OA
ATOM     25  H   UNL     1       1.700  -2.369  37.048  1.00  0.00     0.293 HD
ENDBRANCH   6  24
BRANCH   8  26
ATOM     26  O   UNL     1       5.117  -6.612  36.427  1.00  0.00    -0.508 OA
ATOM     27  H   UNL     1       5.044  -7.098  35.541  1.00  0.00     0.293 HD
ENDBRANCH   8  26
TORSDOF 6
ENDMDL
MODEL 2
REMARK VINA RESULT:    -6.951      4.570      6.573
REMARK INTER + INTRA:          -8.396
REMARK INTER:                  -8.279
REMARK INTRA:                  -0.117
REMARK UNBOUND:                -0.022
REMARK SMILES O=c1c(O)c(-c2ccc(O)c(O)c2)oc2cc(O)cc(O)c12
REMARK SMILES IDX 5 1 3 2 2 3 1 4 22 5 20 6 19 7 17 8 16 9 15 10 14 11 6 12
REMARK SMILES IDX 7 13 8 14 9 15 13 16 11 17 10 18 12 20 4 22 21 24 18 26
REMARK H PARENT 10 19 12 21 4 23 21 25 18 27
REMARK Flexibility Score: inf
ROOT
ATOM      1  C   UNL     1       3.382  -4.193  37.425  1.00  0.00     0.180 A 
ATOM      2  C   UNL     1       2.599  -5.239  37.941  1.00  0.00     0.208 A 
ATOM      3  C   UNL     1       1.968  -5.069  39.184  1.00  0.00     0.238 A 
ATOM      4  O   UNL     1       1.225  -5.988  39.616  1.00  0.00    -0.285 OA
ATOM      5  C   UNL     1       2.140  -3.861  39.901  1.00  0.00     0.111 A 
ATOM      6  C   UNL     1       1.581  -3.595  41.187  1.00  0.00     0.134 A 
ATOM      7  C   UNL     1       1.708  -2.316  41.746  1.00  0.00     0.093 A 
ATOM      8  C   UNL     1       2.432  -1.315  41.093  1.00  0.00     0.123 A 
ATOM      9  C   UNL     1       3.032  -1.583  39.866  1.00  0.00     0.094 A 
ATOM     10  C   UNL     1       2.891  -2.837  39.267  1.00  0.00     0.146 A 
ATOM     11  O   UNL     1       3.472  -3.047  38.091  1.00  0.00    -0.452 OA
ENDROOT
BRANCH   1  12
ATOM     12  C   UNL     1       4.099  -4.307  36.134  1.00  0.00     0.025 A 
ATOM     13  C   UNL     1       5.499  -4.192  36.062  1.00  0.00     0.016 A 
ATOM     14  C   UNL     1       6.151  -4.280  34.829  1.00  0.00     0.051 A 
ATOM     15  C   UNL     1       5.416  -4.470  33.652  1.00  0.00     0.157 A 
ATOM     16  C   UNL     1       3.365  -4.477  34.949  1.00  0.00     0.062 A 
ATOM     17  C   UNL     1       4.016  -4.566  33.713  1.00  0.00     0.158 A 
BRANCH  15  18
ATOM     18  O   UNL     1       6.071  -4.560  32.424  1.00  0.00    -0.504 OA
ATOM     19  H   UNL     1       6.907  -4.021  32.228  1.00  0.00     0.293 HD
ENDBRANCH  15  18
BRANCH  17  20
ATOM     20  O   UNL     1       3.255  -4.748  32.558  1.00  0.00    -0.504 OA
ATOM     21  H   UNL     1       2.728  -3.992  32.136  1.00  0.00     0.293 HD
ENDBRANCH  17  20
ENDBRANCH   1  12
BRANCH   2  22
ATOM     22  O   UNL     1       2.425  -6.415  37.206  1.00  0.00    -0.502 OA
ATOM     23  H   UNL     1       3.191  -7.044  36.997  1.00  0.00     0.293 HD
ENDBRANCH   2  22
BRANCH   6  24
ATOM     24  O   UNL     1       0.919  -4.551  41.963  1.00  0.00    -0.507 OA
ATOM     25  H   UNL     1       1.348  -5.091  42.700  1.00  0.00     0.293 HD
ENDBRANCH   6  24
BRANCH   8  26
ATOM     26  O   UNL     1       2.567  -0.051  41.663  1.00  0.00    -0.508 OA
ATOM     27  H   UNL     1       1.784   0.416  42.106  1.00  0.00     0.293 HD
ENDBRANCH   8  26
TORSDOF 6
ENDMDL
MODEL 3
REMARK VINA RESULT:    -6.925      5.078      6.629
REMARK INTER + INTRA:          -8.364
REMARK INTER:                  -8.099
REMARK INTRA:                  -0.265
REMARK UNBOUND:                -0.022
REMARK SMILES O=c1c(O)c(-c2ccc(O)c(O)c2)oc2cc(O)cc(O)c12
REMARK SMILES IDX 5 1 3 2 2 3 1 4 22 5 20 6 19 7 17 8 16 9 15 10 14 11 6 12
REMARK SMILES IDX 7 13 8 14 9 15 13 16 11 17 10 18 12 20 4 22 21 24 18 26
REMARK H PARENT 10 19 12 21 4 23 21 25 18 27
REMARK Flexibility Score: inf
ROOT
ATOM      1  C   UNL     1       3.535  -4.636  37.634  1.00  0.00     0.180 A 
ATOM      2  C   UNL     1       2.634  -5.606  38.104  1.00  0.00     0.208 A 
ATOM      3  C   UNL     1       1.902  -5.347  39.274  1.00  0.00     0.238 A 
ATOM      4  O   UNL     1       1.058  -6.197  39.659  1.00  0.00    -0.285 OA
ATOM      5  C   UNL     1       2.091  -4.127  39.966  1.00  0.00     0.111 A 
ATOM      6  C   UNL     1       1.433  -3.776  41.183  1.00  0.00     0.134 A 
ATOM      7  C   UNL     1       1.597  -2.489  41.712  1.00  0.00     0.093 A 
ATOM      8  C   UNL     1       2.449  -1.564  41.102  1.00  0.00     0.123 A 
ATOM      9  C   UNL     1       3.142  -1.918  39.947  1.00  0.00     0.094 A 
ATOM     10  C   UNL     1       2.970  -3.182  39.377  1.00  0.00     0.146 A 
ATOM     11  O   UNL     1       3.642  -3.474  38.270  1.00  0.00    -0.452 OA
ENDROOT
BRANCH   1  12
ATOM     12  C   UNL     1       4.361  -4.847  36.422  1.00  0.00     0.025 A 
ATOM     13  C   UNL     1       4.030  -4.243  35.197  1.00  0.00     0.016 A 
ATOM     14  C   UNL     1       4.810  -4.476  34.062  1.00  0.00     0.051 A 
ATOM     15  C   UNL     1       5.923  -5.325  34.130  1.00  0.00     0.157 A 
ATOM     16  C   UNL     1       5.465  -5.713  36.482  1.00  0.00     0.062 A 
ATOM     17  C   UNL     1       6.249  -5.948  35.346  1.00  0.00     0.158 A 
BRANCH  15  18
ATOM     18  O   UNL     1       6.701  -5.553  32.996  1.00  0.00    -0.504 OA
ATOM     19  H   UNL     1       6.382  -5.287  32.072  1.00  0.00     0.293 HD
ENDBRANCH  15  18
BRANCH  17  20
ATOM     20  O   UNL     1       7.346  -6.804  35.446  1.00  0.00    -0.504 OA
ATOM     21  H   UNL     1       7.407  -7.664  34.914  1.00  0.00     0.293 HD
ENDBRANCH  17  20
ENDBRANCH   1  12
BRANCH   2  22
ATOM     22  O   UNL     1       2.447  -6.795  37.392  1.00  0.00    -0.502 OA
ATOM     23  H   UNL     1       2.677  -7.702  37.779  1.00  0.00     0.293 HD
ENDBRANCH   2  22
BRANCH   6  24
ATOM     24  O   UNL     1       0.634  -4.655  41.921  1.00  0.00    -0.507 OA
ATOM     25  H   UNL     1       0.889  -5.053  42.813  1.00  0.00     0.293 HD
ENDBRANCH   6  24
BRANCH   8  26
ATOM     26  O   UNL     1       2.619  -0.291  41.642  1.00  0.00    -0.508 OA
ATOM     27  H   UNL     1       1.826   0.296  41.873  1.00  0.00     0.293 HD
ENDBRANCH   8  26
TORSDOF 6
ENDMDL
MODEL 4
REMARK VINA RESULT:    -6.899      4.042      7.777
REMARK INTER + INTRA:          -8.332
REMARK INTER:                  -8.327
REMARK INTRA:                  -0.006
REMARK UNBOUND:                -0.022
REMARK SMILES O=c1c(O)c(-c2ccc(O)c(O)c2)oc2cc(O)cc(O)c12
REMARK SMILES IDX 5 1 3 2 2 3 1 4 22 5 20 6 19 7 17 8 16 9 15 10 14 11 6 12
REMARK SMILES IDX 7 13 8 14 9 15 13 16 11 17 10 18 12 20 4 22 21 24 18 26
REMARK H PARENT 10 19 12 21 4 23 21 25 18 27
REMARK Flexibility Score: inf
ROOT
ATOM      1  C   UNL     1       3.467  -4.831  38.254  1.00  0.00     0.180 A 
ATOM      2  C   UNL     1       3.645  -6.223  38.185  1.00  0.00     0.208 A 
ATOM      3  C   UNL     1       4.455  -6.757  37.169  1.00  0.00     0.238 A 
ATOM      4  O   UNL     1       4.654  -8.000  37.145  1.00  0.00    -0.285 OA
ATOM      5  C   UNL     1       5.065  -5.894  36.228  1.00  0.00     0.111 A 
ATOM      6  C   UNL     1       5.873  -6.327  35.134  1.00  0.00     0.134 A 
ATOM      7  C   UNL     1       6.532  -5.378  34.343  1.00  0.00     0.093 A 
ATOM      8  C   UNL     1       6.359  -4.010  34.565  1.00  0.00     0.123 A 
ATOM      9  C   UNL     1       5.525  -3.576  35.593  1.00  0.00     0.094 A 
ATOM     10  C   UNL     1       4.883  -4.499  36.422  1.00  0.00     0.146 A 
ATOM     11  O   UNL     1       4.105  -4.042  37.396  1.00  0.00    -0.452 OA
ENDROOT
BRANCH   1  12
ATOM     12  C   UNL     1       2.608  -4.196  39.280  1.00  0.00     0.025 A 
ATOM     13  C   UNL     1       1.303  -4.657  39.527  1.00  0.00     0.016 A 
ATOM     14  C   UNL     1       0.502  -4.027  40.483  1.00  0.00     0.051 A 
ATOM     15  C   UNL     1       0.986  -2.922  41.195  1.00  0.00     0.157 A 
ATOM     16  C   UNL     1       3.082  -3.075  39.981  1.00  0.00     0.062 A 
ATOM     17  C   UNL     1       2.281  -2.443  40.939  1.00  0.00     0.158 A 
BRANCH  15  18
ATOM     18  O   UNL     1       0.185  -2.297  42.150  1.00  0.00    -0.504 OA
ATOM     19  H   UNL     1       0.493  -2.181  43.108  1.00  0.00     0.293 HD
ENDBRANCH  15  18
BRANCH  17  20
ATOM     20  O   UNL     1       2.791  -1.340  41.626  1.00  0.00    -0.504 OA
ATOM     21  H   UNL     1       3.689  -0.931  41.395  1.00  0.00     0.293 HD
ENDBRANCH  17  20
ENDBRANCH   1  12
BRANCH   2  22
ATOM     22  O   UNL     1       3.051  -7.056  39.138  1.00  0.00    -0.502 OA
ATOM     23  H   UNL     1       3.529  -7.857  39.532  1.00  0.00     0.293 HD
ENDBRANCH   2  22
BRANCH   6  24
ATOM     24  O   UNL     1       6.038  -7.667  34.769  1.00  0.00    -0.507 OA
ATOM     25  H   UNL     1       5.708  -8.072  33.906  1.00  0.00     0.293 HD
ENDBRANCH   6  24
BRANCH   8  26
ATOM     26  O   UNL     1       7.006  -3.072  33.764  1.00  0.00    -0.508 OA
ATOM     27  H   UNL     1       7.344  -2.195  34.144  1.00  0.00     0.293 HD
ENDBRANCH   8  26
TORSDOF 6
ENDMDL
MODEL 5
REMARK VINA RESULT:    -6.733      4.716      7.454
REMARK INTER + INTRA:          -8.133
REMARK INTER:                  -8.199
REMARK INTRA:                   0.066
REMARK UNBOUND:                -0.022
REMARK SMILES O=c1c(O)c(-c2ccc(O)c(O)c2)oc2cc(O)cc(O)c12
REMARK SMILES IDX 5 1 3 2 2 3 1 4 22 5 20 6 19 7 17 8 16 9 15 10 14 11 6 12
REMARK SMILES IDX 7 13 8 14 9 15 13 16 11 17 10 18 12 20 4 22 21 24 18 26
REMARK H PARENT 10 19 12 21 4 23 21 25 18 27
REMARK Flexibility Score: inf
ROOT
ATOM      1  C   UNL     1       3.475  -4.597  38.310  1.00  0.00     0.180 A 
ATOM      2  C   UNL     1       4.075  -3.782  37.334  1.00  0.00     0.208 A 
ATOM      3  C   UNL     1       4.916  -4.373  36.378  1.00  0.00     0.238 A 
ATOM      4  O   UNL     1       5.408  -3.647  35.475  1.00  0.00    -0.285 OA
ATOM      5  C   UNL     1       5.158  -5.767  36.417  1.00  0.00     0.111 A 
ATOM      6  C   UNL     1       6.024  -6.466  35.523  1.00  0.00     0.134 A 
ATOM      7  C   UNL     1       6.087  -7.864  35.572  1.00  0.00     0.093 A 
ATOM      8  C   UNL     1       5.365  -8.583  36.528  1.00  0.00     0.123 A 
ATOM      9  C   UNL     1       4.564  -7.906  37.444  1.00  0.00     0.094 A 
ATOM     10  C   UNL     1       4.452  -6.515  37.396  1.00  0.00     0.146 A 
ATOM     11  O   UNL     1       3.669  -5.910  38.281  1.00  0.00    -0.452 OA
ENDROOT
BRANCH   1  12
ATOM     12  C   UNL     1       2.597  -4.044  39.367  1.00  0.00     0.025 A 
ATOM     13  C   UNL     1       1.337  -4.605  39.638  1.00  0.00     0.016 A 
ATOM     14  C   UNL     1       0.515  -4.051  40.624  1.00  0.00     0.051 A 
ATOM     15  C   UNL     1       0.934  -2.924  41.343  1.00  0.00     0.157 A 
ATOM     16  C   UNL     1       3.003  -2.902  40.076  1.00  0.00     0.062 A 
ATOM     17  C   UNL     1       2.183  -2.345  41.064  1.00  0.00     0.158 A 
BRANCH  15  18
ATOM     18  O   UNL     1       0.113  -2.376  42.327  1.00  0.00    -0.504 OA
ATOM     19  H   UNL     1      -0.414  -1.526  42.166  1.00  0.00     0.293 HD
ENDBRANCH  15  18
BRANCH  17  20
ATOM     20  O   UNL     1       2.626  -1.218  41.757  1.00  0.00    -0.504 OA
ATOM     21  H   UNL     1       2.194  -0.915  42.622  1.00  0.00     0.293 HD
ENDBRANCH  17  20
ENDBRANCH   1  12
BRANCH   2  22
ATOM     22  O   UNL     1       3.805  -2.411  37.300  1.00  0.00    -0.502 OA
ATOM     23  H   UNL     1       4.083  -1.822  36.525  1.00  0.00     0.293 HD
ENDBRANCH   2  22
BRANCH   6  24
ATOM     24  O   UNL     1       6.857  -5.836  34.592  1.00  0.00    -0.507 OA
ATOM     25  H   UNL     1       7.017  -6.163  33.651  1.00  0.00     0.293 HD
ENDBRANCH   6  24
BRANCH   8  26
ATOM     26  O   UNL     1       5.445  -9.973  36.580  1.00  0.00    -0.508 OA
ATOM     27  H   UNL     1       5.132 -10.551  35.808  1.00  0.00     0.293 HD
ENDBRANCH   8  26
TORSDOF 6
ENDMDL
MODEL 6
REMARK VINA RESULT:    -6.718      3.378      7.444
REMARK INTER + INTRA:          -8.114
REMARK INTER:                  -8.123
REMARK INTRA:                   0.009
REMARK UNBOUND:                -0.022
REMARK SMILES O=c1c(O)c(-c2ccc(O)c(O)c2)oc2cc(O)cc(O)c12
REMARK SMILES IDX 5 1 3 2 2 3 1 4 22 5 20 6 19 7 17 8 16 9 15 10 14 11 6 12
REMARK SMILES IDX 7 13 8 14 9 15 13 16 11 17 10 18 12 20 4 22 21 24 18 26
REMARK H PARENT 10 19 12 21 4 23 21 25 18 27
REMARK Flexibility Score: inf
ROOT
ATOM      1  C   UNL     1       3.078  -2.890  38.151  1.00  0.00     0.180 A 
ATOM      2  C   UNL     1       3.751  -1.725  37.746  1.00  0.00     0.208 A 
ATOM      3  C   UNL     1       4.786  -1.830  36.802  1.00  0.00     0.238 A 
ATOM      4  O   UNL     1       5.349  -0.777  36.403  1.00  0.00    -0.285 OA
ATOM      5  C   UNL     1       5.143  -3.098  36.286  1.00  0.00     0.111 A 
ATOM      6  C   UNL     1       6.201  -3.327  35.356  1.00  0.00     0.134 A 
ATOM      7  C   UNL     1       6.382  -4.606  34.815  1.00  0.00     0.093 A 
ATOM      8  C   UNL     1       5.583  -5.679  35.220  1.00  0.00     0.123 A 
ATOM      9  C   UNL     1       4.587  -5.478  36.172  1.00  0.00     0.094 A 
ATOM     10  C   UNL     1       4.360  -4.206  36.703  1.00  0.00     0.146 A 
ATOM     11  O   UNL     1       3.393  -4.057  37.601  1.00  0.00    -0.452 OA
ENDROOT
BRANCH   1  12
ATOM     12  C   UNL     1       1.994  -2.863  39.161  1.00  0.00     0.025 A 
ATOM     13  C   UNL     1       0.913  -1.973  39.049  1.00  0.00     0.016 A 
ATOM     14  C   UNL     1      -0.086  -1.949  40.027  1.00  0.00     0.051 A 
ATOM     15  C   UNL     1      -0.011  -2.803  41.135  1.00  0.00     0.157 A 
ATOM     16  C   UNL     1       2.076  -3.703  40.283  1.00  0.00     0.062 A 
ATOM     17  C   UNL     1       1.077  -3.682  41.264  1.00  0.00     0.158 A 
BRANCH  15  18
ATOM     18  O   UNL     1      -1.010  -2.779  42.106  1.00  0.00    -0.504 OA
ATOM     19  H   UNL     1      -0.889  -3.234  43.004  1.00  0.00     0.293 HD
ENDBRANCH  15  18
BRANCH  17  20
ATOM     20  O   UNL     1       1.185  -4.540  42.359  1.00  0.00    -0.504 OA
ATOM     21  H   UNL     1       1.962  -5.182  42.465  1.00  0.00     0.293 HD
ENDBRANCH  17  20
ENDBRANCH   1  12
BRANCH   2  22
ATOM     22  O   UNL     1       3.368  -0.479  38.251  1.00  0.00    -0.502 OA
ATOM     23  H   UNL     1       2.826   0.183  37.710  1.00  0.00     0.293 HD
ENDBRANCH   2  22
BRANCH   6  24
ATOM     24  O   UNL     1       7.113  -2.346  34.954  1.00  0.00    -0.507 OA
ATOM     25  H   UNL     1       7.973  -2.128  35.436  1.00  0.00     0.293 HD
ENDBRANCH   6  24
BRANCH   8  26
ATOM     26  O   UNL     1       5.779  -6.951  34.688  1.00  0.00    -0.508 OA
ATOM     27  H   UNL     1       5.954  -7.090  33.700  1.00  0.00     0.293 HD
ENDBRANCH   8  26
TORSDOF 6
ENDMDL
MODEL 7
REMARK VINA RESULT:    -6.671      3.710      5.765
REMARK INTER + INTRA:          -8.057
REMARK INTER:                  -8.500
REMARK INTRA:                   0.442
REMARK UNBOUND:                -0.022
REMARK SMILES O=c1c(O)c(-c2ccc(O)c(O)c2)oc2cc(O)cc(O)c12
REMARK SMILES IDX 5 1 3 2 2 3 1 4 22 5 20 6 19 7 17 8 16 9 15 10 14 11 6 12
REMARK SMILES IDX 7 13 8 14 9 15 13 16 11 17 10 18 12 20 4 22 21 24 18 26
REMARK H PARENT 10 19 12 21 4 23 21 25 18 27
REMARK Flexibility Score: inf
ROOT
ATOM      1  C   UNL     1       4.124  -4.028  37.427  1.00  0.00     0.180 A 
ATOM      2  C   UNL     1       3.455  -5.015  38.171  1.00  0.00     0.208 A 
ATOM      3  C   UNL     1       3.764  -6.366  37.943  1.00  0.00     0.238 A 
ATOM      4  O   UNL     1       3.200  -7.243  38.649  1.00  0.00    -0.285 OA
ATOM      5  C   UNL     1       4.727  -6.713  36.966  1.00  0.00     0.111 A 
ATOM      6  C   UNL     1       5.090  -8.051  36.623  1.00  0.00     0.134 A 
ATOM      7  C   UNL     1       6.148  -8.274  35.734  1.00  0.00     0.093 A 
ATOM      8  C   UNL     1       6.813  -7.207  35.124  1.00  0.00     0.123 A 
ATOM      9  C   UNL     1       6.427  -5.899  35.406  1.00  0.00     0.094 A 
ATOM     10  C   UNL     1       5.399  -5.644  36.317  1.00  0.00     0.146 A 
ATOM     11  O   UNL     1       5.069  -4.382  36.564  1.00  0.00    -0.452 OA
ENDROOT
BRANCH   1  12
ATOM     12  C   UNL     1       3.834  -2.585  37.593  1.00  0.00     0.025 A 
ATOM     13  C   UNL     1       2.745  -2.142  38.362  1.00  0.00     0.016 A 
ATOM     14  C   UNL     1       2.477  -0.776  38.485  1.00  0.00     0.051 A 
ATOM     15  C   UNL     1       3.283   0.165  37.830  1.00  0.00     0.157 A 
ATOM     16  C   UNL     1       4.627  -1.640  36.922  1.00  0.00     0.062 A 
ATOM     17  C   UNL     1       4.361  -0.271  37.043  1.00  0.00     0.158 A 
BRANCH  15  18
ATOM     18  O   UNL     1       3.014   1.527  37.956  1.00  0.00    -0.504 OA
ATOM     19  H   UNL     1       2.369   2.000  37.334  1.00  0.00     0.293 HD
ENDBRANCH  15  18
BRANCH  17  20
ATOM     20  O   UNL     1       5.179   0.639  36.372  1.00  0.00    -0.504 OA
ATOM     21  H   UNL     1       5.908   0.340  35.736  1.00  0.00     0.293 HD
ENDBRANCH  17  20
ENDBRANCH   1  12
BRANCH   2  22
ATOM     22  O   UNL     1       2.523  -4.650  39.146  1.00  0.00    -0.502 OA
ATOM     23  H   UNL     1       1.625  -4.243  38.915  1.00  0.00     0.293 HD
ENDBRANCH   2  22
BRANCH   6  24
ATOM     24  O   UNL     1       4.430  -9.185  37.105  1.00  0.00    -0.507 OA
ATOM     25  H   UNL     1       3.427  -9.281  37.175  1.00  0.00     0.293 HD
ENDBRANCH   6  24
BRANCH   8  26
ATOM     26  O   UNL     1       7.855  -7.438  34.229  1.00  0.00    -0.508 OA
ATOM     27  H   UNL     1       7.692  -7.869  33.326  1.00  0.00     0.293 HD
ENDBRANCH   8  26
TORSDOF 6
ENDMDL
MODEL 8
REMARK VINA RESULT:    -6.635      2.351      4.750
REMARK INTER + INTRA:          -8.014
REMARK INTER:                  -7.987
REMARK INTRA:                  -0.027
REMARK UNBOUND:                -0.022
REMARK SMILES O=c1c(O)c(-c2ccc(O)c(O)c2)oc2cc(O)cc(O)c12
REMARK SMILES IDX 5 1 3 2 2 3 1 4 22 5 20 6 19 7 17 8 16 9 15 10 14 11 6 12
REMARK SMILES IDX 7 13 8 14 9 15 13 16 11 17 10 18 12 20 4 22 21 24 18 26
REMARK H PARENT 10 19 12 21 4 23 21 25 18 27
REMARK Flexibility Score: inf
ROOT
ATOM      1  C   UNL     1       5.642  -4.010  35.707  1.00  0.00     0.180 A 
ATOM      2  C   UNL     1       5.889  -4.706  34.512  1.00  0.00     0.208 A 
ATOM      3  C   UNL     1       5.585  -6.075  34.445  1.00  0.00     0.238 A 
ATOM      4  O   UNL     1       5.758  -6.681  33.356  1.00  0.00    -0.285 OA
ATOM      5  C   UNL     1       5.053  -6.734  35.579  1.00  0.00     0.111 A 
ATOM      6  C   UNL     1       4.746  -8.127  35.638  1.00  0.00     0.134 A 
ATOM      7  C   UNL     1       4.101  -8.646  36.768  1.00  0.00     0.093 A 
ATOM      8  C   UNL     1       3.813  -7.835  37.868  1.00  0.00     0.123 A 
ATOM      9  C   UNL     1       4.163  -6.487  37.844  1.00  0.00     0.094 A 
ATOM     10  C   UNL     1       4.774  -5.933  36.717  1.00  0.00     0.146 A 
ATOM     11  O   UNL     1       5.082  -4.641  36.733  1.00  0.00    -0.452 OA
ENDROOT
BRANCH   1  12
ATOM     12  C   UNL     1       5.960  -2.571  35.862  1.00  0.00     0.025 A 
ATOM     13  C   UNL     1       7.224  -2.061  35.519  1.00  0.00     0.016 A 
ATOM     14  C   UNL     1       7.509  -0.704  35.696  1.00  0.00     0.051 A 
ATOM     15  C   UNL     1       6.542   0.157  36.231  1.00  0.00     0.157 A 
ATOM     16  C   UNL     1       5.002  -1.708  36.417  1.00  0.00     0.062 A 
ATOM     17  C   UNL     1       5.284  -0.349  36.596  1.00  0.00     0.158 A 
BRANCH  15  18
ATOM     18  O   UNL     1       6.829   1.510  36.404  1.00  0.00    -0.504 OA
ATOM     19  H   UNL     1       6.755   1.957  37.310  1.00  0.00     0.293 HD
ENDBRANCH  15  18
BRANCH  17  20
ATOM     20  O   UNL     1       4.302   0.481  37.137  1.00  0.00    -0.504 OA
ATOM     21  H   UNL     1       3.669   1.016  36.554  1.00  0.00     0.293 HD
ENDBRANCH  17  20
ENDBRANCH   1  12
BRANCH   2  22
ATOM     22  O   UNL     1       6.395  -4.031  33.397  1.00  0.00    -0.502 OA
ATOM     23  H   UNL     1       6.688  -3.062  33.435  1.00  0.00     0.293 HD
ENDBRANCH   2  22
BRANCH   6  24
ATOM     24  O   UNL     1       5.073  -9.041  34.632  1.00  0.00    -0.507 OA
ATOM     25  H   UNL     1       4.742  -9.994  34.590  1.00  0.00     0.293 HD
ENDBRANCH   6  24
BRANCH   8  26
ATOM     26  O   UNL     1       3.185  -8.362  38.994  1.00  0.00    -0.508 OA
ATOM     27  H   UNL     1       3.139  -9.362  39.156  1.00  0.00     0.293 HD
ENDBRANCH   8  26
TORSDOF 6
ENDMDL
MODEL 9
REMARK VINA RESULT:    -6.466      2.792      5.075
REMARK INTER + INTRA:          -7.811
REMARK INTER:                  -7.611
REMARK INTRA:                  -0.200
REMARK UNBOUND:                -0.022
REMARK SMILES O=c1c(O)c(-c2ccc(O)c(O)c2)oc2cc(O)cc(O)c12
REMARK SMILES IDX 5 1 3 2 2 3 1 4 22 5 20 6 19 7 17 8 16 9 15 10 14 11 6 12
REMARK SMILES IDX 7 13 8 14 9 15 13 16 11 17 10 18 12 20 4 22 21 24 18 26
REMARK H PARENT 10 19 12 21 4 23 21 25 18 27
REMARK Flexibility Score: inf
ROOT
ATOM      1  C   UNL     1       3.693  -3.449  37.211  1.00  0.00     0.180 A 
ATOM      2  C   UNL     1       3.109  -4.400  36.358  1.00  0.00     0.208 A 
ATOM      3  C   UNL     1       2.127  -5.263  36.871  1.00  0.00     0.238 A 
ATOM      4  O   UNL     1       1.570  -6.077  36.089  1.00  0.00    -0.285 OA
ATOM      5  C   UNL     1       1.752  -5.173  38.232  1.00  0.00     0.111 A 
ATOM      6  C   UNL     1       0.797  -6.023  38.868  1.00  0.00     0.134 A 
ATOM      7  C   UNL     1       0.408  -5.760  40.187  1.00  0.00     0.093 A 
ATOM      8  C   UNL     1       0.988  -4.717  40.915  1.00  0.00     0.123 A 
ATOM      9  C   UNL     1       1.964  -3.920  40.322  1.00  0.00     0.094 A 
ATOM     10  C   UNL     1       2.346  -4.136  38.996  1.00  0.00     0.146 A 
ATOM     11  O   UNL     1       3.273  -3.345  38.468  1.00  0.00    -0.452 OA
ENDROOT
BRANCH   1  12
ATOM     12  C   UNL     1       4.753  -2.522  36.751  1.00  0.00     0.025 A 
ATOM     13  C   UNL     1       6.016  -2.994  36.354  1.00  0.00     0.016 A 
ATOM     14  C   UNL     1       7.008  -2.099  35.946  1.00  0.00     0.051 A 
ATOM     15  C   UNL     1       6.758  -0.721  35.941  1.00  0.00     0.157 A 
ATOM     16  C   UNL     1       4.514  -1.138  36.764  1.00  0.00     0.062 A 
ATOM     17  C   UNL     1       5.506  -0.239  36.355  1.00  0.00     0.158 A 
BRANCH  15  18
ATOM     18  O   UNL     1       7.750   0.169  35.531  1.00  0.00    -0.504 OA
ATOM     19  H   UNL     1       8.155   0.122  34.604  1.00  0.00     0.293 HD
ENDBRANCH  15  18
BRANCH  17  20
ATOM     20  O   UNL     1       5.228   1.128  36.369  1.00  0.00    -0.504 OA
ATOM     21  H   UNL     1       5.880   1.806  36.747  1.00  0.00     0.293 HD
ENDBRANCH  17  20
ENDBRANCH   1  12
BRANCH   2  22
ATOM     22  O   UNL     1       3.479  -4.457  35.011  1.00  0.00    -0.502 OA
ATOM     23  H   UNL     1       2.934  -4.017  34.279  1.00  0.00     0.293 HD
ENDBRANCH   2  22
BRANCH   6  24
ATOM     24  O   UNL     1       0.226  -7.146  38.262  1.00  0.00    -0.507 OA
ATOM     25  H   UNL     1       0.268  -7.350  37.274  1.00  0.00     0.293 HD
ENDBRANCH   6  24
BRANCH   8  26
ATOM     26  O   UNL     1       0.606  -4.471  42.232  1.00  0.00    -0.508 OA
ATOM     27  H   UNL     1      -0.269  -4.008  42.451  1.00  0.00     0.293 HD
ENDBRANCH   8  26
TORSDOF 6
ENDMDL
