MODEL 1
REMARK VINA RESULT:    -4.884      0.000      0.000
REMARK INTER + INTRA:          -4.884
REMARK INTER:                  -4.884
REMARK INTRA:                   0.000
REMARK UNBOUND:                 0.000
REMARK SMILES CC(C)=C1CC[C@H](C)CC1=O
REMARK SMILES IDX 8 1 7 2 6 3 5 4 4 5 2 6 1 7 3 8 10 9 11 10 9 11
REMARK H PARENT
REMARK Flexibility Score: inf
ROOT
ATOM      1  C   UNL     1       6.394 -21.046  25.993  1.00  0.00     0.008 C 
ATOM      2  C   UNL     1       7.121 -20.015  25.123  1.00  0.00    -0.006 C 
ATOM      3  C   UNL     1       6.670 -20.129  23.659  1.00  0.00     0.008 C 
ATOM      4  C   UNL     1       7.462 -19.175  22.755  1.00  0.00     0.039 C 
ATOM      5  C   UNL     1       7.442 -17.738  23.262  1.00  0.00    -0.006 C 
ATOM      6  C   UNL     1       7.485 -16.680  22.401  1.00  0.00    -0.070 C 
ATOM      7  C   UNL     1       7.573 -16.890  20.906  1.00  0.00     0.039 C 
ATOM      8  C   UNL     1       7.410 -15.252  22.890  1.00  0.00     0.039 C 
ATOM      9  C   UNL     1       7.491 -17.567  24.745  1.00  0.00     0.159 C 
ATOM     10  O   UNL     1       8.060 -16.573  25.270  1.00  0.00    -0.295 OA
ATOM     11  C   UNL     1       6.862 -18.593  25.643  1.00  0.00     0.084 C 
ENDROOT
TORSDOF 0
ENDMDL
MODEL 2
REMARK VINA RESULT:    -4.739      2.541      3.682
REMARK INTER + INTRA:          -4.739
REMARK INTER:                  -4.739
REMARK INTRA:                   0.000
REMARK UNBOUND:                 0.000
REMARK SMILES CC(C)=C1CC[C@H](C)CC1=O
REMARK SMILES IDX 8 1 7 2 6 3 5 4 4 5 2 6 1 7 3 8 10 9 11 10 9 11
REMARK H PARENT
REMARK Flexibility Score: inf
ROOT
ATOM      1  C   UNL     1       8.925 -16.215  25.746  1.00  0.00     0.008 C 
ATOM      2  C   UNL     1       8.068 -16.393  24.488  1.00  0.00    -0.006 C 
ATOM      3  C   UNL     1       8.111 -15.125  23.620  1.00  0.00     0.008 C 
ATOM      4  C   UNL     1       7.178 -15.247  22.408  1.00  0.00     0.039 C 
ATOM      5  C   UNL     1       7.428 -16.515  21.603  1.00  0.00    -0.006 C 
ATOM      6  C   UNL     1       7.234 -16.548  20.252  1.00  0.00    -0.070 C 
ATOM      7  C   UNL     1       6.744 -15.331  19.500  1.00  0.00     0.039 C 
ATOM      8  C   UNL     1       7.533 -17.784  19.435  1.00  0.00     0.039 C 
ATOM      9  C   UNL     1       7.781 -17.733  22.392  1.00  0.00     0.159 C 
ATOM     10  O   UNL     1       7.440 -18.883  22.007  1.00  0.00    -0.295 OA
ATOM     11  C   UNL     1       8.552 -17.602  23.674  1.00  0.00     0.084 C 
ENDROOT
TORSDOF 0
ENDMDL
MODEL 3
REMARK VINA RESULT:    -4.630      1.828      3.842
REMARK INTER + INTRA:          -4.630
REMARK INTER:                  -4.630
REMARK INTRA:                   0.000
REMARK UNBOUND:                 0.000
REMARK SMILES CC(C)=C1CC[C@H](C)CC1=O
REMARK SMILES IDX 8 1 7 2 6 3 5 4 4 5 2 6 1 7 3 8 10 9 11 10 9 11
REMARK H PARENT
REMARK Flexibility Score: inf
ROOT
ATOM      1  C   UNL     1       8.135 -21.370  19.976  1.00  0.00     0.008 C 
ATOM      2  C   UNL     1       7.504 -20.639  21.167  1.00  0.00    -0.006 C 
ATOM      3  C   UNL     1       7.537 -21.523  22.423  1.00  0.00     0.008 C 
ATOM      4  C   UNL     1       6.817 -20.849  23.598  1.00  0.00     0.039 C 
ATOM      5  C   UNL     1       7.327 -19.438  23.864  1.00  0.00    -0.006 C 
ATOM      6  C   UNL     1       7.345 -18.915  25.124  1.00  0.00    -0.070 C 
ATOM      7  C   UNL     1       6.842 -19.708  26.309  1.00  0.00     0.039 C 
ATOM      8  C   UNL     1       7.900 -17.538  25.407  1.00  0.00     0.039 C 
ATOM      9  C   UNL     1       7.689 -18.636  22.657  1.00  0.00     0.159 C 
ATOM     10  O   UNL     1       7.540 -17.385  22.635  1.00  0.00    -0.295 OA
ATOM     11  C   UNL     1       8.237 -19.317  21.436  1.00  0.00     0.084 C 
ENDROOT
TORSDOF 0
ENDMDL
MODEL 4
REMARK VINA RESULT:    -4.629      3.280      4.814
REMARK INTER + INTRA:          -4.629
REMARK INTER:                  -4.629
REMARK INTRA:                   0.000
REMARK UNBOUND:                 0.000
REMARK SMILES CC(C)=C1CC[C@H](C)CC1=O
REMARK SMILES IDX 8 1 7 2 6 3 5 4 4 5 2 6 1 7 3 8 10 9 11 10 9 11
REMARK H PARENT
REMARK Flexibility Score: inf
ROOT
ATOM      1  C   UNL     1       6.719 -18.061  24.730  1.00  0.00     0.008 C 
ATOM      2  C   UNL     1       7.407 -18.865  23.620  1.00  0.00    -0.006 C 
ATOM      3  C   UNL     1       8.820 -19.285  24.054  1.00  0.00     0.008 C 
ATOM      4  C   UNL     1       9.561 -20.001  22.918  1.00  0.00     0.039 C 
ATOM      5  C   UNL     1       8.760 -21.159  22.335  1.00  0.00    -0.006 C 
ATOM      6  C   UNL     1       9.377 -22.268  21.833  1.00  0.00    -0.070 C 
ATOM      7  C   UNL     1      10.885 -22.388  21.819  1.00  0.00     0.039 C 
ATOM      8  C   UNL     1       8.591 -23.446  21.305  1.00  0.00     0.039 C 
ATOM      9  C   UNL     1       7.284 -20.952  22.242  1.00  0.00     0.159 C 
ATOM     10  O   UNL     1       6.608 -21.471  21.314  1.00  0.00    -0.295 OA
ATOM     11  C   UNL     1       6.577 -20.106  23.261  1.00  0.00     0.084 C 
ENDROOT
TORSDOF 0
ENDMDL
MODEL 5
REMARK VINA RESULT:    -4.586      1.521      3.906
REMARK INTER + INTRA:          -4.586
REMARK INTER:                  -4.586
REMARK INTRA:                   0.000
REMARK UNBOUND:                 0.000
REMARK SMILES CC(C)=C1CC[C@H](C)CC1=O
REMARK SMILES IDX 8 1 7 2 6 3 5 4 4 5 2 6 1 7 3 8 10 9 11 10 9 11
REMARK H PARENT
REMARK Flexibility Score: inf
ROOT
ATOM      1  C   UNL     1       9.710 -15.130  23.999  1.00  0.00     0.008 C 
ATOM      2  C   UNL     1       8.627 -16.201  23.821  1.00  0.00    -0.006 C 
ATOM      3  C   UNL     1       8.992 -17.152  22.670  1.00  0.00     0.008 C 
ATOM      4  C   UNL     1       7.871 -18.167  22.410  1.00  0.00     0.039 C 
ATOM      5  C   UNL     1       7.451 -18.910  23.672  1.00  0.00    -0.006 C 
ATOM      6  C   UNL     1       7.004 -20.199  23.622  1.00  0.00    -0.070 C 
ATOM      7  C   UNL     1       6.891 -20.939  22.308  1.00  0.00     0.039 C 
ATOM      8  C   UNL     1       6.639 -20.964  24.873  1.00  0.00     0.039 C 
ATOM      9  C   UNL     1       7.448 -18.110  24.932  1.00  0.00     0.159 C 
ATOM     10  O   UNL     1       6.620 -18.343  25.854  1.00  0.00    -0.295 OA
ATOM     11  C   UNL     1       8.438 -16.997  25.120  1.00  0.00     0.084 C 
ENDROOT
TORSDOF 0
ENDMDL
MODEL 6
REMARK VINA RESULT:    -4.520      2.767      3.820
REMARK INTER + INTRA:          -4.520
REMARK INTER:                  -4.520
REMARK INTRA:                   0.000
REMARK UNBOUND:                 0.000
REMARK SMILES CC(C)=C1CC[C@H](C)CC1=O
REMARK SMILES IDX 8 1 7 2 6 3 5 4 4 5 2 6 1 7 3 8 10 9 11 10 9 11
REMARK H PARENT
REMARK Flexibility Score: inf
ROOT
ATOM      1  C   UNL     1       8.247 -23.275  21.366  1.00  0.00     0.008 C 
ATOM      2  C   UNL     1       7.622 -21.882  21.493  1.00  0.00    -0.006 C 
ATOM      3  C   UNL     1       7.837 -21.320  22.907  1.00  0.00     0.008 C 
ATOM      4  C   UNL     1       7.129 -19.970  23.085  1.00  0.00     0.039 C 
ATOM      5  C   UNL     1       7.499 -18.970  21.997  1.00  0.00    -0.006 C 
ATOM      6  C   UNL     1       7.545 -17.629  22.251  1.00  0.00    -0.070 C 
ATOM      7  C   UNL     1       7.213 -17.079  23.619  1.00  0.00     0.039 C 
ATOM      8  C   UNL     1       7.965 -16.633  21.195  1.00  0.00     0.039 C 
ATOM      9  C   UNL     1       7.689 -19.533  20.627  1.00  0.00     0.159 C 
ATOM     10  O   UNL     1       7.404 -18.863  19.598  1.00  0.00    -0.295 OA
ATOM     11  C   UNL     1       8.223 -20.925  20.452  1.00  0.00     0.084 C 
ENDROOT
TORSDOF 0
ENDMDL
MODEL 7
REMARK VINA RESULT:    -4.518      1.818      2.466
REMARK INTER + INTRA:          -4.518
REMARK INTER:                  -4.518
REMARK INTRA:                   0.000
REMARK UNBOUND:                 0.000
REMARK SMILES CC(C)=C1CC[C@H](C)CC1=O
REMARK SMILES IDX 8 1 7 2 6 3 5 4 4 5 2 6 1 7 3 8 10 9 11 10 9 11
REMARK H PARENT
REMARK Flexibility Score: inf
ROOT
ATOM      1  C   UNL     1       7.925 -22.192  22.116  1.00  0.00     0.008 C 
ATOM      2  C   UNL     1       8.230 -20.701  21.937  1.00  0.00    -0.006 C 
ATOM      3  C   UNL     1       7.485 -20.139  20.716  1.00  0.00     0.008 C 
ATOM      4  C   UNL     1       7.858 -18.673  20.461  1.00  0.00     0.039 C 
ATOM      5  C   UNL     1       7.689 -17.803  21.699  1.00  0.00    -0.006 C 
ATOM      6  C   UNL     1       7.337 -16.487  21.600  1.00  0.00    -0.070 C 
ATOM      7  C   UNL     1       7.118 -15.834  20.254  1.00  0.00     0.039 C 
ATOM      8  C   UNL     1       7.112 -15.629  22.824  1.00  0.00     0.039 C 
ATOM      9  C   UNL     1       8.043 -18.442  23.002  1.00  0.00     0.159 C 
ATOM     10  O   UNL     1       8.523 -17.767  23.952  1.00  0.00    -0.295 OA
ATOM     11  C   UNL     1       7.838 -19.916  23.198  1.00  0.00     0.084 C 
ENDROOT
TORSDOF 0
ENDMDL
MODEL 8
REMARK VINA RESULT:    -4.510     10.114     10.578
REMARK INTER + INTRA:          -4.510
REMARK INTER:                  -4.510
REMARK INTRA:                   0.000
REMARK UNBOUND:                 0.000
REMARK SMILES CC(C)=C1CC[C@H](C)CC1=O
REMARK SMILES IDX 8 1 7 2 6 3 5 4 4 5 2 6 1 7 3 8 10 9 11 10 9 11
REMARK H PARENT
REMARK Flexibility Score: inf
ROOT
ATOM      1  C   UNL     1      19.884 -22.895  25.095  1.00  0.00     0.008 C 
ATOM      2  C   UNL     1      18.715 -21.970  24.739  1.00  0.00    -0.006 C 
ATOM      3  C   UNL     1      19.086 -21.060  23.558  1.00  0.00     0.008 C 
ATOM      4  C   UNL     1      17.966 -20.056  23.255  1.00  0.00     0.039 C 
ATOM      5  C   UNL     1      16.612 -20.729  23.071  1.00  0.00    -0.006 C 
ATOM      6  C   UNL     1      15.674 -20.217  22.221  1.00  0.00    -0.070 C 
ATOM      7  C   UNL     1      15.933 -18.949  21.439  1.00  0.00     0.039 C 
ATOM      8  C   UNL     1      14.350 -20.906  21.989  1.00  0.00     0.039 C 
ATOM      9  C   UNL     1      16.338 -21.900  23.956  1.00  0.00     0.159 C 
ATOM     10  O   UNL     1      15.170 -22.161  24.352  1.00  0.00    -0.295 OA
ATOM     11  C   UNL     1      17.463 -22.791  24.396  1.00  0.00     0.084 C 
ENDROOT
TORSDOF 0
ENDMDL
MODEL 9
REMARK VINA RESULT:    -4.477      1.793      4.824
REMARK INTER + INTRA:          -4.477
REMARK INTER:                  -4.477
REMARK INTRA:                   0.000
REMARK UNBOUND:                 0.000
REMARK SMILES CC(C)=C1CC[C@H](C)CC1=O
REMARK SMILES IDX 8 1 7 2 6 3 5 4 4 5 2 6 1 7 3 8 10 9 11 10 9 11
REMARK H PARENT
REMARK Flexibility Score: inf
ROOT
ATOM      1  C   UNL     1       7.062 -15.477  19.458  1.00  0.00     0.008 C 
ATOM      2  C   UNL     1       7.543 -16.242  20.695  1.00  0.00    -0.006 C 
ATOM      3  C   UNL     1       6.770 -15.792  21.944  1.00  0.00     0.008 C 
ATOM      4  C   UNL     1       7.309 -16.473  23.209  1.00  0.00     0.039 C 
ATOM      5  C   UNL     1       7.371 -17.990  23.075  1.00  0.00    -0.006 C 
ATOM      6  C   UNL     1       7.189 -18.806  24.154  1.00  0.00    -0.070 C 
ATOM      7  C   UNL     1       6.935 -18.238  25.532  1.00  0.00     0.039 C 
ATOM      8  C   UNL     1       7.192 -20.311  24.023  1.00  0.00     0.039 C 
ATOM      9  C   UNL     1       7.756 -18.513  21.730  1.00  0.00     0.159 C 
ATOM     10  O   UNL     1       8.405 -19.585  21.607  1.00  0.00    -0.295 OA
ATOM     11  C   UNL     1       7.376 -17.755  20.491  1.00  0.00     0.084 C 
ENDROOT
TORSDOF 0
ENDMDL
