MODEL 1
REMARK VINA RESULT:    -6.250      0.000      0.000
REMARK INTER + INTRA:          -7.808
REMARK INTER:                  -7.528
REMARK INTRA:                  -0.280
REMARK UNBOUND:                -0.280
REMARK SMILES O=c1c(O)c(-c2ccc(O)c(O)c2)oc2cc(O)cc(O)c12
REMARK SMILES IDX 5 1 3 2 2 3 1 4 22 5 20 6 19 7 17 8 16 9 15 10 14 11 6 12
REMARK SMILES IDX 7 13 8 14 9 15 13 16 11 17 10 18 12 20 4 22 21 24 18 26
REMARK H PARENT 10 19 12 21 4 23 21 25 18 27
REMARK Flexibility Score: inf
ROOT
ATOM      1  C   UNL     1      28.861  58.135   7.002  1.00  0.00     0.180 A 
ATOM      2  C   UNL     1      30.188  57.703   7.192  1.00  0.00     0.208 A 
ATOM      3  C   UNL     1      31.081  57.759   6.110  1.00  0.00     0.238 A 
ATOM      4  O   UNL     1      32.269  57.365   6.266  1.00  0.00    -0.285 OA
ATOM      5  C   UNL     1      30.642  58.263   4.869  1.00  0.00     0.111 A 
ATOM      6  C   UNL     1      31.479  58.357   3.731  1.00  0.00     0.134 A 
ATOM      7  C   UNL     1      30.969  58.879   2.534  1.00  0.00     0.093 A 
ATOM      8  C   UNL     1      29.639  59.307   2.452  1.00  0.00     0.123 A 
ATOM      9  C   UNL     1      28.810  59.216   3.571  1.00  0.00     0.094 A 
ATOM     10  C   UNL     1      29.298  58.698   4.774  1.00  0.00     0.146 A 
ATOM     11  O   UNL     1      28.486  58.617   5.821  1.00  0.00    -0.452 OA
ENDROOT
BRANCH   1  12
ATOM     12  C   UNL     1      27.856  58.088   8.089  1.00  0.00     0.025 A 
ATOM     13  C   UNL     1      26.854  57.105   8.116  1.00  0.00     0.016 A 
ATOM     14  C   UNL     1      25.903  57.096   9.139  1.00  0.00     0.051 A 
ATOM     15  C   UNL     1      25.922  58.071  10.141  1.00  0.00     0.157 A 
ATOM     16  C   UNL     1      27.864  59.081   9.080  1.00  0.00     0.062 A 
ATOM     17  C   UNL     1      26.914  59.080  10.110  1.00  0.00     0.158 A 
BRANCH  15  18
ATOM     18  O   UNL     1      24.946  58.003  11.137  1.00  0.00    -0.504 OA
ATOM     19  H   UNL     1      24.922  57.297  11.858  1.00  0.00     0.293 HD
ENDBRANCH  15  18
BRANCH  17  20
ATOM     20  O   UNL     1      26.992  60.091  11.070  1.00  0.00    -0.504 OA
ATOM     21  H   UNL     1      27.716  60.793  11.092  1.00  0.00     0.293 HD
ENDBRANCH  17  20
ENDBRANCH   1  12
BRANCH   2  22
ATOM     22  O   UNL     1      30.612  57.254   8.446  1.00  0.00    -0.502 OA
ATOM     23  H   UNL     1      31.571  57.346   8.759  1.00  0.00     0.293 HD
ENDBRANCH   2  22
BRANCH   6  24
ATOM     24  O   UNL     1      32.809  57.939   3.782  1.00  0.00    -0.507 OA
ATOM     25  H   UNL     1      33.473  58.183   3.056  1.00  0.00     0.293 HD
ENDBRANCH   6  24
BRANCH   8  26
ATOM     26  O   UNL     1      29.132  59.826   1.262  1.00  0.00    -0.508 OA
ATOM     27  H   UNL     1      29.374  60.757   0.945  1.00  0.00     0.293 HD
ENDBRANCH   8  26
TORSDOF 6
ENDMDL
MODEL 2
REMARK VINA RESULT:    -6.058      3.777      6.906
REMARK INTER + INTRA:          -7.577
REMARK INTER:                  -7.343
REMARK INTRA:                  -0.233
REMARK UNBOUND:                -0.280
REMARK SMILES O=c1c(O)c(-c2ccc(O)c(O)c2)oc2cc(O)cc(O)c12
REMARK SMILES IDX 5 1 3 2 2 3 1 4 22 5 20 6 19 7 17 8 16 9 15 10 14 11 6 12
REMARK SMILES IDX 7 13 8 14 9 15 13 16 11 17 10 18 12 20 4 22 21 24 18 26
REMARK H PARENT 10 19 12 21 4 23 21 25 18 27
REMARK Flexibility Score: inf
ROOT
ATOM      1  C   UNL     1      29.643  59.425   1.493  1.00  0.00     0.180 A 
ATOM      2  C   UNL     1      28.842  60.583   1.524  1.00  0.00     0.208 A 
ATOM      3  C   UNL     1      28.271  61.044   0.327  1.00  0.00     0.238 A 
ATOM      4  O   UNL     1      27.560  62.085   0.342  1.00  0.00    -0.285 OA
ATOM      5  C   UNL     1      28.492  60.334  -0.870  1.00  0.00     0.111 A 
ATOM      6  C   UNL     1      27.949  60.729  -2.116  1.00  0.00     0.134 A 
ATOM      7  C   UNL     1      28.208  59.963  -3.262  1.00  0.00     0.093 A 
ATOM      8  C   UNL     1      28.998  58.810  -3.185  1.00  0.00     0.123 A 
ATOM      9  C   UNL     1      29.535  58.416  -1.958  1.00  0.00     0.094 A 
ATOM     10  C   UNL     1      29.290  59.167  -0.805  1.00  0.00     0.146 A 
ATOM     11  O   UNL     1      29.818  58.773   0.348  1.00  0.00    -0.452 OA
ENDROOT
BRANCH   1  12
ATOM     12  C   UNL     1      30.296  58.888   2.709  1.00  0.00     0.025 A 
ATOM     13  C   UNL     1      31.687  58.958   2.884  1.00  0.00     0.016 A 
ATOM     14  C   UNL     1      32.281  58.423   4.029  1.00  0.00     0.051 A 
ATOM     15  C   UNL     1      31.506  57.797   5.011  1.00  0.00     0.157 A 
ATOM     16  C   UNL     1      29.518  58.240   3.682  1.00  0.00     0.062 A 
ATOM     17  C   UNL     1      30.105  57.701   4.833  1.00  0.00     0.158 A 
BRANCH  15  18
ATOM     18  O   UNL     1      32.161  57.287   6.133  1.00  0.00    -0.504 OA
ATOM     19  H   UNL     1      31.787  57.321   7.070  1.00  0.00     0.293 HD
ENDBRANCH  15  18
BRANCH  17  20
ATOM     20  O   UNL     1      29.268  57.083   5.764  1.00  0.00    -0.504 OA
ATOM     21  H   UNL     1      28.906  57.540   6.588  1.00  0.00     0.293 HD
ENDBRANCH  17  20
ENDBRANCH   1  12
BRANCH   2  22
ATOM     22  O   UNL     1      28.598  61.241   2.733  1.00  0.00    -0.502 OA
ATOM     23  H   UNL     1      27.767  61.070   3.286  1.00  0.00     0.293 HD
ENDBRANCH   2  22
BRANCH   6  24
ATOM     24  O   UNL     1      27.157  61.873  -2.224  1.00  0.00    -0.507 OA
ATOM     25  H   UNL     1      26.446  62.096  -1.537  1.00  0.00     0.293 HD
ENDBRANCH   6  24
BRANCH   8  26
ATOM     26  O   UNL     1      29.255  58.049  -4.323  1.00  0.00    -0.508 OA
ATOM     27  H   UNL     1      29.759  57.171  -4.271  1.00  0.00     0.293 HD
ENDBRANCH   8  26
TORSDOF 6
ENDMDL
MODEL 3
REMARK VINA RESULT:    -5.933      0.625      1.479
REMARK INTER + INTRA:          -7.426
REMARK INTER:                  -7.194
REMARK INTRA:                  -0.232
REMARK UNBOUND:                -0.280
REMARK SMILES O=c1c(O)c(-c2ccc(O)c(O)c2)oc2cc(O)cc(O)c12
REMARK SMILES IDX 5 1 3 2 2 3 1 4 22 5 20 6 19 7 17 8 16 9 15 10 14 11 6 12
REMARK SMILES IDX 7 13 8 14 9 15 13 16 11 17 10 18 12 20 4 22 21 24 18 26
REMARK H PARENT 10 19 12 21 4 23 21 25 18 27
REMARK Flexibility Score: inf
ROOT
ATOM      1  C   UNL     1      28.859  58.223   7.028  1.00  0.00     0.180 A 
ATOM      2  C   UNL     1      30.181  57.781   7.229  1.00  0.00     0.208 A 
ATOM      3  C   UNL     1      31.084  57.835   6.155  1.00  0.00     0.238 A 
ATOM      4  O   UNL     1      32.267  57.433   6.321  1.00  0.00    -0.285 OA
ATOM      5  C   UNL     1      30.659  58.345   4.912  1.00  0.00     0.111 A 
ATOM      6  C   UNL     1      31.507  58.437   3.782  1.00  0.00     0.134 A 
ATOM      7  C   UNL     1      31.012  58.965   2.581  1.00  0.00     0.093 A 
ATOM      8  C   UNL     1      29.686  59.403   2.488  1.00  0.00     0.123 A 
ATOM      9  C   UNL     1      28.846  59.314   3.600  1.00  0.00     0.094 A 
ATOM     10  C   UNL     1      29.320  58.789   4.805  1.00  0.00     0.146 A 
ATOM     11  O   UNL     1      28.497  58.711   5.845  1.00  0.00    -0.452 OA
ENDROOT
BRANCH   1  12
ATOM     12  C   UNL     1      27.843  58.180   8.105  1.00  0.00     0.025 A 
ATOM     13  C   UNL     1      27.906  59.049   9.205  1.00  0.00     0.016 A 
ATOM     14  C   UNL     1      26.949  58.973  10.220  1.00  0.00     0.051 A 
ATOM     15  C   UNL     1      25.923  58.023  10.165  1.00  0.00     0.157 A 
ATOM     16  C   UNL     1      26.828  57.211   8.058  1.00  0.00     0.062 A 
ATOM     17  C   UNL     1      25.864  57.127   9.071  1.00  0.00     0.158 A 
BRANCH  15  18
ATOM     18  O   UNL     1      24.997  58.002  11.209  1.00  0.00    -0.504 OA
ATOM     19  H   UNL     1      24.360  57.238  11.384  1.00  0.00     0.293 HD
ENDBRANCH  15  18
BRANCH  17  20
ATOM     20  O   UNL     1      24.876  56.148   8.952  1.00  0.00    -0.504 OA
ATOM     21  H   UNL     1      25.022  55.250   8.515  1.00  0.00     0.293 HD
ENDBRANCH  17  20
ENDBRANCH   1  12
BRANCH   2  22
ATOM     22  O   UNL     1      30.590  57.326   8.485  1.00  0.00    -0.502 OA
ATOM     23  H   UNL     1      30.101  57.572   9.338  1.00  0.00     0.293 HD
ENDBRANCH   2  22
BRANCH   6  24
ATOM     24  O   UNL     1      32.835  58.010   3.844  1.00  0.00    -0.507 OA
ATOM     25  H   UNL     1      33.151  57.353   4.548  1.00  0.00     0.293 HD
ENDBRANCH   6  24
BRANCH   8  26
ATOM     26  O   UNL     1      29.193  59.928   1.296  1.00  0.00    -0.508 OA
ATOM     27  H   UNL     1      28.266  60.332   1.237  1.00  0.00     0.293 HD
ENDBRANCH   8  26
TORSDOF 6
ENDMDL
MODEL 4
REMARK VINA RESULT:    -5.926      4.224      7.151
REMARK INTER + INTRA:          -7.419
REMARK INTER:                  -7.162
REMARK INTRA:                  -0.256
REMARK UNBOUND:                -0.280
REMARK SMILES O=c1c(O)c(-c2ccc(O)c(O)c2)oc2cc(O)cc(O)c12
REMARK SMILES IDX 5 1 3 2 2 3 1 4 22 5 20 6 19 7 17 8 16 9 15 10 14 11 6 12
REMARK SMILES IDX 7 13 8 14 9 15 13 16 11 17 10 18 12 20 4 22 21 24 18 26
REMARK H PARENT 10 19 12 21 4 23 21 25 18 27
REMARK Flexibility Score: inf
ROOT
ATOM      1  C   UNL     1      31.188  59.478   3.554  1.00  0.00     0.180 A 
ATOM      2  C   UNL     1      31.695  60.727   3.961  1.00  0.00     0.208 A 
ATOM      3  C   UNL     1      32.290  60.836   5.228  1.00  0.00     0.238 A 
ATOM      4  O   UNL     1      32.738  61.952   5.607  1.00  0.00    -0.285 OA
ATOM      5  C   UNL     1      32.388  59.697   6.053  1.00  0.00     0.111 A 
ATOM      6  C   UNL     1      32.977  59.722   7.340  1.00  0.00     0.134 A 
ATOM      7  C   UNL     1      33.044  58.543   8.097  1.00  0.00     0.093 A 
ATOM      8  C   UNL     1      32.533  57.342   7.592  1.00  0.00     0.123 A 
ATOM      9  C   UNL     1      31.952  57.313   6.323  1.00  0.00     0.094 A 
ATOM     10  C   UNL     1      31.874  58.478   5.554  1.00  0.00     0.146 A 
ATOM     11  O   UNL     1      31.310  58.422   4.352  1.00  0.00    -0.452 OA
ENDROOT
BRANCH   1  12
ATOM     12  C   UNL     1      30.528  59.287   2.241  1.00  0.00     0.025 A 
ATOM     13  C   UNL     1      31.268  59.255   1.049  1.00  0.00     0.016 A 
ATOM     14  C   UNL     1      30.621  59.097  -0.179  1.00  0.00     0.051 A 
ATOM     15  C   UNL     1      29.228  58.984  -0.243  1.00  0.00     0.157 A 
ATOM     16  C   UNL     1      29.129  59.197   2.179  1.00  0.00     0.062 A 
ATOM     17  C   UNL     1      28.471  59.038   0.952  1.00  0.00     0.158 A 
BRANCH  15  18
ATOM     18  O   UNL     1      28.643  58.825  -1.500  1.00  0.00    -0.504 OA
ATOM     19  H   UNL     1      29.123  58.445  -2.303  1.00  0.00     0.293 HD
ENDBRANCH  15  18
BRANCH  17  20
ATOM     20  O   UNL     1      27.078  58.942   0.967  1.00  0.00    -0.504 OA
ATOM     21  H   UNL     1      26.497  59.280   1.719  1.00  0.00     0.293 HD
ENDBRANCH  17  20
ENDBRANCH   1  12
BRANCH   2  22
ATOM     22  O   UNL     1      31.630  61.830   3.104  1.00  0.00    -0.502 OA
ATOM     23  H   UNL     1      31.612  62.783   3.447  1.00  0.00     0.293 HD
ENDBRANCH   2  22
BRANCH   6  24
ATOM     24  O   UNL     1      33.495  60.904   7.870  1.00  0.00    -0.507 OA
ATOM     25  H   UNL     1      33.463  61.102   8.864  1.00  0.00     0.293 HD
ENDBRANCH   6  24
BRANCH   8  26
ATOM     26  O   UNL     1      32.600  56.171   8.343  1.00  0.00    -0.508 OA
ATOM     27  H   UNL     1      31.954  55.405   8.190  1.00  0.00     0.293 HD
ENDBRANCH   8  26
TORSDOF 6
ENDMDL
MODEL 5
REMARK VINA RESULT:    -5.925      4.323      6.806
REMARK INTER + INTRA:          -7.417
REMARK INTER:                  -7.108
REMARK INTRA:                  -0.309
REMARK UNBOUND:                -0.280
REMARK SMILES O=c1c(O)c(-c2ccc(O)c(O)c2)oc2cc(O)cc(O)c12
REMARK SMILES IDX 5 1 3 2 2 3 1 4 22 5 20 6 19 7 17 8 16 9 15 10 14 11 6 12
REMARK SMILES IDX 7 13 8 14 9 15 13 16 11 17 10 18 12 20 4 22 21 24 18 26
REMARK H PARENT 10 19 12 21 4 23 21 25 18 27
REMARK Flexibility Score: inf
ROOT
ATOM      1  C   UNL     1      31.158  59.163   3.884  1.00  0.00     0.180 A 
ATOM      2  C   UNL     1      31.441  58.024   4.663  1.00  0.00     0.208 A 
ATOM      3  C   UNL     1      32.058  58.193   5.912  1.00  0.00     0.238 A 
ATOM      4  O   UNL     1      32.325  57.180   6.613  1.00  0.00    -0.285 OA
ATOM      5  C   UNL     1      32.361  59.492   6.370  1.00  0.00     0.111 A 
ATOM      6  C   UNL     1      32.979  59.748   7.618  1.00  0.00     0.134 A 
ATOM      7  C   UNL     1      33.240  61.071   8.006  1.00  0.00     0.093 A 
ATOM      8  C   UNL     1      32.897  62.139   7.171  1.00  0.00     0.123 A 
ATOM      9  C   UNL     1      32.288  61.891   5.939  1.00  0.00     0.094 A 
ATOM     10  C   UNL     1      32.021  60.580   5.533  1.00  0.00     0.146 A 
ATOM     11  O   UNL     1      31.446  60.373   4.354  1.00  0.00    -0.452 OA
ENDROOT
BRANCH   1  12
ATOM     12  C   UNL     1      30.528  59.065   2.548  1.00  0.00     0.025 A 
ATOM     13  C   UNL     1      31.292  59.124   1.372  1.00  0.00     0.016 A 
ATOM     14  C   UNL     1      30.672  59.053   0.123  1.00  0.00     0.051 A 
ATOM     15  C   UNL     1      29.281  58.937   0.021  1.00  0.00     0.157 A 
ATOM     16  C   UNL     1      29.130  58.972   2.449  1.00  0.00     0.062 A 
ATOM     17  C   UNL     1      28.499  58.901   1.200  1.00  0.00     0.158 A 
BRANCH  15  18
ATOM     18  O   UNL     1      28.723  58.867  -1.256  1.00  0.00    -0.504 OA
ATOM     19  H   UNL     1      29.219  58.540  -2.073  1.00  0.00     0.293 HD
ENDBRANCH  15  18
BRANCH  17  20
ATOM     20  O   UNL     1      27.107  58.796   1.179  1.00  0.00    -0.504 OA
ATOM     21  H   UNL     1      26.485  59.445   1.638  1.00  0.00     0.293 HD
ENDBRANCH  17  20
ENDBRANCH   1  12
BRANCH   2  22
ATOM     22  O   UNL     1      31.085  56.751   4.208  1.00  0.00    -0.502 OA
ATOM     23  H   UNL     1      31.761  56.106   3.817  1.00  0.00     0.293 HD
ENDBRANCH   2  22
BRANCH   6  24
ATOM     24  O   UNL     1      33.332  58.703   8.473  1.00  0.00    -0.507 OA
ATOM     25  H   UNL     1      34.120  58.775   9.106  1.00  0.00     0.293 HD
ENDBRANCH   6  24
BRANCH   8  26
ATOM     26  O   UNL     1      33.155  63.453   7.556  1.00  0.00    -0.508 OA
ATOM     27  H   UNL     1      32.633  64.231   7.171  1.00  0.00     0.293 HD
ENDBRANCH   8  26
TORSDOF 6
ENDMDL
MODEL 6
REMARK VINA RESULT:    -5.815      3.492      5.347
REMARK INTER + INTRA:          -7.285
REMARK INTER:                  -7.037
REMARK INTRA:                  -0.248
REMARK UNBOUND:                -0.280
REMARK SMILES O=c1c(O)c(-c2ccc(O)c(O)c2)oc2cc(O)cc(O)c12
REMARK SMILES IDX 5 1 3 2 2 3 1 4 22 5 20 6 19 7 17 8 16 9 15 10 14 11 6 12
REMARK SMILES IDX 7 13 8 14 9 15 13 16 11 17 10 18 12 20 4 22 21 24 18 26
REMARK H PARENT 10 19 12 21 4 23 21 25 18 27
REMARK Flexibility Score: inf
ROOT
ATOM      1  C   UNL     1      30.285  58.922   4.394  1.00  0.00     0.180 A 
ATOM      2  C   UNL     1      28.897  58.835   4.612  1.00  0.00     0.208 A 
ATOM      3  C   UNL     1      28.030  58.931   3.511  1.00  0.00     0.238 A 
ATOM      4  O   UNL     1      26.785  58.865   3.695  1.00  0.00    -0.285 OA
ATOM      5  C   UNL     1      28.564  59.091   2.216  1.00  0.00     0.111 A 
ATOM      6  C   UNL     1      27.761  59.192   1.055  1.00  0.00     0.134 A 
ATOM      7  C   UNL     1      28.368  59.340  -0.201  1.00  0.00     0.093 A 
ATOM      8  C   UNL     1      29.762  59.390  -0.316  1.00  0.00     0.123 A 
ATOM      9  C   UNL     1      30.558  59.291   0.826  1.00  0.00     0.094 A 
ATOM     10  C   UNL     1      29.972  59.144   2.087  1.00  0.00     0.146 A 
ATOM     11  O   UNL     1      30.754  59.058   3.157  1.00  0.00    -0.452 OA
ENDROOT
BRANCH   1  12
ATOM     12  C   UNL     1      31.262  58.849   5.506  1.00  0.00     0.025 A 
ATOM     13  C   UNL     1      31.975  59.982   5.928  1.00  0.00     0.016 A 
ATOM     14  C   UNL     1      32.907  59.883   6.963  1.00  0.00     0.051 A 
ATOM     15  C   UNL     1      33.157  58.654   7.584  1.00  0.00     0.157 A 
ATOM     16  C   UNL     1      31.527  57.611   6.111  1.00  0.00     0.062 A 
ATOM     17  C   UNL     1      32.460  57.501   7.150  1.00  0.00     0.158 A 
BRANCH  15  18
ATOM     18  O   UNL     1      34.098  58.624   8.615  1.00  0.00    -0.504 OA
ATOM     19  H   UNL     1      34.098  59.259   9.399  1.00  0.00     0.293 HD
ENDBRANCH  15  18
BRANCH  17  20
ATOM     20  O   UNL     1      32.663  56.241   7.715  1.00  0.00    -0.504 OA
ATOM     21  H   UNL     1      33.103  55.471   7.234  1.00  0.00     0.293 HD
ENDBRANCH  17  20
ENDBRANCH   1  12
BRANCH   2  22
ATOM     22  O   UNL     1      28.395  58.626   5.900  1.00  0.00    -0.502 OA
ATOM     23  H   UNL     1      28.986  58.343   6.673  1.00  0.00     0.293 HD
ENDBRANCH   2  22
BRANCH   6  24
ATOM     24  O   UNL     1      26.368  59.144   1.138  1.00  0.00    -0.507 OA
ATOM     25  H   UNL     1      25.812  58.617   0.474  1.00  0.00     0.293 HD
ENDBRANCH   6  24
BRANCH   8  26
ATOM     26  O   UNL     1      30.366  59.538  -1.563  1.00  0.00    -0.508 OA
ATOM     27  H   UNL     1      29.847  59.404  -2.423  1.00  0.00     0.293 HD
ENDBRANCH   8  26
TORSDOF 6
ENDMDL
MODEL 7
REMARK VINA RESULT:    -5.801      2.541      7.702
REMARK INTER + INTRA:          -7.267
REMARK INTER:                  -7.308
REMARK INTRA:                   0.041
REMARK UNBOUND:                -0.280
REMARK SMILES O=c1c(O)c(-c2ccc(O)c(O)c2)oc2cc(O)cc(O)c12
REMARK SMILES IDX 5 1 3 2 2 3 1 4 22 5 20 6 19 7 17 8 16 9 15 10 14 11 6 12
REMARK SMILES IDX 7 13 8 14 9 15 13 16 11 17 10 18 12 20 4 22 21 24 18 26
REMARK H PARENT 10 19 12 21 4 23 21 25 18 27
REMARK Flexibility Score: inf
ROOT
ATOM      1  C   UNL     1      29.676  58.933   1.963  1.00  0.00     0.180 A 
ATOM      2  C   UNL     1      31.048  58.893   2.275  1.00  0.00     0.208 A 
ATOM      3  C   UNL     1      31.436  58.600   3.593  1.00  0.00     0.238 A 
ATOM      4  O   UNL     1      32.662  58.573   3.886  1.00  0.00    -0.285 OA
ATOM      5  C   UNL     1      30.452  58.332   4.566  1.00  0.00     0.111 A 
ATOM      6  C   UNL     1      30.759  58.025   5.913  1.00  0.00     0.134 A 
ATOM      7  C   UNL     1      29.722  57.761   6.820  1.00  0.00     0.093 A 
ATOM      8  C   UNL     1      28.386  57.799   6.406  1.00  0.00     0.123 A 
ATOM      9  C   UNL     1      28.079  58.102   5.078  1.00  0.00     0.094 A 
ATOM     10  C   UNL     1      29.098  58.370   4.159  1.00  0.00     0.146 A 
ATOM     11  O   UNL     1      28.776  58.661   2.904  1.00  0.00    -0.452 OA
ENDROOT
BRANCH   1  12
ATOM     12  C   UNL     1      29.188  59.253   0.602  1.00  0.00     0.025 A 
ATOM     13  C   UNL     1      28.166  60.194   0.395  1.00  0.00     0.016 A 
ATOM     14  C   UNL     1      27.707  60.462  -0.897  1.00  0.00     0.051 A 
ATOM     15  C   UNL     1      28.243  59.791  -2.000  1.00  0.00     0.157 A 
ATOM     16  C   UNL     1      29.712  58.562  -0.501  1.00  0.00     0.062 A 
ATOM     17  C   UNL     1      29.258  58.824  -1.800  1.00  0.00     0.158 A 
BRANCH  15  18
ATOM     18  O   UNL     1      27.743  60.107  -3.264  1.00  0.00    -0.504 OA
ATOM     19  H   UNL     1      26.760  60.203  -3.476  1.00  0.00     0.293 HD
ENDBRANCH  15  18
BRANCH  17  20
ATOM     20  O   UNL     1      29.835  58.108  -2.849  1.00  0.00    -0.504 OA
ATOM     21  H   UNL     1      29.833  58.415  -3.811  1.00  0.00     0.293 HD
ENDBRANCH  17  20
ENDBRANCH   1  12
BRANCH   2  22
ATOM     22  O   UNL     1      32.006  59.114   1.281  1.00  0.00    -0.502 OA
ATOM     23  H   UNL     1      31.863  58.833   0.318  1.00  0.00     0.293 HD
ENDBRANCH   2  22
BRANCH   6  24
ATOM     24  O   UNL     1      32.082  57.978   6.356  1.00  0.00    -0.507 OA
ATOM     25  H   UNL     1      32.476  58.709   6.937  1.00  0.00     0.293 HD
ENDBRANCH   6  24
BRANCH   8  26
ATOM     26  O   UNL     1      27.356  57.537   7.306  1.00  0.00    -0.508 OA
ATOM     27  H   UNL     1      26.759  56.725   7.206  1.00  0.00     0.293 HD
ENDBRANCH   8  26
TORSDOF 6
ENDMDL
MODEL 8
REMARK VINA RESULT:    -5.752      6.517      8.217
REMARK INTER + INTRA:          -7.209
REMARK INTER:                  -6.993
REMARK INTRA:                  -0.216
REMARK UNBOUND:                -0.280
REMARK SMILES O=c1c(O)c(-c2ccc(O)c(O)c2)oc2cc(O)cc(O)c12
REMARK SMILES IDX 5 1 3 2 2 3 1 4 22 5 20 6 19 7 17 8 16 9 15 10 14 11 6 12
REMARK SMILES IDX 7 13 8 14 9 15 13 16 11 17 10 18 12 20 4 22 21 24 18 26
REMARK H PARENT 10 19 12 21 4 23 21 25 18 27
REMARK Flexibility Score: inf
ROOT
ATOM      1  C   UNL     1      30.788  65.151   4.801  1.00  0.00     0.180 A 
ATOM      2  C   UNL     1      29.854  65.263   3.754  1.00  0.00     0.208 A 
ATOM      3  C   UNL     1      29.678  64.176   2.882  1.00  0.00     0.238 A 
ATOM      4  O   UNL     1      28.851  64.270   1.935  1.00  0.00    -0.285 OA
ATOM      5  C   UNL     1      30.420  62.995   3.083  1.00  0.00     0.111 A 
ATOM      6  C   UNL     1      30.299  61.854   2.253  1.00  0.00     0.134 A 
ATOM      7  C   UNL     1      31.066  60.712   2.525  1.00  0.00     0.093 A 
ATOM      8  C   UNL     1      31.951  60.689   3.608  1.00  0.00     0.123 A 
ATOM      9  C   UNL     1      32.073  61.811   4.430  1.00  0.00     0.094 A 
ATOM     10  C   UNL     1      31.319  62.960   4.175  1.00  0.00     0.146 A 
ATOM     11  O   UNL     1      31.460  64.015   4.969  1.00  0.00    -0.452 OA
ENDROOT
BRANCH   1  12
ATOM     12  C   UNL     1      31.045  66.259   5.749  1.00  0.00     0.025 A 
ATOM     13  C   UNL     1      31.649  67.455   5.330  1.00  0.00     0.016 A 
ATOM     14  C   UNL     1      31.901  68.477   6.248  1.00  0.00     0.051 A 
ATOM     15  C   UNL     1      31.572  68.322   7.599  1.00  0.00     0.157 A 
ATOM     16  C   UNL     1      30.733  66.092   7.108  1.00  0.00     0.062 A 
ATOM     17  C   UNL     1      30.983  67.111   8.036  1.00  0.00     0.158 A 
BRANCH  15  18
ATOM     18  O   UNL     1      31.846  69.382   8.464  1.00  0.00    -0.504 OA
ATOM     19  H   UNL     1      31.411  69.503   9.367  1.00  0.00     0.293 HD
ENDBRANCH  15  18
BRANCH  17  20
ATOM     20  O   UNL     1      30.635  66.880   9.368  1.00  0.00    -0.504 OA
ATOM     21  H   UNL     1      31.192  66.335  10.010  1.00  0.00     0.293 HD
ENDBRANCH  17  20
ENDBRANCH   1  12
BRANCH   2  22
ATOM     22  O   UNL     1      29.095  66.428   3.606  1.00  0.00    -0.502 OA
ATOM     23  H   UNL     1      28.286  66.475   2.999  1.00  0.00     0.293 HD
ENDBRANCH   2  22
BRANCH   6  24
ATOM     24  O   UNL     1      29.424  61.847   1.166  1.00  0.00    -0.507 OA
ATOM     25  H   UNL     1      29.724  61.556   0.242  1.00  0.00     0.293 HD
ENDBRANCH   6  24
BRANCH   8  26
ATOM     26  O   UNL     1      32.713  59.554   3.879  1.00  0.00    -0.508 OA
ATOM     27  H   UNL     1      32.281  58.674   4.136  1.00  0.00     0.293 HD
ENDBRANCH   8  26
TORSDOF 6
ENDMDL
MODEL 9
REMARK VINA RESULT:    -5.642      1.793      7.273
REMARK INTER + INTRA:          -7.077
REMARK INTER:                  -6.779
REMARK INTRA:                  -0.298
REMARK UNBOUND:                -0.280
REMARK SMILES O=c1c(O)c(-c2ccc(O)c(O)c2)oc2cc(O)cc(O)c12
REMARK SMILES IDX 5 1 3 2 2 3 1 4 22 5 20 6 19 7 17 8 16 9 15 10 14 11 6 12
REMARK SMILES IDX 7 13 8 14 9 15 13 16 11 17 10 18 12 20 4 22 21 24 18 26
REMARK H PARENT 10 19 12 21 4 23 21 25 18 27
REMARK Flexibility Score: inf
ROOT
ATOM      1  C   UNL     1      28.131  57.746   7.877  1.00  0.00     0.180 A 
ATOM      2  C   UNL     1      27.963  58.829   8.761  1.00  0.00     0.208 A 
ATOM      3  C   UNL     1      27.159  58.657   9.900  1.00  0.00     0.238 A 
ATOM      4  O   UNL     1      26.993  59.623  10.693  1.00  0.00    -0.285 OA
ATOM      5  C   UNL     1      26.557  57.406  10.145  1.00  0.00     0.111 A 
ATOM      6  C   UNL     1      25.736  57.149  11.270  1.00  0.00     0.134 A 
ATOM      7  C   UNL     1      25.180  55.874  11.448  1.00  0.00     0.093 A 
ATOM      8  C   UNL     1      25.428  54.853  10.524  1.00  0.00     0.123 A 
ATOM      9  C   UNL     1      26.236  55.102   9.414  1.00  0.00     0.094 A 
ATOM     10  C   UNL     1      26.799  56.366   9.217  1.00  0.00     0.146 A 
ATOM     11  O   UNL     1      27.559  56.577   8.148  1.00  0.00    -0.452 OA
ENDROOT
BRANCH   1  12
ATOM     12  C   UNL     1      28.947  57.855   6.646  1.00  0.00     0.025 A 
ATOM     13  C   UNL     1      28.350  58.025   5.387  1.00  0.00     0.016 A 
ATOM     14  C   UNL     1      29.140  58.102   4.237  1.00  0.00     0.051 A 
ATOM     15  C   UNL     1      30.533  57.996   4.319  1.00  0.00     0.157 A 
ATOM     16  C   UNL     1      30.342  57.727   6.729  1.00  0.00     0.062 A 
ATOM     17  C   UNL     1      31.142  57.802   5.581  1.00  0.00     0.158 A 
BRANCH  15  18
ATOM     18  O   UNL     1      31.265  58.085   3.134  1.00  0.00    -0.504 OA
ATOM     19  H   UNL     1      31.186  57.430   2.370  1.00  0.00     0.293 HD
ENDBRANCH  15  18
BRANCH  17  20
ATOM     20  O   UNL     1      32.523  57.679   5.741  1.00  0.00    -0.504 OA
ATOM     21  H   UNL     1      33.178  57.630   4.974  1.00  0.00     0.293 HD
ENDBRANCH  17  20
ENDBRANCH   1  12
BRANCH   2  22
ATOM     22  O   UNL     1      28.611  60.044   8.521  1.00  0.00    -0.502 OA
ATOM     23  H   UNL     1      28.986  60.616   9.269  1.00  0.00     0.293 HD
ENDBRANCH   2  22
BRANCH   6  24
ATOM     24  O   UNL     1      25.472  58.147  12.209  1.00  0.00    -0.507 OA
ATOM     25  H   UNL     1      25.833  59.088  12.103  1.00  0.00     0.293 HD
ENDBRANCH   6  24
BRANCH   8  26
ATOM     26  O   UNL     1      24.876  53.586  10.702  1.00  0.00    -0.508 OA
ATOM     27  H   UNL     1      23.960  53.351  10.338  1.00  0.00     0.293 HD
ENDBRANCH   8  26
TORSDOF 6
ENDMDL
