MODEL 1
REMARK VINA RESULT:    -3.094      0.000      0.000
REMARK INTER + INTRA:          -3.956
REMARK INTER:                  -3.908
REMARK INTRA:                  -0.048
REMARK UNBOUND:                -0.048
REMARK SMILES CSCC[C@@H]([NH3+])C(=O)[O-]
REMARK SMILES IDX 4 1 5 2 6 3 7 7 8 8 9 9 3 10 2 11 1 12
REMARK H PARENT 6 4 6 5 6 6
REMARK Flexibility Score: inf
ROOT
ATOM      1  C   UNL     1      15.235  31.639  23.100  1.00  0.00     0.082 C 
ENDROOT
BRANCH   1   2
ATOM      2  C   UNL     1      13.763  31.369  22.720  1.00  0.00     0.228 C 
BRANCH   2   3
ATOM      3  N   UNL     1      13.381  32.073  21.488  1.00  0.00    -0.350 N 
ATOM      4  H   UNL     1      14.117  32.763  21.210  1.00  0.00     0.345 HD
ATOM      5  H   UNL     1      12.473  32.573  21.627  1.00  0.00     0.345 HD
ATOM      6  H   UNL     1      13.246  31.386  20.711  1.00  0.00     0.345 HD
ENDBRANCH   2   3
BRANCH   2   7
ATOM      7  C   UNL     1      13.545  29.887  22.558  1.00  0.00     0.099 C 
ATOM      8  O   UNL     1      12.533  29.453  21.948  1.00  0.00    -0.544 OA
ATOM      9  O   UNL     1      14.477  28.990  23.064  1.00  0.00    -0.544 OA
ENDBRANCH   2   7
ENDBRANCH   1   2
BRANCH   1  10
ATOM     10  C   UNL     1      15.565  33.136  23.159  1.00  0.00     0.076 C 
BRANCH  10  11
ATOM     11  S   UNL     1      16.661  33.610  21.774  1.00  0.00    -0.165 SA
ATOM     12  C   UNL     1      17.313  35.124  22.553  1.00  0.00     0.085 C 
ENDBRANCH  10  11
ENDBRANCH   1  10
TORSDOF 5
ENDMDL
MODEL 2
REMARK VINA RESULT:    -3.083      3.674      4.901
REMARK INTER + INTRA:          -3.942
REMARK INTER:                  -3.857
REMARK INTRA:                  -0.085
REMARK UNBOUND:                -0.048
REMARK SMILES CSCC[C@@H]([NH3+])C(=O)[O-]
REMARK SMILES IDX 4 1 5 2 6 3 7 7 8 8 9 9 3 10 2 11 1 12
REMARK H PARENT 6 4 6 5 6 6
REMARK Flexibility Score: inf
ROOT
ATOM      1  C   UNL     1      14.922  32.790  23.094  1.00  0.00     0.082 C 
ENDROOT
BRANCH   1   2
ATOM      2  C   UNL     1      16.071  33.089  22.107  1.00  0.00     0.228 C 
BRANCH   2   3
ATOM      3  N   UNL     1      15.591  33.166  20.720  1.00  0.00    -0.350 N 
ATOM      4  H   UNL     1      15.947  34.031  20.250  1.00  0.00     0.345 HD
ATOM      5  H   UNL     1      14.546  33.167  20.700  1.00  0.00     0.345 HD
ATOM      6  H   UNL     1      15.915  32.328  20.183  1.00  0.00     0.345 HD
ENDBRANCH   2   3
BRANCH   2   7
ATOM      7  C   UNL     1      16.749  34.377  22.493  1.00  0.00     0.099 C 
ATOM      8  O   UNL     1      16.247  35.124  23.375  1.00  0.00    -0.544 OA
ATOM      9  O   UNL     1      17.947  34.738  21.892  1.00  0.00    -0.544 OA
ENDBRANCH   2   7
ENDBRANCH   1   2
BRANCH   1  10
ATOM     10  C   UNL     1      14.867  31.314  23.507  1.00  0.00     0.076 C 
BRANCH  10  11
ATOM     11  S   UNL     1      13.538  30.440  22.604  1.00  0.00    -0.165 SA
ATOM     12  C   UNL     1      14.221  28.764  22.830  1.00  0.00     0.085 C 
ENDBRANCH  10  11
ENDBRANCH   1  10
TORSDOF 5
ENDMDL
MODEL 3
REMARK VINA RESULT:    -2.999      2.557      2.935
REMARK INTER + INTRA:          -3.836
REMARK INTER:                  -3.697
REMARK INTRA:                  -0.139
REMARK UNBOUND:                -0.048
REMARK SMILES CSCC[C@@H]([NH3+])C(=O)[O-]
REMARK SMILES IDX 4 1 5 2 6 3 7 7 8 8 9 9 3 10 2 11 1 12
REMARK H PARENT 6 4 6 5 6 6
REMARK Flexibility Score: inf
ROOT
ATOM      1  C   UNL     1      12.032  31.069  22.752  1.00  0.00     0.082 C 
ENDROOT
BRANCH   1   2
ATOM      2  C   UNL     1      12.476  29.606  22.530  1.00  0.00     0.228 C 
BRANCH   2   3
ATOM      3  N   UNL     1      12.285  29.185  21.135  1.00  0.00    -0.350 N 
ATOM      4  H   UNL     1      11.462  28.544  21.049  1.00  0.00     0.345 HD
ATOM      5  H   UNL     1      13.141  28.697  20.786  1.00  0.00     0.345 HD
ATOM      6  H   UNL     1      12.130  30.022  20.527  1.00  0.00     0.345 HD
ENDBRANCH   2   3
BRANCH   2   7
ATOM      7  C   UNL     1      13.921  29.450  22.925  1.00  0.00     0.099 C 
ATOM      8  O   UNL     1      14.516  28.353  22.753  1.00  0.00    -0.544 OA
ATOM      9  O   UNL     1      14.614  30.527  23.463  1.00  0.00    -0.544 OA
ENDBRANCH   2   7
ENDBRANCH   1   2
BRANCH   1  10
ATOM     10  C   UNL     1      12.168  31.925  21.487  1.00  0.00     0.076 C 
BRANCH  10  11
ATOM     11  S   UNL     1      12.835  33.579  21.896  1.00  0.00    -0.165 SA
ATOM     12  C   UNL     1      14.495  33.296  21.199  1.00  0.00     0.085 C 
ENDBRANCH  10  11
ENDBRANCH   1  10
TORSDOF 5
ENDMDL
MODEL 4
REMARK VINA RESULT:    -2.944      3.463      4.633
REMARK INTER + INTRA:          -3.767
REMARK INTER:                  -3.707
REMARK INTRA:                  -0.060
REMARK UNBOUND:                -0.048
REMARK SMILES CSCC[C@@H]([NH3+])C(=O)[O-]
REMARK SMILES IDX 4 1 5 2 6 3 7 7 8 8 9 9 3 10 2 11 1 12
REMARK H PARENT 6 4 6 5 6 6
REMARK Flexibility Score: inf
ROOT
ATOM      1  C   UNL     1      15.152  31.743  23.337  1.00  0.00     0.082 C 
ENDROOT
BRANCH   1   2
ATOM      2  C   UNL     1      15.200  33.246  22.987  1.00  0.00     0.228 C 
BRANCH   2   3
ATOM      3  N   UNL     1      15.669  34.055  24.121  1.00  0.00    -0.350 N 
ATOM      4  H   UNL     1      15.008  34.844  24.314  1.00  0.00     0.345 HD
ATOM      5  H   UNL     1      16.619  34.441  23.919  1.00  0.00     0.345 HD
ATOM      6  H   UNL     1      15.747  33.458  24.977  1.00  0.00     0.345 HD
ENDBRANCH   2   3
BRANCH   2   7
ATOM      7  C   UNL     1      16.093  33.461  21.793  1.00  0.00     0.099 C 
ATOM      8  O   UNL     1      15.685  33.190  20.633  1.00  0.00    -0.544 OA
ATOM      9  O   UNL     1      17.369  33.982  21.966  1.00  0.00    -0.544 OA
ENDBRANCH   2   7
ENDBRANCH   1   2
BRANCH   1  10
ATOM     10  C   UNL     1      13.725  31.182  23.339  1.00  0.00     0.076 C 
BRANCH  10  11
ATOM     11  S   UNL     1      13.704  29.467  22.705  1.00  0.00    -0.165 SA
ATOM     12  C   UNL     1      12.159  29.631  21.751  1.00  0.00     0.085 C 
ENDBRANCH  10  11
ENDBRANCH   1  10
TORSDOF 5
ENDMDL
MODEL 5
REMARK VINA RESULT:    -2.702      1.618      1.842
REMARK INTER + INTRA:          -3.461
REMARK INTER:                  -3.321
REMARK INTRA:                  -0.140
REMARK UNBOUND:                -0.048
REMARK SMILES CSCC[C@@H]([NH3+])C(=O)[O-]
REMARK SMILES IDX 4 1 5 2 6 3 7 7 8 8 9 9 3 10 2 11 1 12
REMARK H PARENT 6 4 6 5 6 6
REMARK Flexibility Score: inf
ROOT
ATOM      1  C   UNL     1      14.403  32.564  23.943  1.00  0.00     0.082 C 
ENDROOT
BRANCH   1   2
ATOM      2  C   UNL     1      14.421  31.349  22.991  1.00  0.00     0.228 C 
BRANCH   2   3
ATOM      3  N   UNL     1      14.721  30.101  23.706  1.00  0.00    -0.350 N 
ATOM      4  H   UNL     1      13.847  29.678  24.099  1.00  0.00     0.345 HD
ATOM      5  H   UNL     1      15.396  30.284  24.483  1.00  0.00     0.345 HD
ATOM      6  H   UNL     1      15.169  29.415  23.055  1.00  0.00     0.345 HD
ENDBRANCH   2   3
BRANCH   2   7
ATOM      7  C   UNL     1      13.095  31.237  22.286  1.00  0.00     0.099 C 
ATOM      8  O   UNL     1      12.616  32.223  21.666  1.00  0.00    -0.544 OA
ATOM      9  O   UNL     1      12.401  30.034  22.299  1.00  0.00    -0.544 OA
ENDBRANCH   2   7
ENDBRANCH   1   2
BRANCH   1  10
ATOM     10  C   UNL     1      15.570  33.528  23.692  1.00  0.00     0.076 C 
BRANCH  10  11
ATOM     11  S   UNL     1      16.147  33.407  21.961  1.00  0.00    -0.165 SA
ATOM     12  C   UNL     1      17.543  34.565  22.141  1.00  0.00     0.085 C 
ENDBRANCH  10  11
ENDBRANCH   1  10
TORSDOF 5
ENDMDL
MODEL 6
REMARK VINA RESULT:    -2.549      3.581      4.678
REMARK INTER + INTRA:          -3.268
REMARK INTER:                  -3.150
REMARK INTRA:                  -0.117
REMARK UNBOUND:                -0.048
REMARK SMILES CSCC[C@@H]([NH3+])C(=O)[O-]
REMARK SMILES IDX 4 1 5 2 6 3 7 7 8 8 9 9 3 10 2 11 1 12
REMARK H PARENT 6 4 6 5 6 6
REMARK Flexibility Score: inf
ROOT
ATOM      1  C   UNL     1      15.298  32.806  23.863  1.00  0.00     0.082 C 
ENDROOT
BRANCH   1   2
ATOM      2  C   UNL     1      15.690  34.128  23.167  1.00  0.00     0.228 C 
BRANCH   2   3
ATOM      3  N   UNL     1      16.200  35.117  24.125  1.00  0.00    -0.350 N 
ATOM      4  H   UNL     1      16.445  34.663  25.036  1.00  0.00     0.345 HD
ATOM      5  H   UNL     1      15.484  35.861  24.291  1.00  0.00     0.345 HD
ATOM      6  H   UNL     1      17.053  35.583  23.737  1.00  0.00     0.345 HD
ENDBRANCH   2   3
BRANCH   2   7
ATOM      7  C   UNL     1      16.722  33.854  22.104  1.00  0.00     0.099 C 
ATOM      8  O   UNL     1      16.550  32.926  21.270  1.00  0.00    -0.544 OA
ATOM      9  O   UNL     1      17.862  34.643  22.025  1.00  0.00    -0.544 OA
ENDBRANCH   2   7
ENDBRANCH   1   2
BRANCH   1  10
ATOM     10  C   UNL     1      13.782  32.659  24.039  1.00  0.00     0.076 C 
BRANCH  10  11
ATOM     11  S   UNL     1      13.002  32.100  22.482  1.00  0.00    -0.165 SA
ATOM     12  C   UNL     1      13.234  30.317  22.778  1.00  0.00     0.085 C 
ENDBRANCH  10  11
ENDBRANCH   1  10
TORSDOF 5
ENDMDL
MODEL 7
REMARK VINA RESULT:    -2.531      1.792      2.317
REMARK INTER + INTRA:          -3.245
REMARK INTER:                  -3.147
REMARK INTRA:                  -0.098
REMARK UNBOUND:                -0.048
REMARK SMILES CSCC[C@@H]([NH3+])C(=O)[O-]
REMARK SMILES IDX 4 1 5 2 6 3 7 7 8 8 9 9 3 10 2 11 1 12
REMARK H PARENT 6 4 6 5 6 6
REMARK Flexibility Score: inf
ROOT
ATOM      1  C   UNL     1      13.078  32.117  22.732  1.00  0.00     0.082 C 
ENDROOT
BRANCH   1   2
ATOM      2  C   UNL     1      14.207  31.065  22.795  1.00  0.00     0.228 C 
BRANCH   2   3
ATOM      3  N   UNL     1      14.874  31.060  24.104  1.00  0.00    -0.350 N 
ATOM      4  H   UNL     1      14.932  30.088  24.489  1.00  0.00     0.345 HD
ATOM      5  H   UNL     1      14.352  31.667  24.777  1.00  0.00     0.345 HD
ATOM      6  H   UNL     1      15.841  31.449  24.014  1.00  0.00     0.345 HD
ENDBRANCH   2   3
BRANCH   2   7
ATOM      7  C   UNL     1      13.645  29.701  22.493  1.00  0.00     0.099 C 
ATOM      8  O   UNL     1      14.234  28.663  22.898  1.00  0.00    -0.544 OA
ATOM      9  O   UNL     1      12.457  29.580  21.784  1.00  0.00    -0.544 OA
ENDBRANCH   2   7
ENDBRANCH   1   2
BRANCH   1  10
ATOM     10  C   UNL     1      13.197  33.039  21.512  1.00  0.00     0.076 C 
BRANCH  10  11
ATOM     11  S   UNL     1      13.716  34.718  22.020  1.00  0.00    -0.165 SA
ATOM     12  C   UNL     1      15.501  34.357  22.087  1.00  0.00     0.085 C 
ENDBRANCH  10  11
ENDBRANCH   1  10
TORSDOF 5
ENDMDL
MODEL 8
REMARK VINA RESULT:    -2.515      3.141      4.003
REMARK INTER + INTRA:          -3.224
REMARK INTER:                  -3.028
REMARK INTRA:                  -0.196
REMARK UNBOUND:                -0.048
REMARK SMILES CSCC[C@@H]([NH3+])C(=O)[O-]
REMARK SMILES IDX 4 1 5 2 6 3 7 7 8 8 9 9 3 10 2 11 1 12
REMARK H PARENT 6 4 6 5 6 6
REMARK Flexibility Score: inf
ROOT
ATOM      1  C   UNL     1      14.949  33.600  20.888  1.00  0.00     0.082 C 
ENDROOT
BRANCH   1   2
ATOM      2  C   UNL     1      16.140  33.197  21.785  1.00  0.00     0.228 C 
BRANCH   2   3
ATOM      3  N   UNL     1      17.082  34.309  21.972  1.00  0.00    -0.350 N 
ATOM      4  H   UNL     1      17.155  34.886  21.102  1.00  0.00     0.345 HD
ATOM      5  H   UNL     1      18.027  33.941  22.224  1.00  0.00     0.345 HD
ATOM      6  H   UNL     1      16.762  34.919  22.760  1.00  0.00     0.345 HD
ENDBRANCH   2   3
BRANCH   2   7
ATOM      7  C   UNL     1      15.630  32.719  23.119  1.00  0.00     0.099 C 
ATOM      8  O   UNL     1      15.654  33.480  24.122  1.00  0.00    -0.544 OA
ATOM      9  O   UNL     1      15.107  31.438  23.244  1.00  0.00    -0.544 OA
ENDBRANCH   2   7
ENDBRANCH   1   2
BRANCH   1  10
ATOM     10  C   UNL     1      14.262  34.887  21.362  1.00  0.00     0.076 C 
BRANCH  10  11
ATOM     11  S   UNL     1      12.539  34.547  21.873  1.00  0.00    -0.165 SA
ATOM     12  C   UNL     1      12.428  32.901  21.099  1.00  0.00     0.085 C 
ENDBRANCH  10  11
ENDBRANCH   1  10
TORSDOF 5
ENDMDL
MODEL 9
REMARK VINA RESULT:    -2.457      2.415      2.789
REMARK INTER + INTRA:          -3.152
REMARK INTER:                  -2.894
REMARK INTRA:                  -0.258
REMARK UNBOUND:                -0.048
REMARK SMILES CSCC[C@@H]([NH3+])C(=O)[O-]
REMARK SMILES IDX 4 1 5 2 6 3 7 7 8 8 9 9 3 10 2 11 1 12
REMARK H PARENT 6 4 6 5 6 6
REMARK Flexibility Score: inf
ROOT
ATOM      1  C   UNL     1      15.354  32.997  21.630  1.00  0.00     0.082 C 
ENDROOT
BRANCH   1   2
ATOM      2  C   UNL     1      15.264  32.188  22.942  1.00  0.00     0.228 C 
BRANCH   2   3
ATOM      3  N   UNL     1      15.333  33.057  24.124  1.00  0.00    -0.350 N 
ATOM      4  H   UNL     1      15.138  34.053  23.866  1.00  0.00     0.345 HD
ATOM      5  H   UNL     1      16.280  32.993  24.564  1.00  0.00     0.345 HD
ATOM      6  H   UNL     1      14.634  32.747  24.837  1.00  0.00     0.345 HD
ENDBRANCH   2   3
BRANCH   2   7
ATOM      7  C   UNL     1      13.987  31.389  22.959  1.00  0.00     0.099 C 
ATOM      8  O   UNL     1      12.883  31.955  23.180  1.00  0.00    -0.544 OA
ATOM      9  O   UNL     1      14.019  30.024  22.709  1.00  0.00    -0.544 OA
ENDBRANCH   2   7
ENDBRANCH   1   2
BRANCH   1  10
ATOM     10  C   UNL     1      15.255  34.509  21.861  1.00  0.00     0.076 C 
BRANCH  10  11
ATOM     11  S   UNL     1      13.593  35.125  21.411  1.00  0.00    -0.165 SA
ATOM     12  C   UNL     1      13.253  33.859  20.145  1.00  0.00     0.085 C 
ENDBRANCH  10  11
ENDBRANCH   1  10
TORSDOF 5
ENDMDL
