MODEL 1
REMARK VINA RESULT:    -5.387      0.000      0.000
REMARK INTER + INTRA:          -6.969
REMARK INTER:                  -6.646
REMARK INTRA:                  -0.323
REMARK UNBOUND:                -0.323
REMARK SMILES O=c1c(O)c(-c2cc(O)c(O)c(O)c2)oc2cc(O)cc(O)c12
REMARK SMILES IDX 5 1 3 2 2 3 1 4 23 5 21 6 20 7 18 8 17 9 16 10 15 11 6 12
REMARK SMILES IDX 7 13 8 14 14 15 10 16 12 17 9 18 11 20 13 22 4 24 22 26
REMARK SMILES IDX 19 28
REMARK H PARENT 9 19 11 21 13 23 4 25 22 27 19 29
REMARK Flexibility Score: inf
ROOT
ATOM      1  C   UNL     1      -1.189 -22.980  -0.666  1.00  0.00     0.180 A 
ATOM      2  C   UNL     1      -1.371 -23.661   0.550  1.00  0.00     0.208 A 
ATOM      3  C   UNL     1      -2.607 -23.564   1.207  1.00  0.00     0.238 A 
ATOM      4  O   UNL     1      -2.782 -24.220   2.267  1.00  0.00    -0.285 OA
ATOM      5  C   UNL     1      -3.642 -22.776   0.649  1.00  0.00     0.111 A 
ATOM      6  C   UNL     1      -4.922 -22.574   1.247  1.00  0.00     0.134 A 
ATOM      7  C   UNL     1      -5.913 -21.881   0.543  1.00  0.00     0.093 A 
ATOM      8  C   UNL     1      -5.652 -21.326  -0.709  1.00  0.00     0.123 A 
ATOM      9  C   UNL     1      -4.385 -21.466  -1.280  1.00  0.00     0.094 A 
ATOM     10  C   UNL     1      -3.387 -22.183  -0.616  1.00  0.00     0.146 A 
ATOM     11  O   UNL     1      -2.200 -22.302  -1.197  1.00  0.00    -0.452 OA
ENDROOT
BRANCH   1  12
ATOM     12  C   UNL     1       0.095 -23.014  -1.404  1.00  0.00     0.029 A 
ATOM     13  C   UNL     1       1.161 -22.213  -0.972  1.00  0.00     0.062 A 
ATOM     14  C   UNL     1       2.392 -22.241  -1.636  1.00  0.00     0.162 A 
ATOM     15  C   UNL     1       0.287 -23.878  -2.495  1.00  0.00     0.062 A 
ATOM     16  C   UNL     1       2.573 -23.091  -2.741  1.00  0.00     0.200 A 
ATOM     17  C   UNL     1       1.517 -23.915  -3.167  1.00  0.00     0.162 A 
BRANCH  14  18
ATOM     18  O   UNL     1       3.423 -21.419  -1.185  1.00  0.00    -0.504 OA
ATOM     19  H   UNL     1       4.387 -21.563  -1.458  1.00  0.00     0.293 HD
ENDBRANCH  14  18
BRANCH  16  20
ATOM     20  O   UNL     1       3.803 -23.112  -3.400  1.00  0.00    -0.502 OA
ATOM     21  H   UNL     1       4.681 -23.200  -2.904  1.00  0.00     0.293 HD
ENDBRANCH  16  20
BRANCH  17  22
ATOM     22  O   UNL     1       1.694 -24.772  -4.253  1.00  0.00    -0.504 OA
ATOM     23  H   UNL     1       2.614 -25.084  -4.537  1.00  0.00     0.293 HD
ENDBRANCH  17  22
ENDBRANCH   1  12
BRANCH   2  24
ATOM     24  O   UNL     1      -0.343 -24.452   1.073  1.00  0.00    -0.502 OA
ATOM     25  H   UNL     1       0.635 -24.268   0.883  1.00  0.00     0.293 HD
ENDBRANCH   2  24
BRANCH   6  26
ATOM     26  O   UNL     1      -5.258 -23.007   2.533  1.00  0.00    -0.507 OA
ATOM     27  H   UNL     1      -5.766 -22.458   3.210  1.00  0.00     0.293 HD
ENDBRANCH   6  26
BRANCH   8  28
ATOM     28  O   UNL     1      -6.657 -20.629  -1.376  1.00  0.00    -0.508 OA
ATOM     29  H   UNL     1      -7.470 -21.101  -1.751  1.00  0.00     0.293 HD
ENDBRANCH   8  28
TORSDOF 7
ENDMDL
MODEL 2
REMARK VINA RESULT:    -5.324      0.089      1.757
REMARK INTER + INTRA:          -6.892
REMARK INTER:                  -6.549
REMARK INTRA:                  -0.343
REMARK UNBOUND:                -0.323
REMARK SMILES O=c1c(O)c(-c2cc(O)c(O)c(O)c2)oc2cc(O)cc(O)c12
REMARK SMILES IDX 5 1 3 2 2 3 1 4 23 5 21 6 20 7 18 8 17 9 16 10 15 11 6 12
REMARK SMILES IDX 7 13 8 14 14 15 10 16 12 17 9 18 11 20 13 22 4 24 22 26
REMARK SMILES IDX 19 28
REMARK H PARENT 9 19 11 21 13 23 4 25 22 27 19 29
REMARK Flexibility Score: inf
ROOT
ATOM      1  C   UNL     1      -1.180 -22.956  -0.618  1.00  0.00     0.180 A 
ATOM      2  C   UNL     1      -1.394 -23.608   0.609  1.00  0.00     0.208 A 
ATOM      3  C   UNL     1      -2.648 -23.496   1.229  1.00  0.00     0.238 A 
ATOM      4  O   UNL     1      -2.852 -24.126   2.300  1.00  0.00    -0.285 OA
ATOM      5  C   UNL     1      -3.668 -22.722   0.624  1.00  0.00     0.111 A 
ATOM      6  C   UNL     1      -4.963 -22.507   1.182  1.00  0.00     0.134 A 
ATOM      7  C   UNL     1      -5.935 -21.833   0.435  1.00  0.00     0.093 A 
ATOM      8  C   UNL     1      -5.640 -21.308  -0.823  1.00  0.00     0.123 A 
ATOM      9  C   UNL     1      -4.359 -21.461  -1.355  1.00  0.00     0.094 A 
ATOM     10  C   UNL     1      -3.379 -22.160  -0.647  1.00  0.00     0.146 A 
ATOM     11  O   UNL     1      -2.176 -22.292  -1.193  1.00  0.00    -0.452 OA
ENDROOT
BRANCH   1  12
ATOM     12  C   UNL     1       0.124 -23.008  -1.320  1.00  0.00     0.029 A 
ATOM     13  C   UNL     1       0.277 -23.851  -2.430  1.00  0.00     0.062 A 
ATOM     14  C   UNL     1       1.489 -23.904  -3.125  1.00  0.00     0.162 A 
ATOM     15  C   UNL     1       1.195 -22.185  -0.933  1.00  0.00     0.062 A 
ATOM     16  C   UNL     1       2.566 -23.095  -2.722  1.00  0.00     0.200 A 
ATOM     17  C   UNL     1       2.413 -22.229  -1.624  1.00  0.00     0.162 A 
BRANCH  14  18
ATOM     18  O   UNL     1       1.607 -24.766  -4.215  1.00  0.00    -0.504 OA
ATOM     19  H   UNL     1       1.354 -25.745  -4.158  1.00  0.00     0.293 HD
ENDBRANCH  14  18
BRANCH  16  20
ATOM     20  O   UNL     1       3.773 -23.155  -3.419  1.00  0.00    -0.502 OA
ATOM     21  H   UNL     1       3.859 -22.843  -4.378  1.00  0.00     0.293 HD
ENDBRANCH  16  20
BRANCH  17  22
ATOM     22  O   UNL     1       3.472 -21.413  -1.228  1.00  0.00    -0.504 OA
ATOM     23  H   UNL     1       3.833 -20.683  -1.829  1.00  0.00     0.293 HD
ENDBRANCH  17  22
ENDBRANCH   1  12
BRANCH   2  24
ATOM     24  O   UNL     1      -0.381 -24.384   1.179  1.00  0.00    -0.502 OA
ATOM     25  H   UNL     1      -0.535 -24.967   1.993  1.00  0.00     0.293 HD
ENDBRANCH   2  24
BRANCH   6  26
ATOM     26  O   UNL     1      -5.334 -22.909   2.469  1.00  0.00    -0.507 OA
ATOM     27  H   UNL     1      -5.961 -22.398   3.072  1.00  0.00     0.293 HD
ENDBRANCH   6  26
BRANCH   8  28
ATOM     28  O   UNL     1      -6.627 -20.628  -1.534  1.00  0.00    -0.508 OA
ATOM     29  H   UNL     1      -7.608 -20.724  -1.302  1.00  0.00     0.293 HD
ENDBRANCH   8  28
TORSDOF 7
ENDMDL
MODEL 3
REMARK VINA RESULT:    -5.165      1.293      3.014
REMARK INTER + INTRA:          -6.696
REMARK INTER:                  -6.351
REMARK INTRA:                  -0.344
REMARK UNBOUND:                -0.323
REMARK SMILES O=c1c(O)c(-c2cc(O)c(O)c(O)c2)oc2cc(O)cc(O)c12
REMARK SMILES IDX 5 1 3 2 2 3 1 4 23 5 21 6 20 7 18 8 17 9 16 10 15 11 6 12
REMARK SMILES IDX 7 13 8 14 14 15 10 16 12 17 9 18 11 20 13 22 4 24 22 26
REMARK SMILES IDX 19 28
REMARK H PARENT 9 19 11 21 13 23 4 25 22 27 19 29
REMARK Flexibility Score: inf
ROOT
ATOM      1  C   UNL     1      -1.526 -22.977  -0.450  1.00  0.00     0.180 A 
ATOM      2  C   UNL     1      -2.645 -22.237  -0.871  1.00  0.00     0.208 A 
ATOM      3  C   UNL     1      -3.800 -22.235  -0.073  1.00  0.00     0.238 A 
ATOM      4  O   UNL     1      -4.779 -21.528  -0.428  1.00  0.00    -0.285 OA
ATOM      5  C   UNL     1      -3.828 -22.985   1.127  1.00  0.00     0.111 A 
ATOM      6  C   UNL     1      -4.958 -23.087   1.993  1.00  0.00     0.134 A 
ATOM      7  C   UNL     1      -4.831 -23.750   3.219  1.00  0.00     0.093 A 
ATOM      8  C   UNL     1      -3.636 -24.370   3.583  1.00  0.00     0.123 A 
ATOM      9  C   UNL     1      -2.541 -24.327   2.717  1.00  0.00     0.094 A 
ATOM     10  C   UNL     1      -2.628 -23.643   1.503  1.00  0.00     0.146 A 
ATOM     11  O   UNL     1      -1.560 -23.616   0.713  1.00  0.00    -0.452 OA
ENDROOT
BRANCH   1  12
ATOM     12  C   UNL     1      -0.281 -23.047  -1.250  1.00  0.00     0.029 A 
ATOM     13  C   UNL     1       0.831 -22.286  -0.863  1.00  0.00     0.062 A 
ATOM     14  C   UNL     1       2.026 -22.348  -1.587  1.00  0.00     0.162 A 
ATOM     15  C   UNL     1      -0.172 -23.905  -2.356  1.00  0.00     0.062 A 
ATOM     16  C   UNL     1       2.126 -23.192  -2.707  1.00  0.00     0.200 A 
ATOM     17  C   UNL     1       1.022 -23.977  -3.088  1.00  0.00     0.162 A 
BRANCH  14  18
ATOM     18  O   UNL     1       3.105 -21.565  -1.179  1.00  0.00    -0.504 OA
ATOM     19  H   UNL     1       3.621 -21.758  -0.329  1.00  0.00     0.293 HD
ENDBRANCH  14  18
BRANCH  16  20
ATOM     20  O   UNL     1       3.320 -23.247  -3.425  1.00  0.00    -0.502 OA
ATOM     21  H   UNL     1       4.138 -22.714  -3.156  1.00  0.00     0.293 HD
ENDBRANCH  16  20
BRANCH  17  22
ATOM     22  O   UNL     1       1.118 -24.827  -4.188  1.00  0.00    -0.504 OA
ATOM     23  H   UNL     1       1.938 -25.399  -4.347  1.00  0.00     0.293 HD
ENDBRANCH  17  22
ENDBRANCH   1  12
BRANCH   2  24
ATOM     24  O   UNL     1      -2.588 -21.487  -2.049  1.00  0.00    -0.502 OA
ATOM     25  H   UNL     1      -3.398 -21.015  -2.433  1.00  0.00     0.293 HD
ENDBRANCH   2  24
BRANCH   6  26
ATOM     26  O   UNL     1      -6.225 -22.583   1.685  1.00  0.00    -0.507 OA
ATOM     27  H   UNL     1      -6.957 -23.108   1.230  1.00  0.00     0.293 HD
ENDBRANCH   6  26
BRANCH   8  28
ATOM     28  O   UNL     1      -3.549 -25.035   4.804  1.00  0.00    -0.508 OA
ATOM     29  H   UNL     1      -2.668 -25.133   5.293  1.00  0.00     0.293 HD
ENDBRANCH   8  28
TORSDOF 7
ENDMDL
MODEL 4
REMARK VINA RESULT:    -5.133      1.640      3.731
REMARK INTER + INTRA:          -6.656
REMARK INTER:                  -6.459
REMARK INTRA:                  -0.197
REMARK UNBOUND:                -0.323
REMARK SMILES O=c1c(O)c(-c2cc(O)c(O)c(O)c2)oc2cc(O)cc(O)c12
REMARK SMILES IDX 5 1 3 2 2 3 1 4 23 5 21 6 20 7 18 8 17 9 16 10 15 11 6 12
REMARK SMILES IDX 7 13 8 14 14 15 10 16 12 17 9 18 11 20 13 22 4 24 22 26
REMARK SMILES IDX 19 28
REMARK H PARENT 9 19 11 21 13 23 4 25 22 27 19 29
REMARK Flexibility Score: inf
ROOT
ATOM      1  C   UNL     1      -2.985 -22.150  -0.525  1.00  0.00     0.180 A 
ATOM      2  C   UNL     1      -3.854 -21.489  -1.409  1.00  0.00     0.208 A 
ATOM      3  C   UNL     1      -5.201 -21.329  -1.050  1.00  0.00     0.238 A 
ATOM      4  O   UNL     1      -5.962 -20.689  -1.821  1.00  0.00    -0.285 OA
ATOM      5  C   UNL     1      -5.667 -21.846   0.183  1.00  0.00     0.111 A 
ATOM      6  C   UNL     1      -7.019 -21.777   0.633  1.00  0.00     0.134 A 
ATOM      7  C   UNL     1      -7.341 -22.205   1.926  1.00  0.00     0.093 A 
ATOM      8  C   UNL     1      -6.373 -22.760   2.762  1.00  0.00     0.123 A 
ATOM      9  C   UNL     1      -5.058 -22.888   2.312  1.00  0.00     0.094 A 
ATOM     10  C   UNL     1      -4.700 -22.436   1.039  1.00  0.00     0.146 A 
ATOM     11  O   UNL     1      -3.437 -22.566   0.653  1.00  0.00    -0.452 OA
ENDROOT
BRANCH   1  12
ATOM     12  C   UNL     1      -1.557 -22.378  -0.845  1.00  0.00     0.029 A 
ATOM     13  C   UNL     1      -1.215 -23.201  -1.929  1.00  0.00     0.062 A 
ATOM     14  C   UNL     1       0.124 -23.417  -2.268  1.00  0.00     0.162 A 
ATOM     15  C   UNL     1      -0.535 -21.740  -0.123  1.00  0.00     0.062 A 
ATOM     16  C   UNL     1       1.145 -22.793  -1.529  1.00  0.00     0.200 A 
ATOM     17  C   UNL     1       0.811 -21.948  -0.456  1.00  0.00     0.162 A 
BRANCH  14  18
ATOM     18  O   UNL     1       0.423 -24.253  -3.343  1.00  0.00    -0.504 OA
ATOM     19  H   UNL     1       0.814 -23.900  -4.208  1.00  0.00     0.293 HD
ENDBRANCH  14  18
BRANCH  16  20
ATOM     20  O   UNL     1       2.479 -23.015  -1.872  1.00  0.00    -0.502 OA
ATOM     21  H   UNL     1       2.944 -23.896  -1.691  1.00  0.00     0.293 HD
ENDBRANCH  16  20
BRANCH  17  22
ATOM     22  O   UNL     1       1.817 -21.315   0.272  1.00  0.00    -0.504 OA
ATOM     23  H   UNL     1       2.263 -21.764   1.062  1.00  0.00     0.293 HD
ENDBRANCH  17  22
ENDBRANCH   1  12
BRANCH   2  24
ATOM     24  O   UNL     1      -3.368 -20.967  -2.613  1.00  0.00    -0.502 OA
ATOM     25  H   UNL     1      -2.581 -21.375  -3.104  1.00  0.00     0.293 HD
ENDBRANCH   2  24
BRANCH   6  26
ATOM     26  O   UNL     1      -8.082 -21.325  -0.157  1.00  0.00    -0.507 OA
ATOM     27  H   UNL     1      -9.057 -21.417   0.085  1.00  0.00     0.293 HD
ENDBRANCH   6  26
BRANCH   8  28
ATOM     28  O   UNL     1      -6.731 -23.191   4.038  1.00  0.00    -0.508 OA
ATOM     29  H   UNL     1      -6.794 -24.175   4.266  1.00  0.00     0.293 HD
ENDBRANCH   8  28
TORSDOF 7
ENDMDL
MODEL 5
REMARK VINA RESULT:    -5.132      1.653      3.318
REMARK INTER + INTRA:          -6.655
REMARK INTER:                  -6.409
REMARK INTRA:                  -0.246
REMARK UNBOUND:                -0.323
REMARK SMILES O=c1c(O)c(-c2cc(O)c(O)c(O)c2)oc2cc(O)cc(O)c12
REMARK SMILES IDX 5 1 3 2 2 3 1 4 23 5 21 6 20 7 18 8 17 9 16 10 15 11 6 12
REMARK SMILES IDX 7 13 8 14 14 15 10 16 12 17 9 18 11 20 13 22 4 24 22 26
REMARK SMILES IDX 19 28
REMARK H PARENT 9 19 11 21 13 23 4 25 22 27 19 29
REMARK Flexibility Score: inf
ROOT
ATOM      1  C   UNL     1      -3.041 -22.168  -0.611  1.00  0.00     0.180 A 
ATOM      2  C   UNL     1      -3.933 -21.509  -1.474  1.00  0.00     0.208 A 
ATOM      3  C   UNL     1      -5.269 -21.345  -1.078  1.00  0.00     0.238 A 
ATOM      4  O   UNL     1      -6.050 -20.707  -1.831  1.00  0.00    -0.285 OA
ATOM      5  C   UNL     1      -5.702 -21.855   0.170  1.00  0.00     0.111 A 
ATOM      6  C   UNL     1      -7.041 -21.781   0.657  1.00  0.00     0.134 A 
ATOM      7  C   UNL     1      -7.327 -22.203   1.960  1.00  0.00     0.093 A 
ATOM      8  C   UNL     1      -6.337 -22.756   2.772  1.00  0.00     0.123 A 
ATOM      9  C   UNL     1      -5.036 -22.888   2.286  1.00  0.00     0.094 A 
ATOM     10  C   UNL     1      -4.713 -22.443   1.002  1.00  0.00     0.146 A 
ATOM     11  O   UNL     1      -3.460 -22.577   0.581  1.00  0.00    -0.452 OA
ENDROOT
BRANCH   1  12
ATOM     12  C   UNL     1      -1.623 -22.400  -0.970  1.00  0.00     0.029 A 
ATOM     13  C   UNL     1      -0.610 -21.790  -0.216  1.00  0.00     0.062 A 
ATOM     14  C   UNL     1       0.737 -22.008  -0.519  1.00  0.00     0.162 A 
ATOM     15  C   UNL     1      -1.267 -23.266  -2.018  1.00  0.00     0.062 A 
ATOM     16  C   UNL     1       1.089 -22.859  -1.581  1.00  0.00     0.200 A 
ATOM     17  C   UNL     1       0.081 -23.493  -2.329  1.00  0.00     0.162 A 
BRANCH  14  18
ATOM     18  O   UNL     1       1.714 -21.372   0.247  1.00  0.00    -0.504 OA
ATOM     19  H   UNL     1       1.512 -20.973   1.155  1.00  0.00     0.293 HD
ENDBRANCH  14  18
BRANCH  16  20
ATOM     20  O   UNL     1       2.435 -23.070  -1.879  1.00  0.00    -0.502 OA
ATOM     21  H   UNL     1       2.749 -23.856  -2.435  1.00  0.00     0.293 HD
ENDBRANCH  16  20
BRANCH  17  22
ATOM     22  O   UNL     1       0.422 -24.349  -3.374  1.00  0.00    -0.504 OA
ATOM     23  H   UNL     1      -0.037 -24.296  -4.276  1.00  0.00     0.293 HD
ENDBRANCH  17  22
ENDBRANCH   1  12
BRANCH   2  24
ATOM     24  O   UNL     1      -3.480 -20.994  -2.693  1.00  0.00    -0.502 OA
ATOM     25  H   UNL     1      -4.080 -20.913  -3.506  1.00  0.00     0.293 HD
ENDBRANCH   2  24
BRANCH   6  26
ATOM     26  O   UNL     1      -8.124 -21.331  -0.105  1.00  0.00    -0.507 OA
ATOM     27  H   UNL     1      -8.303 -21.596  -1.062  1.00  0.00     0.293 HD
ENDBRANCH   6  26
BRANCH   8  28
ATOM     28  O   UNL     1      -6.660 -23.180   4.059  1.00  0.00    -0.508 OA
ATOM     29  H   UNL     1      -6.536 -22.577   4.863  1.00  0.00     0.293 HD
ENDBRANCH   8  28
TORSDOF 7
ENDMDL
MODEL 6
REMARK VINA RESULT:    -4.856      1.438      7.068
REMARK INTER + INTRA:          -6.314
REMARK INTER:                  -5.970
REMARK INTRA:                  -0.344
REMARK UNBOUND:                -0.323
REMARK SMILES O=c1c(O)c(-c2cc(O)c(O)c(O)c2)oc2cc(O)cc(O)c12
REMARK SMILES IDX 5 1 3 2 2 3 1 4 23 5 21 6 20 7 18 8 17 9 16 10 15 11 6 12
REMARK SMILES IDX 7 13 8 14 14 15 10 16 12 17 9 18 11 20 13 22 4 24 22 26
REMARK SMILES IDX 19 28
REMARK H PARENT 9 19 11 21 13 23 4 25 22 27 19 29
REMARK Flexibility Score: inf
ROOT
ATOM      1  C   UNL     1      -1.593 -22.829  -0.868  1.00  0.00     0.180 A 
ATOM      2  C   UNL     1      -0.835 -21.804  -0.275  1.00  0.00     0.208 A 
ATOM      3  C   UNL     1       0.513 -21.656  -0.637  1.00  0.00     0.238 A 
ATOM      4  O   UNL     1       1.171 -20.704  -0.143  1.00  0.00    -0.285 OA
ATOM      5  C   UNL     1       1.092 -22.544  -1.575  1.00  0.00     0.111 A 
ATOM      6  C   UNL     1       2.458 -22.513  -1.986  1.00  0.00     0.134 A 
ATOM      7  C   UNL     1       2.890 -23.356  -3.016  1.00  0.00     0.093 A 
ATOM      8  C   UNL     1       2.022 -24.274  -3.606  1.00  0.00     0.123 A 
ATOM      9  C   UNL     1       0.698 -24.356  -3.172  1.00  0.00     0.094 A 
ATOM     10  C   UNL     1       0.230 -23.503  -2.170  1.00  0.00     0.146 A 
ATOM     11  O   UNL     1      -1.039 -23.604  -1.794  1.00  0.00    -0.452 OA
ENDROOT
BRANCH   1  12
ATOM     12  C   UNL     1      -3.013 -23.062  -0.519  1.00  0.00     0.029 A 
ATOM     13  C   UNL     1      -3.329 -23.797   0.633  1.00  0.00     0.062 A 
ATOM     14  C   UNL     1      -4.661 -24.014   0.999  1.00  0.00     0.162 A 
ATOM     15  C   UNL     1      -4.053 -22.513  -1.287  1.00  0.00     0.062 A 
ATOM     16  C   UNL     1      -5.700 -23.480   0.217  1.00  0.00     0.200 A 
ATOM     17  C   UNL     1      -5.392 -22.723  -0.928  1.00  0.00     0.162 A 
BRANCH  14  18
ATOM     18  O   UNL     1      -4.935 -24.761   2.144  1.00  0.00    -0.504 OA
ATOM     19  H   UNL     1      -4.324 -24.754   2.952  1.00  0.00     0.293 HD
ENDBRANCH  14  18
BRANCH  16  20
ATOM     20  O   UNL     1      -7.027 -23.703   0.587  1.00  0.00    -0.502 OA
ATOM     21  H   UNL     1      -7.761 -23.032   0.397  1.00  0.00     0.293 HD
ENDBRANCH  16  20
BRANCH  17  22
ATOM     22  O   UNL     1      -6.417 -22.179  -1.700  1.00  0.00    -0.504 OA
ATOM     23  H   UNL     1      -7.031 -22.762  -2.255  1.00  0.00     0.293 HD
ENDBRANCH  17  22
ENDBRANCH   1  12
BRANCH   2  24
ATOM     24  O   UNL     1      -1.433 -20.925   0.633  1.00  0.00    -0.502 OA
ATOM     25  H   UNL     1      -1.409 -21.078   1.634  1.00  0.00     0.293 HD
ENDBRANCH   2  24
BRANCH   6  26
ATOM     26  O   UNL     1       3.431 -21.698  -1.398  1.00  0.00    -0.507 OA
ATOM     27  H   UNL     1       3.911 -20.946  -1.870  1.00  0.00     0.293 HD
ENDBRANCH   6  26
BRANCH   8  28
ATOM     28  O   UNL     1       2.490 -25.109  -4.619  1.00  0.00    -0.508 OA
ATOM     29  H   UNL     1       2.796 -26.055  -4.427  1.00  0.00     0.293 HD
ENDBRANCH   8  28
TORSDOF 7
ENDMDL
MODEL 7
REMARK VINA RESULT:    -4.817      3.100      5.241
REMARK INTER + INTRA:          -6.265
REMARK INTER:                  -5.945
REMARK INTRA:                  -0.320
REMARK UNBOUND:                -0.323
REMARK SMILES O=c1c(O)c(-c2cc(O)c(O)c(O)c2)oc2cc(O)cc(O)c12
REMARK SMILES IDX 5 1 3 2 2 3 1 4 23 5 21 6 20 7 18 8 17 9 16 10 15 11 6 12
REMARK SMILES IDX 7 13 8 14 14 15 10 16 12 17 9 18 11 20 13 22 4 24 22 26
REMARK SMILES IDX 19 28
REMARK H PARENT 9 19 11 21 13 23 4 25 22 27 19 29
REMARK Flexibility Score: inf
ROOT
ATOM      1  C   UNL     1      -1.494 -23.271  -2.608  1.00  0.00     0.180 A 
ATOM      2  C   UNL     1      -0.978 -24.197  -3.530  1.00  0.00     0.208 A 
ATOM      3  C   UNL     1      -1.600 -24.333  -4.781  1.00  0.00     0.238 A 
ATOM      4  O   UNL     1      -1.101 -25.125  -5.623  1.00  0.00    -0.285 OA
ATOM      5  C   UNL     1      -2.741 -23.553  -5.088  1.00  0.00     0.111 A 
ATOM      6  C   UNL     1      -3.476 -23.636  -6.309  1.00  0.00     0.134 A 
ATOM      7  C   UNL     1      -4.509 -22.725  -6.557  1.00  0.00     0.093 A 
ATOM      8  C   UNL     1      -4.877 -21.776  -5.604  1.00  0.00     0.123 A 
ATOM      9  C   UNL     1      -4.204 -21.724  -4.382  1.00  0.00     0.094 A 
ATOM     10  C   UNL     1      -3.146 -22.597  -4.120  1.00  0.00     0.146 A 
ATOM     11  O   UNL     1      -2.525 -22.507  -2.950  1.00  0.00    -0.452 OA
ENDROOT
BRANCH   1  12
ATOM     12  C   UNL     1      -0.906 -23.089  -1.261  1.00  0.00     0.029 A 
ATOM     13  C   UNL     1       0.247 -22.305  -1.111  1.00  0.00     0.062 A 
ATOM     14  C   UNL     1       0.812 -22.098   0.152  1.00  0.00     0.162 A 
ATOM     15  C   UNL     1      -1.512 -23.639  -0.119  1.00  0.00     0.062 A 
ATOM     16  C   UNL     1       0.214 -22.668   1.290  1.00  0.00     0.200 A 
ATOM     17  C   UNL     1      -0.955 -23.437   1.152  1.00  0.00     0.162 A 
BRANCH  14  18
ATOM     18  O   UNL     1       1.966 -21.324   0.257  1.00  0.00    -0.504 OA
ATOM     19  H   UNL     1       2.878 -21.734   0.419  1.00  0.00     0.293 HD
ENDBRANCH  14  18
BRANCH  16  20
ATOM     20  O   UNL     1       0.785 -22.459   2.546  1.00  0.00    -0.502 OA
ATOM     21  H   UNL     1       1.694 -22.831   2.795  1.00  0.00     0.293 HD
ENDBRANCH  16  20
BRANCH  17  22
ATOM     22  O   UNL     1      -1.561 -23.992   2.277  1.00  0.00    -0.504 OA
ATOM     23  H   UNL     1      -2.359 -24.611   2.200  1.00  0.00     0.293 HD
ENDBRANCH  17  22
ENDBRANCH   1  12
BRANCH   2  24
ATOM     24  O   UNL     1       0.163 -24.942  -3.215  1.00  0.00    -0.502 OA
ATOM     25  H   UNL     1       0.495 -25.701  -3.798  1.00  0.00     0.293 HD
ENDBRANCH   2  24
BRANCH   6  26
ATOM     26  O   UNL     1      -3.251 -24.607  -7.290  1.00  0.00    -0.507 OA
ATOM     27  H   UNL     1      -3.104 -25.587  -7.105  1.00  0.00     0.293 HD
ENDBRANCH   6  26
BRANCH   8  28
ATOM     28  O   UNL     1      -5.921 -20.895  -5.878  1.00  0.00    -0.508 OA
ATOM     29  H   UNL     1      -6.385 -20.886  -6.777  1.00  0.00     0.293 HD
ENDBRANCH   8  28
TORSDOF 7
ENDMDL
MODEL 8
REMARK VINA RESULT:    -4.727      2.947      5.281
REMARK INTER + INTRA:          -6.155
REMARK INTER:                  -5.851
REMARK INTRA:                  -0.304
REMARK UNBOUND:                -0.323
REMARK SMILES O=c1c(O)c(-c2cc(O)c(O)c(O)c2)oc2cc(O)cc(O)c12
REMARK SMILES IDX 5 1 3 2 2 3 1 4 23 5 21 6 20 7 18 8 17 9 16 10 15 11 6 12
REMARK SMILES IDX 7 13 8 14 14 15 10 16 12 17 9 18 11 20 13 22 4 24 22 26
REMARK SMILES IDX 19 28
REMARK H PARENT 9 19 11 21 13 23 4 25 22 27 19 29
REMARK Flexibility Score: inf
ROOT
ATOM      1  C   UNL     1      -2.414 -22.377  -1.816  1.00  0.00     0.180 A 
ATOM      2  C   UNL     1      -3.566 -21.574  -1.738  1.00  0.00     0.208 A 
ATOM      3  C   UNL     1      -4.338 -21.375  -2.893  1.00  0.00     0.238 A 
ATOM      4  O   UNL     1      -5.397 -20.701  -2.805  1.00  0.00    -0.285 OA
ATOM      5  C   UNL     1      -3.941 -21.968  -4.116  1.00  0.00     0.111 A 
ATOM      6  C   UNL     1      -4.625 -21.802  -5.357  1.00  0.00     0.134 A 
ATOM      7  C   UNL     1      -4.218 -22.540  -6.475  1.00  0.00     0.093 A 
ATOM      8  C   UNL     1      -3.113 -23.388  -6.414  1.00  0.00     0.123 A 
ATOM      9  C   UNL     1      -2.399 -23.513  -5.221  1.00  0.00     0.094 A 
ATOM     10  C   UNL     1      -2.804 -22.817  -4.080  1.00  0.00     0.146 A 
ATOM     11  O   UNL     1      -2.105 -22.972  -2.962  1.00  0.00    -0.452 OA
ENDROOT
BRANCH   1  12
ATOM     12  C   UNL     1      -1.537 -22.612  -0.646  1.00  0.00     0.029 A 
ATOM     13  C   UNL     1      -0.337 -21.895  -0.527  1.00  0.00     0.062 A 
ATOM     14  C   UNL     1       0.500 -22.081   0.577  1.00  0.00     0.162 A 
ATOM     15  C   UNL     1      -1.909 -23.498   0.379  1.00  0.00     0.062 A 
ATOM     16  C   UNL     1       0.135 -22.984   1.591  1.00  0.00     0.200 A 
ATOM     17  C   UNL     1      -1.077 -23.690   1.491  1.00  0.00     0.162 A 
BRANCH  14  18
ATOM     18  O   UNL     1       1.691 -21.359   0.651  1.00  0.00    -0.504 OA
ATOM     19  H   UNL     1       1.756 -20.394   0.353  1.00  0.00     0.293 HD
ENDBRANCH  14  18
BRANCH  16  20
ATOM     20  O   UNL     1       0.976 -23.166   2.688  1.00  0.00    -0.502 OA
ATOM     21  H   UNL     1       0.702 -22.908   3.628  1.00  0.00     0.293 HD
ENDBRANCH  16  20
BRANCH  17  22
ATOM     22  O   UNL     1      -1.453 -24.576   2.499  1.00  0.00    -0.504 OA
ATOM     23  H   UNL     1      -2.100 -25.335   2.325  1.00  0.00     0.293 HD
ENDBRANCH  17  22
ENDBRANCH   1  12
BRANCH   2  24
ATOM     24  O   UNL     1      -3.951 -21.016  -0.515  1.00  0.00    -0.502 OA
ATOM     25  H   UNL     1      -3.813 -21.492   0.368  1.00  0.00     0.293 HD
ENDBRANCH   2  24
BRANCH   6  26
ATOM     26  O   UNL     1      -5.685 -20.911  -5.551  1.00  0.00    -0.507 OA
ATOM     27  H   UNL     1      -5.702 -19.958  -5.220  1.00  0.00     0.293 HD
ENDBRANCH   6  26
BRANCH   8  28
ATOM     28  O   UNL     1      -2.726 -24.096  -7.551  1.00  0.00    -0.508 OA
ATOM     29  H   UNL     1      -3.118 -25.003  -7.769  1.00  0.00     0.293 HD
ENDBRANCH   8  28
TORSDOF 7
ENDMDL
MODEL 9
REMARK VINA RESULT:    -4.709      1.483      7.219
REMARK INTER + INTRA:          -6.133
REMARK INTER:                  -5.765
REMARK INTRA:                  -0.368
REMARK UNBOUND:                -0.323
REMARK SMILES O=c1c(O)c(-c2cc(O)c(O)c(O)c2)oc2cc(O)cc(O)c12
REMARK SMILES IDX 5 1 3 2 2 3 1 4 23 5 21 6 20 7 18 8 17 9 16 10 15 11 6 12
REMARK SMILES IDX 7 13 8 14 14 15 10 16 12 17 9 18 11 20 13 22 4 24 22 26
REMARK SMILES IDX 19 28
REMARK H PARENT 9 19 11 21 13 23 4 25 22 27 19 29
REMARK Flexibility Score: inf
ROOT
ATOM      1  C   UNL     1      -2.654 -22.955  -0.531  1.00  0.00     0.180 A 
ATOM      2  C   UNL     1      -2.712 -23.935  -1.538  1.00  0.00     0.208 A 
ATOM      3  C   UNL     1      -1.560 -24.208  -2.292  1.00  0.00     0.238 A 
ATOM      4  O   UNL     1      -1.604 -25.123  -3.154  1.00  0.00    -0.285 OA
ATOM      5  C   UNL     1      -0.368 -23.487  -2.041  1.00  0.00     0.111 A 
ATOM      6  C   UNL     1       0.848 -23.653  -2.770  1.00  0.00     0.134 A 
ATOM      7  C   UNL     1       2.002 -22.981  -2.350  1.00  0.00     0.093 A 
ATOM      8  C   UNL     1       1.970 -22.100  -1.270  1.00  0.00     0.123 A 
ATOM      9  C   UNL     1       0.772 -21.884  -0.587  1.00  0.00     0.094 A 
ATOM     10  C   UNL     1      -0.387 -22.568  -0.960  1.00  0.00     0.146 A 
ATOM     11  O   UNL     1      -1.503 -22.343  -0.276  1.00  0.00    -0.452 OA
ENDROOT
BRANCH   1  12
ATOM     12  C   UNL     1      -3.834 -22.595   0.288  1.00  0.00     0.029 A 
ATOM     13  C   UNL     1      -4.015 -23.200   1.540  1.00  0.00     0.062 A 
ATOM     14  C   UNL     1      -5.108 -22.864   2.345  1.00  0.00     0.162 A 
ATOM     15  C   UNL     1      -4.747 -21.616  -0.137  1.00  0.00     0.062 A 
ATOM     16  C   UNL     1      -6.032 -21.898   1.906  1.00  0.00     0.200 A 
ATOM     17  C   UNL     1      -5.845 -21.270   0.662  1.00  0.00     0.162 A 
BRANCH  14  18
ATOM     18  O   UNL     1      -5.261 -23.498   3.577  1.00  0.00    -0.504 OA
ATOM     19  H   UNL     1      -6.171 -23.665   3.988  1.00  0.00     0.293 HD
ENDBRANCH  14  18
BRANCH  16  20
ATOM     20  O   UNL     1      -7.122 -21.570   2.713  1.00  0.00    -0.502 OA
ATOM     21  H   UNL     1      -7.652 -22.271   3.217  1.00  0.00     0.293 HD
ENDBRANCH  16  20
BRANCH  17  22
ATOM     22  O   UNL     1      -6.749 -20.302   0.228  1.00  0.00    -0.504 OA
ATOM     23  H   UNL     1      -7.202 -20.366  -0.675  1.00  0.00     0.293 HD
ENDBRANCH  17  22
ENDBRANCH   1  12
BRANCH   2  24
ATOM     24  O   UNL     1      -3.895 -24.650  -1.754  1.00  0.00    -0.502 OA
ATOM     25  H   UNL     1      -3.900 -25.595  -2.118  1.00  0.00     0.293 HD
ENDBRANCH   2  24
BRANCH   6  26
ATOM     26  O   UNL     1       0.967 -24.438  -3.920  1.00  0.00    -0.507 OA
ATOM     27  H   UNL     1       1.803 -24.514  -4.480  1.00  0.00     0.293 HD
ENDBRANCH   6  26
BRANCH   8  28
ATOM     28  O   UNL     1       3.134 -21.435  -0.890  1.00  0.00    -0.508 OA
ATOM     29  H   UNL     1       3.796 -21.092  -1.575  1.00  0.00     0.293 HD
ENDBRANCH   8  28
TORSDOF 7
ENDMDL
