MODEL 1
REMARK VINA RESULT:    -3.234      0.000      0.000
REMARK INTER + INTRA:          -4.102
REMARK INTER:                  -3.990
REMARK INTRA:                  -0.113
REMARK UNBOUND:                -0.113
REMARK SMILES CCCCCC(=O)[O-]
REMARK SMILES IDX 4 1 5 2 6 3 7 4 8 5 3 6 2 7 1 8
REMARK H PARENT
REMARK Flexibility Score: inf
ROOT
ATOM      1  C   UNL     1      -3.438 -13.658   5.877  1.00  0.00     0.006 C 
ENDROOT
BRANCH   1   2
ATOM      2  C   UNL     1      -4.478 -13.294   6.944  1.00  0.00     0.053 C 
BRANCH   2   3
ATOM      3  C   UNL     1      -5.827 -13.863   6.623  1.00  0.00     0.041 C 
ATOM      4  O   UNL     1      -6.154 -15.001   7.051  1.00  0.00    -0.550 OA
ATOM      5  O   UNL     1      -6.734 -13.122   5.875  1.00  0.00    -0.550 OA
ENDBRANCH   2   3
ENDBRANCH   1   2
BRANCH   1   6
ATOM      6  C   UNL     1      -2.263 -14.461   6.461  1.00  0.00     0.000 C 
BRANCH   6   7
ATOM      7  C   UNL     1      -1.868 -13.988   7.869  1.00  0.00    -0.003 C 
ATOM      8  C   UNL     1      -0.355 -13.982   8.088  1.00  0.00     0.004 C 
ENDBRANCH   6   7
ENDBRANCH   1   6
TORSDOF 4
ENDMDL
MODEL 2
REMARK VINA RESULT:    -3.129      2.627      4.443
REMARK INTER + INTRA:          -3.973
REMARK INTER:                  -3.948
REMARK INTRA:                  -0.025
REMARK UNBOUND:                -0.113
REMARK SMILES CCCCCC(=O)[O-]
REMARK SMILES IDX 4 1 5 2 6 3 7 4 8 5 3 6 2 7 1 8
REMARK H PARENT
REMARK Flexibility Score: inf
ROOT
ATOM      1  C   UNL     1      -4.047 -13.911   6.280  1.00  0.00     0.006 C 
ENDROOT
BRANCH   1   2
ATOM      2  C   UNL     1      -2.593 -14.375   6.432  1.00  0.00     0.053 C 
BRANCH   2   3
ATOM      3  C   UNL     1      -1.956 -13.813   7.667  1.00  0.00     0.041 C 
ATOM      4  O   UNL     1      -2.644 -13.169   8.500  1.00  0.00    -0.550 OA
ATOM      5  O   UNL     1      -0.604 -14.028   7.910  1.00  0.00    -0.550 OA
ENDBRANCH   2   3
ENDBRANCH   1   2
BRANCH   1   6
ATOM      6  C   UNL     1      -5.034 -14.858   6.984  1.00  0.00     0.000 C 
BRANCH   6   7
ATOM      7  C   UNL     1      -6.483 -14.348   6.929  1.00  0.00    -0.003 C 
ATOM      8  C   UNL     1      -6.687 -13.259   5.876  1.00  0.00     0.004 C 
ENDBRANCH   6   7
ENDBRANCH   1   6
TORSDOF 4
ENDMDL
MODEL 3
REMARK VINA RESULT:    -0.668      1.056      1.811
REMARK INTER + INTRA:          -0.937
REMARK INTER:                  -0.895
REMARK INTRA:                  -0.042
REMARK UNBOUND:                -0.113
REMARK SMILES CCCCCC(=O)[O-]
REMARK SMILES IDX 4 1 5 2 6 3 7 4 8 5 3 6 2 7 1 8
REMARK H PARENT
REMARK Flexibility Score: inf
ROOT
ATOM      1  C   UNL     1      -2.585 -13.953   7.641  1.00  0.00     0.006 C 
ENDROOT
BRANCH   1   2
ATOM      2  C   UNL     1      -3.478 -13.998   6.394  1.00  0.00     0.053 C 
BRANCH   2   3
ATOM      3  C   UNL     1      -4.902 -13.662   6.718  1.00  0.00     0.041 C 
ATOM      4  O   UNL     1      -5.262 -12.460   6.829  1.00  0.00    -0.550 OA
ATOM      5  O   UNL     1      -5.839 -14.677   6.869  1.00  0.00    -0.550 OA
ENDBRANCH   2   3
ENDBRANCH   1   2
BRANCH   1   6
ATOM      6  C   UNL     1      -1.100 -14.159   7.298  1.00  0.00     0.000 C 
BRANCH   6   7
ATOM      7  C   UNL     1      -0.166 -13.753   8.449  1.00  0.00    -0.003 C 
ATOM      8  C   UNL     1       1.007 -14.717   8.628  1.00  0.00     0.004 C 
ENDBRANCH   6   7
ENDBRANCH   1   6
TORSDOF 4
ENDMDL
MODEL 4
REMARK VINA RESULT:    -0.248      1.185      1.845
REMARK INTER + INTRA:          -0.419
REMARK INTER:                  -1.219
REMARK INTRA:                   0.801
REMARK UNBOUND:                -0.113
REMARK SMILES CCCCCC(=O)[O-]
REMARK SMILES IDX 4 1 5 2 6 3 7 4 8 5 3 6 2 7 1 8
REMARK H PARENT
REMARK Flexibility Score: inf
ROOT
ATOM      1  C   UNL     1      -3.115 -14.329   5.924  1.00  0.00     0.006 C 
ENDROOT
BRANCH   1   2
ATOM      2  C   UNL     1      -4.453 -13.615   6.158  1.00  0.00     0.053 C 
BRANCH   2   3
ATOM      3  C   UNL     1      -5.479 -14.535   6.744  1.00  0.00     0.041 C 
ATOM      4  O   UNL     1      -6.542 -14.072   7.234  1.00  0.00    -0.550 OA
ATOM      5  O   UNL     1      -5.274 -15.909   6.723  1.00  0.00    -0.550 OA
ENDBRANCH   2   3
ENDBRANCH   1   2
BRANCH   1   6
ATOM      6  C   UNL     1      -2.115 -14.077   7.065  1.00  0.00     0.000 C 
BRANCH   6   7
ATOM      7  C   UNL     1      -2.775 -13.437   8.297  1.00  0.00    -0.003 C 
ATOM      8  C   UNL     1      -3.154 -11.973   8.072  1.00  0.00     0.004 C 
ENDBRANCH   6   7
ENDBRANCH   1   6
TORSDOF 4
ENDMDL
