MODEL 1
REMARK VINA RESULT:    -3.098      0.000      0.000
REMARK INTER + INTRA:          -3.937
REMARK INTER:                  -3.641
REMARK INTRA:                  -0.296
REMARK UNBOUND:                -0.296
REMARK SMILES O=c1cc(-c2ccc(O)c(O)c2)oc2cc(O)cc(O)c12
REMARK SMILES IDX 4 1 3 2 2 3 1 4 21 5 19 6 18 7 16 8 15 9 14 10 13 11 5 12
REMARK SMILES IDX 6 13 7 14 8 15 12 16 10 17 9 18 11 20 20 22 17 24
REMARK H PARENT 9 19 11 21 20 23 17 25
REMARK Flexibility Score: inf
ROOT
ATOM      1  C   UNL     1      -3.014  68.272  -8.211  1.00  0.00     0.138 A 
ATOM      2  C   UNL     1      -2.089  67.782  -9.143  1.00  0.00     0.100 A 
ATOM      3  C   UNL     1      -0.744  67.672  -8.788  1.00  0.00     0.197 A 
ATOM      4  O   UNL     1       0.053  67.171  -9.622  1.00  0.00    -0.289 OA
ATOM      5  C   UNL     1      -0.320  68.084  -7.501  1.00  0.00     0.107 A 
ATOM      6  C   UNL     1       1.031  68.056  -7.042  1.00  0.00     0.134 A 
ATOM      7  C   UNL     1       1.314  68.380  -5.710  1.00  0.00     0.093 A 
ATOM      8  C   UNL     1       0.302  68.789  -4.836  1.00  0.00     0.123 A 
ATOM      9  C   UNL     1      -1.012  68.871  -5.290  1.00  0.00     0.094 A 
ATOM     10  C   UNL     1      -1.331  68.522  -6.604  1.00  0.00     0.146 A 
ATOM     11  O   UNL     1      -2.600  68.601  -6.992  1.00  0.00    -0.456 OA
ENDROOT
BRANCH   1  12
ATOM     12  C   UNL     1      -4.456  68.410  -8.538  1.00  0.00     0.021 A 
ATOM     13  C   UNL     1      -4.889  68.931  -9.773  1.00  0.00     0.016 A 
ATOM     14  C   UNL     1      -6.252  69.060 -10.049  1.00  0.00     0.051 A 
ATOM     15  C   UNL     1      -7.205  68.680  -9.098  1.00  0.00     0.157 A 
ATOM     16  C   UNL     1      -5.421  68.044  -7.582  1.00  0.00     0.062 A 
ATOM     17  C   UNL     1      -6.790  68.172  -7.861  1.00  0.00     0.158 A 
BRANCH  15  18
ATOM     18  O   UNL     1      -8.566  68.806  -9.370  1.00  0.00    -0.504 OA
ATOM     19  H   UNL     1      -9.241  68.975  -8.633  1.00  0.00     0.293 HD
ENDBRANCH  15  18
BRANCH  17  20
ATOM     20  O   UNL     1      -7.741  67.798  -6.913  1.00  0.00    -0.504 OA
ATOM     21  H   UNL     1      -7.788  68.245  -6.005  1.00  0.00     0.293 HD
ENDBRANCH  17  20
ENDBRANCH   1  12
BRANCH   6  22
ATOM     22  O   UNL     1       2.125  67.744  -7.855  1.00  0.00    -0.507 OA
ATOM     23  H   UNL     1       2.080  67.189  -8.695  1.00  0.00     0.293 HD
ENDBRANCH   6  22
BRANCH   8  24
ATOM     24  O   UNL     1       0.596  69.123  -3.516  1.00  0.00    -0.508 OA
ATOM     25  H   UNL     1       1.457  68.823  -3.072  1.00  0.00     0.293 HD
ENDBRANCH   8  24
TORSDOF 5
ENDMDL
MODEL 2
REMARK VINA RESULT:    -2.955      5.247      7.523
REMARK INTER + INTRA:          -3.769
REMARK INTER:                  -3.452
REMARK INTRA:                  -0.317
REMARK UNBOUND:                -0.296
REMARK SMILES O=c1cc(-c2ccc(O)c(O)c2)oc2cc(O)cc(O)c12
REMARK SMILES IDX 4 1 3 2 2 3 1 4 21 5 19 6 18 7 16 8 15 9 14 10 13 11 5 12
REMARK SMILES IDX 6 13 7 14 8 15 12 16 10 17 9 18 11 20 20 22 17 24
REMARK H PARENT 9 19 11 21 20 23 17 25
REMARK Flexibility Score: inf
ROOT
ATOM      1  C   UNL     1       1.613  64.175  -7.457  1.00  0.00     0.138 A 
ATOM      2  C   UNL     1       1.822  64.746  -8.720  1.00  0.00     0.100 A 
ATOM      3  C   UNL     1       1.744  66.131  -8.872  1.00  0.00     0.197 A 
ATOM      4  O   UNL     1       1.998  66.621 -10.002  1.00  0.00    -0.289 OA
ATOM      5  C   UNL     1       1.423  66.944  -7.758  1.00  0.00     0.107 A 
ATOM      6  C   UNL     1       1.276  68.363  -7.802  1.00  0.00     0.134 A 
ATOM      7  C   UNL     1       1.072  69.074  -6.613  1.00  0.00     0.093 A 
ATOM      8  C   UNL     1       0.949  68.410  -5.389  1.00  0.00     0.123 A 
ATOM      9  C   UNL     1       1.038  67.021  -5.343  1.00  0.00     0.094 A 
ATOM     10  C   UNL     1       1.275  66.287  -6.507  1.00  0.00     0.146 A 
ATOM     11  O   UNL     1       1.367  64.964  -6.417  1.00  0.00    -0.456 OA
ENDROOT
BRANCH   1  12
ATOM     12  C   UNL     1       1.683  62.708  -7.240  1.00  0.00     0.021 A 
ATOM     13  C   UNL     1       2.078  61.826  -8.265  1.00  0.00     0.016 A 
ATOM     14  C   UNL     1       2.125  60.448  -8.036  1.00  0.00     0.051 A 
ATOM     15  C   UNL     1       1.772  59.927  -6.785  1.00  0.00     0.157 A 
ATOM     16  C   UNL     1       1.317  62.173  -5.991  1.00  0.00     0.062 A 
ATOM     17  C   UNL     1       1.366  60.791  -5.761  1.00  0.00     0.158 A 
BRANCH  15  18
ATOM     18  O   UNL     1       1.819  58.554  -6.553  1.00  0.00    -0.504 OA
ATOM     19  H   UNL     1       1.292  57.902  -7.123  1.00  0.00     0.293 HD
ENDBRANCH  15  18
BRANCH  17  20
ATOM     20  O   UNL     1       1.011  60.269  -4.518  1.00  0.00    -0.504 OA
ATOM     21  H   UNL     1       1.499  59.478  -4.117  1.00  0.00     0.293 HD
ENDBRANCH  17  20
ENDBRANCH   1  12
BRANCH   6  22
ATOM     22  O   UNL     1       1.297  69.114  -8.982  1.00  0.00    -0.507 OA
ATOM     23  H   UNL     1       2.013  69.057  -9.689  1.00  0.00     0.293 HD
ENDBRANCH   6  22
BRANCH   8  24
ATOM     24  O   UNL     1       0.731  69.125  -4.213  1.00  0.00    -0.508 OA
ATOM     25  H   UNL     1       1.138  70.041  -4.066  1.00  0.00     0.293 HD
ENDBRANCH   8  24
TORSDOF 5
ENDMDL
MODEL 3
REMARK VINA RESULT:    -2.680      1.197      2.742
REMARK INTER + INTRA:          -3.446
REMARK INTER:                  -3.170
REMARK INTRA:                  -0.277
REMARK UNBOUND:                -0.296
REMARK SMILES O=c1cc(-c2ccc(O)c(O)c2)oc2cc(O)cc(O)c12
REMARK SMILES IDX 4 1 3 2 2 3 1 4 21 5 19 6 18 7 16 8 15 9 14 10 13 11 5 12
REMARK SMILES IDX 6 13 7 14 8 15 12 16 10 17 9 18 11 20 20 22 17 24
REMARK H PARENT 9 19 11 21 20 23 17 25
REMARK Flexibility Score: inf
ROOT
ATOM      1  C   UNL     1      -3.040  68.302  -7.635  1.00  0.00     0.138 A 
ATOM      2  C   UNL     1      -2.592  68.673  -6.359  1.00  0.00     0.100 A 
ATOM      3  C   UNL     1      -1.247  68.511  -6.026  1.00  0.00     0.197 A 
ATOM      4  O   UNL     1      -0.861  68.910  -4.897  1.00  0.00    -0.289 OA
ATOM      5  C   UNL     1      -0.352  67.947  -6.967  1.00  0.00     0.107 A 
ATOM      6  C   UNL     1       1.032  67.698  -6.725  1.00  0.00     0.134 A 
ATOM      7  C   UNL     1       1.845  67.242  -7.770  1.00  0.00     0.093 A 
ATOM      8  C   UNL     1       1.311  66.971  -9.033  1.00  0.00     0.123 A 
ATOM      9  C   UNL     1      -0.050  67.160  -9.264  1.00  0.00     0.094 A 
ATOM     10  C   UNL     1      -0.880  67.645  -8.251  1.00  0.00     0.146 A 
ATOM     11  O   UNL     1      -2.169  67.825  -8.518  1.00  0.00    -0.456 OA
ENDROOT
BRANCH   1  12
ATOM     12  C   UNL     1      -4.460  68.451  -8.040  1.00  0.00     0.021 A 
ATOM     13  C   UNL     1      -4.821  68.986  -9.292  1.00  0.00     0.016 A 
ATOM     14  C   UNL     1      -6.166  69.125  -9.643  1.00  0.00     0.051 A 
ATOM     15  C   UNL     1      -7.173  68.739  -8.750  1.00  0.00     0.157 A 
ATOM     16  C   UNL     1      -5.480  68.079  -7.144  1.00  0.00     0.062 A 
ATOM     17  C   UNL     1      -6.829  68.217  -7.497  1.00  0.00     0.158 A 
BRANCH  15  18
ATOM     18  O   UNL     1      -8.516  68.875  -9.097  1.00  0.00    -0.504 OA
ATOM     19  H   UNL     1      -8.907  69.773  -9.360  1.00  0.00     0.293 HD
ENDBRANCH  15  18
BRANCH  17  20
ATOM     20  O   UNL     1      -7.834  67.838  -6.608  1.00  0.00    -0.504 OA
ATOM     21  H   UNL     1      -8.661  68.407  -6.470  1.00  0.00     0.293 HD
ENDBRANCH  17  20
ENDBRANCH   1  12
BRANCH   6  22
ATOM     22  O   UNL     1       1.647  67.855  -5.479  1.00  0.00    -0.507 OA
ATOM     23  H   UNL     1       1.591  68.684  -4.909  1.00  0.00     0.293 HD
ENDBRANCH   6  22
BRANCH   8  24
ATOM     24  O   UNL     1       2.125  66.505 -10.063  1.00  0.00    -0.508 OA
ATOM     25  H   UNL     1       1.798  65.810 -10.724  1.00  0.00     0.293 HD
ENDBRANCH   8  24
TORSDOF 5
ENDMDL
MODEL 4
REMARK VINA RESULT:    -2.327      2.165      3.087
REMARK INTER + INTRA:          -3.031
REMARK INTER:                  -2.767
REMARK INTRA:                  -0.264
REMARK UNBOUND:                -0.296
REMARK SMILES O=c1cc(-c2ccc(O)c(O)c2)oc2cc(O)cc(O)c12
REMARK SMILES IDX 4 1 3 2 2 3 1 4 21 5 19 6 18 7 16 8 15 9 14 10 13 11 5 12
REMARK SMILES IDX 6 13 7 14 8 15 12 16 10 17 9 18 11 20 20 22 17 24
REMARK H PARENT 9 19 11 21 20 23 17 25
REMARK Flexibility Score: inf
ROOT
ATOM      1  C   UNL     1      -2.411  68.066  -7.074  1.00  0.00     0.138 A 
ATOM      2  C   UNL     1      -1.953  68.774  -8.195  1.00  0.00     0.100 A 
ATOM      3  C   UNL     1      -0.711  68.462  -8.747  1.00  0.00     0.197 A 
ATOM      4  O   UNL     1      -0.354  69.070  -9.789  1.00  0.00    -0.289 OA
ATOM      5  C   UNL     1       0.090  67.456  -8.155  1.00  0.00     0.107 A 
ATOM      6  C   UNL     1       1.391  67.081  -8.609  1.00  0.00     0.134 A 
ATOM      7  C   UNL     1       2.042  65.992  -8.015  1.00  0.00     0.093 A 
ATOM      8  C   UNL     1       1.464  65.303  -6.945  1.00  0.00     0.123 A 
ATOM      9  C   UNL     1       0.218  65.696  -6.461  1.00  0.00     0.094 A 
ATOM     10  C   UNL     1      -0.471  66.757  -7.054  1.00  0.00     0.146 A 
ATOM     11  O   UNL     1      -1.663  67.089  -6.570  1.00  0.00    -0.456 OA
ENDROOT
BRANCH   1  12
ATOM     12  C   UNL     1      -3.723  68.358  -6.445  1.00  0.00     0.021 A 
ATOM     13  C   UNL     1      -3.820  68.868  -5.136  1.00  0.00     0.016 A 
ATOM     14  C   UNL     1      -5.070  69.123  -4.565  1.00  0.00     0.051 A 
ATOM     15  C   UNL     1      -6.242  68.869  -5.287  1.00  0.00     0.157 A 
ATOM     16  C   UNL     1      -4.907  68.093  -7.157  1.00  0.00     0.062 A 
ATOM     17  C   UNL     1      -6.161  68.351  -6.585  1.00  0.00     0.158 A 
BRANCH  15  18
ATOM     18  O   UNL     1      -7.490  69.124  -4.721  1.00  0.00    -0.504 OA
ATOM     19  H   UNL     1      -8.000  69.976  -4.925  1.00  0.00     0.293 HD
ENDBRANCH  15  18
BRANCH  17  20
ATOM     20  O   UNL     1      -7.330  68.095  -7.300  1.00  0.00    -0.504 OA
ATOM     21  H   UNL     1      -7.316  67.577  -8.170  1.00  0.00     0.293 HD
ENDBRANCH  17  20
ENDBRANCH   1  12
BRANCH   6  22
ATOM     22  O   UNL     1       2.093  67.756  -9.612  1.00  0.00    -0.507 OA
ATOM     23  H   UNL     1       1.741  68.545 -10.131  1.00  0.00     0.293 HD
ENDBRANCH   6  22
BRANCH   8  24
ATOM     24  O   UNL     1       2.125  64.231  -6.351  1.00  0.00    -0.508 OA
ATOM     25  H   UNL     1       1.677  63.655  -5.648  1.00  0.00     0.293 HD
ENDBRANCH   8  24
TORSDOF 5
ENDMDL
MODEL 5
REMARK VINA RESULT:    -2.308      1.408      3.157
REMARK INTER + INTRA:          -3.009
REMARK INTER:                  -2.708
REMARK INTRA:                  -0.301
REMARK UNBOUND:                -0.296
REMARK SMILES O=c1cc(-c2ccc(O)c(O)c2)oc2cc(O)cc(O)c12
REMARK SMILES IDX 4 1 3 2 2 3 1 4 21 5 19 6 18 7 16 8 15 9 14 10 13 11 5 12
REMARK SMILES IDX 6 13 7 14 8 15 12 16 10 17 9 18 11 20 20 22 17 24
REMARK H PARENT 9 19 11 21 20 23 17 25
REMARK Flexibility Score: inf
ROOT
ATOM      1  C   UNL     1      -2.799  68.117  -7.039  1.00  0.00     0.138 A 
ATOM      2  C   UNL     1      -2.225  68.558  -5.838  1.00  0.00     0.100 A 
ATOM      3  C   UNL     1      -0.846  68.454  -5.654  1.00  0.00     0.197 A 
ATOM      4  O   UNL     1      -0.351  68.914  -4.593  1.00  0.00    -0.289 OA
ATOM      5  C   UNL     1      -0.042  67.878  -6.667  1.00  0.00     0.107 A 
ATOM      6  C   UNL     1       1.369  67.684  -6.574  1.00  0.00     0.134 A 
ATOM      7  C   UNL     1       2.076  67.211  -7.685  1.00  0.00     0.093 A 
ATOM      8  C   UNL     1       1.415  66.867  -8.868  1.00  0.00     0.123 A 
ATOM      9  C   UNL     1       0.031  67.003  -8.951  1.00  0.00     0.094 A 
ATOM     10  C   UNL     1      -0.699  67.504  -7.870  1.00  0.00     0.146 A 
ATOM     11  O   UNL     1      -2.015  67.630  -7.996  1.00  0.00    -0.456 OA
ENDROOT
BRANCH   1  12
ATOM     12  C   UNL     1      -4.260  68.203  -7.287  1.00  0.00     0.021 A 
ATOM     13  C   UNL     1      -5.200  67.954  -6.267  1.00  0.00     0.016 A 
ATOM     14  C   UNL     1      -6.570  68.032  -6.531  1.00  0.00     0.051 A 
ATOM     15  C   UNL     1      -7.025  68.350  -7.815  1.00  0.00     0.157 A 
ATOM     16  C   UNL     1      -4.728  68.509  -8.578  1.00  0.00     0.062 A 
ATOM     17  C   UNL     1      -6.103  68.588  -8.842  1.00  0.00     0.158 A 
BRANCH  15  18
ATOM     18  O   UNL     1      -8.391  68.429  -8.082  1.00  0.00    -0.504 OA
ATOM     19  H   UNL     1      -8.779  69.180  -8.642  1.00  0.00     0.293 HD
ENDBRANCH  15  18
BRANCH  17  20
ATOM     20  O   UNL     1      -6.559  68.900 -10.121  1.00  0.00    -0.504 OA
ATOM     21  H   UNL     1      -6.237  69.726 -10.612  1.00  0.00     0.293 HD
ENDBRANCH  17  20
ENDBRANCH   1  12
BRANCH   6  22
ATOM     22  O   UNL     1       2.114  67.915  -5.413  1.00  0.00    -0.507 OA
ATOM     23  H   UNL     1       2.552  68.791  -5.174  1.00  0.00     0.293 HD
ENDBRANCH   6  22
BRANCH   8  24
ATOM     24  O   UNL     1       2.125  66.383  -9.964  1.00  0.00    -0.508 OA
ATOM     25  H   UNL     1       2.127  65.398 -10.202  1.00  0.00     0.293 HD
ENDBRANCH   8  24
TORSDOF 5
ENDMDL
MODEL 6
REMARK VINA RESULT:    -1.397      4.286      7.348
REMARK INTER + INTRA:          -1.939
REMARK INTER:                  -1.676
REMARK INTRA:                  -0.263
REMARK UNBOUND:                -0.296
REMARK SMILES O=c1cc(-c2ccc(O)c(O)c2)oc2cc(O)cc(O)c12
REMARK SMILES IDX 4 1 3 2 2 3 1 4 21 5 19 6 18 7 16 8 15 9 14 10 13 11 5 12
REMARK SMILES IDX 6 13 7 14 8 15 12 16 10 17 9 18 11 20 20 22 17 24
REMARK H PARENT 9 19 11 21 20 23 17 25
REMARK Flexibility Score: inf
ROOT
ATOM      1  C   UNL     1       0.584  65.119  -6.348  1.00  0.00     0.138 A 
ATOM      2  C   UNL     1       1.372  65.645  -7.382  1.00  0.00     0.100 A 
ATOM      3  C   UNL     1       0.949  66.789  -8.059  1.00  0.00     0.197 A 
ATOM      4  O   UNL     1       1.706  67.273  -8.939  1.00  0.00    -0.289 OA
ATOM      5  C   UNL     1      -0.287  67.391  -7.719  1.00  0.00     0.107 A 
ATOM      6  C   UNL     1      -0.838  68.536  -8.367  1.00  0.00     0.134 A 
ATOM      7  C   UNL     1      -2.013  69.114  -7.868  1.00  0.00     0.093 A 
ATOM      8  C   UNL     1      -2.686  68.552  -6.780  1.00  0.00     0.123 A 
ATOM      9  C   UNL     1      -2.184  67.402  -6.174  1.00  0.00     0.094 A 
ATOM     10  C   UNL     1      -0.997  66.823  -6.627  1.00  0.00     0.146 A 
ATOM     11  O   UNL     1      -0.545  65.736  -6.012  1.00  0.00    -0.456 OA
ENDROOT
BRANCH   1  12
ATOM     12  C   UNL     1       0.986  63.904  -5.596  1.00  0.00     0.021 A 
ATOM     13  C   UNL     1       1.747  63.983  -4.414  1.00  0.00     0.016 A 
ATOM     14  C   UNL     1       2.121  62.822  -3.732  1.00  0.00     0.051 A 
ATOM     15  C   UNL     1       1.749  61.565  -4.221  1.00  0.00     0.157 A 
ATOM     16  C   UNL     1       0.629  62.635  -6.087  1.00  0.00     0.062 A 
ATOM     17  C   UNL     1       1.003  61.470  -5.402  1.00  0.00     0.158 A 
BRANCH  15  18
ATOM     18  O   UNL     1       2.119  60.404  -3.543  1.00  0.00    -0.504 OA
ATOM     19  H   UNL     1       2.730  60.435  -2.735  1.00  0.00     0.293 HD
ENDBRANCH  15  18
BRANCH  17  20
ATOM     20  O   UNL     1       0.638  60.216  -5.890  1.00  0.00    -0.504 OA
ATOM     21  H   UNL     1      -0.327  59.991  -6.102  1.00  0.00     0.293 HD
ENDBRANCH  17  20
ENDBRANCH   1  12
BRANCH   6  22
ATOM     22  O   UNL     1      -0.291  69.125  -9.512  1.00  0.00    -0.507 OA
ATOM     23  H   UNL     1       0.565  68.834  -9.956  1.00  0.00     0.293 HD
ENDBRANCH   6  22
BRANCH   8  24
ATOM     24  O   UNL     1      -3.861  69.125  -6.300  1.00  0.00    -0.508 OA
ATOM     25  H   UNL     1      -4.421  68.670  -5.588  1.00  0.00     0.293 HD
ENDBRANCH   8  24
TORSDOF 5
ENDMDL
