MODEL 1
REMARK VINA RESULT:    -5.280      0.000      0.000
REMARK INTER + INTRA:          -5.949
REMARK INTER:                  -5.897
REMARK INTRA:                  -0.052
REMARK UNBOUND:                -0.052
REMARK SMILES COc1cc2ccc(=O)oc2c(O)c1O
REMARK SMILES IDX 3 1 14 2 12 3 11 4 5 5 4 6 6 7 7 8 8 9 9 10 10 11 2 12 1 13
REMARK SMILES IDX 15 14 13 16
REMARK H PARENT 15 15 13 17
REMARK Flexibility Score: inf
ROOT
ATOM      1  C   UNL     1      -0.626 -14.493  -6.592  1.00  0.00     0.165 A 
ATOM      2  C   UNL     1      -1.626 -14.835  -7.523  1.00  0.00     0.204 A 
ATOM      3  C   UNL     1      -1.611 -16.087  -8.153  1.00  0.00     0.205 A 
ATOM      4  C   UNL     1      -0.597 -17.010  -7.858  1.00  0.00     0.184 A 
ATOM      5  C   UNL     1       0.408 -16.673  -6.926  1.00  0.00     0.025 A 
ATOM      6  C   UNL     1       0.390 -15.422  -6.298  1.00  0.00     0.062 A 
ATOM      7  C   UNL     1       1.407 -17.613  -6.650  1.00  0.00     0.020 A 
ATOM      8  C   UNL     1       1.386 -18.847  -7.298  1.00  0.00     0.094 A 
ATOM      9  C   UNL     1       0.361 -19.114  -8.210  1.00  0.00     0.336 A 
ATOM     10  O   UNL     1       0.322 -20.222  -8.806  1.00  0.00    -0.246 OA
ATOM     11  O   UNL     1      -0.577 -18.202  -8.453  1.00  0.00    -0.419 OA
ENDROOT
BRANCH   1  12
ATOM     12  O   UNL     1      -0.674 -13.229  -5.981  1.00  0.00    -0.493 OA
ATOM     13  C   UNL     1      -0.306 -12.968  -4.630  1.00  0.00     0.278 C 
ENDBRANCH   1  12
BRANCH   2  14
ATOM     14  O   UNL     1      -2.647 -13.935  -7.836  1.00  0.00    -0.502 OA
ATOM     15  H   UNL     1      -3.611 -14.227  -7.944  1.00  0.00     0.293 HD
ENDBRANCH   2  14
BRANCH   3  16
ATOM     16  O   UNL     1      -2.615 -16.397  -9.072  1.00  0.00    -0.502 OA
ATOM     17  H   UNL     1      -3.597 -16.246  -8.871  1.00  0.00     0.293 HD
ENDBRANCH   3  16
TORSDOF 3
ENDMDL
MODEL 2
REMARK VINA RESULT:    -5.110      2.016      3.510
REMARK INTER + INTRA:          -5.760
REMARK INTER:                  -5.690
REMARK INTRA:                  -0.069
REMARK UNBOUND:                -0.052
REMARK SMILES COc1cc2ccc(=O)oc2c(O)c1O
REMARK SMILES IDX 3 1 14 2 12 3 11 4 5 5 4 6 6 7 7 8 8 9 9 10 10 11 2 12 1 13
REMARK SMILES IDX 15 14 13 16
REMARK H PARENT 15 15 13 17
REMARK Flexibility Score: inf
ROOT
ATOM      1  C   UNL     1       0.250 -16.289  -6.982  1.00  0.00     0.165 A 
ATOM      2  C   UNL     1      -0.586 -15.155  -6.974  1.00  0.00     0.204 A 
ATOM      3  C   UNL     1      -1.791 -15.156  -7.689  1.00  0.00     0.205 A 
ATOM      4  C   UNL     1      -2.173 -16.291  -8.420  1.00  0.00     0.184 A 
ATOM      5  C   UNL     1      -1.340 -17.430  -8.432  1.00  0.00     0.025 A 
ATOM      6  C   UNL     1      -0.137 -17.427  -7.715  1.00  0.00     0.062 A 
ATOM      7  C   UNL     1      -1.746 -18.548  -9.168  1.00  0.00     0.020 A 
ATOM      8  C   UNL     1      -2.952 -18.509  -9.866  1.00  0.00     0.094 A 
ATOM      9  C   UNL     1      -3.727 -17.347  -9.811  1.00  0.00     0.336 A 
ATOM     10  O   UNL     1      -4.820 -17.290 -10.434  1.00  0.00    -0.246 OA
ATOM     11  O   UNL     1      -3.317 -16.298  -9.102  1.00  0.00    -0.419 OA
ENDROOT
BRANCH   1  12
ATOM     12  O   UNL     1       1.449 -16.250  -6.252  1.00  0.00    -0.493 OA
ATOM     13  C   UNL     1       1.621 -16.796  -4.947  1.00  0.00     0.278 C 
ENDBRANCH   1  12
BRANCH   2  14
ATOM     14  O   UNL     1      -0.230 -14.012  -6.255  1.00  0.00    -0.502 OA
ATOM     15  H   UNL     1      -0.918 -13.410  -5.820  1.00  0.00     0.293 HD
ENDBRANCH   2  14
BRANCH   3  16
ATOM     16  O   UNL     1      -2.597 -14.017  -7.663  1.00  0.00    -0.502 OA
ATOM     17  H   UNL     1      -3.413 -13.946  -7.066  1.00  0.00     0.293 HD
ENDBRANCH   3  16
TORSDOF 3
ENDMDL
MODEL 3
REMARK VINA RESULT:    -5.096      0.897      1.060
REMARK INTER + INTRA:          -5.744
REMARK INTER:                  -5.676
REMARK INTRA:                  -0.068
REMARK UNBOUND:                -0.052
REMARK SMILES COc1cc2ccc(=O)oc2c(O)c1O
REMARK SMILES IDX 3 1 14 2 12 3 11 4 5 5 4 6 6 7 7 8 8 9 9 10 10 11 2 12 1 13
REMARK SMILES IDX 15 14 13 16
REMARK H PARENT 15 15 13 17
REMARK Flexibility Score: inf
ROOT
ATOM      1  C   UNL     1      -0.607 -14.996  -7.004  1.00  0.00     0.165 A 
ATOM      2  C   UNL     1      -1.804 -15.077  -7.743  1.00  0.00     0.204 A 
ATOM      3  C   UNL     1      -2.160 -16.269  -8.389  1.00  0.00     0.205 A 
ATOM      4  C   UNL     1      -1.324 -17.392  -8.303  1.00  0.00     0.184 A 
ATOM      5  C   UNL     1      -0.124 -17.317  -7.564  1.00  0.00     0.025 A 
ATOM      6  C   UNL     1       0.229 -16.126  -6.919  1.00  0.00     0.062 A 
ATOM      7  C   UNL     1       0.691 -18.452  -7.494  1.00  0.00     0.020 A 
ATOM      8  C   UNL     1       0.300 -19.618  -8.151  1.00  0.00     0.094 A 
ATOM      9  C   UNL     1      -0.902 -19.622  -8.865  1.00  0.00     0.336 A 
ATOM     10  O   UNL     1      -1.274 -20.664  -9.465  1.00  0.00    -0.246 OA
ATOM     11  O   UNL     1      -1.657 -18.528  -8.914  1.00  0.00    -0.419 OA
ENDROOT
BRANCH   1  12
ATOM     12  O   UNL     1      -0.284 -13.785  -6.371  1.00  0.00    -0.493 OA
ATOM     13  C   UNL     1      -0.350 -13.564  -4.965  1.00  0.00     0.278 C 
ENDBRANCH   1  12
BRANCH   2  14
ATOM     14  O   UNL     1      -2.654 -13.974  -7.846  1.00  0.00    -0.502 OA
ATOM     15  H   UNL     1      -2.931 -13.587  -8.740  1.00  0.00     0.293 HD
ENDBRANCH   2  14
BRANCH   3  16
ATOM     16  O   UNL     1      -3.351 -16.318  -9.115  1.00  0.00    -0.502 OA
ATOM     17  H   UNL     1      -4.141 -15.719  -8.899  1.00  0.00     0.293 HD
ENDBRANCH   3  16
TORSDOF 3
ENDMDL
MODEL 4
REMARK VINA RESULT:    -4.966      1.877      3.547
REMARK INTER + INTRA:          -5.599
REMARK INTER:                  -5.551
REMARK INTRA:                  -0.049
REMARK UNBOUND:                -0.052
REMARK SMILES COc1cc2ccc(=O)oc2c(O)c1O
REMARK SMILES IDX 3 1 14 2 12 3 11 4 5 5 4 6 6 7 7 8 8 9 9 10 10 11 2 12 1 13
REMARK SMILES IDX 15 14 13 16
REMARK H PARENT 15 15 13 17
REMARK Flexibility Score: inf
ROOT
ATOM      1  C   UNL     1      -2.213 -16.308  -8.483  1.00  0.00     0.165 A 
ATOM      2  C   UNL     1      -1.860 -15.158  -7.749  1.00  0.00     0.204 A 
ATOM      3  C   UNL     1      -0.675 -15.129  -7.001  1.00  0.00     0.205 A 
ATOM      4  C   UNL     1       0.170 -16.249  -6.980  1.00  0.00     0.184 A 
ATOM      5  C   UNL     1      -0.178 -17.403  -7.714  1.00  0.00     0.025 A 
ATOM      6  C   UNL     1      -1.362 -17.429  -8.460  1.00  0.00     0.062 A 
ATOM      7  C   UNL     1       0.683 -18.505  -7.675  1.00  0.00     0.020 A 
ATOM      8  C   UNL     1       1.852 -18.436  -6.919  1.00  0.00     0.094 A 
ATOM      9  C   UNL     1       2.134 -17.260  -6.216  1.00  0.00     0.336 A 
ATOM     10  O   UNL     1       3.185 -17.176  -5.528  1.00  0.00    -0.246 OA
ATOM     11  O   UNL     1       1.298 -16.227  -6.271  1.00  0.00    -0.419 OA
ENDROOT
BRANCH   1  12
ATOM     12  O   UNL     1      -3.409 -16.298  -9.220  1.00  0.00    -0.493 OA
ATOM     13  C   UNL     1      -3.975 -17.439  -9.858  1.00  0.00     0.278 C 
ENDBRANCH   1  12
BRANCH   2  14
ATOM     14  O   UNL     1      -2.683 -14.030  -7.752  1.00  0.00    -0.502 OA
ATOM     15  H   UNL     1      -3.289 -13.800  -6.974  1.00  0.00     0.293 HD
ENDBRANCH   2  14
BRANCH   3  16
ATOM     16  O   UNL     1      -0.353 -13.976  -6.283  1.00  0.00    -0.502 OA
ATOM     17  H   UNL     1       0.348 -13.973  -5.551  1.00  0.00     0.293 HD
ENDBRANCH   3  16
TORSDOF 3
ENDMDL
MODEL 5
REMARK VINA RESULT:    -4.837     18.838     19.067
REMARK INTER + INTRA:          -5.455
REMARK INTER:                  -5.385
REMARK INTRA:                  -0.069
REMARK UNBOUND:                -0.052
REMARK SMILES COc1cc2ccc(=O)oc2c(O)c1O
REMARK SMILES IDX 3 1 14 2 12 3 11 4 5 5 4 6 6 7 7 8 8 9 9 10 10 11 2 12 1 13
REMARK SMILES IDX 15 14 13 16
REMARK H PARENT 15 15 13 17
REMARK Flexibility Score: inf
ROOT
ATOM      1  C   UNL     1      14.282 -11.082 -18.746  1.00  0.00     0.165 A 
ATOM      2  C   UNL     1      13.207 -11.031 -19.655  1.00  0.00     0.204 A 
ATOM      3  C   UNL     1      12.781 -12.191 -20.316  1.00  0.00     0.205 A 
ATOM      4  C   UNL     1      13.424 -13.414 -20.074  1.00  0.00     0.184 A 
ATOM      5  C   UNL     1      14.502 -13.471 -19.164  1.00  0.00     0.025 A 
ATOM      6  C   UNL     1      14.925 -12.311 -18.505  1.00  0.00     0.062 A 
ATOM      7  C   UNL     1      15.125 -14.704 -18.942  1.00  0.00     0.020 A 
ATOM      8  C   UNL     1      14.671 -15.834 -19.619  1.00  0.00     0.094 A 
ATOM      9  C   UNL     1      13.598 -15.705 -20.507  1.00  0.00     0.336 A 
ATOM     10  O   UNL     1      13.172 -16.713 -21.129  1.00  0.00    -0.246 OA
ATOM     11  O   UNL     1      13.024 -14.520 -20.699  1.00  0.00    -0.419 OA
ENDROOT
BRANCH   1  12
ATOM     12  O   UNL     1      14.680  -9.898 -18.103  1.00  0.00    -0.493 OA
ATOM     13  C   UNL     1      14.308  -9.533 -16.777  1.00  0.00     0.278 C 
ENDBRANCH   1  12
BRANCH   2  14
ATOM     14  O   UNL     1      12.549  -9.827 -19.915  1.00  0.00    -0.502 OA
ATOM     15  H   UNL     1      12.995  -8.927 -19.782  1.00  0.00     0.293 HD
ENDBRANCH   2  14
BRANCH   3  16
ATOM     16  O   UNL     1      11.714 -12.109 -21.212  1.00  0.00    -0.502 OA
ATOM     17  H   UNL     1      11.342 -11.221 -21.530  1.00  0.00     0.293 HD
ENDBRANCH   3  16
TORSDOF 3
ENDMDL
MODEL 6
REMARK VINA RESULT:    -4.772      2.168      5.242
REMARK INTER + INTRA:          -5.382
REMARK INTER:                  -5.321
REMARK INTRA:                  -0.061
REMARK UNBOUND:                -0.052
REMARK SMILES COc1cc2ccc(=O)oc2c(O)c1O
REMARK SMILES IDX 3 1 14 2 12 3 11 4 5 5 4 6 6 7 7 8 8 9 9 10 10 11 2 12 1 13
REMARK SMILES IDX 15 14 13 16
REMARK H PARENT 15 15 13 17
REMARK Flexibility Score: inf
ROOT
ATOM      1  C   UNL     1      -2.393 -16.512  -7.668  1.00  0.00     0.165 A 
ATOM      2  C   UNL     1      -1.112 -16.200  -8.162  1.00  0.00     0.204 A 
ATOM      3  C   UNL     1      -0.340 -15.199  -7.556  1.00  0.00     0.205 A 
ATOM      4  C   UNL     1      -0.843 -14.500  -6.448  1.00  0.00     0.184 A 
ATOM      5  C   UNL     1      -2.126 -14.808  -5.948  1.00  0.00     0.025 A 
ATOM      6  C   UNL     1      -2.894 -15.809  -6.555  1.00  0.00     0.062 A 
ATOM      7  C   UNL     1      -2.602 -14.096  -4.841  1.00  0.00     0.020 A 
ATOM      8  C   UNL     1      -1.804 -13.108  -4.267  1.00  0.00     0.094 A 
ATOM      9  C   UNL     1      -0.542 -12.855  -4.814  1.00  0.00     0.336 A 
ATOM     10  O   UNL     1       0.195 -11.967  -4.311  1.00  0.00    -0.246 OA
ATOM     11  O   UNL     1      -0.115 -13.548  -5.867  1.00  0.00    -0.419 OA
ENDROOT
BRANCH   1  12
ATOM     12  O   UNL     1      -3.135 -17.521  -8.303  1.00  0.00    -0.493 OA
ATOM     13  C   UNL     1      -4.069 -17.298  -9.355  1.00  0.00     0.278 C 
ENDBRANCH   1  12
BRANCH   2  14
ATOM     14  O   UNL     1      -0.587 -16.880  -9.264  1.00  0.00    -0.502 OA
ATOM     15  H   UNL     1       0.397 -17.106  -9.341  1.00  0.00     0.293 HD
ENDBRANCH   2  14
BRANCH   3  16
ATOM     16  O   UNL     1       0.925 -14.912  -8.069  1.00  0.00    -0.502 OA
ATOM     17  H   UNL     1       1.329 -15.437  -8.837  1.00  0.00     0.293 HD
ENDBRANCH   3  16
TORSDOF 3
ENDMDL
MODEL 7
REMARK VINA RESULT:    -4.750      1.790      3.161
REMARK INTER + INTRA:          -5.357
REMARK INTER:                  -5.308
REMARK INTRA:                  -0.049
REMARK UNBOUND:                -0.052
REMARK SMILES COc1cc2ccc(=O)oc2c(O)c1O
REMARK SMILES IDX 3 1 14 2 12 3 11 4 5 5 4 6 6 7 7 8 8 9 9 10 10 11 2 12 1 13
REMARK SMILES IDX 15 14 13 16
REMARK H PARENT 15 15 13 17
REMARK Flexibility Score: inf
ROOT
ATOM      1  C   UNL     1      -0.201 -14.651  -6.042  1.00  0.00     0.165 A 
ATOM      2  C   UNL     1       0.785 -15.577  -6.434  1.00  0.00     0.204 A 
ATOM      3  C   UNL     1       0.478 -16.605  -7.336  1.00  0.00     0.205 A 
ATOM      4  C   UNL     1      -0.821 -16.716  -7.857  1.00  0.00     0.184 A 
ATOM      5  C   UNL     1      -1.813 -15.791  -7.469  1.00  0.00     0.025 A 
ATOM      6  C   UNL     1      -1.502 -14.765  -6.568  1.00  0.00     0.062 A 
ATOM      7  C   UNL     1      -3.099 -15.925  -8.004  1.00  0.00     0.020 A 
ATOM      8  C   UNL     1      -3.365 -16.961  -8.898  1.00  0.00     0.094 A 
ATOM      9  C   UNL     1      -2.334 -17.842  -9.239  1.00  0.00     0.336 A 
ATOM     10  O   UNL     1      -2.552 -18.784 -10.045  1.00  0.00    -0.246 OA
ATOM     11  O   UNL     1      -1.120 -17.690  -8.715  1.00  0.00    -0.419 OA
ENDROOT
BRANCH   1  12
ATOM     12  O   UNL     1       0.147 -13.636  -5.136  1.00  0.00    -0.493 OA
ATOM     13  C   UNL     1      -0.716 -12.572  -4.743  1.00  0.00     0.278 C 
ENDBRANCH   1  12
BRANCH   2  14
ATOM     14  O   UNL     1       2.085 -15.490  -5.931  1.00  0.00    -0.502 OA
ATOM     15  H   UNL     1       2.775 -16.216  -6.085  1.00  0.00     0.293 HD
ENDBRANCH   2  14
BRANCH   3  16
ATOM     16  O   UNL     1       1.476 -17.508  -7.704  1.00  0.00    -0.502 OA
ATOM     17  H   UNL     1       2.170 -17.288  -8.409  1.00  0.00     0.293 HD
ENDBRANCH   3  16
TORSDOF 3
ENDMDL
MODEL 8
REMARK VINA RESULT:    -4.653      2.114      4.470
REMARK INTER + INTRA:          -5.249
REMARK INTER:                  -5.189
REMARK INTRA:                  -0.060
REMARK UNBOUND:                -0.052
REMARK SMILES COc1cc2ccc(=O)oc2c(O)c1O
REMARK SMILES IDX 3 1 14 2 12 3 11 4 5 5 4 6 6 7 7 8 8 9 9 10 10 11 2 12 1 13
REMARK SMILES IDX 15 14 13 16
REMARK H PARENT 15 15 13 17
REMARK Flexibility Score: inf
ROOT
ATOM      1  C   UNL     1       2.473 -17.061  -5.867  1.00  0.00     0.165 A 
ATOM      2  C   UNL     1       1.989 -18.107  -6.678  1.00  0.00     0.204 A 
ATOM      3  C   UNL     1       0.787 -17.961  -7.385  1.00  0.00     0.205 A 
ATOM      4  C   UNL     1       0.057 -16.766  -7.288  1.00  0.00     0.184 A 
ATOM      5  C   UNL     1       0.536 -15.715  -6.477  1.00  0.00     0.025 A 
ATOM      6  C   UNL     1       1.737 -15.864  -5.773  1.00  0.00     0.062 A 
ATOM      7  C   UNL     1      -0.212 -14.535  -6.400  1.00  0.00     0.020 A 
ATOM      8  C   UNL     1      -1.402 -14.430  -7.118  1.00  0.00     0.094 A 
ATOM      9  C   UNL     1      -1.818 -15.511  -7.901  1.00  0.00     0.336 A 
ATOM     10  O   UNL     1      -2.889 -15.436  -8.558  1.00  0.00    -0.246 OA
ATOM     11  O   UNL     1      -1.086 -16.621  -7.957  1.00  0.00    -0.419 OA
ENDROOT
BRANCH   1  12
ATOM     12  O   UNL     1       3.681 -17.246  -5.175  1.00  0.00    -0.493 OA
ATOM     13  C   UNL     1       3.783 -17.755  -3.849  1.00  0.00     0.278 C 
ENDBRANCH   1  12
BRANCH   2  14
ATOM     14  O   UNL     1       2.695 -19.306  -6.792  1.00  0.00    -0.502 OA
ATOM     15  H   UNL     1       2.232 -20.206  -6.816  1.00  0.00     0.293 HD
ENDBRANCH   2  14
BRANCH   3  16
ATOM     16  O   UNL     1       0.333 -19.014  -8.179  1.00  0.00    -0.502 OA
ATOM     17  H   UNL     1       0.933 -19.485  -8.847  1.00  0.00     0.293 HD
ENDBRANCH   3  16
TORSDOF 3
ENDMDL
MODEL 9
REMARK VINA RESULT:    -4.641      2.274      3.807
REMARK INTER + INTRA:          -5.236
REMARK INTER:                  -5.184
REMARK INTRA:                  -0.051
REMARK UNBOUND:                -0.052
REMARK SMILES COc1cc2ccc(=O)oc2c(O)c1O
REMARK SMILES IDX 3 1 14 2 12 3 11 4 5 5 4 6 6 7 7 8 8 9 9 10 10 11 2 12 1 13
REMARK SMILES IDX 15 14 13 16
REMARK H PARENT 15 15 13 17
REMARK Flexibility Score: inf
ROOT
ATOM      1  C   UNL     1      -2.796 -17.209  -9.030  1.00  0.00     0.165 A 
ATOM      2  C   UNL     1      -1.819 -16.311  -8.556  1.00  0.00     0.204 A 
ATOM      3  C   UNL     1      -0.550 -16.774  -8.183  1.00  0.00     0.205 A 
ATOM      4  C   UNL     1      -0.243 -18.140  -8.281  1.00  0.00     0.184 A 
ATOM      5  C   UNL     1      -1.218 -19.044  -8.756  1.00  0.00     0.025 A 
ATOM      6  C   UNL     1      -2.484 -18.578  -9.128  1.00  0.00     0.062 A 
ATOM      7  C   UNL     1      -0.886 -20.400  -8.844  1.00  0.00     0.020 A 
ATOM      8  C   UNL     1       0.388 -20.820  -8.463  1.00  0.00     0.094 A 
ATOM      9  C   UNL     1       1.304 -19.870  -8.001  1.00  0.00     0.336 A 
ATOM     10  O   UNL     1       2.459 -20.227  -7.652  1.00  0.00    -0.246 OA
ATOM     11  O   UNL     1       0.961 -18.586  -7.928  1.00  0.00    -0.419 OA
ENDROOT
BRANCH   1  12
ATOM     12  O   UNL     1      -4.056 -16.706  -9.394  1.00  0.00    -0.493 OA
ATOM     13  C   UNL     1      -4.864 -17.233 -10.442  1.00  0.00     0.278 C 
ENDBRANCH   1  12
BRANCH   2  14
ATOM     14  O   UNL     1      -2.097 -14.947  -8.448  1.00  0.00    -0.502 OA
ATOM     15  H   UNL     1      -2.375 -14.519  -7.573  1.00  0.00     0.293 HD
ENDBRANCH   2  14
BRANCH   3  16
ATOM     16  O   UNL     1       0.396 -15.861  -7.715  1.00  0.00    -0.502 OA
ATOM     17  H   UNL     1       1.080 -15.430  -8.327  1.00  0.00     0.293 HD
ENDBRANCH   3  16
TORSDOF 3
ENDMDL
