MODEL 1
REMARK VINA RESULT:    -3.749      0.000      0.000
REMARK INTER + INTRA:          -5.807
REMARK INTER:                  -5.284
REMARK INTRA:                  -0.524
REMARK UNBOUND:                -0.524
REMARK SMILES CCCCCCCCC(=O)[O-]
REMARK SMILES IDX 6 1 7 2 8 3 9 4 10 5 11 6 5 7 4 8 3 9 2 10 1 11
REMARK H PARENT
REMARK Flexibility Score: inf
ROOT
ATOM      1  C   UNL     1     -42.552  27.709   1.138  1.00  0.00     0.000 C 
ENDROOT
BRANCH   1   2
ATOM      2  C   UNL     1     -43.006  28.915   1.974  1.00  0.00     0.006 C 
BRANCH   2   3
ATOM      3  C   UNL     1     -43.611  28.495   3.319  1.00  0.00     0.053 C 
BRANCH   3   4
ATOM      4  C   UNL     1     -44.610  27.390   3.160  1.00  0.00     0.041 C 
ATOM      5  O   UNL     1     -45.755  27.633   2.696  1.00  0.00    -0.550 OA
ATOM      6  O   UNL     1     -44.265  26.087   3.493  1.00  0.00    -0.550 OA
ENDBRANCH   3   4
ENDBRANCH   2   3
ENDBRANCH   1   2
BRANCH   1   7
ATOM      7  C   UNL     1     -43.005  27.848  -0.320  1.00  0.00     0.000 C 
BRANCH   7   8
ATOM      8  C   UNL     1     -44.330  28.615  -0.416  1.00  0.00    -0.000 C 
BRANCH   8   9
ATOM      9  C   UNL     1     -45.422  27.747  -1.058  1.00  0.00    -0.000 C 
BRANCH   9  10
ATOM     10  C   UNL     1     -44.925  26.336  -1.408  1.00  0.00    -0.003 C 
ATOM     11  C   UNL     1     -46.046  25.417  -1.894  1.00  0.00     0.004 C 
ENDBRANCH   9  10
ENDBRANCH   8   9
ENDBRANCH   7   8
ENDBRANCH   1   7
TORSDOF 7
ENDMDL
MODEL 2
REMARK VINA RESULT:    -3.737      1.167      2.045
REMARK INTER + INTRA:          -5.790
REMARK INTER:                  -5.296
REMARK INTRA:                  -0.494
REMARK UNBOUND:                -0.524
REMARK SMILES CCCCCCCCC(=O)[O-]
REMARK SMILES IDX 6 1 7 2 8 3 9 4 10 5 11 6 5 7 4 8 3 9 2 10 1 11
REMARK H PARENT
REMARK Flexibility Score: inf
ROOT
ATOM      1  C   UNL     1     -44.083  28.646  -0.554  1.00  0.00     0.000 C 
ENDROOT
BRANCH   1   2
ATOM      2  C   UNL     1     -43.231  27.746   0.353  1.00  0.00     0.006 C 
BRANCH   2   3
ATOM      3  C   UNL     1     -43.392  28.096   1.837  1.00  0.00     0.053 C 
BRANCH   3   4
ATOM      4  C   UNL     1     -44.475  27.289   2.486  1.00  0.00     0.041 C 
ATOM      5  O   UNL     1     -45.682  27.618   2.342  1.00  0.00    -0.550 OA
ATOM      6  O   UNL     1     -44.154  26.156   3.220  1.00  0.00    -0.550 OA
ENDBRANCH   3   4
ENDBRANCH   2   3
ENDBRANCH   1   2
BRANCH   1   7
ATOM      7  C   UNL     1     -45.209  27.848  -1.222  1.00  0.00     0.000 C 
BRANCH   7   8
ATOM      8  C   UNL     1     -44.906  26.345  -1.203  1.00  0.00    -0.000 C 
BRANCH   8   9
ATOM      9  C   UNL     1     -45.604  25.629  -2.368  1.00  0.00    -0.000 C 
BRANCH   9  10
ATOM     10  C   UNL     1     -46.499  26.570  -3.188  1.00  0.00    -0.003 C 
ATOM     11  C   UNL     1     -46.183  26.533  -4.684  1.00  0.00     0.004 C 
ENDBRANCH   9  10
ENDBRANCH   8   9
ENDBRANCH   7   8
ENDBRANCH   1   7
TORSDOF 7
ENDMDL
MODEL 3
REMARK VINA RESULT:    -3.679      2.834      4.056
REMARK INTER + INTRA:          -5.708
REMARK INTER:                  -5.346
REMARK INTRA:                  -0.362
REMARK UNBOUND:                -0.524
REMARK SMILES CCCCCCCCC(=O)[O-]
REMARK SMILES IDX 6 1 7 2 8 3 9 4 10 5 11 6 5 7 4 8 3 9 2 10 1 11
REMARK H PARENT
REMARK Flexibility Score: inf
ROOT
ATOM      1  C   UNL     1     -45.570  25.852  -1.935  1.00  0.00     0.000 C 
ENDROOT
BRANCH   1   2
ATOM      2  C   UNL     1     -45.382  27.147  -1.133  1.00  0.00     0.006 C 
BRANCH   2   3
ATOM      3  C   UNL     1     -43.958  27.286  -0.579  1.00  0.00     0.053 C 
BRANCH   3   4
ATOM      4  C   UNL     1     -43.935  27.235   0.918  1.00  0.00     0.041 C 
ATOM      5  O   UNL     1     -45.011  27.130   1.564  1.00  0.00    -0.550 OA
ATOM      6  O   UNL     1     -42.725  27.269   1.598  1.00  0.00    -0.550 OA
ENDBRANCH   3   4
ENDBRANCH   2   3
ENDBRANCH   1   2
BRANCH   1   7
ATOM      7  C   UNL     1     -46.408  26.101  -3.195  1.00  0.00     0.000 C 
BRANCH   7   8
ATOM      8  C   UNL     1     -46.381  27.582  -3.591  1.00  0.00    -0.000 C 
BRANCH   8   9
ATOM      9  C   UNL     1     -46.513  27.746  -5.112  1.00  0.00    -0.000 C 
BRANCH   9  10
ATOM     10  C   UNL     1     -45.954  26.543  -5.887  1.00  0.00    -0.003 C 
ATOM     11  C   UNL     1     -45.510  26.906  -7.304  1.00  0.00     0.004 C 
ENDBRANCH   9  10
ENDBRANCH   8   9
ENDBRANCH   7   8
ENDBRANCH   1   7
TORSDOF 7
ENDMDL
MODEL 4
REMARK VINA RESULT:    -3.601      0.905      1.440
REMARK INTER + INTRA:          -5.598
REMARK INTER:                  -5.186
REMARK INTRA:                  -0.412
REMARK UNBOUND:                -0.524
REMARK SMILES CCCCCCCCC(=O)[O-]
REMARK SMILES IDX 6 1 7 2 8 3 9 4 10 5 11 6 5 7 4 8 3 9 2 10 1 11
REMARK H PARENT
REMARK Flexibility Score: inf
ROOT
ATOM      1  C   UNL     1     -43.744  29.158   2.022  1.00  0.00     0.000 C 
ENDROOT
BRANCH   1   2
ATOM      2  C   UNL     1     -42.983  28.901   3.330  1.00  0.00     0.006 C 
BRANCH   2   3
ATOM      3  C   UNL     1     -43.891  28.332   4.429  1.00  0.00     0.053 C 
BRANCH   3   4
ATOM      4  C   UNL     1     -44.764  27.229   3.913  1.00  0.00     0.041 C 
ATOM      5  O   UNL     1     -46.014  27.376   3.875  1.00  0.00    -0.550 OA
ATOM      6  O   UNL     1     -44.195  26.052   3.445  1.00  0.00    -0.550 OA
ENDBRANCH   3   4
ENDBRANCH   2   3
ENDBRANCH   1   2
BRANCH   1   7
ATOM      7  C   UNL     1     -42.779  29.264   0.835  1.00  0.00     0.000 C 
BRANCH   7   8
ATOM      8  C   UNL     1     -42.641  27.919   0.113  1.00  0.00    -0.000 C 
BRANCH   8   9
ATOM      9  C   UNL     1     -43.951  27.120   0.184  1.00  0.00    -0.000 C 
BRANCH   9  10
ATOM     10  C   UNL     1     -44.823  27.304  -1.067  1.00  0.00    -0.003 C 
ATOM     11  C   UNL     1     -45.229  25.976  -1.706  1.00  0.00     0.004 C 
ENDBRANCH   9  10
ENDBRANCH   8   9
ENDBRANCH   7   8
ENDBRANCH   1   7
TORSDOF 7
ENDMDL
MODEL 5
REMARK VINA RESULT:    -3.438      2.055      2.814
REMARK INTER + INTRA:          -5.368
REMARK INTER:                  -5.039
REMARK INTRA:                  -0.329
REMARK UNBOUND:                -0.524
REMARK SMILES CCCCCCCCC(=O)[O-]
REMARK SMILES IDX 6 1 7 2 8 3 9 4 10 5 11 6 5 7 4 8 3 9 2 10 1 11
REMARK H PARENT
REMARK Flexibility Score: inf
ROOT
ATOM      1  C   UNL     1     -44.207  27.814   3.096  1.00  0.00     0.000 C 
ENDROOT
BRANCH   1   2
ATOM      2  C   UNL     1     -43.184  28.721   3.795  1.00  0.00     0.006 C 
BRANCH   2   3
ATOM      3  C   UNL     1     -43.594  29.058   5.234  1.00  0.00     0.053 C 
BRANCH   3   4
ATOM      4  C   UNL     1     -43.154  28.001   6.200  1.00  0.00     0.041 C 
ATOM      5  O   UNL     1     -42.097  28.155   6.868  1.00  0.00    -0.550 OA
ATOM      6  O   UNL     1     -43.926  26.863   6.388  1.00  0.00    -0.550 OA
ENDBRANCH   3   4
ENDBRANCH   2   3
ENDBRANCH   1   2
BRANCH   1   7
ATOM      7  C   UNL     1     -43.536  26.961   2.012  1.00  0.00     0.000 C 
BRANCH   7   8
ATOM      8  C   UNL     1     -42.704  27.831   1.062  1.00  0.00    -0.000 C 
BRANCH   8   9
ATOM      9  C   UNL     1     -43.235  27.738  -0.375  1.00  0.00    -0.000 C 
BRANCH   9  10
ATOM     10  C   UNL     1     -44.733  27.400  -0.430  1.00  0.00    -0.003 C 
ATOM     11  C   UNL     1     -45.044  26.238  -1.374  1.00  0.00     0.004 C 
ENDBRANCH   9  10
ENDBRANCH   8   9
ENDBRANCH   7   8
ENDBRANCH   1   7
TORSDOF 7
ENDMDL
MODEL 6
REMARK VINA RESULT:    -3.371      4.883      6.983
REMARK INTER + INTRA:          -5.274
REMARK INTER:                  -4.861
REMARK INTRA:                  -0.413
REMARK UNBOUND:                -0.524
REMARK SMILES CCCCCCCCC(=O)[O-]
REMARK SMILES IDX 6 1 7 2 8 3 9 4 10 5 11 6 5 7 4 8 3 9 2 10 1 11
REMARK H PARENT
REMARK Flexibility Score: inf
ROOT
ATOM      1  C   UNL     1     -46.167  27.976  -2.972  1.00  0.00     0.000 C 
ENDROOT
BRANCH   1   2
ATOM      2  C   UNL     1     -46.334  28.174  -4.485  1.00  0.00     0.006 C 
BRANCH   2   3
ATOM      3  C   UNL     1     -46.223  26.854  -5.260  1.00  0.00     0.053 C 
BRANCH   3   4
ATOM      4  C   UNL     1     -45.691  27.064  -6.644  1.00  0.00     0.041 C 
ATOM      5  O   UNL     1     -45.256  28.194  -6.991  1.00  0.00    -0.550 OA
ATOM      6  O   UNL     1     -45.646  26.005  -7.541  1.00  0.00    -0.550 OA
ENDBRANCH   3   4
ENDBRANCH   2   3
ENDBRANCH   1   2
BRANCH   1   7
ATOM      7  C   UNL     1     -46.333  26.501  -2.587  1.00  0.00     0.000 C 
BRANCH   7   8
ATOM      8  C   UNL     1     -45.225  26.053  -1.627  1.00  0.00    -0.000 C 
BRANCH   8   9
ATOM      9  C   UNL     1     -45.052  27.058  -0.480  1.00  0.00    -0.000 C 
BRANCH   9  10
ATOM     10  C   UNL     1     -43.577  27.385  -0.199  1.00  0.00    -0.003 C 
ATOM     11  C   UNL     1     -43.280  28.883  -0.265  1.00  0.00     0.004 C 
ENDBRANCH   9  10
ENDBRANCH   8   9
ENDBRANCH   7   8
ENDBRANCH   1   7
TORSDOF 7
ENDMDL
MODEL 7
REMARK VINA RESULT:    -3.360      2.226      5.068
REMARK INTER + INTRA:          -5.259
REMARK INTER:                  -4.850
REMARK INTRA:                  -0.408
REMARK UNBOUND:                -0.524
REMARK SMILES CCCCCCCCC(=O)[O-]
REMARK SMILES IDX 6 1 7 2 8 3 9 4 10 5 11 6 5 7 4 8 3 9 2 10 1 11
REMARK H PARENT
REMARK Flexibility Score: inf
ROOT
ATOM      1  C   UNL     1     -42.990  28.872   1.999  1.00  0.00     0.000 C 
ENDROOT
BRANCH   1   2
ATOM      2  C   UNL     1     -42.947  27.526   1.263  1.00  0.00     0.006 C 
BRANCH   2   3
ATOM      3  C   UNL     1     -43.481  27.629  -0.171  1.00  0.00     0.053 C 
BRANCH   3   4
ATOM      4  C   UNL     1     -44.749  26.851  -0.350  1.00  0.00     0.041 C 
ATOM      5  O   UNL     1     -44.839  25.990  -1.265  1.00  0.00    -0.550 OA
ATOM      6  O   UNL     1     -45.818  27.053   0.512  1.00  0.00    -0.550 OA
ENDBRANCH   3   4
ENDBRANCH   2   3
ENDBRANCH   1   2
BRANCH   1   7
ATOM      7  C   UNL     1     -43.410  28.687   3.462  1.00  0.00     0.000 C 
BRANCH   7   8
ATOM      8  C   UNL     1     -44.263  27.424   3.636  1.00  0.00    -0.000 C 
BRANCH   8   9
ATOM      9  C   UNL     1     -44.805  27.320   5.069  1.00  0.00    -0.000 C 
BRANCH   9  10
ATOM     10  C   UNL     1     -43.800  26.677   6.036  1.00  0.00    -0.003 C 
ATOM     11  C   UNL     1     -43.223  27.675   7.041  1.00  0.00     0.004 C 
ENDBRANCH   9  10
ENDBRANCH   8   9
ENDBRANCH   7   8
ENDBRANCH   1   7
TORSDOF 7
ENDMDL
MODEL 8
REMARK VINA RESULT:    -3.234      2.761      3.969
REMARK INTER + INTRA:          -5.082
REMARK INTER:                  -4.746
REMARK INTRA:                  -0.335
REMARK UNBOUND:                -0.524
REMARK SMILES CCCCCCCCC(=O)[O-]
REMARK SMILES IDX 6 1 7 2 8 3 9 4 10 5 11 6 5 7 4 8 3 9 2 10 1 11
REMARK H PARENT
REMARK Flexibility Score: inf
ROOT
ATOM      1  C   UNL     1     -43.929  28.261   3.731  1.00  0.00     0.000 C 
ENDROOT
BRANCH   1   2
ATOM      2  C   UNL     1     -44.741  27.743   4.927  1.00  0.00     0.006 C 
BRANCH   2   3
ATOM      3  C   UNL     1     -43.933  26.776   5.802  1.00  0.00     0.053 C 
BRANCH   3   4
ATOM      4  C   UNL     1     -43.276  27.481   6.949  1.00  0.00     0.041 C 
ATOM      5  O   UNL     1     -42.174  28.070   6.783  1.00  0.00    -0.550 OA
ATOM      6  O   UNL     1     -43.893  27.516   8.192  1.00  0.00    -0.550 OA
ENDBRANCH   3   4
ENDBRANCH   2   3
ENDBRANCH   1   2
BRANCH   1   7
ATOM      7  C   UNL     1     -44.323  27.532   2.441  1.00  0.00     0.000 C 
BRANCH   7   8
ATOM      8  C   UNL     1     -43.085  27.152   1.620  1.00  0.00    -0.000 C 
BRANCH   8   9
ATOM      9  C   UNL     1     -43.283  27.491   0.136  1.00  0.00    -0.000 C 
BRANCH   9  10
ATOM     10  C   UNL     1     -43.419  29.001  -0.112  1.00  0.00    -0.003 C 
ATOM     11  C   UNL     1     -42.072  29.725  -0.109  1.00  0.00     0.004 C 
ENDBRANCH   9  10
ENDBRANCH   8   9
ENDBRANCH   7   8
ENDBRANCH   1   7
TORSDOF 7
ENDMDL
MODEL 9
REMARK VINA RESULT:    -3.196      2.462      4.685
REMARK INTER + INTRA:          -5.027
REMARK INTER:                  -4.697
REMARK INTRA:                  -0.330
REMARK UNBOUND:                -0.524
REMARK SMILES CCCCCCCCC(=O)[O-]
REMARK SMILES IDX 6 1 7 2 8 3 9 4 10 5 11 6 5 7 4 8 3 9 2 10 1 11
REMARK H PARENT
REMARK Flexibility Score: inf
ROOT
ATOM      1  C   UNL     1     -44.035  28.778  -0.111  1.00  0.00     0.000 C 
ENDROOT
BRANCH   1   2
ATOM      2  C   UNL     1     -45.102  28.083  -0.968  1.00  0.00     0.006 C 
BRANCH   2   3
ATOM      3  C   UNL     1     -44.759  26.614  -1.246  1.00  0.00     0.053 C 
BRANCH   3   4
ATOM      4  C   UNL     1     -45.847  25.923  -2.010  1.00  0.00     0.041 C 
ATOM      5  O   UNL     1     -45.927  26.059  -3.260  1.00  0.00    -0.550 OA
ATOM      6  O   UNL     1     -46.751  25.104  -1.348  1.00  0.00    -0.550 OA
ENDBRANCH   3   4
ENDBRANCH   2   3
ENDBRANCH   1   2
BRANCH   1   7
ATOM      7  C   UNL     1     -42.849  27.844   0.156  1.00  0.00     0.000 C 
BRANCH   7   8
ATOM      8  C   UNL     1     -42.892  27.290   1.585  1.00  0.00    -0.000 C 
BRANCH   8   9
ATOM      9  C   UNL     1     -43.629  28.253   2.526  1.00  0.00    -0.000 C 
BRANCH   9  10
ATOM     10  C   UNL     1     -44.754  27.564   3.314  1.00  0.00    -0.003 C 
ATOM     11  C   UNL     1     -44.329  27.169   4.728  1.00  0.00     0.004 C 
ENDBRANCH   9  10
ENDBRANCH   8   9
ENDBRANCH   7   8
ENDBRANCH   1   7
TORSDOF 7
ENDMDL
