MODEL 1
REMARK VINA RESULT:    -4.647      0.000      0.000
REMARK INTER + INTRA:          -7.661
REMARK INTER:                  -7.093
REMARK INTRA:                  -0.569
REMARK UNBOUND:                -0.569
REMARK SMILES O=C([O-])CCCCCCCCC(=O)[O-]
REMARK SMILES IDX 7 1 6 2 5 3 4 4 2 5 1 6 3 7 8 8 9 9 10 10 11 11 12 12 13 13
REMARK SMILES IDX 14 14
REMARK H PARENT
REMARK Flexibility Score: inf
ROOT
ATOM      1  C   UNL     1      14.849  12.849 -20.966  1.00  0.00     0.000 C 
ENDROOT
BRANCH   1   2
ATOM      2  C   UNL     1      16.337  12.473 -21.030  1.00  0.00     0.000 C 
BRANCH   2   3
ATOM      3  C   UNL     1      17.169  13.164 -19.939  1.00  0.00     0.006 C 
BRANCH   3   4
ATOM      4  C   UNL     1      16.332  14.107 -19.065  1.00  0.00     0.053 C 
BRANCH   4   5
ATOM      5  C   UNL     1      17.043  14.396 -17.781  1.00  0.00     0.041 C 
ATOM      6  O   UNL     1      17.688  13.487 -17.195  1.00  0.00    -0.550 OA
ATOM      7  O   UNL     1      16.953  15.657 -17.205  1.00  0.00    -0.550 OA
ENDBRANCH   4   5
ENDBRANCH   3   4
ENDBRANCH   2   3
ENDBRANCH   1   2
BRANCH   1   8
ATOM      8  C   UNL     1      14.096  12.320 -22.192  1.00  0.00     0.000 C 
BRANCH   8   9
ATOM      9  C   UNL     1      12.956  11.382 -21.777  1.00  0.00     0.000 C 
BRANCH   9  10
ATOM     10  C   UNL     1      12.806  11.341 -20.249  1.00  0.00     0.006 C 
BRANCH  10  11
ATOM     11  C   UNL     1      11.432  11.844 -19.787  1.00  0.00     0.053 C 
BRANCH  11  12
ATOM     12  C   UNL     1      11.521  12.603 -18.499  1.00  0.00     0.041 C 
ATOM     13  O   UNL     1      10.489  12.791 -17.802  1.00  0.00    -0.550 OA
ATOM     14  O   UNL     1      12.749  13.072 -18.051  1.00  0.00    -0.550 OA
ENDBRANCH  11  12
ENDBRANCH  10  11
ENDBRANCH   9  10
ENDBRANCH   8   9
ENDBRANCH   1   8
TORSDOF 9
ENDMDL
MODEL 2
REMARK VINA RESULT:    -4.503      0.770      5.066
REMARK INTER + INTRA:          -7.440
REMARK INTER:                  -6.866
REMARK INTRA:                  -0.575
REMARK UNBOUND:                -0.569
REMARK SMILES O=C([O-])CCCCCCCCC(=O)[O-]
REMARK SMILES IDX 7 1 6 2 5 3 4 4 2 5 1 6 3 7 8 8 9 9 10 10 11 11 12 12 13 13
REMARK SMILES IDX 14 14
REMARK H PARENT
REMARK Flexibility Score: inf
ROOT
ATOM      1  C   UNL     1      13.929  12.619 -21.191  1.00  0.00     0.000 C 
ENDROOT
BRANCH   1   2
ATOM      2  C   UNL     1      13.280  11.270 -20.847  1.00  0.00     0.000 C 
BRANCH   2   3
ATOM      3  C   UNL     1      11.843  11.421 -20.325  1.00  0.00     0.006 C 
BRANCH   3   4
ATOM      4  C   UNL     1      11.615  12.753 -19.597  1.00  0.00     0.053 C 
BRANCH   4   5
ATOM      5  C   UNL     1      11.814  12.582 -18.124  1.00  0.00     0.041 C 
ATOM      6  O   UNL     1      10.946  11.987 -17.432  1.00  0.00    -0.550 OA
ATOM      7  O   UNL     1      12.933  13.126 -17.506  1.00  0.00    -0.550 OA
ENDBRANCH   4   5
ENDBRANCH   3   4
ENDBRANCH   2   3
ENDBRANCH   1   2
BRANCH   1   8
ATOM      8  C   UNL     1      15.333  12.419 -21.774  1.00  0.00     0.000 C 
BRANCH   8   9
ATOM      9  C   UNL     1      16.409  12.602 -20.697  1.00  0.00     0.000 C 
BRANCH   9  10
ATOM     10  C   UNL     1      15.997  13.683 -19.685  1.00  0.00     0.006 C 
BRANCH  10  11
ATOM     11  C   UNL     1      17.187  14.543 -19.238  1.00  0.00     0.053 C 
BRANCH  11  12
ATOM     12  C   UNL     1      17.288  14.619 -17.746  1.00  0.00     0.041 C 
ATOM     13  O   UNL     1      17.767  13.655 -17.093  1.00  0.00    -0.550 OA
ATOM     14  O   UNL     1      16.886  15.769 -17.079  1.00  0.00    -0.550 OA
ENDBRANCH  11  12
ENDBRANCH  10  11
ENDBRANCH   9  10
ENDBRANCH   8   9
ENDBRANCH   1   8
TORSDOF 9
ENDMDL
MODEL 3
REMARK VINA RESULT:    -4.347      2.205      5.476
REMARK INTER + INTRA:          -7.203
REMARK INTER:                  -6.686
REMARK INTRA:                  -0.517
REMARK UNBOUND:                -0.569
REMARK SMILES O=C([O-])CCCCCCCCC(=O)[O-]
REMARK SMILES IDX 7 1 6 2 5 3 4 4 2 5 1 6 3 7 8 8 9 9 10 10 11 11 12 12 13 13
REMARK SMILES IDX 14 14
REMARK H PARENT
REMARK Flexibility Score: inf
ROOT
ATOM      1  C   UNL     1      11.961  12.794 -18.187  1.00  0.00     0.000 C 
ENDROOT
BRANCH   1   2
ATOM      2  C   UNL     1      11.574  12.271 -19.578  1.00  0.00     0.000 C 
BRANCH   2   3
ATOM      3  C   UNL     1      12.567  11.229 -20.115  1.00  0.00     0.006 C 
BRANCH   3   4
ATOM      4  C   UNL     1      12.956  11.482 -21.577  1.00  0.00     0.053 C 
BRANCH   4   5
ATOM      5  C   UNL     1      13.946  12.600 -21.668  1.00  0.00     0.041 C 
ATOM      6  O   UNL     1      15.146  12.412 -21.336  1.00  0.00    -0.550 OA
ATOM      7  O   UNL     1      13.533  13.863 -22.072  1.00  0.00    -0.550 OA
ENDBRANCH   4   5
ENDBRANCH   3   4
ENDBRANCH   2   3
ENDBRANCH   1   2
BRANCH   1   8
ATOM      8  C   UNL     1      12.995  13.921 -18.292  1.00  0.00     0.000 C 
BRANCH   8   9
ATOM      9  C   UNL     1      13.897  13.959 -17.053  1.00  0.00     0.000 C 
BRANCH   9  10
ATOM     10  C   UNL     1      14.830  15.179 -17.089  1.00  0.00     0.006 C 
BRANCH  10  11
ATOM     11  C   UNL     1      16.186  14.892 -16.430  1.00  0.00     0.053 C 
BRANCH  11  12
ATOM     12  C   UNL     1      17.188  14.379 -17.418  1.00  0.00     0.041 C 
ATOM     13  O   UNL     1      17.433  15.031 -18.467  1.00  0.00    -0.550 OA
ATOM     14  O   UNL     1      17.875  13.199 -17.164  1.00  0.00    -0.550 OA
ENDBRANCH  11  12
ENDBRANCH  10  11
ENDBRANCH   9  10
ENDBRANCH   8   9
ENDBRANCH   1   8
TORSDOF 9
ENDMDL
MODEL 4
REMARK VINA RESULT:    -4.339      3.001      4.730
REMARK INTER + INTRA:          -7.190
REMARK INTER:                  -6.220
REMARK INTRA:                  -0.970
REMARK UNBOUND:                -0.569
REMARK SMILES O=C([O-])CCCCCCCCC(=O)[O-]
REMARK SMILES IDX 7 1 6 2 5 3 4 4 2 5 1 6 3 7 8 8 9 9 10 10 11 11 12 12 13 13
REMARK SMILES IDX 14 14
REMARK H PARENT
REMARK Flexibility Score: inf
ROOT
ATOM      1  C   UNL     1      14.685  17.748 -17.020  1.00  0.00     0.000 C 
ENDROOT
BRANCH   1   2
ATOM      2  C   UNL     1      16.194  17.474 -16.946  1.00  0.00     0.000 C 
BRANCH   2   3
ATOM      3  C   UNL     1      16.524  15.974 -16.951  1.00  0.00     0.006 C 
BRANCH   3   4
ATOM      4  C   UNL     1      16.782  15.430 -18.362  1.00  0.00     0.053 C 
BRANCH   4   5
ATOM      5  C   UNL     1      17.216  13.999 -18.299  1.00  0.00     0.041 C 
ATOM      6  O   UNL     1      17.642  13.514 -17.217  1.00  0.00    -0.550 OA
ATOM      7  O   UNL     1      17.198  13.216 -19.446  1.00  0.00    -0.550 OA
ENDBRANCH   4   5
ENDBRANCH   3   4
ENDBRANCH   2   3
ENDBRANCH   1   2
BRANCH   1   8
ATOM      8  C   UNL     1      14.010  17.469 -15.672  1.00  0.00     0.000 C 
BRANCH   8   9
ATOM      9  C   UNL     1      12.760  16.598 -15.851  1.00  0.00     0.000 C 
BRANCH   9  10
ATOM     10  C   UNL     1      12.517  16.283 -17.335  1.00  0.00     0.006 C 
BRANCH  10  11
ATOM     11  C   UNL     1      12.138  14.813 -17.562  1.00  0.00     0.053 C 
BRANCH  11  12
ATOM     12  C   UNL     1      13.347  13.950 -17.754  1.00  0.00     0.041 C 
ATOM     13  O   UNL     1      13.714  13.623 -18.913  1.00  0.00    -0.550 OA
ATOM     14  O   UNL     1      14.088  13.536 -16.654  1.00  0.00    -0.550 OA
ENDBRANCH  11  12
ENDBRANCH  10  11
ENDBRANCH   9  10
ENDBRANCH   8   9
ENDBRANCH   1   8
TORSDOF 9
ENDMDL
MODEL 5
REMARK VINA RESULT:    -4.338      3.209      6.196
REMARK INTER + INTRA:          -7.188
REMARK INTER:                  -6.179
REMARK INTRA:                  -1.010
REMARK UNBOUND:                -0.569
REMARK SMILES O=C([O-])CCCCCCCCC(=O)[O-]
REMARK SMILES IDX 7 1 6 2 5 3 4 4 2 5 1 6 3 7 8 8 9 9 10 10 11 11 12 12 13 13
REMARK SMILES IDX 14 14
REMARK H PARENT
REMARK Flexibility Score: inf
ROOT
ATOM      1  C   UNL     1      13.991  17.134 -15.719  1.00  0.00     0.000 C 
ENDROOT
BRANCH   1   2
ATOM      2  C   UNL     1      12.537  16.740 -16.021  1.00  0.00     0.000 C 
BRANCH   2   3
ATOM      3  C   UNL     1      12.262  16.604 -17.527  1.00  0.00     0.006 C 
BRANCH   3   4
ATOM      4  C   UNL     1      11.952  15.161 -17.944  1.00  0.00     0.053 C 
BRANCH   4   5
ATOM      5  C   UNL     1      13.217  14.374 -18.080  1.00  0.00     0.041 C 
ATOM      6  O   UNL     1      13.560  13.565 -17.178  1.00  0.00    -0.550 OA
ATOM      7  O   UNL     1      14.044  14.570 -19.180  1.00  0.00    -0.550 OA
ENDBRANCH   4   5
ENDBRANCH   3   4
ENDBRANCH   2   3
ENDBRANCH   1   2
BRANCH   1   8
ATOM      8  C   UNL     1      14.598  17.926 -16.883  1.00  0.00     0.000 C 
BRANCH   8   9
ATOM      9  C   UNL     1      15.962  17.354 -17.288  1.00  0.00     0.000 C 
BRANCH   9  10
ATOM     10  C   UNL     1      16.206  15.991 -16.622  1.00  0.00     0.006 C 
BRANCH  10  11
ATOM     11  C   UNL     1      17.131  15.095 -17.457  1.00  0.00     0.053 C 
BRANCH  11  12
ATOM     12  C   UNL     1      17.210  13.706 -16.902  1.00  0.00     0.041 C 
ATOM     13  O   UNL     1      16.612  13.416 -15.833  1.00  0.00    -0.550 OA
ATOM     14  O   UNL     1      17.917  12.723 -17.584  1.00  0.00    -0.550 OA
ENDBRANCH  11  12
ENDBRANCH  10  11
ENDBRANCH   9  10
ENDBRANCH   8   9
ENDBRANCH   1   8
TORSDOF 9
ENDMDL
MODEL 6
REMARK VINA RESULT:    -4.330      3.724      6.537
REMARK INTER + INTRA:          -7.176
REMARK INTER:                  -6.093
REMARK INTRA:                  -1.083
REMARK UNBOUND:                -0.569
REMARK SMILES O=C([O-])CCCCCCCCC(=O)[O-]
REMARK SMILES IDX 7 1 6 2 5 3 4 4 2 5 1 6 3 7 8 8 9 9 10 10 11 11 12 12 13 13
REMARK SMILES IDX 14 14
REMARK H PARENT
REMARK Flexibility Score: inf
ROOT
ATOM      1  C   UNL     1      14.161  18.094 -17.102  1.00  0.00     0.000 C 
ENDROOT
BRANCH   1   2
ATOM      2  C   UNL     1      13.818  17.687 -15.661  1.00  0.00     0.000 C 
BRANCH   2   3
ATOM      3  C   UNL     1      12.614  16.736 -15.585  1.00  0.00     0.006 C 
BRANCH   3   4
ATOM      4  C   UNL     1      11.826  16.673 -16.900  1.00  0.00     0.053 C 
BRANCH   4   5
ATOM      5  C   UNL     1      10.514  15.986 -16.690  1.00  0.00     0.041 C 
ATOM      6  O   UNL     1       9.612  16.538 -16.007  1.00  0.00    -0.550 OA
ATOM      7  O   UNL     1      10.305  14.713 -17.206  1.00  0.00    -0.550 OA
ENDBRANCH   4   5
ENDBRANCH   3   4
ENDBRANCH   2   3
ENDBRANCH   1   2
BRANCH   1   8
ATOM      8  C   UNL     1      15.668  17.982 -17.360  1.00  0.00     0.000 C 
BRANCH   8   9
ATOM      9  C   UNL     1      16.316  16.964 -16.414  1.00  0.00     0.000 C 
BRANCH   9  10
ATOM     10  C   UNL     1      16.717  15.688 -17.169  1.00  0.00     0.006 C 
BRANCH  10  11
ATOM     11  C   UNL     1      15.923  14.461 -16.698  1.00  0.00     0.053 C 
BRANCH  11  12
ATOM     12  C   UNL     1      14.665  14.276 -17.489  1.00  0.00     0.041 C 
ATOM     13  O   UNL     1      13.704  13.619 -17.007  1.00  0.00    -0.550 OA
ATOM     14  O   UNL     1      14.539  14.857 -18.744  1.00  0.00    -0.550 OA
ENDBRANCH  11  12
ENDBRANCH  10  11
ENDBRANCH   9  10
ENDBRANCH   8   9
ENDBRANCH   1   8
TORSDOF 9
ENDMDL
MODEL 7
REMARK VINA RESULT:    -4.328      3.370      4.814
REMARK INTER + INTRA:          -7.174
REMARK INTER:                  -6.545
REMARK INTRA:                  -0.629
REMARK UNBOUND:                -0.569
REMARK SMILES O=C([O-])CCCCCCCCC(=O)[O-]
REMARK SMILES IDX 7 1 6 2 5 3 4 4 2 5 1 6 3 7 8 8 9 9 10 10 11 11 12 12 13 13
REMARK SMILES IDX 14 14
REMARK H PARENT
REMARK Flexibility Score: inf
ROOT
ATOM      1  C   UNL     1      14.086  17.425 -17.177  1.00  0.00     0.000 C 
ENDROOT
BRANCH   1   2
ATOM      2  C   UNL     1      15.603  17.656 -17.108  1.00  0.00     0.000 C 
BRANCH   2   3
ATOM      3  C   UNL     1      16.326  16.593 -16.267  1.00  0.00     0.006 C 
BRANCH   3   4
ATOM      4  C   UNL     1      16.014  15.163 -16.726  1.00  0.00     0.053 C 
BRANCH   4   5
ATOM      5  C   UNL     1      17.181  14.585 -17.463  1.00  0.00     0.041 C 
ATOM      6  O   UNL     1      17.468  14.998 -18.618  1.00  0.00    -0.550 OA
ATOM      7  O   UNL     1      17.922  13.556 -16.895  1.00  0.00    -0.550 OA
ENDBRANCH   4   5
ENDBRANCH   3   4
ENDBRANCH   2   3
ENDBRANCH   1   2
BRANCH   1   8
ATOM      8  C   UNL     1      13.444  17.578 -15.792  1.00  0.00     0.000 C 
BRANCH   8   9
ATOM      9  C   UNL     1      12.253  16.626 -15.628  1.00  0.00     0.000 C 
BRANCH   9  10
ATOM     10  C   UNL     1      12.018  15.813 -16.910  1.00  0.00     0.006 C 
BRANCH  10  11
ATOM     11  C   UNL     1      10.530  15.517 -17.144  1.00  0.00     0.053 C 
BRANCH  11  12
ATOM     12  C   UNL     1      10.332  14.328 -18.033  1.00  0.00     0.041 C 
ATOM     13  O   UNL     1      10.069  14.486 -19.254  1.00  0.00    -0.550 OA
ATOM     14  O   UNL     1      10.472  13.044 -17.520  1.00  0.00    -0.550 OA
ENDBRANCH  11  12
ENDBRANCH  10  11
ENDBRANCH   9  10
ENDBRANCH   8   9
ENDBRANCH   1   8
TORSDOF 9
ENDMDL
MODEL 8
REMARK VINA RESULT:    -4.321      1.427      2.241
REMARK INTER + INTRA:          -7.163
REMARK INTER:                  -6.657
REMARK INTRA:                  -0.506
REMARK UNBOUND:                -0.569
REMARK SMILES O=C([O-])CCCCCCCCC(=O)[O-]
REMARK SMILES IDX 7 1 6 2 5 3 4 4 2 5 1 6 3 7 8 8 9 9 10 10 11 11 12 12 13 13
REMARK SMILES IDX 14 14
REMARK H PARENT
REMARK Flexibility Score: inf
ROOT
ATOM      1  C   UNL     1      15.722  13.504 -19.979  1.00  0.00     0.000 C 
ENDROOT
BRANCH   1   2
ATOM      2  C   UNL     1      17.034  14.036 -19.383  1.00  0.00     0.000 C 
BRANCH   2   3
ATOM      3  C   UNL     1      17.500  13.226 -18.163  1.00  0.00     0.006 C 
BRANCH   3   4
ATOM      4  C   UNL     1      17.415  14.025 -16.856  1.00  0.00     0.053 C 
BRANCH   4   5
ATOM      5  C   UNL     1      16.111  13.765 -16.170  1.00  0.00     0.041 C 
ATOM      6  O   UNL     1      15.127  14.524 -16.372  1.00  0.00    -0.550 OA
ATOM      7  O   UNL     1      15.997  12.713 -15.269  1.00  0.00    -0.550 OA
ENDBRANCH   4   5
ENDBRANCH   3   4
ENDBRANCH   2   3
ENDBRANCH   1   2
BRANCH   1   8
ATOM      8  C   UNL     1      15.997  12.517 -21.119  1.00  0.00     0.000 C 
BRANCH   8   9
ATOM      9  C   UNL     1      14.705  12.162 -21.865  1.00  0.00     0.000 C 
BRANCH   9  10
ATOM     10  C   UNL     1      13.475  12.718 -21.131  1.00  0.00     0.006 C 
BRANCH  10  11
ATOM     11  C   UNL     1      12.532  11.605 -20.653  1.00  0.00     0.053 C 
BRANCH  11  12
ATOM     12  C   UNL     1      11.737  12.025 -19.455  1.00  0.00     0.041 C 
ATOM     13  O   UNL     1      12.322  12.340 -18.386  1.00  0.00    -0.550 OA
ATOM     14  O   UNL     1      10.352  12.102 -19.531  1.00  0.00    -0.550 OA
ENDBRANCH  11  12
ENDBRANCH  10  11
ENDBRANCH   9  10
ENDBRANCH   8   9
ENDBRANCH   1   8
TORSDOF 9
ENDMDL
MODEL 9
REMARK VINA RESULT:    -4.262      3.053      6.941
REMARK INTER + INTRA:          -7.074
REMARK INTER:                  -6.532
REMARK INTRA:                  -0.541
REMARK UNBOUND:                -0.569
REMARK SMILES O=C([O-])CCCCCCCCC(=O)[O-]
REMARK SMILES IDX 7 1 6 2 5 3 4 4 2 5 1 6 3 7 8 8 9 9 10 10 11 11 12 12 13 13
REMARK SMILES IDX 14 14
REMARK H PARENT
REMARK Flexibility Score: inf
ROOT
ATOM      1  C   UNL     1      12.608  16.638 -15.727  1.00  0.00     0.000 C 
ENDROOT
BRANCH   1   2
ATOM      2  C   UNL     1      11.835  16.595 -17.054  1.00  0.00     0.000 C 
BRANCH   2   3
ATOM      3  C   UNL     1      11.845  15.201 -17.700  1.00  0.00     0.006 C 
BRANCH   3   4
ATOM      4  C   UNL     1      10.501  14.475 -17.559  1.00  0.00     0.053 C 
BRANCH   4   5
ATOM      5  C   UNL     1      10.576  13.114 -18.176  1.00  0.00     0.041 C 
ATOM      6  O   UNL     1      10.058  12.901 -19.304  1.00  0.00    -0.550 OA
ATOM      7  O   UNL     1      11.174  12.068 -17.484  1.00  0.00    -0.550 OA
ENDBRANCH   4   5
ENDBRANCH   3   4
ENDBRANCH   2   3
ENDBRANCH   1   2
BRANCH   1   8
ATOM      8  C   UNL     1      13.739  17.671 -15.784  1.00  0.00     0.000 C 
BRANCH   8   9
ATOM      9  C   UNL     1      14.765  17.308 -16.864  1.00  0.00     0.000 C 
BRANCH   9  10
ATOM     10  C   UNL     1      15.981  16.597 -16.252  1.00  0.00     0.006 C 
BRANCH  10  11
ATOM     11  C   UNL     1      15.963  15.085 -16.514  1.00  0.00     0.053 C 
BRANCH  11  12
ATOM     12  C   UNL     1      17.134  14.649 -17.339  1.00  0.00     0.041 C 
ATOM     13  O   UNL     1      17.905  13.747 -16.918  1.00  0.00    -0.550 OA
ATOM     14  O   UNL     1      17.354  15.214 -18.589  1.00  0.00    -0.550 OA
ENDBRANCH  11  12
ENDBRANCH  10  11
ENDBRANCH   9  10
ENDBRANCH   8   9
ENDBRANCH   1   8
TORSDOF 9
ENDMDL
