MODEL 1
REMARK VINA RESULT:    33.673      0.000      0.000
REMARK INTER + INTRA:          45.957
REMARK INTER:                  44.500
REMARK INTRA:                   1.457
REMARK UNBOUND:                 1.457
REMARK SMILES CC(C)=CCC[C@H](C(=O)[O-])[C@@H]1CC[C@@]2(C)C3=C(CC[C@@]12C)[C@]1(C)CC[C@@H](O)C(C)(C)[C@H]1CC3
REMARK SMILES IDX 6 1 7 2 8 3 9 4 10 5 11 6 12 7 20 8 13 9 14 10 19 11 21 12
REMARK SMILES IDX 15 13 16 14 18 15 17 16 33 17 22 18 32 19 31 20 24 21 23 22
REMARK SMILES IDX 28 23 25 24 26 25 29 26 30 27 27 28 5 30 4 31 2 32 1 33 3 34
REMARK H PARENT 27 29
REMARK Flexibility Score: inf
ROOT
ATOM      1  C   UNL     1      14.531 -28.526  16.519  1.00  0.00     0.014 C 
ENDROOT
BRANCH   1   2
ATOM      2  C   UNL     1      14.833 -29.690  15.521  1.00  0.00     0.039 C 
BRANCH   2   3
ATOM      3  C   UNL     1      15.191 -29.170  14.145  1.00  0.00     0.045 C 
ATOM      4  O   UNL     1      16.376 -28.845  13.867  1.00  0.00    -0.550 OA
ATOM      5  O   UNL     1      14.217 -29.101  13.155  1.00  0.00    -0.550 OA
ENDBRANCH   2   3
BRANCH   2   6
ATOM      6  C   UNL     1      13.751 -30.835  15.450  1.00  0.00     0.004 C 
ATOM      7  C   UNL     1      14.021 -31.923  14.410  1.00  0.00     0.006 C 
ATOM      8  C   UNL     1      12.222 -30.445  15.317  1.00  0.00    -0.020 C 
ATOM      9  C   UNL     1      12.696 -32.634  14.236  1.00  0.00     0.012 C 
ATOM     10  C   UNL     1      11.612 -31.536  14.322  1.00  0.00    -0.006 C 
ATOM     11  C   UNL     1      11.553 -30.514  16.725  1.00  0.00     0.012 C 
ATOM     12  C   UNL     1      11.983 -28.982  14.833  1.00  0.00     0.012 C 
ATOM     13  C   UNL     1      11.430 -30.973  12.876  1.00  0.00     0.017 C 
ATOM     14  C   UNL     1      10.301 -32.197  14.841  1.00  0.00    -0.064 C 
ATOM     15  C   UNL     1      11.200 -31.937  17.135  1.00  0.00     0.032 C 
ATOM     16  C   UNL     1      10.179 -32.514  16.171  1.00  0.00    -0.064 C 
ATOM     17  C   UNL     1       9.261 -32.653  13.813  1.00  0.00     0.032 C 
ATOM     18  C   UNL     1       8.961 -33.287  16.732  1.00  0.00    -0.008 C 
ATOM     19  C   UNL     1       8.004 -33.314  14.379  1.00  0.00     0.009 C 
ATOM     20  C   UNL     1       8.366 -34.187  15.589  1.00  0.00     0.007 C 
ATOM     21  C   UNL     1       9.407 -34.220  17.898  1.00  0.00     0.014 C 
ATOM     22  C   UNL     1       7.983 -32.206  17.271  1.00  0.00     0.016 C 
ATOM     23  C   UNL     1       7.276 -35.263  15.997  1.00  0.00    -0.006 C 
ATOM     24  C   UNL     1       8.307 -35.177  18.369  1.00  0.00     0.033 C 
ATOM     25  C   UNL     1       7.811 -36.074  17.223  1.00  0.00     0.120 C 
ATOM     26  C   UNL     1       5.875 -34.652  16.290  1.00  0.00     0.014 C 
ATOM     27  C   UNL     1       7.095 -36.275  14.830  1.00  0.00     0.014 C 
BRANCH  25  28
ATOM     28  O   UNL     1       6.868 -37.012  17.687  1.00  0.00    -0.393 OA
ATOM     29  H   UNL     1       7.201 -37.922  17.473  1.00  0.00     0.210 HD
ENDBRANCH  25  28
ENDBRANCH   2   6
ENDBRANCH   1   2
BRANCH   1  30
ATOM     30  C   UNL     1      14.995 -27.122  16.071  1.00  0.00     0.028 C 
BRANCH  30  31
ATOM     31  C   UNL     1      16.500 -26.985  16.085  1.00  0.00    -0.028 C 
ATOM     32  C   UNL     1      17.209 -26.600  17.169  1.00  0.00    -0.080 C 
ATOM     33  C   UNL     1      18.712 -26.579  17.074  1.00  0.00     0.039 C 
ATOM     34  C   UNL     1      16.535 -26.167  18.452  1.00  0.00     0.039 C 
ENDBRANCH  30  31
ENDBRANCH   1  30
TORSDOF 6
ENDMDL
MODEL 2
REMARK VINA RESULT:    34.602      1.922      8.665
REMARK INTER + INTRA:          47.184
REMARK INTER:                  43.433
REMARK INTRA:                   3.751
REMARK UNBOUND:                 1.457
REMARK SMILES CC(C)=CCC[C@H](C(=O)[O-])[C@@H]1CC[C@@]2(C)C3=C(CC[C@@]12C)[C@]1(C)CC[C@@H](O)C(C)(C)[C@H]1CC3
REMARK SMILES IDX 6 1 7 2 8 3 9 4 10 5 11 6 12 7 20 8 13 9 14 10 19 11 21 12
REMARK SMILES IDX 15 13 16 14 18 15 17 16 33 17 22 18 32 19 31 20 24 21 23 22
REMARK SMILES IDX 28 23 25 24 26 25 29 26 30 27 27 28 5 30 4 31 2 32 1 33 3 34
REMARK H PARENT 27 29
REMARK Flexibility Score: inf
ROOT
ATOM      1  C   UNL     1       6.446 -33.695  16.645  1.00  0.00     0.014 C 
ENDROOT
BRANCH   1   2
ATOM      2  C   UNL     1       6.535 -33.230  15.155  1.00  0.00     0.039 C 
BRANCH   2   3
ATOM      3  C   UNL     1       6.259 -34.368  14.196  1.00  0.00     0.045 C 
ATOM      4  O   UNL     1       6.322 -35.566  14.582  1.00  0.00    -0.550 OA
ATOM      5  O   UNL     1       5.875 -34.095  12.888  1.00  0.00    -0.550 OA
ENDBRANCH   2   3
BRANCH   2   6
ATOM      6  C   UNL     1       7.835 -32.432  14.759  1.00  0.00     0.004 C 
ATOM      7  C   UNL     1       7.898 -31.972  13.302  1.00  0.00     0.006 C 
ATOM      8  C   UNL     1       9.253 -33.044  15.108  1.00  0.00    -0.020 C 
ATOM      9  C   UNL     1       9.354 -31.631  13.063  1.00  0.00     0.012 C 
ATOM     10  C   UNL     1      10.170 -32.682  13.850  1.00  0.00    -0.006 C 
ATOM     11  C   UNL     1       9.786 -32.383  16.417  1.00  0.00     0.012 C 
ATOM     12  C   UNL     1       9.222 -34.572  15.416  1.00  0.00     0.012 C 
ATOM     13  C   UNL     1      10.363 -33.904  12.896  1.00  0.00     0.017 C 
ATOM     14  C   UNL     1      11.536 -32.040  14.232  1.00  0.00    -0.064 C 
ATOM     15  C   UNL     1      10.391 -31.007  16.172  1.00  0.00     0.032 C 
ATOM     16  C   UNL     1      11.597 -31.129  15.257  1.00  0.00    -0.064 C 
ATOM     17  C   UNL     1      12.740 -32.300  13.321  1.00  0.00     0.032 C 
ATOM     18  C   UNL     1      12.893 -30.357  15.606  1.00  0.00    -0.008 C 
ATOM     19  C   UNL     1      14.050 -31.627  13.735  1.00  0.00     0.009 C 
ATOM     20  C   UNL     1      13.767 -30.230  14.306  1.00  0.00     0.007 C 
ATOM     21  C   UNL     1      12.545 -28.918  16.095  1.00  0.00     0.014 C 
ATOM     22  C   UNL     1      13.566 -31.155  16.756  1.00  0.00     0.016 C 
ATOM     23  C   UNL     1      15.017 -29.255  14.357  1.00  0.00    -0.006 C 
ATOM     24  C   UNL     1      13.774 -28.017  16.259  1.00  0.00     0.033 C 
ATOM     25  C   UNL     1      14.552 -27.880  14.940  1.00  0.00     0.120 C 
ATOM     26  C   UNL     1      16.224 -29.829  15.154  1.00  0.00     0.014 C 
ATOM     27  C   UNL     1      15.515 -28.987  12.909  1.00  0.00     0.014 C 
BRANCH  25  28
ATOM     28  O   UNL     1      15.625 -26.976  15.078  1.00  0.00    -0.393 OA
ATOM     29  H   UNL     1      16.231 -27.318  15.785  1.00  0.00     0.210 HD
ENDBRANCH  25  28
ENDBRANCH   2   6
ENDBRANCH   1   2
BRANCH   1  30
ATOM     30  C   UNL     1       7.737 -33.530  17.477  1.00  0.00     0.028 C 
BRANCH  30  31
ATOM     31  C   UNL     1       7.796 -34.496  18.639  1.00  0.00    -0.028 C 
ATOM     32  C   UNL     1       7.596 -35.826  18.521  1.00  0.00    -0.080 C 
ATOM     33  C   UNL     1       7.762 -36.689  19.744  1.00  0.00     0.039 C 
ATOM     34  C   UNL     1       7.187 -36.459  17.209  1.00  0.00     0.039 C 
ENDBRANCH  30  31
ENDBRANCH   1  30
TORSDOF 6
ENDMDL
MODEL 3
REMARK VINA RESULT:    34.982      1.787      3.051
REMARK INTER + INTRA:          47.686
REMARK INTER:                  42.462
REMARK INTRA:                   5.224
REMARK UNBOUND:                 1.457
REMARK SMILES CC(C)=CCC[C@H](C(=O)[O-])[C@@H]1CC[C@@]2(C)C3=C(CC[C@@]12C)[C@]1(C)CC[C@@H](O)C(C)(C)[C@H]1CC3
REMARK SMILES IDX 6 1 7 2 8 3 9 4 10 5 11 6 12 7 20 8 13 9 14 10 19 11 21 12
REMARK SMILES IDX 15 13 16 14 18 15 17 16 33 17 22 18 32 19 31 20 24 21 23 22
REMARK SMILES IDX 28 23 25 24 26 25 29 26 30 27 27 28 5 30 4 31 2 32 1 33 3 34
REMARK H PARENT 27 29
REMARK Flexibility Score: inf
ROOT
ATOM      1  C   UNL     1      15.852 -27.570  16.911  1.00  0.00     0.014 C 
ENDROOT
BRANCH   1   2
ATOM      2  C   UNL     1      15.623 -28.246  15.521  1.00  0.00     0.039 C 
BRANCH   2   3
ATOM      3  C   UNL     1      15.236 -27.234  14.464  1.00  0.00     0.045 C 
ATOM      4  O   UNL     1      14.462 -27.550  13.521  1.00  0.00    -0.550 OA
ATOM      5  O   UNL     1      15.688 -25.923  14.560  1.00  0.00    -0.550 OA
ENDBRANCH   2   3
BRANCH   2   6
ATOM      6  C   UNL     1      14.666 -29.498  15.512  1.00  0.00     0.004 C 
ATOM      7  C   UNL     1      15.272 -30.786  16.071  1.00  0.00     0.006 C 
ATOM      8  C   UNL     1      13.918 -29.889  14.172  1.00  0.00    -0.020 C 
ATOM      9  C   UNL     1      14.364 -31.892  15.578  1.00  0.00     0.012 C 
ATOM     10  C   UNL     1      13.940 -31.487  14.148  1.00  0.00    -0.006 C 
ATOM     11  C   UNL     1      12.460 -29.336  14.221  1.00  0.00     0.012 C 
ATOM     12  C   UNL     1      14.543 -29.255  12.892  1.00  0.00     0.012 C 
ATOM     13  C   UNL     1      15.037 -32.043  13.183  1.00  0.00     0.017 C 
ATOM     14  C   UNL     1      12.553 -32.131  13.859  1.00  0.00    -0.064 C 
ATOM     15  C   UNL     1      11.530 -30.213  15.048  1.00  0.00     0.032 C 
ATOM     16  C   UNL     1      11.422 -31.590  14.417  1.00  0.00    -0.064 C 
ATOM     17  C   UNL     1      12.514 -33.469  13.114  1.00  0.00     0.032 C 
ATOM     18  C   UNL     1      10.029 -32.251  14.277  1.00  0.00    -0.008 C 
ATOM     19  C   UNL     1      11.126 -34.064  12.877  1.00  0.00     0.009 C 
ATOM     20  C   UNL     1      10.224 -33.800  14.091  1.00  0.00     0.007 C 
ATOM     21  C   UNL     1       9.194 -32.023  15.574  1.00  0.00     0.014 C 
ATOM     22  C   UNL     1       9.340 -31.542  13.079  1.00  0.00     0.016 C 
ATOM     23  C   UNL     1       8.935 -34.716  14.188  1.00  0.00    -0.006 C 
ATOM     24  C   UNL     1       7.887 -32.823  15.605  1.00  0.00     0.033 C 
ATOM     25  C   UNL     1       8.147 -34.333  15.484  1.00  0.00     0.120 C 
ATOM     26  C   UNL     1       8.022 -34.646  12.929  1.00  0.00     0.014 C 
ATOM     27  C   UNL     1       9.373 -36.200  14.348  1.00  0.00     0.014 C 
BRANCH  25  28
ATOM     28  O   UNL     1       6.948 -35.064  15.608  1.00  0.00    -0.393 OA
ATOM     29  H   UNL     1       6.923 -35.745  14.887  1.00  0.00     0.210 HD
ENDBRANCH  25  28
ENDBRANCH   2   6
ENDBRANCH   1   2
BRANCH   1  30
ATOM     30  C   UNL     1      14.888 -26.415  17.262  1.00  0.00     0.028 C 
BRANCH  30  31
ATOM     31  C   UNL     1      15.054 -25.944  18.689  1.00  0.00    -0.028 C 
ATOM     32  C   UNL     1      14.141 -25.194  19.343  1.00  0.00    -0.080 C 
ATOM     33  C   UNL     1      14.392 -24.857  20.790  1.00  0.00     0.039 C 
ATOM     34  C   UNL     1      12.900 -24.667  18.657  1.00  0.00     0.039 C 
ENDBRANCH  30  31
ENDBRANCH   1  30
TORSDOF 6
ENDMDL
MODEL 4
REMARK VINA RESULT:    35.150      2.107      8.296
REMARK INTER + INTRA:          47.909
REMARK INTER:                  45.371
REMARK INTRA:                   2.538
REMARK UNBOUND:                 1.457
REMARK SMILES CC(C)=CCC[C@H](C(=O)[O-])[C@@H]1CC[C@@]2(C)C3=C(CC[C@@]12C)[C@]1(C)CC[C@@H](O)C(C)(C)[C@H]1CC3
REMARK SMILES IDX 6 1 7 2 8 3 9 4 10 5 11 6 12 7 20 8 13 9 14 10 19 11 21 12
REMARK SMILES IDX 15 13 16 14 18 15 17 16 33 17 22 18 32 19 31 20 24 21 23 22
REMARK SMILES IDX 28 23 25 24 26 25 29 26 30 27 27 28 5 30 4 31 2 32 1 33 3 34
REMARK H PARENT 27 29
REMARK Flexibility Score: inf
ROOT
ATOM      1  C   UNL     1       6.211 -35.673  16.840  1.00  0.00     0.014 C 
ENDROOT
BRANCH   1   2
ATOM      2  C   UNL     1       6.510 -35.004  15.459  1.00  0.00     0.039 C 
BRANCH   2   3
ATOM      3  C   UNL     1       6.835 -36.033  14.397  1.00  0.00     0.045 C 
ATOM      4  O   UNL     1       7.528 -37.048  14.673  1.00  0.00    -0.550 OA
ATOM      5  O   UNL     1       6.317 -35.892  13.115  1.00  0.00    -0.550 OA
ENDBRANCH   2   3
BRANCH   2   6
ATOM      6  C   UNL     1       7.559 -33.828  15.476  1.00  0.00     0.004 C 
ATOM      7  C   UNL     1       6.996 -32.459  15.860  1.00  0.00     0.006 C 
ATOM      8  C   UNL     1       8.487 -33.604  14.213  1.00  0.00    -0.020 C 
ATOM      9  C   UNL     1       8.042 -31.464  15.402  1.00  0.00     0.012 C 
ATOM     10  C   UNL     1       8.596 -32.016  14.069  1.00  0.00    -0.006 C 
ATOM     11  C   UNL     1       9.881 -34.253  14.482  1.00  0.00     0.012 C 
ATOM     12  C   UNL     1       7.967 -34.296  12.916  1.00  0.00     0.012 C 
ATOM     13  C   UNL     1       7.668 -31.466  12.938  1.00  0.00     0.017 C 
ATOM     14  C   UNL     1      10.055 -31.498  13.905  1.00  0.00    -0.064 C 
ATOM     15  C   UNL     1      10.775 -33.377  15.350  1.00  0.00     0.032 C 
ATOM     16  C   UNL     1      11.066 -32.069  14.637  1.00  0.00    -0.064 C 
ATOM     17  C   UNL     1      10.288 -30.232  13.074  1.00  0.00     0.032 C 
ATOM     18  C   UNL     1      12.514 -31.522  14.621  1.00  0.00    -0.008 C 
ATOM     19  C   UNL     1      11.738 -29.759  12.966  1.00  0.00     0.009 C 
ATOM     20  C   UNL     1      12.467 -29.985  14.299  1.00  0.00     0.007 C 
ATOM     21  C   UNL     1      13.170 -31.700  16.024  1.00  0.00     0.014 C 
ATOM     22  C   UNL     1      13.279 -32.375  13.572  1.00  0.00     0.016 C 
ATOM     23  C   UNL     1      13.806 -29.156  14.485  1.00  0.00    -0.006 C 
ATOM     24  C   UNL     1      14.525 -30.995  16.157  1.00  0.00     0.033 C 
ATOM     25  C   UNL     1      14.403 -29.486  15.893  1.00  0.00     0.120 C 
ATOM     26  C   UNL     1      14.850 -29.396  13.357  1.00  0.00     0.014 C 
ATOM     27  C   UNL     1      13.472 -27.638  14.480  1.00  0.00     0.014 C 
BRANCH  25  28
ATOM     28  O   UNL     1      15.634 -28.834  16.109  1.00  0.00    -0.393 OA
ATOM     29  H   UNL     1      16.338 -29.525  16.215  1.00  0.00     0.210 HD
ENDBRANCH  25  28
ENDBRANCH   2   6
ENDBRANCH   1   2
BRANCH   1  30
ATOM     30  C   UNL     1       7.444 -35.968  17.723  1.00  0.00     0.028 C 
BRANCH  30  31
ATOM     31  C   UNL     1       8.463 -34.852  17.674  1.00  0.00    -0.028 C 
ATOM     32  C   UNL     1       8.531 -33.857  18.584  1.00  0.00    -0.080 C 
ATOM     33  C   UNL     1       9.645 -32.850  18.465  1.00  0.00     0.039 C 
ATOM     34  C   UNL     1       7.510 -33.715  19.691  1.00  0.00     0.039 C 
ENDBRANCH  30  31
ENDBRANCH   1  30
TORSDOF 6
ENDMDL
