MODEL 1
REMARK VINA RESULT:    -3.498      0.000      0.000
REMARK INTER + INTRA:          -5.773
REMARK INTER:                  -5.338
REMARK INTRA:                  -0.434
REMARK UNBOUND:                -0.434
REMARK SMILES CCCCCCCCCCC(=O)[O-]
REMARK SMILES IDX 7 1 8 2 9 3 10 4 11 5 12 6 13 7 6 8 5 9 4 10 3 11 2 12 1 13
REMARK H PARENT
REMARK Flexibility Score: inf
ROOT
ATOM      1  C   UNL     1      42.918  21.574  79.012  1.00  0.00     0.000 C 
ENDROOT
BRANCH   1   2
ATOM      2  C   UNL     1      44.352  21.020  78.890  1.00  0.00     0.000 C 
BRANCH   2   3
ATOM      3  C   UNL     1      44.467  19.671  78.160  1.00  0.00     0.006 C 
BRANCH   3   4
ATOM      4  C   UNL     1      45.892  19.377  77.674  1.00  0.00     0.053 C 
BRANCH   4   5
ATOM      5  C   UNL     1      45.879  18.288  76.648  1.00  0.00     0.041 C 
ATOM      6  O   UNL     1      45.698  17.091  76.996  1.00  0.00    -0.550 OA
ATOM      7  O   UNL     1      46.117  18.588  75.313  1.00  0.00    -0.550 OA
ENDBRANCH   4   5
ENDBRANCH   3   4
ENDBRANCH   2   3
ENDBRANCH   1   2
BRANCH   1   8
ATOM      8  C   UNL     1      42.146  21.126  80.270  1.00  0.00     0.000 C 
BRANCH   8   9
ATOM      9  C   UNL     1      41.208  19.925  80.060  1.00  0.00    -0.000 C 
BRANCH   9  10
ATOM     10  C   UNL     1      40.005  20.260  79.162  1.00  0.00    -0.000 C 
BRANCH  10  11
ATOM     11  C   UNL     1      38.758  20.677  79.964  1.00  0.00    -0.000 C 
BRANCH  11  12
ATOM     12  C   UNL     1      38.176  19.574  80.867  1.00  0.00    -0.003 C 
ATOM     13  C   UNL     1      37.751  18.328  80.091  1.00  0.00     0.004 C 
ENDBRANCH  11  12
ENDBRANCH  10  11
ENDBRANCH   9  10
ENDBRANCH   8   9
ENDBRANCH   1   8
TORSDOF 9
ENDMDL
MODEL 2
REMARK VINA RESULT:    -3.462      3.833      7.142
REMARK INTER + INTRA:          -5.717
REMARK INTER:                  -5.455
REMARK INTRA:                  -0.262
REMARK UNBOUND:                -0.434
REMARK SMILES CCCCCCCCCCC(=O)[O-]
REMARK SMILES IDX 7 1 8 2 9 3 10 4 11 5 12 6 13 7 6 8 5 9 4 10 3 11 2 12 1 13
REMARK H PARENT
REMARK Flexibility Score: inf
ROOT
ATOM      1  C   UNL     1      42.107  20.649  78.660  1.00  0.00     0.000 C 
ENDROOT
BRANCH   1   2
ATOM      2  C   UNL     1      41.265  20.098  79.829  1.00  0.00     0.000 C 
BRANCH   2   3
ATOM      3  C   UNL     1      39.820  19.717  79.465  1.00  0.00     0.006 C 
BRANCH   3   4
ATOM      4  C   UNL     1      38.779  20.428  80.339  1.00  0.00     0.053 C 
BRANCH   4   5
ATOM      5  C   UNL     1      37.816  19.437  80.913  1.00  0.00     0.041 C 
ATOM      6  O   UNL     1      37.309  19.631  82.050  1.00  0.00    -0.550 OA
ATOM      7  O   UNL     1      37.514  18.275  80.215  1.00  0.00    -0.550 OA
ENDBRANCH   4   5
ENDBRANCH   3   4
ENDBRANCH   2   3
ENDBRANCH   1   2
BRANCH   1   8
ATOM      8  C   UNL     1      43.634  20.580  78.861  1.00  0.00     0.000 C 
BRANCH   8   9
ATOM      9  C   UNL     1      44.467  20.855  77.597  1.00  0.00    -0.000 C 
BRANCH   9  10
ATOM     10  C   UNL     1      45.852  20.188  77.640  1.00  0.00    -0.000 C 
BRANCH  10  11
ATOM     11  C   UNL     1      45.773  18.654  77.744  1.00  0.00    -0.000 C 
BRANCH  11  12
ATOM     12  C   UNL     1      45.828  17.914  76.395  1.00  0.00    -0.003 C 
ATOM     13  C   UNL     1      46.038  16.408  76.547  1.00  0.00     0.004 C 
ENDBRANCH  11  12
ENDBRANCH  10  11
ENDBRANCH   9  10
ENDBRANCH   8   9
ENDBRANCH   1   8
TORSDOF 9
ENDMDL
MODEL 3
REMARK VINA RESULT:    -3.353     17.729     19.291
REMARK INTER + INTRA:          -5.552
REMARK INTER:                  -4.532
REMARK INTRA:                  -1.020
REMARK UNBOUND:                -0.434
REMARK SMILES CCCCCCCCCCC(=O)[O-]
REMARK SMILES IDX 7 1 8 2 9 3 10 4 11 5 12 6 13 7 6 8 5 9 4 10 3 11 2 12 1 13
REMARK H PARENT
REMARK Flexibility Score: inf
ROOT
ATOM      1  C   UNL     1      48.873  31.959  88.342  1.00  0.00     0.000 C 
ENDROOT
BRANCH   1   2
ATOM      2  C   UNL     1      50.406  31.842  88.219  1.00  0.00     0.000 C 
BRANCH   2   3
ATOM      3  C   UNL     1      51.186  32.159  89.507  1.00  0.00     0.006 C 
BRANCH   3   4
ATOM      4  C   UNL     1      50.573  31.501  90.750  1.00  0.00     0.053 C 
BRANCH   4   5
ATOM      5  C   UNL     1      51.365  31.854  91.970  1.00  0.00     0.041 C 
ATOM      6  O   UNL     1      52.580  31.534  92.052  1.00  0.00    -0.550 OA
ATOM      7  O   UNL     1      50.748  32.493  93.038  1.00  0.00    -0.550 OA
ENDBRANCH   4   5
ENDBRANCH   3   4
ENDBRANCH   2   3
ENDBRANCH   1   2
BRANCH   1   8
ATOM      8  C   UNL     1      48.247  33.168  87.616  1.00  0.00     0.000 C 
BRANCH   8   9
ATOM      9  C   UNL     1      48.710  33.360  86.162  1.00  0.00    -0.000 C 
BRANCH   9  10
ATOM     10  C   UNL     1      49.381  34.724  85.927  1.00  0.00    -0.000 C 
BRANCH  10  11
ATOM     11  C   UNL     1      49.734  35.450  87.238  1.00  0.00    -0.000 C 
BRANCH  11  12
ATOM     12  C   UNL     1      51.241  35.538  87.539  1.00  0.00    -0.003 C 
ATOM     13  C   UNL     1      52.107  34.919  86.443  1.00  0.00     0.004 C 
ENDBRANCH  11  12
ENDBRANCH  10  11
ENDBRANCH   9  10
ENDBRANCH   8   9
ENDBRANCH   1   8
TORSDOF 9
ENDMDL
MODEL 4
REMARK VINA RESULT:    -3.285      2.179      3.130
REMARK INTER + INTRA:          -5.448
REMARK INTER:                  -5.023
REMARK INTRA:                  -0.424
REMARK UNBOUND:                -0.434
REMARK SMILES CCCCCCCCCCC(=O)[O-]
REMARK SMILES IDX 7 1 8 2 9 3 10 4 11 5 12 6 13 7 6 8 5 9 4 10 3 11 2 12 1 13
REMARK H PARENT
REMARK Flexibility Score: inf
ROOT
ATOM      1  C   UNL     1      44.450  20.966  78.741  1.00  0.00     0.000 C 
ENDROOT
BRANCH   1   2
ATOM      2  C   UNL     1      44.571  19.559  78.121  1.00  0.00     0.000 C 
BRANCH   2   3
ATOM      3  C   UNL     1      45.976  19.193  77.611  1.00  0.00     0.006 C 
BRANCH   3   4
ATOM      4  C   UNL     1      45.964  18.650  76.176  1.00  0.00     0.053 C 
BRANCH   4   5
ATOM      5  C   UNL     1      46.017  17.154  76.184  1.00  0.00     0.041 C 
ATOM      6  O   UNL     1      46.100  16.529  77.273  1.00  0.00    -0.550 OA
ATOM      7  O   UNL     1      46.023  16.452  74.985  1.00  0.00    -0.550 OA
ENDBRANCH   4   5
ENDBRANCH   3   4
ENDBRANCH   2   3
ENDBRANCH   1   2
BRANCH   1   8
ATOM      8  C   UNL     1      43.084  21.285  79.382  1.00  0.00     0.000 C 
BRANCH   8   9
ATOM      9  C   UNL     1      41.933  20.365  78.942  1.00  0.00    -0.000 C 
BRANCH   9  10
ATOM     10  C   UNL     1      40.950  21.059  77.984  1.00  0.00    -0.000 C 
BRANCH  10  11
ATOM     11  C   UNL     1      41.659  21.904  76.910  1.00  0.00    -0.000 C 
BRANCH  11  12
ATOM     12  C   UNL     1      40.783  22.273  75.699  1.00  0.00    -0.003 C 
ATOM     13  C   UNL     1      40.464  21.077  74.804  1.00  0.00     0.004 C 
ENDBRANCH  11  12
ENDBRANCH  10  11
ENDBRANCH   9  10
ENDBRANCH   8   9
ENDBRANCH   1   8
TORSDOF 9
ENDMDL
MODEL 5
REMARK VINA RESULT:    -3.283      4.835      6.261
REMARK INTER + INTRA:          -5.445
REMARK INTER:                  -4.195
REMARK INTRA:                  -1.250
REMARK UNBOUND:                -0.434
REMARK SMILES CCCCCCCCCCC(=O)[O-]
REMARK SMILES IDX 7 1 8 2 9 3 10 4 11 5 12 6 13 7 6 8 5 9 4 10 3 11 2 12 1 13
REMARK H PARENT
REMARK Flexibility Score: inf
ROOT
ATOM      1  C   UNL     1      48.674  21.764  77.028  1.00  0.00     0.000 C 
ENDROOT
BRANCH   1   2
ATOM      2  C   UNL     1      49.065  21.456  75.568  1.00  0.00     0.000 C 
BRANCH   2   3
ATOM      3  C   UNL     1      47.925  20.911  74.692  1.00  0.00     0.006 C 
BRANCH   3   4
ATOM      4  C   UNL     1      46.580  21.592  74.973  1.00  0.00     0.053 C 
BRANCH   4   5
ATOM      5  C   UNL     1      45.518  21.042  74.074  1.00  0.00     0.041 C 
ATOM      6  O   UNL     1      44.302  21.202  74.358  1.00  0.00    -0.550 OA
ATOM      7  O   UNL     1      45.871  20.309  72.948  1.00  0.00    -0.550 OA
ENDBRANCH   4   5
ENDBRANCH   3   4
ENDBRANCH   2   3
ENDBRANCH   1   2
BRANCH   1   8
ATOM      8  C   UNL     1      49.129  20.717  78.064  1.00  0.00     0.000 C 
BRANCH   8   9
ATOM      9  C   UNL     1      47.989  19.926  78.729  1.00  0.00    -0.000 C 
BRANCH   9  10
ATOM     10  C   UNL     1      46.633  20.645  78.633  1.00  0.00    -0.000 C 
BRANCH  10  11
ATOM     11  C   UNL     1      45.530  19.761  78.021  1.00  0.00    -0.000 C 
BRANCH  11  12
ATOM     12  C   UNL     1      45.985  18.344  77.630  1.00  0.00    -0.003 C 
ATOM     13  C   UNL     1      45.937  18.094  76.123  1.00  0.00     0.004 C 
ENDBRANCH  11  12
ENDBRANCH  10  11
ENDBRANCH   9  10
ENDBRANCH   8   9
ENDBRANCH   1   8
TORSDOF 9
ENDMDL
MODEL 6
REMARK VINA RESULT:    -3.254      3.196      3.885
REMARK INTER + INTRA:          -5.401
REMARK INTER:                  -4.665
REMARK INTRA:                  -0.736
REMARK UNBOUND:                -0.434
REMARK SMILES CCCCCCCCCCC(=O)[O-]
REMARK SMILES IDX 7 1 8 2 9 3 10 4 11 5 12 6 13 7 6 8 5 9 4 10 3 11 2 12 1 13
REMARK H PARENT
REMARK Flexibility Score: inf
ROOT
ATOM      1  C   UNL     1      42.443  22.238  78.795  1.00  0.00     0.000 C 
ENDROOT
BRANCH   1   2
ATOM      2  C   UNL     1      42.290  22.831  77.379  1.00  0.00     0.000 C 
BRANCH   2   3
ATOM      3  C   UNL     1      42.168  21.793  76.250  1.00  0.00     0.006 C 
BRANCH   3   4
ATOM      4  C   UNL     1      40.718  21.569  75.802  1.00  0.00     0.053 C 
BRANCH   4   5
ATOM      5  C   UNL     1      40.680  21.048  74.400  1.00  0.00     0.041 C 
ATOM      6  O   UNL     1      41.396  21.575  73.508  1.00  0.00    -0.550 OA
ATOM      7  O   UNL     1      39.818  20.010  74.067  1.00  0.00    -0.550 OA
ENDBRANCH   4   5
ENDBRANCH   3   4
ENDBRANCH   2   3
ENDBRANCH   1   2
BRANCH   1   8
ATOM      8  C   UNL     1      42.593  20.704  78.850  1.00  0.00     0.000 C 
BRANCH   8   9
ATOM      9  C   UNL     1      41.544  19.982  79.714  1.00  0.00    -0.000 C 
BRANCH   9  10
ATOM     10  C   UNL     1      40.137  20.020  79.094  1.00  0.00    -0.000 C 
BRANCH  10  11
ATOM     11  C   UNL     1      39.116  20.764  79.974  1.00  0.00    -0.000 C 
BRANCH  11  12
ATOM     12  C   UNL     1      37.852  19.955  80.318  1.00  0.00    -0.003 C 
ATOM     13  C   UNL     1      38.010  18.458  80.056  1.00  0.00     0.004 C 
ENDBRANCH  11  12
ENDBRANCH  10  11
ENDBRANCH   9  10
ENDBRANCH   8   9
ENDBRANCH   1   8
TORSDOF 9
ENDMDL
MODEL 7
REMARK VINA RESULT:    -3.235      1.954      3.169
REMARK INTER + INTRA:          -5.371
REMARK INTER:                  -4.137
REMARK INTRA:                  -1.235
REMARK UNBOUND:                -0.434
REMARK SMILES CCCCCCCCCCC(=O)[O-]
REMARK SMILES IDX 7 1 8 2 9 3 10 4 11 5 12 6 13 7 6 8 5 9 4 10 3 11 2 12 1 13
REMARK H PARENT
REMARK Flexibility Score: inf
ROOT
ATOM      1  C   UNL     1      43.525  21.314  79.504  1.00  0.00     0.000 C 
ENDROOT
BRANCH   1   2
ATOM      2  C   UNL     1      44.112  20.323  78.478  1.00  0.00     0.000 C 
BRANCH   2   3
ATOM      3  C   UNL     1      45.043  20.953  77.427  1.00  0.00     0.006 C 
BRANCH   3   4
ATOM      4  C   UNL     1      44.861  20.344  76.031  1.00  0.00     0.053 C 
BRANCH   4   5
ATOM      5  C   UNL     1      45.996  19.422  75.712  1.00  0.00     0.041 C 
ATOM      6  O   UNL     1      45.930  18.204  76.026  1.00  0.00    -0.550 OA
ATOM      7  O   UNL     1      47.147  19.916  75.112  1.00  0.00    -0.550 OA
ENDBRANCH   4   5
ENDBRANCH   3   4
ENDBRANCH   2   3
ENDBRANCH   1   2
BRANCH   1   8
ATOM      8  C   UNL     1      42.123  20.954  80.035  1.00  0.00     0.000 C 
BRANCH   8   9
ATOM      9  C   UNL     1      41.175  20.336  78.993  1.00  0.00    -0.000 C 
BRANCH   9  10
ATOM     10  C   UNL     1      40.405  21.396  78.187  1.00  0.00    -0.000 C 
BRANCH  10  11
ATOM     11  C   UNL     1      40.786  21.406  76.696  1.00  0.00    -0.000 C 
BRANCH  11  12
ATOM     12  C   UNL     1      41.760  22.527  76.288  1.00  0.00    -0.003 C 
ATOM     13  C   UNL     1      41.740  23.715  77.248  1.00  0.00     0.004 C 
ENDBRANCH  11  12
ENDBRANCH  10  11
ENDBRANCH   9  10
ENDBRANCH   8   9
ENDBRANCH   1   8
TORSDOF 9
ENDMDL
MODEL 8
REMARK VINA RESULT:    -3.205      2.001      3.093
REMARK INTER + INTRA:          -5.325
REMARK INTER:                  -4.185
REMARK INTRA:                  -1.140
REMARK UNBOUND:                -0.434
REMARK SMILES CCCCCCCCCCC(=O)[O-]
REMARK SMILES IDX 7 1 8 2 9 3 10 4 11 5 12 6 13 7 6 8 5 9 4 10 3 11 2 12 1 13
REMARK H PARENT
REMARK Flexibility Score: inf
ROOT
ATOM      1  C   UNL     1      43.314  21.511  75.448  1.00  0.00     0.000 C 
ENDROOT
BRANCH   1   2
ATOM      2  C   UNL     1      44.683  21.170  76.074  1.00  0.00     0.000 C 
BRANCH   2   3
ATOM      3  C   UNL     1      44.698  21.115  77.611  1.00  0.00     0.006 C 
BRANCH   3   4
ATOM      4  C   UNL     1      44.594  19.685  78.156  1.00  0.00     0.053 C 
BRANCH   4   5
ATOM      5  C   UNL     1      45.792  18.884  77.752  1.00  0.00     0.041 C 
ATOM      6  O   UNL     1      46.944  19.241  78.113  1.00  0.00    -0.550 OA
ATOM      7  O   UNL     1      45.641  17.771  76.935  1.00  0.00    -0.550 OA
ENDBRANCH   4   5
ENDBRANCH   3   4
ENDBRANCH   2   3
ENDBRANCH   1   2
BRANCH   1   8
ATOM      8  C   UNL     1      42.373  22.343  76.343  1.00  0.00     0.000 C 
BRANCH   8   9
ATOM      9  C   UNL     1      40.970  21.743  76.540  1.00  0.00    -0.000 C 
BRANCH   9  10
ATOM     10  C   UNL     1      40.557  21.673  78.020  1.00  0.00    -0.000 C 
BRANCH  10  11
ATOM     11  C   UNL     1      40.959  20.347  78.690  1.00  0.00    -0.000 C 
BRANCH  11  12
ATOM     12  C   UNL     1      41.389  20.474  80.163  1.00  0.00    -0.003 C 
ATOM     13  C   UNL     1      42.280  21.689  80.423  1.00  0.00     0.004 C 
ENDBRANCH  11  12
ENDBRANCH  10  11
ENDBRANCH   9  10
ENDBRANCH   8   9
ENDBRANCH   1   8
TORSDOF 9
ENDMDL
MODEL 9
REMARK VINA RESULT:    -1.398     16.641     18.219
REMARK INTER + INTRA:          -2.568
REMARK INTER:                  -1.549
REMARK INTRA:                  -1.019
REMARK UNBOUND:                -0.434
REMARK SMILES CCCCCCCCCCC(=O)[O-]
REMARK SMILES IDX 7 1 8 2 9 3 10 4 11 5 12 6 13 7 6 8 5 9 4 10 3 11 2 12 1 13
REMARK H PARENT
REMARK Flexibility Score: inf
ROOT
ATOM      1  C   UNL     1      47.130  31.198  87.898  1.00  0.00     0.000 C 
ENDROOT
BRANCH   1   2
ATOM      2  C   UNL     1      48.014  32.066  86.980  1.00  0.00     0.000 C 
BRANCH   2   3
ATOM      3  C   UNL     1      48.400  33.438  87.558  1.00  0.00     0.006 C 
BRANCH   3   4
ATOM      4  C   UNL     1      49.870  33.798  87.308  1.00  0.00     0.053 C 
BRANCH   4   5
ATOM      5  C   UNL     1      50.076  35.274  87.438  1.00  0.00     0.041 C 
ATOM      6  O   UNL     1      51.240  35.747  87.521  1.00  0.00    -0.550 OA
ATOM      7  O   UNL     1      48.980  36.125  87.517  1.00  0.00    -0.550 OA
ENDBRANCH   4   5
ENDBRANCH   3   4
ENDBRANCH   2   3
ENDBRANCH   1   2
BRANCH   1   8
ATOM      8  C   UNL     1      46.733  31.853  89.237  1.00  0.00     0.000 C 
BRANCH   8   9
ATOM      9  C   UNL     1      47.165  31.074  90.491  1.00  0.00    -0.000 C 
BRANCH   9  10
ATOM     10  C   UNL     1      48.665  31.222  90.796  1.00  0.00    -0.000 C 
BRANCH  10  11
ATOM     11  C   UNL     1      49.478  29.969  90.423  1.00  0.00    -0.000 C 
BRANCH  11  12
ATOM     12  C   UNL     1      50.827  30.257  89.740  1.00  0.00    -0.003 C 
ATOM     13  C   UNL     1      51.296  31.700  89.925  1.00  0.00     0.004 C 
ENDBRANCH  11  12
ENDBRANCH  10  11
ENDBRANCH   9  10
ENDBRANCH   8   9
ENDBRANCH   1   8
TORSDOF 9
ENDMDL
