MODEL 1
REMARK VINA RESULT:    -5.664      0.000      0.000
REMARK INTER + INTRA:          -6.621
REMARK INTER:                  -6.658
REMARK INTRA:                   0.037
REMARK UNBOUND:                 0.037
REMARK SMILES Oc1ccc(-c2[o+]c3cc(O)cc(O)c3cc2O)cc1
REMARK SMILES IDX 6 1 7 2 8 3 9 4 10 5 12 6 13 7 15 8 16 9 17 10 5 11 4 12
REMARK SMILES IDX 3 13 2 14 19 15 20 16 1 17 18 19 11 21 14 23
REMARK H PARENT 1 18 18 20 11 22 14 24
REMARK Flexibility Score: inf
ROOT
ATOM      1  C   UNL     1      15.117  17.333  30.844  1.00  0.00     0.401 A 
ATOM      2  O   UNL     1      15.333  17.685  32.108  1.00  0.00    -0.202 OA
ATOM      3  C   UNL     1      16.382  18.403  32.498  1.00  0.00     0.368 A 
ATOM      4  C   UNL     1      16.520  18.726  33.850  1.00  0.00     0.162 A 
ATOM      5  C   UNL     1      17.610  19.481  34.287  1.00  0.00     0.128 A 
ATOM      6  C   UNL     1      18.568  19.919  33.366  1.00  0.00     0.093 A 
ATOM      7  C   UNL     1      18.451  19.609  32.005  1.00  0.00     0.136 A 
ATOM      8  C   UNL     1      17.347  18.839  31.558  1.00  0.00     0.125 A 
ATOM      9  C   UNL     1      17.156  18.470  30.216  1.00  0.00     0.078 A 
ATOM     10  C   UNL     1      16.044  17.704  29.851  1.00  0.00     0.223 A 
ENDROOT
BRANCH   1  11
ATOM     11  C   UNL     1      13.906  16.540  30.534  1.00  0.00     0.084 A 
ATOM     12  C   UNL     1      12.638  16.919  31.015  1.00  0.00     0.022 A 
ATOM     13  C   UNL     1      11.512  16.141  30.729  1.00  0.00     0.047 A 
ATOM     14  C   UNL     1      11.640  14.969  29.971  1.00  0.00     0.115 A 
ATOM     15  C   UNL     1      14.028  15.353  29.795  1.00  0.00     0.022 A 
ATOM     16  C   UNL     1      12.899  14.577  29.509  1.00  0.00     0.047 A 
BRANCH  14  17
ATOM     17  O   UNL     1      10.525  14.187  29.679  1.00  0.00    -0.508 OA
ATOM     18  H   UNL     1       9.586  14.502  29.893  1.00  0.00     0.293 HD
ENDBRANCH  14  17
ENDBRANCH   1  11
BRANCH  10  19
ATOM     19  O   UNL     1      15.879  17.296  28.527  1.00  0.00    -0.500 OA
ATOM     20  H   UNL     1      15.456  16.405  28.293  1.00  0.00     0.294 HD
ENDBRANCH  10  19
BRANCH   5  21
ATOM     21  O   UNL     1      17.730  19.792  35.639  1.00  0.00    -0.507 OA
ATOM     22  H   UNL     1      17.018  20.325  36.125  1.00  0.00     0.293 HD
ENDBRANCH   5  21
BRANCH   7  23
ATOM     23  O   UNL     1      19.448  20.086  31.149  1.00  0.00    -0.507 OA
ATOM     24  H   UNL     1      20.109  19.499  30.661  1.00  0.00     0.293 HD
ENDBRANCH   7  23
TORSDOF 5
ENDMDL
MODEL 2
REMARK VINA RESULT:    -5.547      3.769      8.805
REMARK INTER + INTRA:          -6.483
REMARK INTER:                  -6.318
REMARK INTRA:                  -0.166
REMARK UNBOUND:                 0.037
REMARK SMILES Oc1ccc(-c2[o+]c3cc(O)cc(O)c3cc2O)cc1
REMARK SMILES IDX 6 1 7 2 8 3 9 4 10 5 12 6 13 7 15 8 16 9 17 10 5 11 4 12
REMARK SMILES IDX 3 13 2 14 19 15 20 16 1 17 18 19 11 21 14 23
REMARK H PARENT 1 18 18 20 11 22 14 24
REMARK Flexibility Score: inf
ROOT
ATOM      1  C   UNL     1      10.614  15.466  31.699  1.00  0.00     0.401 A 
ATOM      2  O   UNL     1       9.574  15.179  30.921  1.00  0.00    -0.202 OA
ATOM      3  C   UNL     1       8.340  15.007  31.384  1.00  0.00     0.368 A 
ATOM      4  C   UNL     1       7.312  14.711  30.485  1.00  0.00     0.162 A 
ATOM      5  C   UNL     1       6.006  14.528  30.944  1.00  0.00     0.128 A 
ATOM      6  C   UNL     1       5.724  14.645  32.309  1.00  0.00     0.093 A 
ATOM      7  C   UNL     1       6.737  14.941  33.229  1.00  0.00     0.136 A 
ATOM      8  C   UNL     1       8.066  15.124  32.768  1.00  0.00     0.125 A 
ATOM      9  C   UNL     1       9.146  15.411  33.619  1.00  0.00     0.078 A 
ATOM     10  C   UNL     1      10.431  15.573  33.091  1.00  0.00     0.223 A 
ENDROOT
BRANCH   1  11
ATOM     11  C   UNL     1      11.938  15.643  31.062  1.00  0.00     0.084 A 
ATOM     12  C   UNL     1      12.637  16.862  31.147  1.00  0.00     0.022 A 
ATOM     13  C   UNL     1      13.876  17.013  30.517  1.00  0.00     0.047 A 
ATOM     14  C   UNL     1      14.425  15.954  29.783  1.00  0.00     0.115 A 
ATOM     15  C   UNL     1      12.487  14.595  30.306  1.00  0.00     0.022 A 
ATOM     16  C   UNL     1      13.727  14.748  29.678  1.00  0.00     0.047 A 
BRANCH  14  17
ATOM     17  O   UNL     1      15.660  16.093  29.152  1.00  0.00    -0.508 OA
ATOM     18  H   UNL     1      16.167  16.970  29.168  1.00  0.00     0.293 HD
ENDBRANCH  14  17
ENDBRANCH   1  11
BRANCH  10  19
ATOM     19  O   UNL     1      11.512  15.809  33.941  1.00  0.00    -0.500 OA
ATOM     20  H   UNL     1      12.390  16.179  33.595  1.00  0.00     0.294 HD
ENDBRANCH  10  19
BRANCH   5  21
ATOM     21  O   UNL     1       4.995  14.234  30.032  1.00  0.00    -0.507 OA
ATOM     22  H   UNL     1       4.565  13.316  29.995  1.00  0.00     0.293 HD
ENDBRANCH   5  21
BRANCH   7  23
ATOM     23  O   UNL     1       6.374  15.043  34.576  1.00  0.00    -0.507 OA
ATOM     24  H   UNL     1       6.988  15.366  35.309  1.00  0.00     0.293 HD
ENDBRANCH   7  23
TORSDOF 5
ENDMDL
MODEL 3
REMARK VINA RESULT:    -5.532      1.811      2.492
REMARK INTER + INTRA:          -6.466
REMARK INTER:                  -6.200
REMARK INTRA:                  -0.266
REMARK UNBOUND:                 0.037
REMARK SMILES Oc1ccc(-c2[o+]c3cc(O)cc(O)c3cc2O)cc1
REMARK SMILES IDX 6 1 7 2 8 3 9 4 10 5 12 6 13 7 15 8 16 9 17 10 5 11 4 12
REMARK SMILES IDX 3 13 2 14 19 15 20 16 1 17 18 19 11 21 14 23
REMARK H PARENT 1 18 18 20 11 22 14 24
REMARK Flexibility Score: inf
ROOT
ATOM      1  C   UNL     1      14.054  16.224  30.898  1.00  0.00     0.401 A 
ATOM      2  O   UNL     1      14.683  17.081  31.697  1.00  0.00    -0.202 OA
ATOM      3  C   UNL     1      15.813  17.697  31.362  1.00  0.00     0.368 A 
ATOM      4  C   UNL     1      16.398  18.584  32.269  1.00  0.00     0.162 A 
ATOM      5  C   UNL     1      17.582  19.246  31.943  1.00  0.00     0.128 A 
ATOM      6  C   UNL     1      18.186  19.024  30.701  1.00  0.00     0.093 A 
ATOM      7  C   UNL     1      17.619  18.140  29.774  1.00  0.00     0.136 A 
ATOM      8  C   UNL     1      16.417  17.462  30.103  1.00  0.00     0.125 A 
ATOM      9  C   UNL     1      15.785  16.550  29.242  1.00  0.00     0.078 A 
ATOM     10  C   UNL     1      14.602  15.916  29.639  1.00  0.00     0.223 A 
ENDROOT
BRANCH   1  11
ATOM     11  C   UNL     1      12.796  15.610  31.381  1.00  0.00     0.084 A 
ATOM     12  C   UNL     1      11.545  15.991  30.861  1.00  0.00     0.022 A 
ATOM     13  C   UNL     1      10.370  15.413  31.351  1.00  0.00     0.047 A 
ATOM     14  C   UNL     1      10.428  14.458  32.374  1.00  0.00     0.115 A 
ATOM     15  C   UNL     1      12.843  14.668  32.422  1.00  0.00     0.022 A 
ATOM     16  C   UNL     1      11.666  14.091  32.909  1.00  0.00     0.047 A 
BRANCH  14  17
ATOM     17  O   UNL     1       9.264  13.875  32.869  1.00  0.00    -0.508 OA
ATOM     18  H   UNL     1       8.374  14.360  32.837  1.00  0.00     0.293 HD
ENDBRANCH  14  17
ENDBRANCH   1  11
BRANCH  10  19
ATOM     19  O   UNL     1      14.001  14.972  28.805  1.00  0.00    -0.500 OA
ATOM     20  H   UNL     1      14.449  14.650  27.955  1.00  0.00     0.294 HD
ENDBRANCH  10  19
BRANCH   5  21
ATOM     21  O   UNL     1      18.150  20.126  32.862  1.00  0.00    -0.507 OA
ATOM     22  H   UNL     1      18.145  19.931  33.856  1.00  0.00     0.293 HD
ENDBRANCH   5  21
BRANCH   7  23
ATOM     23  O   UNL     1      18.281  17.974  28.554  1.00  0.00    -0.507 OA
ATOM     24  H   UNL     1      19.005  18.588  28.211  1.00  0.00     0.293 HD
ENDBRANCH   7  23
TORSDOF 5
ENDMDL
MODEL 4
REMARK VINA RESULT:    -5.228      2.781      4.149
REMARK INTER + INTRA:          -6.108
REMARK INTER:                  -5.791
REMARK INTRA:                  -0.317
REMARK UNBOUND:                 0.037
REMARK SMILES Oc1ccc(-c2[o+]c3cc(O)cc(O)c3cc2O)cc1
REMARK SMILES IDX 6 1 7 2 8 3 9 4 10 5 12 6 13 7 15 8 16 9 17 10 5 11 4 12
REMARK SMILES IDX 3 13 2 14 19 15 20 16 1 17 18 19 11 21 14 23
REMARK H PARENT 1 18 18 20 11 22 14 24
REMARK Flexibility Score: inf
ROOT
ATOM      1  C   UNL     1      13.006  16.072  32.367  1.00  0.00     0.401 A 
ATOM      2  O   UNL     1      13.972  16.887  32.783  1.00  0.00    -0.202 OA
ATOM      3  C   UNL     1      14.909  17.379  31.978  1.00  0.00     0.368 A 
ATOM      4  C   UNL     1      15.880  18.232  32.508  1.00  0.00     0.162 A 
ATOM      5  C   UNL     1      16.875  18.765  31.686  1.00  0.00     0.128 A 
ATOM      6  C   UNL     1      16.898  18.446  30.325  1.00  0.00     0.093 A 
ATOM      7  C   UNL     1      15.935  17.594  29.769  1.00  0.00     0.136 A 
ATOM      8  C   UNL     1      14.925  17.048  30.602  1.00  0.00     0.125 A 
ATOM      9  C   UNL     1      13.928  16.175  30.135  1.00  0.00     0.078 A 
ATOM     10  C   UNL     1      12.967  15.673  31.018  1.00  0.00     0.223 A 
ENDROOT
BRANCH   1  11
ATOM     11  C   UNL     1      12.014  15.599  33.359  1.00  0.00     0.084 A 
ATOM     12  C   UNL     1      12.224  14.424  34.105  1.00  0.00     0.022 A 
ATOM     13  C   UNL     1      11.261  13.985  35.019  1.00  0.00     0.047 A 
ATOM     14  C   UNL     1      10.071  14.706  35.189  1.00  0.00     0.115 A 
ATOM     15  C   UNL     1      10.810  16.303  33.521  1.00  0.00     0.022 A 
ATOM     16  C   UNL     1       9.849  15.862  34.436  1.00  0.00     0.047 A 
BRANCH  14  17
ATOM     17  O   UNL     1       9.106  14.279  36.098  1.00  0.00    -0.508 OA
ATOM     18  H   UNL     1       8.256  13.819  35.791  1.00  0.00     0.293 HD
ENDBRANCH  14  17
ENDBRANCH   1  11
BRANCH  10  19
ATOM     19  O   UNL     1      12.006  14.767  30.565  1.00  0.00    -0.500 OA
ATOM     20  H   UNL     1      11.583  14.854  29.648  1.00  0.00     0.294 HD
ENDBRANCH  10  19
BRANCH   5  21
ATOM     21  O   UNL     1      17.834  19.613  32.234  1.00  0.00    -0.507 OA
ATOM     22  H   UNL     1      17.930  20.574  31.926  1.00  0.00     0.293 HD
ENDBRANCH   5  21
BRANCH   7  23
ATOM     23  O   UNL     1      16.025  17.327  28.400  1.00  0.00    -0.507 OA
ATOM     24  H   UNL     1      16.499  16.528  28.005  1.00  0.00     0.293 HD
ENDBRANCH   7  23
TORSDOF 5
ENDMDL
MODEL 5
REMARK VINA RESULT:    -5.188      2.263      3.996
REMARK INTER + INTRA:          -6.061
REMARK INTER:                  -5.740
REMARK INTRA:                  -0.321
REMARK UNBOUND:                 0.037
REMARK SMILES Oc1ccc(-c2[o+]c3cc(O)cc(O)c3cc2O)cc1
REMARK SMILES IDX 6 1 7 2 8 3 9 4 10 5 12 6 13 7 15 8 16 9 17 10 5 11 4 12
REMARK SMILES IDX 3 13 2 14 19 15 20 16 1 17 18 19 11 21 14 23
REMARK H PARENT 1 18 18 20 11 22 14 24
REMARK Flexibility Score: inf
ROOT
ATOM      1  C   UNL     1      16.783  18.029  30.989  1.00  0.00     0.401 A 
ATOM      2  O   UNL     1      17.523  17.931  29.888  1.00  0.00    -0.202 OA
ATOM      3  C   UNL     1      18.576  18.704  29.645  1.00  0.00     0.368 A 
ATOM      4  C   UNL     1      19.294  18.522  28.460  1.00  0.00     0.162 A 
ATOM      5  C   UNL     1      20.406  19.318  28.180  1.00  0.00     0.128 A 
ATOM      6  C   UNL     1      20.806  20.302  29.091  1.00  0.00     0.093 A 
ATOM      7  C   UNL     1      20.104  20.503  30.286  1.00  0.00     0.136 A 
ATOM      8  C   UNL     1      18.971  19.698  30.573  1.00  0.00     0.125 A 
ATOM      9  C   UNL     1      18.200  19.839  31.739  1.00  0.00     0.078 A 
ATOM     10  C   UNL     1      17.092  19.010  31.950  1.00  0.00     0.223 A 
ENDROOT
BRANCH   1  11
ATOM     11  C   UNL     1      15.639  17.103  31.149  1.00  0.00     0.084 A 
ATOM     12  C   UNL     1      15.761  15.904  31.877  1.00  0.00     0.022 A 
ATOM     13  C   UNL     1      14.673  15.034  31.994  1.00  0.00     0.047 A 
ATOM     14  C   UNL     1      13.454  15.343  31.375  1.00  0.00     0.115 A 
ATOM     15  C   UNL     1      14.420  17.394  30.514  1.00  0.00     0.022 A 
ATOM     16  C   UNL     1      13.333  16.522  30.634  1.00  0.00     0.047 A 
BRANCH  14  17
ATOM     17  O   UNL     1      12.363  14.484  31.487  1.00  0.00    -0.508 OA
ATOM     18  H   UNL     1      12.484  13.479  31.536  1.00  0.00     0.293 HD
ENDBRANCH  14  17
ENDBRANCH   1  11
BRANCH  10  19
ATOM     19  O   UNL     1      16.297  19.182  33.083  1.00  0.00    -0.500 OA
ATOM     20  H   UNL     1      16.003  20.101  33.393  1.00  0.00     0.294 HD
ENDBRANCH  10  19
BRANCH   5  21
ATOM     21  O   UNL     1      21.108  19.121  26.993  1.00  0.00    -0.507 OA
ATOM     22  H   UNL     1      20.986  19.737  26.198  1.00  0.00     0.293 HD
ENDBRANCH   5  21
BRANCH   7  23
ATOM     23  O   UNL     1      20.569  21.503  31.145  1.00  0.00    -0.507 OA
ATOM     24  H   UNL     1      21.471  21.492  31.597  1.00  0.00     0.293 HD
ENDBRANCH   7  23
TORSDOF 5
ENDMDL
MODEL 6
REMARK VINA RESULT:    -5.180      3.156      4.761
REMARK INTER + INTRA:          -6.052
REMARK INTER:                  -5.786
REMARK INTRA:                  -0.266
REMARK UNBOUND:                 0.037
REMARK SMILES Oc1ccc(-c2[o+]c3cc(O)cc(O)c3cc2O)cc1
REMARK SMILES IDX 6 1 7 2 8 3 9 4 10 5 12 6 13 7 15 8 16 9 17 10 5 11 4 12
REMARK SMILES IDX 3 13 2 14 19 15 20 16 1 17 18 19 11 21 14 23
REMARK H PARENT 1 18 18 20 11 22 14 24
REMARK Flexibility Score: inf
ROOT
ATOM      1  C   UNL     1      13.530  16.973  33.777  1.00  0.00     0.401 A 
ATOM      2  O   UNL     1      13.759  16.791  32.480  1.00  0.00    -0.202 OA
ATOM      3  C   UNL     1      14.789  17.331  31.836  1.00  0.00     0.368 A 
ATOM      4  C   UNL     1      14.946  17.078  30.471  1.00  0.00     0.162 A 
ATOM      5  C   UNL     1      16.020  17.631  29.771  1.00  0.00     0.128 A 
ATOM      6  C   UNL     1      16.945  18.440  30.440  1.00  0.00     0.093 A 
ATOM      7  C   UNL     1      16.810  18.707  31.808  1.00  0.00     0.136 A 
ATOM      8  C   UNL     1      15.718  18.151  32.522  1.00  0.00     0.125 A 
ATOM      9  C   UNL     1      15.496  18.376  33.891  1.00  0.00     0.078 A 
ATOM     10  C   UNL     1      14.393  17.796  34.526  1.00  0.00     0.223 A 
ENDROOT
BRANCH   1  11
ATOM     11  C   UNL     1      12.353  16.308  34.381  1.00  0.00     0.084 A 
ATOM     12  C   UNL     1      12.495  15.199  35.236  1.00  0.00     0.022 A 
ATOM     13  C   UNL     1      11.366  14.573  35.776  1.00  0.00     0.047 A 
ATOM     14  C   UNL     1      10.084  15.040  35.458  1.00  0.00     0.115 A 
ATOM     15  C   UNL     1      11.063  16.754  34.052  1.00  0.00     0.022 A 
ATOM     16  C   UNL     1       9.937  16.128  34.594  1.00  0.00     0.047 A 
BRANCH  14  17
ATOM     17  O   UNL     1       8.953  14.425  35.991  1.00  0.00    -0.508 OA
ATOM     18  H   UNL     1       8.127  14.958  36.237  1.00  0.00     0.293 HD
ENDBRANCH  14  17
ENDBRANCH   1  11
BRANCH  10  19
ATOM     19  O   UNL     1      14.143  18.059  35.874  1.00  0.00    -0.500 OA
ATOM     20  H   UNL     1      13.808  17.339  36.503  1.00  0.00     0.294 HD
ENDBRANCH  10  19
BRANCH   5  21
ATOM     21  O   UNL     1      16.159  17.367  28.411  1.00  0.00    -0.507 OA
ATOM     22  H   UNL     1      15.355  17.307  27.798  1.00  0.00     0.293 HD
ENDBRANCH   5  21
BRANCH   7  23
ATOM     23  O   UNL     1      17.777  19.523  32.403  1.00  0.00    -0.507 OA
ATOM     24  H   UNL     1      18.750  19.544  32.132  1.00  0.00     0.293 HD
ENDBRANCH   7  23
TORSDOF 5
ENDMDL
MODEL 7
REMARK VINA RESULT:    -5.039      3.963      6.635
REMARK INTER + INTRA:          -5.886
REMARK INTER:                  -5.713
REMARK INTRA:                  -0.173
REMARK UNBOUND:                 0.037
REMARK SMILES Oc1ccc(-c2[o+]c3cc(O)cc(O)c3cc2O)cc1
REMARK SMILES IDX 6 1 7 2 8 3 9 4 10 5 12 6 13 7 15 8 16 9 17 10 5 11 4 12
REMARK SMILES IDX 3 13 2 14 19 15 20 16 1 17 18 19 11 21 14 23
REMARK H PARENT 1 18 18 20 11 22 14 24
REMARK Flexibility Score: inf
ROOT
ATOM      1  C   UNL     1      10.415  15.726  33.252  1.00  0.00     0.401 A 
ATOM      2  O   UNL     1      10.767  15.199  32.083  1.00  0.00    -0.202 OA
ATOM      3  C   UNL     1      11.899  15.501  31.456  1.00  0.00     0.368 A 
ATOM      4  C   UNL     1      12.182  14.892  30.231  1.00  0.00     0.162 A 
ATOM      5  C   UNL     1      13.364  15.189  29.551  1.00  0.00     0.128 A 
ATOM      6  C   UNL     1      14.273  16.100  30.100  1.00  0.00     0.093 A 
ATOM      7  C   UNL     1      14.013  16.724  31.327  1.00  0.00     0.136 A 
ATOM      8  C   UNL     1      12.810  16.427  32.019  1.00  0.00     0.125 A 
ATOM      9  C   UNL     1      12.461  17.014  33.246  1.00  0.00     0.078 A 
ATOM     10  C   UNL     1      11.254  16.674  33.867  1.00  0.00     0.223 A 
ENDROOT
BRANCH   1  11
ATOM     11  C   UNL     1       9.132  15.300  33.855  1.00  0.00     0.084 A 
ATOM     12  C   UNL     1       9.087  14.646  35.101  1.00  0.00     0.022 A 
ATOM     13  C   UNL     1       7.864  14.233  35.639  1.00  0.00     0.047 A 
ATOM     14  C   UNL     1       6.674  14.455  34.934  1.00  0.00     0.115 A 
ATOM     15  C   UNL     1       7.936  15.499  33.146  1.00  0.00     0.022 A 
ATOM     16  C   UNL     1       6.715  15.085  33.687  1.00  0.00     0.047 A 
BRANCH  14  17
ATOM     17  O   UNL     1       5.450  14.048  35.461  1.00  0.00    -0.508 OA
ATOM     18  H   UNL     1       4.573  14.311  35.027  1.00  0.00     0.293 HD
ENDBRANCH  14  17
ENDBRANCH   1  11
BRANCH  10  19
ATOM     19  O   UNL     1      10.883  17.294  35.061  1.00  0.00    -0.500 OA
ATOM     20  H   UNL     1      10.011  17.072  35.527  1.00  0.00     0.294 HD
ENDBRANCH  10  19
BRANCH   5  21
ATOM     21  O   UNL     1      13.628  14.571  28.331  1.00  0.00    -0.507 OA
ATOM     22  H   UNL     1      12.881  14.211  27.748  1.00  0.00     0.293 HD
ENDBRANCH   5  21
BRANCH   7  23
ATOM     23  O   UNL     1      14.972  17.620  31.810  1.00  0.00    -0.507 OA
ATOM     24  H   UNL     1      15.380  18.365  31.265  1.00  0.00     0.293 HD
ENDBRANCH   7  23
TORSDOF 5
ENDMDL
MODEL 8
REMARK VINA RESULT:    -5.025      2.245      5.987
REMARK INTER + INTRA:          -5.870
REMARK INTER:                  -5.578
REMARK INTRA:                  -0.292
REMARK UNBOUND:                 0.037
REMARK SMILES Oc1ccc(-c2[o+]c3cc(O)cc(O)c3cc2O)cc1
REMARK SMILES IDX 6 1 7 2 8 3 9 4 10 5 12 6 13 7 15 8 16 9 17 10 5 11 4 12
REMARK SMILES IDX 3 13 2 14 19 15 20 16 1 17 18 19 11 21 14 23
REMARK H PARENT 1 18 18 20 11 22 14 24
REMARK Flexibility Score: inf
ROOT
ATOM      1  C   UNL     1      15.816  17.373  31.052  1.00  0.00     0.401 A 
ATOM      2  O   UNL     1      15.441  17.468  32.325  1.00  0.00    -0.202 OA
ATOM      3  C   UNL     1      14.231  17.131  32.758  1.00  0.00     0.368 A 
ATOM      4  C   UNL     1      13.933  17.264  34.116  1.00  0.00     0.162 A 
ATOM      5  C   UNL     1      12.670  16.914  34.598  1.00  0.00     0.128 A 
ATOM      6  C   UNL     1      11.699  16.426  33.718  1.00  0.00     0.093 A 
ATOM      7  C   UNL     1      11.973  16.283  32.353  1.00  0.00     0.136 A 
ATOM      8  C   UNL     1      13.254  16.640  31.858  1.00  0.00     0.125 A 
ATOM      9  C   UNL     1      13.613  16.542  30.503  1.00  0.00     0.078 A 
ATOM     10  C   UNL     1      14.895  16.918  30.089  1.00  0.00     0.223 A 
ENDROOT
BRANCH   1  11
ATOM     11  C   UNL     1      17.197  17.771  30.697  1.00  0.00     0.084 A 
ATOM     12  C   UNL     1      17.544  19.120  30.497  1.00  0.00     0.022 A 
ATOM     13  C   UNL     1      18.849  19.469  30.138  1.00  0.00     0.047 A 
ATOM     14  C   UNL     1      19.821  18.475  29.962  1.00  0.00     0.115 A 
ATOM     15  C   UNL     1      18.172  16.780  30.497  1.00  0.00     0.022 A 
ATOM     16  C   UNL     1      19.477  17.132  30.140  1.00  0.00     0.047 A 
BRANCH  14  17
ATOM     17  O   UNL     1      21.125  18.812  29.607  1.00  0.00    -0.508 OA
ATOM     18  H   UNL     1      21.699  19.402  30.198  1.00  0.00     0.293 HD
ENDBRANCH  14  17
ENDBRANCH   1  11
BRANCH  10  19
ATOM     19  O   UNL     1      15.237  16.868  28.737  1.00  0.00    -0.500 OA
ATOM     20  H   UNL     1      14.988  17.614  28.098  1.00  0.00     0.294 HD
ENDBRANCH  10  19
BRANCH   5  21
ATOM     21  O   UNL     1      12.393  17.055  35.956  1.00  0.00    -0.507 OA
ATOM     22  H   UNL     1      13.007  16.670  36.665  1.00  0.00     0.293 HD
ENDBRANCH   5  21
BRANCH   7  23
ATOM     23  O   UNL     1      10.951  15.785  31.539  1.00  0.00    -0.507 OA
ATOM     24  H   UNL     1      11.100  15.204  30.727  1.00  0.00     0.293 HD
ENDBRANCH   7  23
TORSDOF 5
ENDMDL
MODEL 9
REMARK VINA RESULT:    -4.979      2.457      3.365
REMARK INTER + INTRA:          -5.816
REMARK INTER:                  -5.507
REMARK INTRA:                  -0.309
REMARK UNBOUND:                 0.037
REMARK SMILES Oc1ccc(-c2[o+]c3cc(O)cc(O)c3cc2O)cc1
REMARK SMILES IDX 6 1 7 2 8 3 9 4 10 5 12 6 13 7 15 8 16 9 17 10 5 11 4 12
REMARK SMILES IDX 3 13 2 14 19 15 20 16 1 17 18 19 11 21 14 23
REMARK H PARENT 1 18 18 20 11 22 14 24
REMARK Flexibility Score: inf
ROOT
ATOM      1  C   UNL     1      15.608  16.945  31.370  1.00  0.00     0.401 A 
ATOM      2  O   UNL     1      16.231  18.120  31.359  1.00  0.00    -0.202 OA
ATOM      3  C   UNL     1      17.438  18.302  30.833  1.00  0.00     0.368 A 
ATOM      4  C   UNL     1      18.009  19.576  30.866  1.00  0.00     0.162 A 
ATOM      5  C   UNL     1      19.274  19.796  30.320  1.00  0.00     0.128 A 
ATOM      6  C   UNL     1      19.974  18.737  29.732  1.00  0.00     0.093 A 
ATOM      7  C   UNL     1      19.422  17.450  29.686  1.00  0.00     0.136 A 
ATOM      8  C   UNL     1      18.138  17.221  30.244  1.00  0.00     0.125 A 
ATOM      9  C   UNL     1      17.514  15.963  30.254  1.00  0.00     0.078 A 
ATOM     10  C   UNL     1      16.247  15.814  30.827  1.00  0.00     0.223 A 
ENDROOT
BRANCH   1  11
ATOM     11  C   UNL     1      14.259  16.873  31.977  1.00  0.00     0.084 A 
ATOM     12  C   UNL     1      13.096  16.888  31.186  1.00  0.00     0.022 A 
ATOM     13  C   UNL     1      11.833  16.842  31.784  1.00  0.00     0.047 A 
ATOM     14  C   UNL     1      11.716  16.795  33.180  1.00  0.00     0.115 A 
ATOM     15  C   UNL     1      14.132  16.847  33.376  1.00  0.00     0.022 A 
ATOM     16  C   UNL     1      12.868  16.800  33.971  1.00  0.00     0.047 A 
BRANCH  14  17
ATOM     17  O   UNL     1      10.463  16.748  33.786  1.00  0.00    -0.508 OA
ATOM     18  H   UNL     1       9.781  17.486  33.652  1.00  0.00     0.293 HD
ENDBRANCH  14  17
ENDBRANCH   1  11
BRANCH  10  19
ATOM     19  O   UNL     1      15.647  14.555  30.882  1.00  0.00    -0.500 OA
ATOM     20  H   UNL     1      16.129  13.753  31.271  1.00  0.00     0.294 HD
ENDBRANCH  10  19
BRANCH   5  21
ATOM     21  O   UNL     1      19.827  21.075  30.363  1.00  0.00    -0.507 OA
ATOM     22  H   UNL     1      19.640  21.757  29.638  1.00  0.00     0.293 HD
ENDBRANCH   5  21
BRANCH   7  23
ATOM     23  O   UNL     1      20.183  16.445  29.079  1.00  0.00    -0.507 OA
ATOM     24  H   UNL     1      21.187  16.371  29.148  1.00  0.00     0.293 HD
ENDBRANCH   7  23
TORSDOF 5
ENDMDL
