MODEL 1
REMARK VINA RESULT:    -5.047      0.000      0.000
REMARK INTER + INTRA:          -5.440
REMARK INTER:                  -5.343
REMARK INTRA:                  -0.098
REMARK UNBOUND:                -0.098
REMARK SMILES C=C1CC[C@@H](C(C)C)[C@H]2C=C(C)CC[C@H]12
REMARK SMILES IDX 12 1 11 2 10 3 9 4 15 5 14 6 13 7 2 8 1 9 3 10 4 11 5 12
REMARK SMILES IDX 6 13 7 14 8 15
REMARK H PARENT
REMARK Flexibility Score: inf
ROOT
ATOM      1  C   UNL     1     136.782 141.090 132.875  1.00  0.00     0.039 C 
ATOM      2  C   UNL     1     137.191 140.373 134.133  1.00  0.00    -0.077 C 
ATOM      3  C   UNL     1     138.465 139.955 134.262  1.00  0.00    -0.024 C 
ATOM      4  C   UNL     1     138.977 139.272 135.510  1.00  0.00     0.022 C 
ATOM      5  C   UNL     1     137.862 138.653 136.387  1.00  0.00     0.022 C 
ATOM      6  C   UNL     1     136.710 139.667 136.530  1.00  0.00     0.013 C 
ATOM      7  C   UNL     1     136.131 140.023 135.155  1.00  0.00     0.031 C 
ATOM      8  C   UNL     1     138.489 138.183 137.703  1.00  0.00    -0.074 C 
ATOM      9  C   UNL     1     137.912 138.369 138.906  1.00  0.00     0.008 C 
ATOM     10  C   UNL     1     139.750 137.341 137.622  1.00  0.00     0.031 C 
ATOM     11  C   UNL     1     140.764 137.934 136.626  1.00  0.00     0.009 C 
ATOM     12  C   UNL     1     140.128 138.251 135.245  1.00  0.00    -0.001 C 
ENDROOT
BRANCH  12  13
ATOM     13  C   UNL     1     139.729 136.941 134.462  1.00  0.00    -0.014 C 
ATOM     14  C   UNL     1     140.745 135.808 134.705  1.00  0.00     0.007 C 
ATOM     15  C   UNL     1     139.598 137.160 132.944  1.00  0.00     0.007 C 
ENDBRANCH  12  13
TORSDOF 1
ENDMDL
MODEL 2
REMARK VINA RESULT:    -5.047      3.696      5.381
REMARK INTER + INTRA:          -5.440
REMARK INTER:                  -5.342
REMARK INTRA:                  -0.098
REMARK UNBOUND:                -0.098
REMARK SMILES C=C1CC[C@@H](C(C)C)[C@H]2C=C(C)CC[C@H]12
REMARK SMILES IDX 12 1 11 2 10 3 9 4 15 5 14 6 13 7 2 8 1 9 3 10 4 11 5 12
REMARK SMILES IDX 6 13 7 14 8 15
REMARK H PARENT
REMARK Flexibility Score: inf
ROOT
ATOM      1  C   UNL     1     131.503 136.874 132.879  1.00  0.00     0.039 C 
ATOM      2  C   UNL     1     132.240 137.249 134.135  1.00  0.00    -0.077 C 
ATOM      3  C   UNL     1     132.674 138.517 134.285  1.00  0.00    -0.024 C 
ATOM      4  C   UNL     1     133.378 138.995 135.534  1.00  0.00     0.022 C 
ATOM      5  C   UNL     1     133.996 137.857 136.379  1.00  0.00     0.022 C 
ATOM      6  C   UNL     1     132.971 136.713 136.512  1.00  0.00     0.013 C 
ATOM      7  C   UNL     1     132.592 136.165 135.130  1.00  0.00     0.031 C 
ATOM      8  C   UNL     1     134.489 138.452 137.702  1.00  0.00    -0.074 C 
ATOM      9  C   UNL     1     134.313 137.852 138.896  1.00  0.00     0.008 C 
ATOM     10  C   UNL     1     135.343 139.705 137.635  1.00  0.00     0.031 C 
ATOM     11  C   UNL     1     134.749 140.745 136.668  1.00  0.00     0.009 C 
ATOM     12  C   UNL     1     134.407 140.141 135.279  1.00  0.00    -0.001 C 
ENDROOT
BRANCH  12  13
ATOM     13  C   UNL     1     135.703 139.744 134.471  1.00  0.00    -0.014 C 
ATOM     14  C   UNL     1     136.839 140.762 134.692  1.00  0.00     0.007 C 
ATOM     15  C   UNL     1     135.456 139.614 132.958  1.00  0.00     0.007 C 
ENDBRANCH  12  13
TORSDOF 1
ENDMDL
MODEL 3
REMARK VINA RESULT:    -5.018      1.328      2.099
REMARK INTER + INTRA:          -5.409
REMARK INTER:                  -5.313
REMARK INTRA:                  -0.096
REMARK UNBOUND:                -0.098
REMARK SMILES C=C1CC[C@@H](C(C)C)[C@H]2C=C(C)CC[C@H]12
REMARK SMILES IDX 12 1 11 2 10 3 9 4 15 5 14 6 13 7 2 8 1 9 3 10 4 11 5 12
REMARK SMILES IDX 6 13 7 14 8 15
REMARK H PARENT
REMARK Flexibility Score: inf
ROOT
ATOM      1  C   UNL     1     134.496 140.666 135.923  1.00  0.00     0.039 C 
ATOM      2  C   UNL     1     135.755 139.960 136.344  1.00  0.00    -0.077 C 
ATOM      3  C   UNL     1     136.873 140.123 135.611  1.00  0.00    -0.024 C 
ATOM      4  C   UNL     1     138.195 139.494 135.987  1.00  0.00     0.022 C 
ATOM      5  C   UNL     1     138.063 138.286 136.944  1.00  0.00     0.022 C 
ATOM      6  C   UNL     1     137.077 138.642 138.074  1.00  0.00     0.013 C 
ATOM      7  C   UNL     1     135.696 138.981 137.497  1.00  0.00     0.031 C 
ATOM      8  C   UNL     1     139.467 137.879 137.404  1.00  0.00    -0.074 C 
ATOM      9  C   UNL     1     139.762 137.544 138.675  1.00  0.00     0.008 C 
ATOM     10  C   UNL     1     140.535 137.709 136.338  1.00  0.00     0.031 C 
ATOM     11  C   UNL     1     140.523 138.874 135.332  1.00  0.00     0.009 C 
ATOM     12  C   UNL     1     139.105 139.156 134.764  1.00  0.00    -0.001 C 
ENDROOT
BRANCH  12  13
ATOM     13  C   UNL     1     138.602 137.994 133.823  1.00  0.00    -0.014 C 
ATOM     14  C   UNL     1     139.745 137.446 132.945  1.00  0.00     0.007 C 
ATOM     15  C   UNL     1     137.444 138.418 132.903  1.00  0.00     0.007 C 
ENDBRANCH  12  13
TORSDOF 1
ENDMDL
MODEL 4
REMARK VINA RESULT:    -5.008      6.071      7.630
REMARK INTER + INTRA:          -5.399
REMARK INTER:                  -5.320
REMARK INTRA:                  -0.079
REMARK UNBOUND:                -0.098
REMARK SMILES C=C1CC[C@@H](C(C)C)[C@H]2C=C(C)CC[C@H]12
REMARK SMILES IDX 12 1 11 2 10 3 9 4 15 5 14 6 13 7 2 8 1 9 3 10 4 11 5 12
REMARK SMILES IDX 6 13 7 14 8 15
REMARK H PARENT
REMARK Flexibility Score: inf
ROOT
ATOM      1  C   UNL     1     135.936 131.557 132.897  1.00  0.00     0.039 C 
ATOM      2  C   UNL     1     135.517 132.276 134.150  1.00  0.00    -0.077 C 
ATOM      3  C   UNL     1     134.230 132.653 134.288  1.00  0.00    -0.024 C 
ATOM      4  C   UNL     1     133.710 133.334 135.533  1.00  0.00     0.022 C 
ATOM      5  C   UNL     1     134.812 134.002 136.389  1.00  0.00     0.022 C 
ATOM      6  C   UNL     1     135.999 133.028 136.532  1.00  0.00     0.013 C 
ATOM      7  C   UNL     1     136.575 132.674 135.155  1.00  0.00     0.031 C 
ATOM      8  C   UNL     1     134.184 134.467 137.706  1.00  0.00    -0.074 C 
ATOM      9  C   UNL     1     134.780 134.317 138.905  1.00  0.00     0.008 C 
ATOM     10  C   UNL     1     132.895 135.266 137.628  1.00  0.00     0.031 C 
ATOM     11  C   UNL     1     131.891 134.627 136.651  1.00  0.00     0.009 C 
ATOM     12  C   UNL     1     132.522 134.313 135.268  1.00  0.00    -0.001 C 
ENDROOT
BRANCH  12  13
ATOM     13  C   UNL     1     132.869 135.625 134.463  1.00  0.00    -0.014 C 
ATOM     14  C   UNL     1     131.917 136.780 134.832  1.00  0.00     0.007 C 
ATOM     15  C   UNL     1     132.826 135.429 132.938  1.00  0.00     0.007 C 
ENDBRANCH  12  13
TORSDOF 1
ENDMDL
MODEL 5
REMARK VINA RESULT:    -4.997      3.701      5.426
REMARK INTER + INTRA:          -5.387
REMARK INTER:                  -5.299
REMARK INTRA:                  -0.088
REMARK UNBOUND:                -0.098
REMARK SMILES C=C1CC[C@@H](C(C)C)[C@H]2C=C(C)CC[C@H]12
REMARK SMILES IDX 12 1 11 2 10 3 9 4 15 5 14 6 13 7 2 8 1 9 3 10 4 11 5 12
REMARK SMILES IDX 6 13 7 14 8 15
REMARK H PARENT
REMARK Flexibility Score: inf
ROOT
ATOM      1  C   UNL     1     141.138 135.762 132.875  1.00  0.00     0.039 C 
ATOM      2  C   UNL     1     140.417 135.373 134.137  1.00  0.00    -0.077 C 
ATOM      3  C   UNL     1     139.957 134.113 134.265  1.00  0.00    -0.024 C 
ATOM      4  C   UNL     1     139.267 133.621 135.517  1.00  0.00     0.022 C 
ATOM      5  C   UNL     1     138.692 134.752 136.402  1.00  0.00     0.022 C 
ATOM      6  C   UNL     1     139.747 135.869 136.541  1.00  0.00     0.013 C 
ATOM      7  C   UNL     1     140.111 136.441 135.165  1.00  0.00     0.031 C 
ATOM      8  C   UNL     1     138.212 134.137 137.720  1.00  0.00    -0.074 C 
ATOM      9  C   UNL     1     138.426 134.704 138.923  1.00  0.00     0.008 C 
ATOM     10  C   UNL     1     137.327 132.906 137.641  1.00  0.00     0.031 C 
ATOM     11  C   UNL     1     137.877 131.876 136.637  1.00  0.00     0.009 C 
ATOM     12  C   UNL     1     138.205 132.506 135.256  1.00  0.00    -0.001 C 
ENDROOT
BRANCH  12  13
ATOM     13  C   UNL     1     136.904 132.952 134.484  1.00  0.00    -0.014 C 
ATOM     14  C   UNL     1     135.805 131.874 134.562  1.00  0.00     0.007 C 
ATOM     15  C   UNL     1     137.160 133.277 133.002  1.00  0.00     0.007 C 
ENDBRANCH  12  13
TORSDOF 1
ENDMDL
MODEL 6
REMARK VINA RESULT:    -4.971      5.904      7.403
REMARK INTER + INTRA:          -5.359
REMARK INTER:                  -5.257
REMARK INTRA:                  -0.102
REMARK UNBOUND:                -0.098
REMARK SMILES C=C1CC[C@@H](C(C)C)[C@H]2C=C(C)CC[C@H]12
REMARK SMILES IDX 12 1 11 2 10 3 9 4 15 5 14 6 13 7 2 8 1 9 3 10 4 11 5 12
REMARK SMILES IDX 6 13 7 14 8 15
REMARK H PARENT
REMARK Flexibility Score: inf
ROOT
ATOM      1  C   UNL     1     138.201 131.993 135.869  1.00  0.00     0.039 C 
ATOM      2  C   UNL     1     136.932 132.675 136.302  1.00  0.00    -0.077 C 
ATOM      3  C   UNL     1     135.823 132.532 135.549  1.00  0.00    -0.024 C 
ATOM      4  C   UNL     1     134.493 133.138 135.933  1.00  0.00     0.022 C 
ATOM      5  C   UNL     1     134.606 134.310 136.938  1.00  0.00     0.022 C 
ATOM      6  C   UNL     1     135.581 133.916 138.065  1.00  0.00     0.013 C 
ATOM      7  C   UNL     1     136.971 133.608 137.492  1.00  0.00     0.031 C 
ATOM      8  C   UNL     1     133.194 134.689 137.396  1.00  0.00    -0.074 C 
ATOM      9  C   UNL     1     132.882 134.973 138.675  1.00  0.00     0.008 C 
ATOM     10  C   UNL     1     132.137 134.894 136.325  1.00  0.00     0.031 C 
ATOM     11  C   UNL     1     132.169 133.768 135.275  1.00  0.00     0.009 C 
ATOM     12  C   UNL     1     133.595 133.517 134.713  1.00  0.00    -0.001 C 
ENDROOT
BRANCH  12  13
ATOM     13  C   UNL     1     134.102 134.717 133.824  1.00  0.00    -0.014 C 
ATOM     14  C   UNL     1     132.964 135.298 132.961  1.00  0.00     0.007 C 
ATOM     15  C   UNL     1     135.267 134.334 132.896  1.00  0.00     0.007 C 
ENDBRANCH  12  13
TORSDOF 1
ENDMDL
MODEL 7
REMARK VINA RESULT:    -4.966      4.364      5.986
REMARK INTER + INTRA:          -5.354
REMARK INTER:                  -5.254
REMARK INTRA:                  -0.101
REMARK UNBOUND:                -0.098
REMARK SMILES C=C1CC[C@@H](C(C)C)[C@H]2C=C(C)CC[C@H]12
REMARK SMILES IDX 12 1 11 2 10 3 9 4 15 5 14 6 13 7 2 8 1 9 3 10 4 11 5 12
REMARK SMILES IDX 6 13 7 14 8 15
REMARK H PARENT
REMARK Flexibility Score: inf
ROOT
ATOM      1  C   UNL     1     131.927 134.473 135.817  1.00  0.00     0.039 C 
ATOM      2  C   UNL     1     132.629 135.725 136.267  1.00  0.00    -0.077 C 
ATOM      3  C   UNL     1     132.484 136.852 135.542  1.00  0.00    -0.024 C 
ATOM      4  C   UNL     1     133.111 138.167 135.946  1.00  0.00     0.022 C 
ATOM      5  C   UNL     1     134.300 138.019 136.925  1.00  0.00     0.022 C 
ATOM      6  C   UNL     1     133.917 137.022 138.037  1.00  0.00     0.013 C 
ATOM      7  C   UNL     1     133.585 135.649 137.438  1.00  0.00     0.031 C 
ATOM      8  C   UNL     1     134.703 139.416 137.409  1.00  0.00    -0.074 C 
ATOM      9  C   UNL     1     135.014 139.695 138.690  1.00  0.00     0.008 C 
ATOM     10  C   UNL     1     134.898 140.495 136.359  1.00  0.00     0.031 C 
ATOM     11  C   UNL     1     133.753 140.499 135.330  1.00  0.00     0.009 C 
ATOM     12  C   UNL     1     133.477 139.089 134.740  1.00  0.00    -0.001 C 
ENDROOT
BRANCH  12  13
ATOM     13  C   UNL     1     134.655 138.592 133.816  1.00  0.00    -0.014 C 
ATOM     14  C   UNL     1     135.225 139.742 132.963  1.00  0.00     0.007 C 
ATOM     15  C   UNL     1     134.244 137.446 132.875  1.00  0.00     0.007 C 
ENDBRANCH  12  13
TORSDOF 1
ENDMDL
MODEL 8
REMARK VINA RESULT:    -4.959      3.235      4.784
REMARK INTER + INTRA:          -5.347
REMARK INTER:                  -5.249
REMARK INTRA:                  -0.098
REMARK UNBOUND:                -0.098
REMARK SMILES C=C1CC[C@@H](C(C)C)[C@H]2C=C(C)CC[C@H]12
REMARK SMILES IDX 12 1 11 2 10 3 9 4 15 5 14 6 13 7 2 8 1 9 3 10 4 11 5 12
REMARK SMILES IDX 6 13 7 14 8 15
REMARK H PARENT
REMARK Flexibility Score: inf
ROOT
ATOM      1  C   UNL     1     140.535 138.259 135.813  1.00  0.00     0.039 C 
ATOM      2  C   UNL     1     139.858 136.993 136.260  1.00  0.00    -0.077 C 
ATOM      3  C   UNL     1     140.086 135.853 135.578  1.00  0.00    -0.024 C 
ATOM      4  C   UNL     1     139.489 134.526 135.986  1.00  0.00     0.022 C 
ATOM      5  C   UNL     1     138.244 134.652 136.896  1.00  0.00     0.022 C 
ATOM      6  C   UNL     1     138.527 135.694 137.997  1.00  0.00     0.013 C 
ATOM      7  C   UNL     1     138.839 137.062 137.376  1.00  0.00     0.031 C 
ATOM      8  C   UNL     1     137.870 133.254 137.398  1.00  0.00    -0.074 C 
ATOM      9  C   UNL     1     137.501 132.997 138.668  1.00  0.00     0.008 C 
ATOM     10  C   UNL     1     137.774 132.140 136.371  1.00  0.00     0.031 C 
ATOM     11  C   UNL     1     138.973 132.154 135.405  1.00  0.00     0.009 C 
ATOM     12  C   UNL     1     139.226 133.557 134.790  1.00  0.00    -0.001 C 
ENDROOT
BRANCH  12  13
ATOM     13  C   UNL     1     138.081 133.982 133.790  1.00  0.00    -0.014 C 
ATOM     14  C   UNL     1     137.640 132.800 132.905  1.00  0.00     0.007 C 
ATOM     15  C   UNL     1     138.480 135.152 132.875  1.00  0.00     0.007 C 
ENDBRANCH  12  13
TORSDOF 1
ENDMDL
MODEL 9
REMARK VINA RESULT:    -4.875      1.107      3.620
REMARK INTER + INTRA:          -5.258
REMARK INTER:                  -5.158
REMARK INTRA:                  -0.100
REMARK UNBOUND:                -0.098
REMARK SMILES C=C1CC[C@@H](C(C)C)[C@H]2C=C(C)CC[C@H]12
REMARK SMILES IDX 12 1 11 2 10 3 9 4 15 5 14 6 13 7 2 8 1 9 3 10 4 11 5 12
REMARK SMILES IDX 6 13 7 14 8 15
REMARK H PARENT
REMARK Flexibility Score: inf
ROOT
ATOM      1  C   UNL     1     134.744 140.885 136.271  1.00  0.00     0.039 C 
ATOM      2  C   UNL     1     135.988 140.136 135.878  1.00  0.00    -0.077 C 
ATOM      3  C   UNL     1     136.311 139.010 136.545  1.00  0.00    -0.024 C 
ATOM      4  C   UNL     1     137.513 138.167 136.186  1.00  0.00     0.022 C 
ATOM      5  C   UNL     1     138.589 138.924 135.371  1.00  0.00     0.022 C 
ATOM      6  C   UNL     1     137.900 139.727 134.249  1.00  0.00     0.013 C 
ATOM      7  C   UNL     1     136.910 140.739 134.841  1.00  0.00     0.031 C 
ATOM      8  C   UNL     1     139.639 137.912 134.902  1.00  0.00    -0.074 C 
ATOM      9  C   UNL     1     140.170 137.916 133.664  1.00  0.00     0.008 C 
ATOM     10  C   UNL     1     140.207 136.957 135.936  1.00  0.00     0.031 C 
ATOM     11  C   UNL     1     139.099 136.342 136.810  1.00  0.00     0.009 C 
ATOM     12  C   UNL     1     138.143 137.414 137.401  1.00  0.00    -0.001 C 
ENDROOT
BRANCH  12  13
ATOM     13  C   UNL     1     138.857 138.315 138.482  1.00  0.00    -0.014 C 
ATOM     14  C   UNL     1     139.821 137.488 139.355  1.00  0.00     0.007 C 
ATOM     15  C   UNL     1     137.871 139.047 139.407  1.00  0.00     0.007 C 
ENDBRANCH  12  13
TORSDOF 1
ENDMDL
