MODEL 1
REMARK VINA RESULT:     0.836      0.000      0.000
REMARK INTER + INTRA:           0.919
REMARK INTER:                   1.080
REMARK INTRA:                  -0.162
REMARK UNBOUND:                -0.162
REMARK SMILES CCCCCCC(=O)[O-]
REMARK SMILES IDX 5 1 6 2 7 3 8 4 9 5 4 6 3 7 2 8 1 9
REMARK H PARENT
REMARK Flexibility Score: inf
ROOT
ATOM      1  C   UNL     1     103.629 103.263 104.398  1.00  0.00     0.006 C 
ENDROOT
BRANCH   1   2
ATOM      2  C   UNL     1     103.275 102.148 105.391  1.00  0.00     0.053 C 
BRANCH   2   3
ATOM      3  C   UNL     1     103.565 102.586 106.792  1.00  0.00     0.041 C 
ATOM      4  O   UNL     1     103.553 101.751 107.733  1.00  0.00    -0.550 OA
ATOM      5  O   UNL     1     103.802 103.928 107.065  1.00  0.00    -0.550 OA
ENDBRANCH   2   3
ENDBRANCH   1   2
BRANCH   1   6
ATOM      6  C   UNL     1     103.416 102.841 102.935  1.00  0.00     0.000 C 
BRANCH   6   7
ATOM      7  C   UNL     1     103.759 103.961 101.941  1.00  0.00    -0.000 C 
BRANCH   7   8
ATOM      8  C   UNL     1     104.782 104.932 102.542  1.00  0.00    -0.003 C 
ATOM      9  C   UNL     1     104.278 106.371 102.482  1.00  0.00     0.004 C 
ENDBRANCH   7   8
ENDBRANCH   6   7
ENDBRANCH   1   6
TORSDOF 5
ENDMDL
MODEL 2
REMARK VINA RESULT:     0.861      1.879      3.093
REMARK INTER + INTRA:           0.952
REMARK INTER:                   1.108
REMARK INTRA:                  -0.156
REMARK UNBOUND:                -0.162
REMARK SMILES CCCCCCC(=O)[O-]
REMARK SMILES IDX 5 1 6 2 7 3 8 4 9 5 4 6 3 7 2 8 1 9
REMARK H PARENT
REMARK Flexibility Score: inf
ROOT
ATOM      1  C   UNL     1     104.431 104.902 104.451  1.00  0.00     0.006 C 
ENDROOT
BRANCH   1   2
ATOM      2  C   UNL     1     104.786 105.991 105.473  1.00  0.00     0.053 C 
BRANCH   2   3
ATOM      3  C   UNL     1     104.406 105.556 106.852  1.00  0.00     0.041 C 
ATOM      4  O   UNL     1     104.429 106.377 107.806  1.00  0.00    -0.550 OA
ATOM      5  O   UNL     1     104.072 104.229 107.095  1.00  0.00    -0.550 OA
ENDBRANCH   2   3
ENDBRANCH   1   2
BRANCH   1   6
ATOM      6  C   UNL     1     104.479 105.412 103.002  1.00  0.00     0.000 C 
BRANCH   6   7
ATOM      7  C   UNL     1     104.156 104.314 101.978  1.00  0.00    -0.000 C 
BRANCH   7   8
ATOM      8  C   UNL     1     103.171 103.293 102.561  1.00  0.00    -0.003 C 
ATOM      9  C   UNL     1     103.727 101.876 102.469  1.00  0.00     0.004 C 
ENDBRANCH   7   8
ENDBRANCH   6   7
ENDBRANCH   1   6
TORSDOF 5
ENDMDL
MODEL 3
REMARK VINA RESULT:     0.880      3.927      4.789
REMARK INTER + INTRA:           0.976
REMARK INTER:                   1.140
REMARK INTRA:                  -0.163
REMARK UNBOUND:                -0.162
REMARK SMILES CCCCCCC(=O)[O-]
REMARK SMILES IDX 5 1 6 2 7 3 8 4 9 5 4 6 3 7 2 8 1 9
REMARK H PARENT
REMARK Flexibility Score: inf
ROOT
ATOM      1  C   UNL     1     103.508 103.275 109.202  1.00  0.00     0.006 C 
ENDROOT
BRANCH   1   2
ATOM      2  C   UNL     1     103.230 102.123 110.177  1.00  0.00     0.053 C 
BRANCH   2   3
ATOM      3  C   UNL     1     103.532 102.543 111.580  1.00  0.00     0.041 C 
ATOM      4  O   UNL     1     103.505 101.699 112.515  1.00  0.00    -0.550 OA
ATOM      5  O   UNL     1     103.794 103.877 111.865  1.00  0.00    -0.550 OA
ENDBRANCH   2   3
ENDBRANCH   1   2
BRANCH   1   6
ATOM      6  C   UNL     1     103.476 102.828 107.733  1.00  0.00     0.000 C 
BRANCH   6   7
ATOM      7  C   UNL     1     103.728 103.987 106.756  1.00  0.00    -0.000 C 
BRANCH   7   8
ATOM      8  C   UNL     1     104.784 104.950 107.310  1.00  0.00    -0.003 C 
ATOM      9  C   UNL     1     104.302 106.396 107.238  1.00  0.00     0.004 C 
ENDBRANCH   7   8
ENDBRANCH   6   7
ENDBRANCH   1   6
TORSDOF 5
ENDMDL
MODEL 4
REMARK VINA RESULT:     0.884      4.000      5.685
REMARK INTER + INTRA:           0.980
REMARK INTER:                   1.145
REMARK INTRA:                  -0.164
REMARK UNBOUND:                -0.162
REMARK SMILES CCCCCCC(=O)[O-]
REMARK SMILES IDX 5 1 6 2 7 3 8 4 9 5 4 6 3 7 2 8 1 9
REMARK H PARENT
REMARK Flexibility Score: inf
ROOT
ATOM      1  C   UNL     1     104.336 105.045  99.683  1.00  0.00     0.006 C 
ENDROOT
BRANCH   1   2
ATOM      2  C   UNL     1     104.691 106.162 100.673  1.00  0.00     0.053 C 
BRANCH   2   3
ATOM      3  C   UNL     1     104.391 105.732 102.074  1.00  0.00     0.041 C 
ATOM      4  O   UNL     1     104.379 106.576 103.008  1.00  0.00    -0.550 OA
ATOM      5  O   UNL     1     104.173 104.389 102.357  1.00  0.00    -0.550 OA
ENDBRANCH   2   3
ENDBRANCH   1   2
BRANCH   1   6
ATOM      6  C   UNL     1     104.563 105.457  98.220  1.00  0.00     0.000 C 
BRANCH   6   7
ATOM      7  C   UNL     1     104.264 104.319  97.232  1.00  0.00    -0.000 C 
BRANCH   7   8
ATOM      8  C   UNL     1     103.231 103.347  97.813  1.00  0.00    -0.003 C 
ATOM      9  C   UNL     1     103.728 101.906  97.740  1.00  0.00     0.004 C 
ENDBRANCH   7   8
ENDBRANCH   6   7
ENDBRANCH   1   6
TORSDOF 5
ENDMDL
MODEL 5
REMARK VINA RESULT:     0.901      3.814      4.655
REMARK INTER + INTRA:           1.003
REMARK INTER:                   1.164
REMARK INTRA:                  -0.160
REMARK UNBOUND:                -0.162
REMARK SMILES CCCCCCC(=O)[O-]
REMARK SMILES IDX 5 1 6 2 7 3 8 4 9 5 4 6 3 7 2 8 1 9
REMARK H PARENT
REMARK Flexibility Score: inf
ROOT
ATOM      1  C   UNL     1     103.621 103.205  99.765  1.00  0.00     0.006 C 
ENDROOT
BRANCH   1   2
ATOM      2  C   UNL     1     103.279 102.098 100.772  1.00  0.00     0.053 C 
BRANCH   2   3
ATOM      3  C   UNL     1     103.586 102.548 102.165  1.00  0.00     0.041 C 
ATOM      4  O   UNL     1     103.542 101.729 103.120  1.00  0.00    -0.550 OA
ATOM      5  O   UNL     1     103.873 103.883 102.417  1.00  0.00    -0.550 OA
ENDBRANCH   2   3
ENDBRANCH   1   2
BRANCH   1   6
ATOM      6  C   UNL     1     103.485 102.741  98.307  1.00  0.00     0.000 C 
BRANCH   6   7
ATOM      7  C   UNL     1     103.688 103.884  97.301  1.00  0.00    -0.000 C 
BRANCH   7   8
ATOM      8  C   UNL     1     104.776 104.851  97.783  1.00  0.00    -0.003 C 
ATOM      9  C   UNL     1     104.279 106.294  97.762  1.00  0.00     0.004 C 
ENDBRANCH   7   8
ENDBRANCH   6   7
ENDBRANCH   1   6
TORSDOF 5
ENDMDL
MODEL 6
REMARK VINA RESULT:     0.915      4.010      5.731
REMARK INTER + INTRA:           1.021
REMARK INTER:                   1.190
REMARK INTRA:                  -0.168
REMARK UNBOUND:                -0.162
REMARK SMILES CCCCCCC(=O)[O-]
REMARK SMILES IDX 5 1 6 2 7 3 8 4 9 5 4 6 3 7 2 8 1 9
REMARK H PARENT
REMARK Flexibility Score: inf
ROOT
ATOM      1  C   UNL     1     104.399 104.979 109.170  1.00  0.00     0.006 C 
ENDROOT
BRANCH   1   2
ATOM      2  C   UNL     1     104.755 106.114 110.139  1.00  0.00     0.053 C 
BRANCH   2   3
ATOM      3  C   UNL     1     104.444 105.715 111.546  1.00  0.00     0.041 C 
ATOM      4  O   UNL     1     104.447 106.575 112.465  1.00  0.00    -0.550 OA
ATOM      5  O   UNL     1     104.198 104.382 111.853  1.00  0.00    -0.550 OA
ENDBRANCH   2   3
ENDBRANCH   1   2
BRANCH   1   6
ATOM      6  C   UNL     1     104.591 105.375 107.697  1.00  0.00     0.000 C 
BRANCH   6   7
ATOM      7  C   UNL     1     104.154 104.269 106.725  1.00  0.00    -0.000 C 
BRANCH   7   8
ATOM      8  C   UNL     1     103.202 103.282 107.411  1.00  0.00    -0.003 C 
ATOM      9  C   UNL     1     103.674 101.843 107.227  1.00  0.00     0.004 C 
ENDBRANCH   7   8
ENDBRANCH   6   7
ENDBRANCH   1   6
TORSDOF 5
ENDMDL
MODEL 7
REMARK VINA RESULT:     1.007      3.060      4.258
REMARK INTER + INTRA:           1.140
REMARK INTER:                   1.292
REMARK INTRA:                  -0.152
REMARK UNBOUND:                -0.162
REMARK SMILES CCCCCCC(=O)[O-]
REMARK SMILES IDX 5 1 6 2 7 3 8 4 9 5 4 6 3 7 2 8 1 9
REMARK H PARENT
REMARK Flexibility Score: inf
ROOT
ATOM      1  C   UNL     1     103.597 103.246 105.128  1.00  0.00     0.006 C 
ENDROOT
BRANCH   1   2
ATOM      2  C   UNL     1     103.220 102.086 104.197  1.00  0.00     0.053 C 
BRANCH   2   3
ATOM      3  C   UNL     1     103.602 102.405 102.786  1.00  0.00     0.041 C 
ATOM      4  O   UNL     1     103.889 101.480 101.982  1.00  0.00    -0.550 OA
ATOM      5  O   UNL     1     103.689 103.728 102.372  1.00  0.00    -0.550 OA
ENDBRANCH   2   3
ENDBRANCH   1   2
BRANCH   1   6
ATOM      6  C   UNL     1     103.600 102.839 106.609  1.00  0.00     0.000 C 
BRANCH   6   7
ATOM      7  C   UNL     1     103.627 104.048 107.556  1.00  0.00    -0.000 C 
BRANCH   7   8
ATOM      8  C   UNL     1     104.767 105.005 107.189  1.00  0.00    -0.003 C 
ATOM      9  C   UNL     1     104.320 106.460 107.289  1.00  0.00     0.004 C 
ENDBRANCH   7   8
ENDBRANCH   6   7
ENDBRANCH   1   6
TORSDOF 5
ENDMDL
MODEL 8
REMARK VINA RESULT:     1.038      4.973      5.970
REMARK INTER + INTRA:           1.180
REMARK INTER:                   1.344
REMARK INTRA:                  -0.164
REMARK UNBOUND:                -0.162
REMARK SMILES CCCCCCC(=O)[O-]
REMARK SMILES IDX 5 1 6 2 7 3 8 4 9 5 4 6 3 7 2 8 1 9
REMARK H PARENT
REMARK Flexibility Score: inf
ROOT
ATOM      1  C   UNL     1     103.614 103.237 100.502  1.00  0.00     0.006 C 
ENDROOT
BRANCH   1   2
ATOM      2  C   UNL     1     103.227 102.089  99.560  1.00  0.00     0.053 C 
BRANCH   2   3
ATOM      3  C   UNL     1     103.620 102.413  98.154  1.00  0.00     0.041 C 
ATOM      4  O   UNL     1     103.929 101.493  97.353  1.00  0.00    -0.550 OA
ATOM      5  O   UNL     1     103.693 103.738  97.740  1.00  0.00    -0.550 OA
ENDBRANCH   2   3
ENDBRANCH   1   2
BRANCH   1   6
ATOM      6  C   UNL     1     103.481 102.857 101.985  1.00  0.00     0.000 C 
BRANCH   6   7
ATOM      7  C   UNL     1     103.769 104.036 102.926  1.00  0.00    -0.000 C 
BRANCH   7   8
ATOM      8  C   UNL     1     104.703 105.053 102.260  1.00  0.00    -0.003 C 
ATOM      9  C   UNL     1     104.296 106.483 102.604  1.00  0.00     0.004 C 
ENDBRANCH   7   8
ENDBRANCH   6   7
ENDBRANCH   1   6
TORSDOF 5
ENDMDL
MODEL 9
REMARK VINA RESULT:     1.104      5.029      6.768
REMARK INTER + INTRA:           1.265
REMARK INTER:                   1.433
REMARK INTRA:                  -0.168
REMARK UNBOUND:                -0.162
REMARK SMILES CCCCCCC(=O)[O-]
REMARK SMILES IDX 5 1 6 2 7 3 8 4 9 5 4 6 3 7 2 8 1 9
REMARK H PARENT
REMARK Flexibility Score: inf
ROOT
ATOM      1  C   UNL     1     104.352 105.022 100.526  1.00  0.00     0.006 C 
ENDROOT
BRANCH   1   2
ATOM      2  C   UNL     1     104.750 106.154  99.568  1.00  0.00     0.053 C 
BRANCH   2   3
ATOM      3  C   UNL     1     104.372 105.805  98.164  1.00  0.00     0.041 C 
ATOM      4  O   UNL     1     104.003 106.704  97.364  1.00  0.00    -0.550 OA
ATOM      5  O   UNL     1     104.379 104.478  97.750  1.00  0.00    -0.550 OA
ENDBRANCH   2   3
ENDBRANCH   1   2
BRANCH   1   6
ATOM      6  C   UNL     1     104.580 105.388 102.001  1.00  0.00     0.000 C 
BRANCH   6   7
ATOM      7  C   UNL     1     104.143 104.271 102.961  1.00  0.00    -0.000 C 
BRANCH   7   8
ATOM      8  C   UNL     1     103.248 103.253 102.246  1.00  0.00    -0.003 C 
ATOM      9  C   UNL     1     103.625 101.824 102.625  1.00  0.00     0.004 C 
ENDBRANCH   7   8
ENDBRANCH   6   7
ENDBRANCH   1   6
TORSDOF 5
ENDMDL
