MODEL 1
REMARK VINA RESULT:    -6.989      0.000      0.000
REMARK INTER + INTRA:          -8.791
REMARK INTER:                  -8.420
REMARK INTRA:                  -0.372
REMARK UNBOUND:                -0.372
REMARK SMILES Oc1cc(O)c2c(c1)O[C@H](c1ccc(O)c(O)c1)[C@@H](O)C2
REMARK SMILES IDX 21 1 19 2 10 3 9 4 7 5 8 6 2 7 3 8 4 9 6 10 20 11 11 13
REMARK SMILES IDX 18 14 12 15 16 16 13 17 14 18 17 19 15 21 5 23 1 25
REMARK H PARENT 20 12 17 20 15 22 5 24 1 26
REMARK Flexibility Score: inf
ROOT
ATOM      1  C   UNL     1      35.857   6.350   9.003  1.00  0.00     0.079 C 
ATOM      2  C   UNL     1      35.067   5.292   8.211  1.00  0.00     0.164 C 
ATOM      3  C   UNL     1      33.682   5.849   7.819  1.00  0.00     0.232 C 
ATOM      4  O   UNL     1      32.982   6.284   8.986  1.00  0.00    -0.482 OA
ATOM      5  C   UNL     1      33.629   6.894  10.067  1.00  0.00     0.131 A 
ATOM      6  C   UNL     1      32.865   7.447  11.098  1.00  0.00     0.093 A 
ATOM      7  C   UNL     1      33.491   8.062  12.189  1.00  0.00     0.122 A 
ATOM      8  C   UNL     1      34.886   8.124  12.246  1.00  0.00     0.092 A 
ATOM      9  C   UNL     1      35.664   7.567  11.220  1.00  0.00     0.126 A 
ATOM     10  C   UNL     1      35.038   6.930  10.133  1.00  0.00     0.039 A 
ENDROOT
BRANCH   2  11
ATOM     11  O   UNL     1      35.793   4.878   7.080  1.00  0.00    -0.389 OA
ATOM     12  H   UNL     1      35.165   4.401   6.477  1.00  0.00     0.211 HD
ENDBRANCH   2  11
BRANCH   3  13
ATOM     13  C   UNL     1      32.863   4.807   7.094  1.00  0.00    -0.001 A 
ATOM     14  C   UNL     1      32.475   5.015   5.759  1.00  0.00     0.057 A 
ATOM     15  C   UNL     1      32.522   3.599   7.726  1.00  0.00     0.012 A 
ATOM     16  C   UNL     1      31.739   4.038   5.072  1.00  0.00     0.157 A 
ATOM     17  C   UNL     1      31.788   2.627   7.042  1.00  0.00     0.050 A 
ATOM     18  C   UNL     1      31.394   2.843   5.715  1.00  0.00     0.157 A 
BRANCH  16  19
ATOM     19  O   UNL     1      31.349   4.248   3.751  1.00  0.00    -0.504 OA
ATOM     20  H   UNL     1      31.246   3.479   3.100  1.00  0.00     0.293 HD
ENDBRANCH  16  19
BRANCH  18  21
ATOM     21  O   UNL     1      30.660   1.875   5.030  1.00  0.00    -0.504 OA
ATOM     22  H   UNL     1      30.518   0.948   5.414  1.00  0.00     0.293 HD
ENDBRANCH  18  21
ENDBRANCH   3  13
BRANCH   9  23
ATOM     23  O   UNL     1      37.055   7.646  11.280  1.00  0.00    -0.507 OA
ATOM     24  H   UNL     1      37.589   7.124  11.966  1.00  0.00     0.293 HD
ENDBRANCH   9  23
BRANCH   7  25
ATOM     25  O   UNL     1      32.736   8.620  13.219  1.00  0.00    -0.508 OA
ATOM     26  H   UNL     1      32.850   8.319  14.180  1.00  0.00     0.293 HD
ENDBRANCH   7  25
TORSDOF 6
ENDMDL
MODEL 2
REMARK VINA RESULT:    -6.591      1.981      6.966
REMARK INTER + INTRA:          -8.312
REMARK INTER:                  -8.222
REMARK INTRA:                  -0.090
REMARK UNBOUND:                -0.372
REMARK SMILES Oc1cc(O)c2c(c1)O[C@H](c1ccc(O)c(O)c1)[C@@H](O)C2
REMARK SMILES IDX 21 1 19 2 10 3 9 4 7 5 8 6 2 7 3 8 4 9 6 10 20 11 11 13
REMARK SMILES IDX 18 14 12 15 16 16 13 17 14 18 17 19 15 21 5 23 1 25
REMARK H PARENT 20 12 17 20 15 22 5 24 1 26
REMARK Flexibility Score: inf
ROOT
ATOM      1  C   UNL     1      32.403   3.200   9.247  1.00  0.00     0.079 C 
ATOM      2  C   UNL     1      33.673   3.747   9.923  1.00  0.00     0.164 C 
ATOM      3  C   UNL     1      33.736   5.282   9.770  1.00  0.00     0.232 C 
ATOM      4  O   UNL     1      33.663   5.638   8.387  1.00  0.00    -0.482 OA
ATOM      5  C   UNL     1      32.867   4.940   7.472  1.00  0.00     0.131 A 
ATOM      6  C   UNL     1      32.710   5.444   6.178  1.00  0.00     0.093 A 
ATOM      7  C   UNL     1      31.917   4.763   5.246  1.00  0.00     0.122 A 
ATOM      8  C   UNL     1      31.281   3.574   5.613  1.00  0.00     0.092 A 
ATOM      9  C   UNL     1      31.435   3.055   6.906  1.00  0.00     0.126 A 
ATOM     10  C   UNL     1      32.247   3.727   7.839  1.00  0.00     0.039 A 
ENDROOT
BRANCH   2  11
ATOM     11  O   UNL     1      33.717   3.364  11.275  1.00  0.00    -0.389 OA
ATOM     12  H   UNL     1      33.289   2.471  11.349  1.00  0.00     0.211 HD
ENDBRANCH   2  11
BRANCH   3  13
ATOM     13  C   UNL     1      35.005   5.836  10.371  1.00  0.00    -0.001 A 
ATOM     14  C   UNL     1      36.068   6.233   9.540  1.00  0.00     0.057 A 
ATOM     15  C   UNL     1      35.121   6.011  11.761  1.00  0.00     0.012 A 
ATOM     16  C   UNL     1      37.237   6.776  10.091  1.00  0.00     0.157 A 
ATOM     17  C   UNL     1      36.287   6.551  12.310  1.00  0.00     0.050 A 
ATOM     18  C   UNL     1      37.347   6.933  11.479  1.00  0.00     0.157 A 
BRANCH  16  19
ATOM     19  O   UNL     1      38.292   7.162   9.267  1.00  0.00    -0.504 OA
ATOM     20  H   UNL     1      39.018   7.789   9.593  1.00  0.00     0.293 HD
ENDBRANCH  16  19
BRANCH  18  21
ATOM     21  O   UNL     1      38.513   7.472  12.024  1.00  0.00    -0.504 OA
ATOM     22  H   UNL     1      38.488   8.069  12.841  1.00  0.00     0.293 HD
ENDBRANCH  18  21
ENDBRANCH   3  13
BRANCH   9  23
ATOM     23  O   UNL     1      30.783   1.875   7.266  1.00  0.00    -0.507 OA
ATOM     24  H   UNL     1      30.908   1.457   8.182  1.00  0.00     0.293 HD
ENDBRANCH   9  23
BRANCH   7  25
ATOM     25  O   UNL     1      31.753   5.261   3.955  1.00  0.00    -0.508 OA
ATOM     26  H   UNL     1      30.862   5.202   3.476  1.00  0.00     0.293 HD
ENDBRANCH   7  25
TORSDOF 6
ENDMDL
MODEL 3
REMARK VINA RESULT:    -6.428      2.974      3.145
REMARK INTER + INTRA:          -8.116
REMARK INTER:                  -8.348
REMARK INTRA:                   0.232
REMARK UNBOUND:                -0.372
REMARK SMILES Oc1cc(O)c2c(c1)O[C@H](c1ccc(O)c(O)c1)[C@@H](O)C2
REMARK SMILES IDX 21 1 19 2 10 3 9 4 7 5 8 6 2 7 3 8 4 9 6 10 20 11 11 13
REMARK SMILES IDX 18 14 12 15 16 16 13 17 14 18 17 19 15 21 5 23 1 25
REMARK H PARENT 20 12 17 20 15 22 5 24 1 26
REMARK Flexibility Score: inf
ROOT
ATOM      1  C   UNL     1      34.135   6.008  11.052  1.00  0.00     0.079 C 
ATOM      2  C   UNL     1      33.864   5.362   9.681  1.00  0.00     0.164 C 
ATOM      3  C   UNL     1      32.521   4.602   9.709  1.00  0.00     0.232 C 
ATOM      4  O   UNL     1      32.526   3.642  10.767  1.00  0.00    -0.482 OA
ATOM      5  C   UNL     1      33.145   3.882  11.999  1.00  0.00     0.131 A 
ATOM      6  C   UNL     1      32.965   2.972  13.044  1.00  0.00     0.093 A 
ATOM      7  C   UNL     1      33.575   3.193  14.285  1.00  0.00     0.122 A 
ATOM      8  C   UNL     1      34.367   4.329  14.478  1.00  0.00     0.092 A 
ATOM      9  C   UNL     1      34.560   5.246  13.435  1.00  0.00     0.126 A 
ATOM     10  C   UNL     1      33.964   5.016  12.181  1.00  0.00     0.039 A 
ENDROOT
BRANCH   2  11
ATOM     11  O   UNL     1      33.883   6.334   8.666  1.00  0.00    -0.389 OA
ATOM     12  H   UNL     1      34.752   6.259   8.192  1.00  0.00     0.211 HD
ENDBRANCH   2  11
BRANCH   3  13
ATOM     13  C   UNL     1      32.262   3.908   8.393  1.00  0.00    -0.001 A 
ATOM     14  C   UNL     1      32.265   4.640   7.194  1.00  0.00     0.057 A 
ATOM     15  C   UNL     1      32.065   2.517   8.346  1.00  0.00     0.012 A 
ATOM     16  C   UNL     1      32.054   3.996   5.966  1.00  0.00     0.157 A 
ATOM     17  C   UNL     1      31.853   1.875   7.123  1.00  0.00     0.050 A 
ATOM     18  C   UNL     1      31.846   2.611   5.931  1.00  0.00     0.157 A 
BRANCH  16  19
ATOM     19  O   UNL     1      32.051   4.724   4.778  1.00  0.00    -0.504 OA
ATOM     20  H   UNL     1      31.354   5.436   4.594  1.00  0.00     0.293 HD
ENDBRANCH  16  19
BRANCH  18  21
ATOM     21  O   UNL     1      31.634   1.974   4.709  1.00  0.00    -0.504 OA
ATOM     22  H   UNL     1      32.381   1.859   4.035  1.00  0.00     0.293 HD
ENDBRANCH  18  21
ENDBRANCH   3  13
BRANCH   9  23
ATOM     23  O   UNL     1      35.340   6.384  13.642  1.00  0.00    -0.507 OA
ATOM     24  H   UNL     1      36.319   6.411  13.381  1.00  0.00     0.293 HD
ENDBRANCH   9  23
BRANCH   7  25
ATOM     25  O   UNL     1      33.398   2.293  15.334  1.00  0.00    -0.508 OA
ATOM     26  H   UNL     1      32.474   2.033  15.656  1.00  0.00     0.293 HD
ENDBRANCH   7  25
TORSDOF 6
ENDMDL
MODEL 4
REMARK VINA RESULT:    -6.358      3.181      4.031
REMARK INTER + INTRA:          -8.030
REMARK INTER:                  -8.197
REMARK INTRA:                   0.167
REMARK UNBOUND:                -0.372
REMARK SMILES Oc1cc(O)c2c(c1)O[C@H](c1ccc(O)c(O)c1)[C@@H](O)C2
REMARK SMILES IDX 21 1 19 2 10 3 9 4 7 5 8 6 2 7 3 8 4 9 6 10 20 11 11 13
REMARK SMILES IDX 18 14 12 15 16 16 13 17 14 18 17 19 15 21 5 23 1 25
REMARK H PARENT 20 12 17 20 15 22 5 24 1 26
REMARK Flexibility Score: inf
ROOT
ATOM      1  C   UNL     1      35.411   6.723  12.602  1.00  0.00     0.079 C 
ATOM      2  C   UNL     1      35.215   6.585  11.080  1.00  0.00     0.164 C 
ATOM      3  C   UNL     1      33.755   6.193  10.768  1.00  0.00     0.232 C 
ATOM      4  O   UNL     1      33.411   4.996  11.468  1.00  0.00    -0.482 OA
ATOM      5  C   UNL     1      33.882   4.715  12.756  1.00  0.00     0.131 A 
ATOM      6  C   UNL     1      33.371   3.613  13.446  1.00  0.00     0.093 A 
ATOM      7  C   UNL     1      33.827   3.314  14.736  1.00  0.00     0.122 A 
ATOM      8  C   UNL     1      34.797   4.123  15.334  1.00  0.00     0.092 A 
ATOM      9  C   UNL     1      35.322   5.228  14.649  1.00  0.00     0.126 A 
ATOM     10  C   UNL     1      34.880   5.519  13.346  1.00  0.00     0.039 A 
ENDROOT
BRANCH   2  11
ATOM     11  O   UNL     1      35.579   7.775  10.426  1.00  0.00    -0.389 OA
ATOM     12  H   UNL     1      34.839   8.425  10.548  1.00  0.00     0.211 HD
ENDBRANCH   2  11
BRANCH   3  13
ATOM     13  C   UNL     1      33.553   5.990   9.285  1.00  0.00    -0.001 A 
ATOM     14  C   UNL     1      33.068   4.764   8.798  1.00  0.00     0.057 A 
ATOM     15  C   UNL     1      33.798   7.039   8.381  1.00  0.00     0.012 A 
ATOM     16  C   UNL     1      32.850   4.581   7.424  1.00  0.00     0.157 A 
ATOM     17  C   UNL     1      33.582   6.855   7.012  1.00  0.00     0.050 A 
ATOM     18  C   UNL     1      33.109   5.628   6.530  1.00  0.00     0.157 A 
BRANCH  16  19
ATOM     19  O   UNL     1      32.375   3.363   6.942  1.00  0.00    -0.504 OA
ATOM     20  H   UNL     1      32.308   3.176   5.948  1.00  0.00     0.293 HD
ENDBRANCH  16  19
BRANCH  18  21
ATOM     21  O   UNL     1      32.894   5.441   5.165  1.00  0.00    -0.504 OA
ATOM     22  H   UNL     1      31.965   5.286   4.792  1.00  0.00     0.293 HD
ENDBRANCH  18  21
ENDBRANCH   3  13
BRANCH   9  23
ATOM     23  O   UNL     1      36.280   6.037  15.261  1.00  0.00    -0.507 OA
ATOM     24  H   UNL     1      36.842   6.691  14.729  1.00  0.00     0.293 HD
ENDBRANCH   9  23
BRANCH   7  25
ATOM     25  O   UNL     1      33.320   2.219  15.432  1.00  0.00    -0.508 OA
ATOM     26  H   UNL     1      33.844   1.356  15.513  1.00  0.00     0.293 HD
ENDBRANCH   7  25
TORSDOF 6
ENDMDL
MODEL 5
REMARK VINA RESULT:    -6.339      1.826      3.038
REMARK INTER + INTRA:          -8.008
REMARK INTER:                  -7.741
REMARK INTRA:                  -0.267
REMARK UNBOUND:                -0.372
REMARK SMILES Oc1cc(O)c2c(c1)O[C@H](c1ccc(O)c(O)c1)[C@@H](O)C2
REMARK SMILES IDX 21 1 19 2 10 3 9 4 7 5 8 6 2 7 3 8 4 9 6 10 20 11 11 13
REMARK SMILES IDX 18 14 12 15 16 16 13 17 14 18 17 19 15 21 5 23 1 25
REMARK H PARENT 20 12 17 20 15 22 5 24 1 26
REMARK Flexibility Score: inf
ROOT
ATOM      1  C   UNL     1      33.813   5.047  11.543  1.00  0.00     0.079 C 
ATOM      2  C   UNL     1      32.941   4.772  10.303  1.00  0.00     0.164 C 
ATOM      3  C   UNL     1      33.754   3.994   9.246  1.00  0.00     0.232 C 
ATOM      4  O   UNL     1      34.946   4.713   8.921  1.00  0.00    -0.482 OA
ATOM      5  C   UNL     1      35.672   5.436   9.873  1.00  0.00     0.131 A 
ATOM      6  C   UNL     1      36.914   5.971   9.524  1.00  0.00     0.093 A 
ATOM      7  C   UNL     1      37.659   6.698  10.462  1.00  0.00     0.122 A 
ATOM      8  C   UNL     1      37.155   6.889  11.752  1.00  0.00     0.092 A 
ATOM      9  C   UNL     1      35.906   6.362  12.112  1.00  0.00     0.126 A 
ATOM     10  C   UNL     1      35.148   5.648  11.166  1.00  0.00     0.039 A 
ENDROOT
BRANCH   2  11
ATOM     11  O   UNL     1      31.773   4.080  10.665  1.00  0.00    -0.389 OA
ATOM     12  H   UNL     1      31.090   4.253   9.965  1.00  0.00     0.211 HD
ENDBRANCH   2  11
BRANCH   3  13
ATOM     13  C   UNL     1      32.940   3.767   7.995  1.00  0.00    -0.001 A 
ATOM     14  C   UNL     1      32.940   4.725   6.966  1.00  0.00     0.057 A 
ATOM     15  C   UNL     1      32.214   2.575   7.821  1.00  0.00     0.012 A 
ATOM     16  C   UNL     1      32.209   4.505   5.789  1.00  0.00     0.157 A 
ATOM     17  C   UNL     1      31.486   2.357   6.649  1.00  0.00     0.050 A 
ATOM     18  C   UNL     1      31.479   3.320   5.631  1.00  0.00     0.157 A 
BRANCH  16  19
ATOM     19  O   UNL     1      32.205   5.459   4.773  1.00  0.00    -0.504 OA
ATOM     20  H   UNL     1      32.317   6.446   4.972  1.00  0.00     0.293 HD
ENDBRANCH  16  19
BRANCH  18  21
ATOM     21  O   UNL     1      30.752   3.106   4.461  1.00  0.00    -0.504 OA
ATOM     22  H   UNL     1      31.137   2.579   3.687  1.00  0.00     0.293 HD
ENDBRANCH  18  21
ENDBRANCH   3  13
BRANCH   9  23
ATOM     23  O   UNL     1      35.419   6.545  13.406  1.00  0.00    -0.507 OA
ATOM     24  H   UNL     1      34.787   7.305  13.634  1.00  0.00     0.293 HD
ENDBRANCH   9  23
BRANCH   7  25
ATOM     25  O   UNL     1      38.900   7.232  10.123  1.00  0.00    -0.508 OA
ATOM     26  H   UNL     1      39.273   7.150   9.185  1.00  0.00     0.293 HD
ENDBRANCH   7  25
TORSDOF 6
ENDMDL
MODEL 6
REMARK VINA RESULT:    -6.095      3.122      6.842
REMARK INTER + INTRA:          -7.714
REMARK INTER:                  -7.679
REMARK INTRA:                  -0.035
REMARK UNBOUND:                -0.372
REMARK SMILES Oc1cc(O)c2c(c1)O[C@H](c1ccc(O)c(O)c1)[C@@H](O)C2
REMARK SMILES IDX 21 1 19 2 10 3 9 4 7 5 8 6 2 7 3 8 4 9 6 10 20 11 11 13
REMARK SMILES IDX 18 14 12 15 16 16 13 17 14 18 17 19 15 21 5 23 1 25
REMARK H PARENT 20 12 17 20 15 22 5 24 1 26
REMARK Flexibility Score: inf
ROOT
ATOM      1  C   UNL     1      33.681   5.340   7.792  1.00  0.00     0.079 C 
ATOM      2  C   UNL     1      33.582   5.111   9.312  1.00  0.00     0.164 C 
ATOM      3  C   UNL     1      33.587   3.599   9.622  1.00  0.00     0.232 C 
ATOM      4  O   UNL     1      32.531   2.952   8.909  1.00  0.00    -0.482 OA
ATOM      5  C   UNL     1      32.150   3.334   7.617  1.00  0.00     0.131 A 
ATOM      6  C   UNL     1      31.230   2.551   6.915  1.00  0.00     0.093 A 
ATOM      7  C   UNL     1      30.836   2.913   5.622  1.00  0.00     0.122 A 
ATOM      8  C   UNL     1      31.366   4.064   5.031  1.00  0.00     0.092 A 
ATOM      9  C   UNL     1      32.285   4.862   5.728  1.00  0.00     0.126 A 
ATOM     10  C   UNL     1      32.669   4.510   7.035  1.00  0.00     0.039 A 
ENDROOT
BRANCH   2  11
ATOM     11  O   UNL     1      34.626   5.776   9.979  1.00  0.00    -0.389 OA
ATOM     12  H   UNL     1      34.445   5.721  10.953  1.00  0.00     0.211 HD
ENDBRANCH   2  11
BRANCH   3  13
ATOM     13  C   UNL     1      33.429   3.348  11.102  1.00  0.00    -0.001 A 
ATOM     14  C   UNL     1      32.859   4.331  11.930  1.00  0.00     0.057 A 
ATOM     15  C   UNL     1      33.800   2.113  11.661  1.00  0.00     0.012 A 
ATOM     16  C   UNL     1      32.683   4.091  13.301  1.00  0.00     0.157 A 
ATOM     17  C   UNL     1      33.626   1.875  13.027  1.00  0.00     0.050 A 
ATOM     18  C   UNL     1      33.069   2.862  13.850  1.00  0.00     0.157 A 
BRANCH  16  19
ATOM     19  O   UNL     1      32.124   5.069  14.122  1.00  0.00    -0.504 OA
ATOM     20  H   UNL     1      32.678   5.561  14.813  1.00  0.00     0.293 HD
ENDBRANCH  16  19
BRANCH  18  21
ATOM     21  O   UNL     1      32.894   2.628  15.214  1.00  0.00    -0.504 OA
ATOM     22  H   UNL     1      32.787   1.690  15.581  1.00  0.00     0.293 HD
ENDBRANCH  18  21
ENDBRANCH   3  13
BRANCH   9  23
ATOM     23  O   UNL     1      32.819   6.000   5.123  1.00  0.00    -0.507 OA
ATOM     24  H   UNL     1      32.993   6.849   5.649  1.00  0.00     0.293 HD
ENDBRANCH   9  23
BRANCH   7  25
ATOM     25  O   UNL     1      29.922   2.136   4.914  1.00  0.00    -0.508 OA
ATOM     26  H   UNL     1      30.174   1.687   4.041  1.00  0.00     0.293 HD
ENDBRANCH   7  25
TORSDOF 6
ENDMDL
MODEL 7
REMARK VINA RESULT:    -6.070      1.797      2.912
REMARK INTER + INTRA:          -7.684
REMARK INTER:                  -7.725
REMARK INTRA:                   0.041
REMARK UNBOUND:                -0.372
REMARK SMILES Oc1cc(O)c2c(c1)O[C@H](c1ccc(O)c(O)c1)[C@@H](O)C2
REMARK SMILES IDX 21 1 19 2 10 3 9 4 7 5 8 6 2 7 3 8 4 9 6 10 20 11 11 13
REMARK SMILES IDX 18 14 12 15 16 16 13 17 14 18 17 19 15 21 5 23 1 25
REMARK H PARENT 20 12 17 20 15 22 5 24 1 26
REMARK Flexibility Score: inf
ROOT
ATOM      1  C   UNL     1      33.259   3.879  10.810  1.00  0.00     0.079 C 
ATOM      2  C   UNL     1      32.488   3.879   9.477  1.00  0.00     0.164 C 
ATOM      3  C   UNL     1      33.470   4.039   8.297  1.00  0.00     0.232 C 
ATOM      4  O   UNL     1      34.252   5.223   8.469  1.00  0.00    -0.482 OA
ATOM      5  C   UNL     1      34.691   5.659   9.725  1.00  0.00     0.131 A 
ATOM      6  C   UNL     1      35.590   6.726   9.803  1.00  0.00     0.093 A 
ATOM      7  C   UNL     1      36.044   7.178  11.048  1.00  0.00     0.122 A 
ATOM      8  C   UNL     1      35.594   6.558  12.217  1.00  0.00     0.092 A 
ATOM      9  C   UNL     1      34.687   5.491  12.153  1.00  0.00     0.126 A 
ATOM     10  C   UNL     1      34.215   5.047  10.903  1.00  0.00     0.039 A 
ENDROOT
BRANCH   2  11
ATOM     11  O   UNL     1      31.721   2.708   9.351  1.00  0.00    -0.389 OA
ATOM     12  H   UNL     1      32.322   1.934   9.513  1.00  0.00     0.211 HD
ENDBRANCH   2  11
BRANCH   3  13
ATOM     13  C   UNL     1      32.733   4.104   6.981  1.00  0.00    -0.001 A 
ATOM     14  C   UNL     1      32.101   2.958   6.467  1.00  0.00     0.057 A 
ATOM     15  C   UNL     1      32.625   5.318   6.281  1.00  0.00     0.012 A 
ATOM     16  C   UNL     1      31.389   3.020   5.260  1.00  0.00     0.157 A 
ATOM     17  C   UNL     1      31.917   5.379   5.078  1.00  0.00     0.050 A 
ATOM     18  C   UNL     1      31.299   4.232   4.563  1.00  0.00     0.157 A 
BRANCH  16  19
ATOM     19  O   UNL     1      30.769   1.882   4.748  1.00  0.00    -0.504 OA
ATOM     20  H   UNL     1      29.974   1.947   4.122  1.00  0.00     0.293 HD
ENDBRANCH  16  19
BRANCH  18  21
ATOM     21  O   UNL     1      30.593   4.289   3.362  1.00  0.00    -0.504 OA
ATOM     22  H   UNL     1      29.580   4.304   3.343  1.00  0.00     0.293 HD
ENDBRANCH  18  21
ENDBRANCH   3  13
BRANCH   9  23
ATOM     23  O   UNL     1      34.256   4.870  13.325  1.00  0.00    -0.507 OA
ATOM     24  H   UNL     1      34.357   3.871  13.466  1.00  0.00     0.293 HD
ENDBRANCH   9  23
BRANCH   7  25
ATOM     25  O   UNL     1      36.943   8.238  11.134  1.00  0.00    -0.508 OA
ATOM     26  H   UNL     1      37.944   8.086  11.095  1.00  0.00     0.293 HD
ENDBRANCH   7  25
TORSDOF 6
ENDMDL
MODEL 8
REMARK VINA RESULT:    -5.864      2.674      6.994
REMARK INTER + INTRA:          -7.435
REMARK INTER:                  -7.349
REMARK INTRA:                  -0.087
REMARK UNBOUND:                -0.372
REMARK SMILES Oc1cc(O)c2c(c1)O[C@H](c1ccc(O)c(O)c1)[C@@H](O)C2
REMARK SMILES IDX 21 1 19 2 10 3 9 4 7 5 8 6 2 7 3 8 4 9 6 10 20 11 11 13
REMARK SMILES IDX 18 14 12 15 16 16 13 17 14 18 17 19 15 21 5 23 1 25
REMARK H PARENT 20 12 17 20 15 22 5 24 1 26
REMARK Flexibility Score: inf
ROOT
ATOM      1  C   UNL     1      33.059   4.877   6.647  1.00  0.00     0.079 C 
ATOM      2  C   UNL     1      33.116   4.903   8.185  1.00  0.00     0.164 C 
ATOM      3  C   UNL     1      32.956   3.474   8.746  1.00  0.00     0.232 C 
ATOM      4  O   UNL     1      31.745   2.892   8.260  1.00  0.00    -0.482 OA
ATOM      5  C   UNL     1      31.265   3.123   6.966  1.00  0.00     0.131 A 
ATOM      6  C   UNL     1      30.170   2.390   6.501  1.00  0.00     0.093 A 
ATOM      7  C   UNL     1      29.674   2.604   5.209  1.00  0.00     0.122 A 
ATOM      8  C   UNL     1      30.277   3.556   4.382  1.00  0.00     0.092 A 
ATOM      9  C   UNL     1      31.373   4.303   4.840  1.00  0.00     0.126 A 
ATOM     10  C   UNL     1      31.861   4.103   6.145  1.00  0.00     0.039 A 
ENDROOT
BRANCH   2  11
ATOM     11  O   UNL     1      34.312   5.496   8.624  1.00  0.00    -0.389 OA
ATOM     12  H   UNL     1      35.025   5.255   7.976  1.00  0.00     0.211 HD
ENDBRANCH   2  11
BRANCH   3  13
ATOM     13  C   UNL     1      32.946   3.481  10.256  1.00  0.00    -0.001 A 
ATOM     14  C   UNL     1      32.534   4.628  10.956  1.00  0.00     0.057 A 
ATOM     15  C   UNL     1      33.299   2.328  10.978  1.00  0.00     0.012 A 
ATOM     16  C   UNL     1      32.495   4.630  12.358  1.00  0.00     0.157 A 
ATOM     17  C   UNL     1      33.262   2.331  12.375  1.00  0.00     0.050 A 
ATOM     18  C   UNL     1      32.861   3.480  13.069  1.00  0.00     0.157 A 
BRANCH  16  19
ATOM     19  O   UNL     1      32.092   5.770  13.051  1.00  0.00    -0.504 OA
ATOM     20  H   UNL     1      31.409   5.723  13.798  1.00  0.00     0.293 HD
ENDBRANCH  16  19
BRANCH  18  21
ATOM     21  O   UNL     1      32.824   3.487  14.463  1.00  0.00    -0.504 OA
ATOM     22  H   UNL     1      33.637   3.243  15.016  1.00  0.00     0.293 HD
ENDBRANCH  18  21
ENDBRANCH   3  13
BRANCH   9  23
ATOM     23  O   UNL     1      31.977   5.240   4.002  1.00  0.00    -0.507 OA
ATOM     24  H   UNL     1      31.658   6.202   3.964  1.00  0.00     0.293 HD
ENDBRANCH   9  23
BRANCH   7  25
ATOM     25  O   UNL     1      28.585   1.875   4.736  1.00  0.00    -0.508 OA
ATOM     26  H   UNL     1      27.653   2.019   5.105  1.00  0.00     0.293 HD
ENDBRANCH   7  25
TORSDOF 6
ENDMDL
MODEL 9
REMARK VINA RESULT:    -5.785      2.445      6.906
REMARK INTER + INTRA:          -7.341
REMARK INTER:                  -7.425
REMARK INTRA:                   0.085
REMARK UNBOUND:                -0.372
REMARK SMILES Oc1cc(O)c2c(c1)O[C@H](c1ccc(O)c(O)c1)[C@@H](O)C2
REMARK SMILES IDX 21 1 19 2 10 3 9 4 7 5 8 6 2 7 3 8 4 9 6 10 20 11 11 13
REMARK SMILES IDX 18 14 12 15 16 16 13 17 14 18 17 19 15 21 5 23 1 25
REMARK H PARENT 20 12 17 20 15 22 5 24 1 26
REMARK Flexibility Score: inf
ROOT
ATOM      1  C   UNL     1      33.800   6.444   7.710  1.00  0.00     0.079 C 
ATOM      2  C   UNL     1      33.936   6.518   9.242  1.00  0.00     0.164 C 
ATOM      3  C   UNL     1      34.393   5.154   9.801  1.00  0.00     0.232 C 
ATOM      4  O   UNL     1      33.487   4.129   9.387  1.00  0.00    -0.482 OA
ATOM      5  C   UNL     1      32.877   4.127   8.128  1.00  0.00     0.131 A 
ATOM      6  C   UNL     1      32.140   3.010   7.726  1.00  0.00     0.093 A 
ATOM      7  C   UNL     1      31.521   2.986   6.470  1.00  0.00     0.122 A 
ATOM      8  C   UNL     1      31.643   4.085   5.615  1.00  0.00     0.092 A 
ATOM      9  C   UNL     1      32.376   5.214   6.009  1.00  0.00     0.126 A 
ATOM     10  C   UNL     1      32.982   5.248   7.278  1.00  0.00     0.039 A 
ENDROOT
BRANCH   2  11
ATOM     11  O   UNL     1      34.821   7.547   9.610  1.00  0.00    -0.389 OA
ATOM     12  H   UNL     1      34.849   8.201   8.864  1.00  0.00     0.211 HD
ENDBRANCH   2  11
BRANCH   3  13
ATOM     13  C   UNL     1      34.474   5.183  11.308  1.00  0.00    -0.001 A 
ATOM     14  C   UNL     1      33.638   4.356  12.078  1.00  0.00     0.057 A 
ATOM     15  C   UNL     1      35.417   5.998  11.958  1.00  0.00     0.012 A 
ATOM     16  C   UNL     1      33.729   4.358  13.478  1.00  0.00     0.157 A 
ATOM     17  C   UNL     1      35.507   6.000  13.352  1.00  0.00     0.050 A 
ATOM     18  C   UNL     1      34.663   5.182  14.115  1.00  0.00     0.157 A 
BRANCH  16  19
ATOM     19  O   UNL     1      32.895   3.542  14.240  1.00  0.00    -0.504 OA
ATOM     20  H   UNL     1      33.269   2.877  14.906  1.00  0.00     0.293 HD
ENDBRANCH  16  19
BRANCH  18  21
ATOM     21  O   UNL     1      34.750   5.183  15.507  1.00  0.00    -0.504 OA
ATOM     22  H   UNL     1      35.459   5.718  15.994  1.00  0.00     0.293 HD
ENDBRANCH  18  21
ENDBRANCH   3  13
BRANCH   9  23
ATOM     23  O   UNL     1      32.503   6.299   5.141  1.00  0.00    -0.507 OA
ATOM     24  H   UNL     1      32.530   7.253   5.484  1.00  0.00     0.293 HD
ENDBRANCH   9  23
BRANCH   7  25
ATOM     25  O   UNL     1      30.787   1.875   6.061  1.00  0.00    -0.508 OA
ATOM     26  H   UNL     1      31.205   1.142   5.501  1.00  0.00     0.293 HD
ENDBRANCH   7  25
TORSDOF 6
ENDMDL
