MODEL 1
REMARK VINA RESULT:    -3.275      0.000      0.000
REMARK INTER + INTRA:          -5.090
REMARK INTER:                  -4.998
REMARK INTRA:                  -0.092
REMARK UNBOUND:                -0.092
REMARK SMILES CC1=CCC[C@H](C)C(=O)C[C@@H](C(C)C)C(=O)C1
REMARK SMILES IDX 8 1 9 2 6 3 7 4 5 5 4 6 3 7 2 8 1 9 10 11 11 12 15 13 16 14
REMARK SMILES IDX 17 15 12 17 13 18 14 19
REMARK H PARENT
REMARK Flexibility Score: 70.00
ROOT
ATOM      1  C   UNL     1      -6.928  68.233  23.921  1.00  0.00     0.136 C 
ATOM      2  O   UNL     1      -6.651  68.703  22.826  1.00  0.00    -0.299 OA
ENDROOT
BRANCH   1   3
ATOM      3  C   UNL     1      -7.199  66.751  24.052  1.00  0.00     0.053 C 
ATOM      4  C   UNL     1      -6.547  65.964  22.907  1.00  0.00     0.016 C 
BRANCH   3   5
ATOM      5  C   UNL     1      -6.697  66.266  25.433  1.00  0.00     0.015 C 
BRANCH   5   6
ATOM      6  C   UNL     1      -5.170  66.115  25.581  1.00  0.00     0.028 C 
BRANCH   6   7
ATOM      7  C   UNL     1      -4.557  66.562  26.892  1.00  0.00    -0.028 C 
ATOM      8  C   UNL     1      -3.821  67.679  27.108  1.00  0.00    -0.070 CG0
ATOM      9  C   UNL     1      -3.212  67.860  28.477  1.00  0.00     0.039 C 
ATOM     10  G   UNL     1      -3.643  68.794  26.092  1.00  0.00     0.000 G0
ENDBRANCH   6   7
ENDBRANCH   5   6
ENDBRANCH   3   5
ENDBRANCH   1   3
BRANCH   1  11
ATOM     11  C   UNL     1      -6.920  69.134  25.135  1.00  0.00     0.087 C 
BRANCH  11  12
ATOM     12  C   UNL     1      -5.737  70.149  25.116  1.00  0.00     0.066 C 
BRANCH  12  13
ATOM     13  C   UNL     1      -4.741  69.851  26.228  1.00  0.00     0.140 C 
ATOM     14  O   UNL     1      -4.801  70.491  27.268  1.00  0.00    -0.299 OA
BRANCH  13  15
ATOM     15  C   UNL     1      -3.650  68.809  26.078  1.00  0.00     0.106 CG0
ATOM     16  G   UNL     1      -3.823  67.696  27.097  1.00  0.00     0.000 G0
ENDBRANCH  13  15
ENDBRANCH  12  13
BRANCH  12  17
ATOM     17  C   UNL     1      -6.195  71.641  25.178  1.00  0.00    -0.006 C 
ATOM     18  C   UNL     1      -7.691  71.854  24.873  1.00  0.00     0.008 C 
ATOM     19  C   UNL     1      -5.343  72.534  24.261  1.00  0.00     0.008 C 
ENDBRANCH  12  17
ENDBRANCH  11  12
ENDBRANCH   1  11
TORSDOF 1
ENDMDL
MODEL 2
REMARK VINA RESULT:    -3.266      1.915      3.957
REMARK INTER + INTRA:          -5.075
REMARK INTER:                  -4.688
REMARK INTRA:                  -0.387
REMARK UNBOUND:                -0.092
REMARK SMILES CC1=CCC[C@H](C)C(=O)C[C@@H](C(C)C)C(=O)C1
REMARK SMILES IDX 8 1 9 2 6 3 7 4 5 5 4 6 3 7 2 8 1 9 10 11 11 12 15 13 16 14
REMARK SMILES IDX 17 15 12 17 13 18 14 19
REMARK H PARENT
REMARK Flexibility Score: 70.00
ROOT
ATOM      1  C   UNL     1      -5.969  66.711  26.019  1.00  0.00     0.136 C 
ATOM      2  O   UNL     1      -6.702  66.056  26.748  1.00  0.00    -0.299 OA
ENDROOT
BRANCH   1   3
ATOM      3  C   UNL     1      -6.483  67.197  24.683  1.00  0.00     0.053 C 
ATOM      4  C   UNL     1      -7.106  66.051  23.877  1.00  0.00     0.016 C 
BRANCH   3   5
ATOM      5  C   UNL     1      -7.496  68.342  24.920  1.00  0.00     0.015 C 
BRANCH   5   6
ATOM      6  C   UNL     1      -6.966  69.772  24.693  1.00  0.00     0.028 C 
BRANCH   6   7
ATOM      7  C   UNL     1      -5.621  69.907  24.008  1.00  0.00    -0.028 C 
ATOM      8  C   UNL     1      -4.471  70.367  24.557  1.00  0.00    -0.070 CG0
ATOM      9  C   UNL     1      -3.277  70.524  23.646  1.00  0.00     0.039 C 
ATOM     10  G   UNL     1      -4.284  70.653  26.036  1.00  0.00     0.000 G0
ENDBRANCH   6   7
ENDBRANCH   5   6
ENDBRANCH   3   5
ENDBRANCH   1   3
BRANCH   1  11
ATOM     11  C   UNL     1      -4.587  67.082  26.506  1.00  0.00     0.087 C 
BRANCH  11  12
ATOM     12  C   UNL     1      -4.589  68.372  27.380  1.00  0.00     0.066 C 
BRANCH  12  13
ATOM     13  C   UNL     1      -3.699  69.449  26.773  1.00  0.00     0.140 C 
ATOM     14  O   UNL     1      -2.486  69.357  26.895  1.00  0.00    -0.299 OA
BRANCH  13  15
ATOM     15  C   UNL     1      -4.268  70.653  26.049  1.00  0.00     0.106 CG0
ATOM     16  G   UNL     1      -4.461  70.354  24.572  1.00  0.00     0.000 G0
ENDBRANCH  13  15
ENDBRANCH  12  13
BRANCH  12  17
ATOM     17  C   UNL     1      -4.195  68.115  28.870  1.00  0.00    -0.006 C 
ATOM     18  C   UNL     1      -4.772  66.813  29.458  1.00  0.00     0.008 C 
ATOM     19  C   UNL     1      -4.571  69.306  29.769  1.00  0.00     0.008 C 
ENDBRANCH  12  17
ENDBRANCH  11  12
ENDBRANCH   1  11
TORSDOF 1
ENDMDL
MODEL 3
REMARK VINA RESULT:    -3.208      8.256     10.517
REMARK INTER + INTRA:          -4.988
REMARK INTER:                  -4.939
REMARK INTRA:                  -0.049
REMARK UNBOUND:                -0.092
REMARK SMILES CC1=CCC[C@H](C)C(=O)C[C@@H](C(C)C)C(=O)C1
REMARK SMILES IDX 8 1 9 2 6 3 7 4 5 5 4 6 3 7 2 8 1 9 10 11 11 12 15 13 16 14
REMARK SMILES IDX 17 15 12 17 13 18 14 19
REMARK H PARENT
REMARK Flexibility Score: 70.00
ROOT
ATOM      1  C   UNL     1      -5.951  67.576  33.743  1.00  0.00     0.136 C 
ATOM      2  O   UNL     1      -6.725  68.124  32.970  1.00  0.00    -0.299 OA
ENDROOT
BRANCH   1   3
ATOM      3  C   UNL     1      -4.574  67.174  33.263  1.00  0.00     0.053 C 
ATOM      4  C   UNL     1      -4.240  67.835  31.920  1.00  0.00     0.016 C 
BRANCH   3   5
ATOM      5  C   UNL     1      -3.535  67.539  34.351  1.00  0.00     0.015 C 
BRANCH   5   6
ATOM      6  C   UNL     1      -3.184  69.035  34.475  1.00  0.00     0.028 C 
BRANCH   6   7
ATOM      7  C   UNL     1      -2.683  69.516  35.821  1.00  0.00    -0.028 C 
ATOM      8  C   UNL     1      -3.391  70.189  36.760  1.00  0.00    -0.070 CG0
ATOM      9  C   UNL     1      -2.647  70.671  37.982  1.00  0.00     0.039 C 
ATOM     10  G   UNL     1      -4.891  70.414  36.701  1.00  0.00     0.000 G0
ENDBRANCH   6   7
ENDBRANCH   5   6
ENDBRANCH   3   5
ENDBRANCH   1   3
BRANCH   1  11
ATOM     11  C   UNL     1      -6.363  67.381  35.184  1.00  0.00     0.087 C 
BRANCH  11  12
ATOM     12  C   UNL     1      -6.746  68.721  35.882  1.00  0.00     0.066 C 
BRANCH  12  13
ATOM     13  C   UNL     1      -5.677  69.145  36.880  1.00  0.00     0.140 C 
ATOM     14  O   UNL     1      -5.454  68.436  37.851  1.00  0.00    -0.299 OA
BRANCH  13  15
ATOM     15  C   UNL     1      -4.899  70.438  36.730  1.00  0.00     0.106 CG0
ATOM     16  G   UNL     1      -3.403  70.174  36.747  1.00  0.00     0.000 G0
ENDBRANCH  13  15
ENDBRANCH  12  13
BRANCH  12  17
ATOM     17  C   UNL     1      -8.149  68.688  36.567  1.00  0.00    -0.006 C 
ATOM     18  C   UNL     1      -8.944  67.392  36.312  1.00  0.00     0.008 C 
ATOM     19  C   UNL     1      -9.000  69.908  36.175  1.00  0.00     0.008 C 
ENDBRANCH  12  17
ENDBRANCH  11  12
ENDBRANCH   1  11
TORSDOF 1
ENDMDL
MODEL 4
REMARK VINA RESULT:    -3.093      8.665     11.531
REMARK INTER + INTRA:          -4.812
REMARK INTER:                  -4.457
REMARK INTRA:                  -0.356
REMARK UNBOUND:                -0.092
REMARK SMILES CC1=CCC[C@H](C)C(=O)C[C@@H](C(C)C)C(=O)C1
REMARK SMILES IDX 8 1 9 2 6 3 7 4 5 5 4 6 3 7 2 8 1 9 10 11 11 12 15 13 16 14
REMARK SMILES IDX 17 15 12 17 13 18 14 19
REMARK H PARENT
REMARK Flexibility Score: 70.00
ROOT
ATOM      1  C   UNL     1      -4.862  69.806  37.763  1.00  0.00     0.136 C 
ATOM      2  O   UNL     1      -5.406  69.784  38.859  1.00  0.00    -0.299 OA
ENDROOT
BRANCH   1   3
ATOM      3  C   UNL     1      -3.356  69.708  37.672  1.00  0.00     0.053 C 
ATOM      4  C   UNL     1      -2.678  70.802  38.507  1.00  0.00     0.016 C 
BRANCH   3   5
ATOM      5  C   UNL     1      -2.915  68.295  38.122  1.00  0.00     0.015 C 
BRANCH   5   6
ATOM      6  C   UNL     1      -2.823  67.231  37.010  1.00  0.00     0.028 C 
BRANCH   6   7
ATOM      7  C   UNL     1      -2.758  67.731  35.582  1.00  0.00    -0.028 C 
ATOM      8  C   UNL     1      -3.663  67.507  34.599  1.00  0.00    -0.070 CG0
ATOM      9  C   UNL     1      -3.329  68.008  33.215  1.00  0.00     0.039 C 
ATOM     10  G   UNL     1      -5.020  66.862  34.817  1.00  0.00     0.000 G0
ENDBRANCH   6   7
ENDBRANCH   5   6
ENDBRANCH   3   5
ENDBRANCH   1   3
BRANCH   1  11
ATOM     11  C   UNL     1      -5.717  69.854  36.516  1.00  0.00     0.087 C 
BRANCH  11  12
ATOM     12  C   UNL     1      -6.491  68.523  36.272  1.00  0.00     0.066 C 
BRANCH  12  13
ATOM     13  C   UNL     1      -6.112  67.905  34.933  1.00  0.00     0.140 C 
ATOM     14  O   UNL     1      -6.716  68.249  33.927  1.00  0.00    -0.299 OA
BRANCH  13  15
ATOM     15  C   UNL     1      -5.031  66.850  34.808  1.00  0.00     0.106 CG0
ATOM     16  G   UNL     1      -3.671  67.491  34.593  1.00  0.00     0.000 G0
ENDBRANCH  13  15
ENDBRANCH  12  13
BRANCH  12  17
ATOM     17  C   UNL     1      -8.042  68.675  36.384  1.00  0.00    -0.006 C 
ATOM     18  C   UNL     1      -8.514  70.110  36.686  1.00  0.00     0.008 C 
ATOM     19  C   UNL     1      -8.634  67.702  37.417  1.00  0.00     0.008 C 
ENDBRANCH  12  17
ENDBRANCH  11  12
ENDBRANCH   1  11
TORSDOF 1
ENDMDL
MODEL 5
REMARK VINA RESULT:    -3.091      1.717      4.195
REMARK INTER + INTRA:          -4.810
REMARK INTER:                  -4.752
REMARK INTRA:                  -0.058
REMARK UNBOUND:                -0.092
REMARK SMILES CC1=CCC[C@H](C)C(=O)C[C@@H](C(C)C)C(=O)C1
REMARK SMILES IDX 8 1 9 2 6 3 7 4 5 5 4 6 3 7 2 8 1 9 10 11 11 12 15 13 16 14
REMARK SMILES IDX 17 15 12 17 13 18 14 19
REMARK H PARENT
REMARK Flexibility Score: 70.00
ROOT
ATOM      1  C   UNL     1      -5.098  70.999  25.917  1.00  0.00     0.136 C 
ATOM      2  O   UNL     1      -3.983  71.445  25.676  1.00  0.00    -0.299 OA
ENDROOT
BRANCH   1   3
ATOM      3  C   UNL     1      -6.267  71.396  25.044  1.00  0.00     0.053 C 
ATOM      4  C   UNL     1      -5.790  71.918  23.682  1.00  0.00     0.016 C 
BRANCH   3   5
ATOM      5  C   UNL     1      -7.214  70.183  24.888  1.00  0.00     0.015 C 
BRANCH   5   6
ATOM      6  C   UNL     1      -6.757  69.092  23.900  1.00  0.00     0.028 C 
BRANCH   6   7
ATOM      7  C   UNL     1      -6.883  67.653  24.357  1.00  0.00    -0.028 C 
ATOM      8  C   UNL     1      -5.894  66.864  24.844  1.00  0.00    -0.070 CG0
ATOM      9  C   UNL     1      -6.229  65.420  25.126  1.00  0.00     0.039 C 
ATOM     10  G   UNL     1      -4.503  67.358  25.200  1.00  0.00     0.000 G0
ENDBRANCH   6   7
ENDBRANCH   5   6
ENDBRANCH   3   5
ENDBRANCH   1   3
BRANCH   1  11
ATOM     11  C   UNL     1      -5.266  70.000  27.039  1.00  0.00     0.087 C 
BRANCH  11  12
ATOM     12  C   UNL     1      -4.038  69.051  27.182  1.00  0.00     0.066 C 
BRANCH  12  13
ATOM     13  C   UNL     1      -4.361  67.653  26.673  1.00  0.00     0.140 C 
ATOM     14  O   UNL     1      -4.501  66.744  27.479  1.00  0.00    -0.299 OA
BRANCH  13  15
ATOM     15  C   UNL     1      -4.484  67.340  25.194  1.00  0.00     0.106 CG0
ATOM     16  G   UNL     1      -5.891  66.877  24.855  1.00  0.00     0.000 G0
ENDBRANCH  13  15
ENDBRANCH  12  13
BRANCH  12  17
ATOM     17  C   UNL     1      -3.467  68.985  28.634  1.00  0.00    -0.006 C 
ATOM     18  C   UNL     1      -4.382  69.620  29.700  1.00  0.00     0.008 C 
ATOM     19  C   UNL     1      -2.060  69.600  28.720  1.00  0.00     0.008 C 
ENDBRANCH  12  17
ENDBRANCH  11  12
ENDBRANCH   1  11
TORSDOF 1
ENDMDL
MODEL 6
REMARK VINA RESULT:    -2.979      1.580      3.940
REMARK INTER + INTRA:          -4.639
REMARK INTER:                  -4.519
REMARK INTRA:                  -0.120
REMARK UNBOUND:                -0.092
REMARK SMILES CC1=CCC[C@H](C)C(=O)C[C@@H](C(C)C)C(=O)C1
REMARK SMILES IDX 8 1 9 2 6 3 7 4 5 5 4 6 3 7 2 8 1 9 10 11 11 12 15 13 16 14
REMARK SMILES IDX 17 15 12 17 13 18 14 19
REMARK H PARENT
REMARK Flexibility Score: 70.00
ROOT
ATOM      1  C   UNL     1      -3.499  70.151  26.150  1.00  0.00     0.136 C 
ATOM      2  O   UNL     1      -3.061  71.240  26.496  1.00  0.00    -0.299 OA
ENDROOT
BRANCH   1   3
ATOM      3  C   UNL     1      -3.410  68.975  27.097  1.00  0.00     0.053 C 
ATOM      4  C   UNL     1      -4.484  69.060  28.189  1.00  0.00     0.016 C 
BRANCH   3   5
ATOM      5  C   UNL     1      -3.528  67.664  26.284  1.00  0.00     0.015 C 
BRANCH   5   6
ATOM      6  C   UNL     1      -4.784  66.812  26.555  1.00  0.00     0.028 C 
BRANCH   6   7
ATOM      7  C   UNL     1      -5.474  66.199  25.353  1.00  0.00    -0.028 C 
ATOM      8  C   UNL     1      -6.569  66.674  24.713  1.00  0.00    -0.070 CG0
ATOM      9  C   UNL     1      -7.153  65.830  23.607  1.00  0.00     0.039 C 
ATOM     10  G   UNL     1      -7.193  68.033  24.980  1.00  0.00     0.000 G0
ENDBRANCH   6   7
ENDBRANCH   5   6
ENDBRANCH   3   5
ENDBRANCH   1   3
BRANCH   1  11
ATOM     11  C   UNL     1      -4.187  70.024  24.810  1.00  0.00     0.087 C 
BRANCH  11  12
ATOM     12  C   UNL     1      -5.725  70.256  24.906  1.00  0.00     0.066 C 
BRANCH  12  13
ATOM     13  C   UNL     1      -6.493  69.141  24.210  1.00  0.00     0.140 C 
ATOM     14  O   UNL     1      -6.560  69.137  22.988  1.00  0.00    -0.299 OA
BRANCH  13  15
ATOM     15  C   UNL     1      -7.210  68.050  24.981  1.00  0.00     0.106 CG0
ATOM     16  G   UNL     1      -6.578  66.695  24.713  1.00  0.00     0.000 G0
ENDBRANCH  13  15
ENDBRANCH  12  13
BRANCH  12  17
ATOM     17  C   UNL     1      -6.180  71.651  24.367  1.00  0.00    -0.006 C 
ATOM     18  C   UNL     1      -5.071  72.721  24.376  1.00  0.00     0.008 C 
ATOM     19  C   UNL     1      -7.416  72.173  25.118  1.00  0.00     0.008 C 
ENDBRANCH  12  17
ENDBRANCH  11  12
ENDBRANCH   1  11
TORSDOF 1
ENDMDL
MODEL 7
REMARK VINA RESULT:    -2.935      1.778      3.809
REMARK INTER + INTRA:          -4.570
REMARK INTER:                  -4.530
REMARK INTRA:                  -0.040
REMARK UNBOUND:                -0.092
REMARK SMILES CC1=CCC[C@H](C)C(=O)C[C@@H](C(C)C)C(=O)C1
REMARK SMILES IDX 8 1 9 2 6 3 7 4 5 5 4 6 3 7 2 8 1 9 10 11 11 12 15 13 16 14
REMARK SMILES IDX 17 15 12 17 13 18 14 19
REMARK H PARENT
REMARK Flexibility Score: 70.00
ROOT
ATOM      1  C   UNL     1      -4.334  69.811  28.011  1.00  0.00     0.136 C 
ATOM      2  O   UNL     1      -5.014  70.134  28.976  1.00  0.00    -0.299 OA
ENDROOT
BRANCH   1   3
ATOM      3  C   UNL     1      -3.554  68.516  28.045  1.00  0.00     0.053 C 
ATOM      4  C   UNL     1      -2.342  68.622  28.979  1.00  0.00     0.016 C 
BRANCH   3   5
ATOM      5  C   UNL     1      -4.502  67.368  28.471  1.00  0.00     0.015 C 
BRANCH   5   6
ATOM      6  C   UNL     1      -5.357  66.748  27.349  1.00  0.00     0.028 C 
BRANCH   6   7
ATOM      7  C   UNL     1      -4.619  66.173  26.157  1.00  0.00    -0.028 C 
ATOM      8  C   UNL     1      -4.709  66.584  24.869  1.00  0.00    -0.070 CG0
ATOM      9  C   UNL     1      -3.966  65.783  23.828  1.00  0.00     0.039 C 
ATOM     10  G   UNL     1      -5.436  67.840  24.420  1.00  0.00     0.000 G0
ENDBRANCH   6   7
ENDBRANCH   5   6
ENDBRANCH   3   5
ENDBRANCH   1   3
BRANCH   1  11
ATOM     11  C   UNL     1      -4.349  70.680  26.774  1.00  0.00     0.087 C 
BRANCH  11  12
ATOM     12  C   UNL     1      -5.345  70.163  25.693  1.00  0.00     0.066 C 
BRANCH  12  13
ATOM     13  C   UNL     1      -4.702  69.093  24.822  1.00  0.00     0.140 C 
ATOM     14  O   UNL     1      -3.562  69.263  24.413  1.00  0.00    -0.299 OA
BRANCH  13  15
ATOM     15  C   UNL     1      -5.441  67.833  24.412  1.00  0.00     0.106 CG0
ATOM     16  G   UNL     1      -4.697  66.595  24.879  1.00  0.00     0.000 G0
ENDBRANCH  13  15
ENDBRANCH  12  13
BRANCH  12  17
ATOM     17  C   UNL     1      -5.948  71.300  24.807  1.00  0.00    -0.006 C 
ATOM     18  C   UNL     1      -5.092  72.580  24.757  1.00  0.00     0.008 C 
ATOM     19  C   UNL     1      -7.385  71.647  25.231  1.00  0.00     0.008 C 
ENDBRANCH  12  17
ENDBRANCH  11  12
ENDBRANCH   1  11
TORSDOF 1
ENDMDL
MODEL 8
REMARK VINA RESULT:    -2.895      9.321     11.387
REMARK INTER + INTRA:          -4.510
REMARK INTER:                  -4.402
REMARK INTRA:                  -0.109
REMARK UNBOUND:                -0.092
REMARK SMILES CC1=CCC[C@H](C)C(=O)C[C@@H](C(C)C)C(=O)C1
REMARK SMILES IDX 8 1 9 2 6 3 7 4 5 5 4 6 3 7 2 8 1 9 10 11 11 12 15 13 16 14
REMARK SMILES IDX 17 15 12 17 13 18 14 19
REMARK H PARENT
REMARK Flexibility Score: 70.00
ROOT
ATOM      1  C   UNL     1      -6.412  69.306  37.346  1.00  0.00     0.136 C 
ATOM      2  O   UNL     1      -6.423  70.528  37.410  1.00  0.00    -0.299 OA
ENDROOT
BRANCH   1   3
ATOM      3  C   UNL     1      -7.631  68.574  36.832  1.00  0.00     0.053 C 
ATOM      4  C   UNL     1      -8.644  69.547  36.215  1.00  0.00     0.016 C 
BRANCH   3   5
ATOM      5  C   UNL     1      -7.180  67.501  35.812  1.00  0.00     0.015 C 
BRANCH   5   6
ATOM      6  C   UNL     1      -6.463  68.025  34.552  1.00  0.00     0.028 C 
BRANCH   6   7
ATOM      7  C   UNL     1      -5.236  67.265  34.092  1.00  0.00    -0.028 C 
ATOM      8  C   UNL     1      -3.954  67.704  34.104  1.00  0.00    -0.070 CG0
ATOM      9  C   UNL     1      -2.905  66.813  33.484  1.00  0.00     0.039 C 
ATOM     10  G   UNL     1      -3.497  68.989  34.772  1.00  0.00     0.000 G0
ENDBRANCH   6   7
ENDBRANCH   5   6
ENDBRANCH   3   5
ENDBRANCH   1   3
BRANCH   1  11
ATOM     11  C   UNL     1      -5.150  68.560  37.713  1.00  0.00     0.087 C 
BRANCH  11  12
ATOM     12  C   UNL     1      -3.860  69.371  37.386  1.00  0.00     0.066 C 
BRANCH  12  13
ATOM     13  C   UNL     1      -3.096  68.743  36.228  1.00  0.00     0.140 C 
ATOM     14  O   UNL     1      -2.128  68.036  36.468  1.00  0.00    -0.299 OA
BRANCH  13  15
ATOM     15  C   UNL     1      -3.474  68.993  34.781  1.00  0.00     0.106 CG0
ATOM     16  G   UNL     1      -3.970  67.716  34.124  1.00  0.00     0.000 G0
ENDBRANCH  13  15
ENDBRANCH  12  13
BRANCH  12  17
ATOM     17  C   UNL     1      -2.919  69.569  38.617  1.00  0.00    -0.006 C 
ATOM     18  C   UNL     1      -3.632  69.457  39.979  1.00  0.00     0.008 C 
ATOM     19  C   UNL     1      -2.153  70.900  38.537  1.00  0.00     0.008 C 
ENDBRANCH  12  17
ENDBRANCH  11  12
ENDBRANCH   1  11
TORSDOF 1
ENDMDL
MODEL 9
REMARK VINA RESULT:    -2.736      2.288      4.222
REMARK INTER + INTRA:          -4.267
REMARK INTER:                  -4.577
REMARK INTRA:                   0.310
REMARK UNBOUND:                -0.092
REMARK SMILES CC1=CCC[C@H](C)C(=O)C[C@@H](C(C)C)C(=O)C1
REMARK SMILES IDX 8 1 9 2 6 3 7 4 5 5 4 6 3 7 2 8 1 9 10 11 11 12 15 13 16 14
REMARK SMILES IDX 17 15 12 17 13 18 14 19
REMARK H PARENT
REMARK Flexibility Score: 70.00
ROOT
ATOM      1  C   UNL     1      -6.203  68.348  24.587  1.00  0.00     0.136 C 
ATOM      2  O   UNL     1      -7.310  68.808  24.832  1.00  0.00    -0.299 OA
ENDROOT
BRANCH   1   3
ATOM      3  C   UNL     1      -6.024  67.413  23.413  1.00  0.00     0.053 C 
ATOM      4  C   UNL     1      -7.129  66.350  23.376  1.00  0.00     0.016 C 
BRANCH   3   5
ATOM      5  C   UNL     1      -5.991  68.243  22.107  1.00  0.00     0.015 C 
BRANCH   5   6
ATOM      6  C   UNL     1      -4.718  69.079  21.872  1.00  0.00     0.028 C 
BRANCH   6   7
ATOM      7  C   UNL     1      -4.900  70.569  21.662  1.00  0.00    -0.028 C 
ATOM      8  C   UNL     1      -4.724  71.548  22.582  1.00  0.00    -0.070 CG0
ATOM      9  C   UNL     1      -5.079  72.958  22.178  1.00  0.00     0.039 C 
ATOM     10  G   UNL     1      -4.117  71.330  23.957  1.00  0.00     0.000 G0
ENDBRANCH   6   7
ENDBRANCH   5   6
ENDBRANCH   3   5
ENDBRANCH   1   3
BRANCH   1  11
ATOM     11  C   UNL     1      -5.022  68.786  25.423  1.00  0.00     0.087 C 
BRANCH  11  12
ATOM     12  C   UNL     1      -5.239  70.183  26.077  1.00  0.00     0.066 C 
BRANCH  12  13
ATOM     13  C   UNL     1      -5.191  71.291  25.033  1.00  0.00     0.140 C 
ATOM     14  O   UNL     1      -6.063  72.149  25.035  1.00  0.00    -0.299 OA
BRANCH  13  15
ATOM     15  C   UNL     1      -4.116  71.349  23.965  1.00  0.00     0.106 CG0
ATOM     16  G   UNL     1      -4.730  71.550  22.591  1.00  0.00     0.000 G0
ENDBRANCH  13  15
ENDBRANCH  12  13
BRANCH  12  17
ATOM     17  C   UNL     1      -4.244  70.488  27.242  1.00  0.00    -0.006 C 
ATOM     18  C   UNL     1      -2.851  69.855  27.061  1.00  0.00     0.008 C 
ATOM     19  C   UNL     1      -4.828  70.086  28.606  1.00  0.00     0.008 C 
ENDBRANCH  12  17
ENDBRANCH  11  12
ENDBRANCH   1  11
TORSDOF 1
ENDMDL
