MODEL 1
REMARK VINA RESULT:    -5.415      0.000      0.000
REMARK INTER + INTRA:          -5.830
REMARK INTER:                  -5.732
REMARK INTRA:                  -0.098
REMARK UNBOUND:                -0.098
REMARK SMILES C=C(C)[C@H]1CC=C(C)C(=O)C1
REMARK SMILES IDX 8 1 7 2 6 3 5 4 4 5 11 6 9 7 10 8 2 9 1 10 3 11
REMARK H PARENT
REMARK Flexibility Score: inf
ROOT
ATOM      1  C   UNL     1       1.996 -18.085  -2.641  1.00  0.00     0.048 C 
ATOM      2  C   UNL     1       1.619 -18.895  -3.850  1.00  0.00    -0.012 C 
ATOM      3  C   UNL     1       2.054 -18.523  -5.066  1.00  0.00    -0.019 C 
ATOM      4  C   UNL     1       1.691 -19.288  -6.312  1.00  0.00     0.036 C 
ATOM      5  C   UNL     1       1.539 -20.792  -6.014  1.00  0.00     0.025 C 
ATOM      6  C   UNL     1       0.523 -21.012  -4.880  1.00  0.00     0.089 C 
ATOM      7  C   UNL     1       0.875 -20.169  -3.685  1.00  0.00     0.158 C 
ATOM      8  O   UNL     1       0.496 -20.538  -2.540  1.00  0.00    -0.295 OA
ENDROOT
BRANCH   5   9
ATOM      9  C   UNL     1       1.154 -21.570  -7.265  1.00  0.00    -0.077 C 
ATOM     10  C   UNL     1       0.564 -22.771  -7.155  1.00  0.00     0.008 C 
ATOM     11  C   UNL     1       1.416 -21.021  -8.646  1.00  0.00     0.039 C 
ENDBRANCH   5   9
TORSDOF 1
ENDMDL
MODEL 2
REMARK VINA RESULT:    -5.399      1.615      2.046
REMARK INTER + INTRA:          -5.812
REMARK INTER:                  -5.714
REMARK INTRA:                  -0.098
REMARK UNBOUND:                -0.098
REMARK SMILES C=C(C)[C@H]1CC=C(C)C(=O)C1
REMARK SMILES IDX 8 1 7 2 6 3 5 4 4 5 11 6 9 7 10 8 2 9 1 10 3 11
REMARK H PARENT
REMARK Flexibility Score: inf
ROOT
ATOM      1  C   UNL     1       2.523 -19.042  -2.242  1.00  0.00     0.048 C 
ATOM      2  C   UNL     1       2.196 -19.860  -3.461  1.00  0.00    -0.012 C 
ATOM      3  C   UNL     1       0.914 -20.139  -3.755  1.00  0.00    -0.019 C 
ATOM      4  C   UNL     1       0.532 -20.968  -4.953  1.00  0.00     0.036 C 
ATOM      5  C   UNL     1       1.523 -20.753  -6.114  1.00  0.00     0.025 C 
ATOM      6  C   UNL     1       2.962 -21.034  -5.647  1.00  0.00     0.089 C 
ATOM      7  C   UNL     1       3.276 -20.250  -4.402  1.00  0.00     0.158 C 
ATOM      8  O   UNL     1       4.476 -19.958  -4.146  1.00  0.00    -0.295 OA
ENDROOT
BRANCH   5   9
ATOM      9  C   UNL     1       1.155 -21.602  -7.323  1.00  0.00    -0.077 C 
ATOM     10  C   UNL     1       0.573 -22.800  -7.153  1.00  0.00     0.008 C 
ATOM     11  C   UNL     1       1.427 -21.127  -8.730  1.00  0.00     0.039 C 
ENDBRANCH   5   9
TORSDOF 1
ENDMDL
MODEL 3
REMARK VINA RESULT:    -5.066      1.790      4.349
REMARK INTER + INTRA:          -5.460
REMARK INTER:                  -5.363
REMARK INTRA:                  -0.097
REMARK UNBOUND:                -0.098
REMARK SMILES C=C(C)[C@H]1CC=C(C)C(=O)C1
REMARK SMILES IDX 8 1 7 2 6 3 5 4 4 5 11 6 9 7 10 8 2 9 1 10 3 11
REMARK H PARENT
REMARK Flexibility Score: inf
ROOT
ATOM      1  C   UNL     1       1.483 -20.963  -8.937  1.00  0.00     0.048 C 
ATOM      2  C   UNL     1       1.544 -20.830  -7.440  1.00  0.00    -0.012 C 
ATOM      3  C   UNL     1       2.240 -19.822  -6.886  1.00  0.00    -0.019 C 
ATOM      4  C   UNL     1       2.349 -19.654  -5.394  1.00  0.00     0.036 C 
ATOM      5  C   UNL     1       1.069 -20.140  -4.686  1.00  0.00     0.025 C 
ATOM      6  C   UNL     1       0.756 -21.592  -5.087  1.00  0.00     0.089 C 
ATOM      7  C   UNL     1       0.737 -21.735  -6.584  1.00  0.00     0.158 C 
ATOM      8  O   UNL     1       0.056 -22.660  -7.104  1.00  0.00    -0.295 OA
ENDROOT
BRANCH   5   9
ATOM      9  C   UNL     1       1.178 -19.990  -3.175  1.00  0.00    -0.077 C 
ATOM     10  C   UNL     1       1.944 -19.022  -2.647  1.00  0.00     0.008 C 
ATOM     11  C   UNL     1       0.435 -20.911  -2.238  1.00  0.00     0.039 C 
ENDBRANCH   5   9
TORSDOF 1
ENDMDL
MODEL 4
REMARK VINA RESULT:    -4.926      1.934      4.688
REMARK INTER + INTRA:          -5.312
REMARK INTER:                  -5.225
REMARK INTRA:                  -0.087
REMARK UNBOUND:                -0.098
REMARK SMILES C=C(C)[C@H]1CC=C(C)C(=O)C1
REMARK SMILES IDX 8 1 7 2 6 3 5 4 4 5 11 6 9 7 10 8 2 9 1 10 3 11
REMARK H PARENT
REMARK Flexibility Score: inf
ROOT
ATOM      1  C   UNL     1       0.812 -22.498  -7.465  1.00  0.00     0.048 C 
ATOM      2  C   UNL     1       0.966 -21.403  -6.445  1.00  0.00    -0.012 C 
ATOM      3  C   UNL     1       0.316 -21.486  -5.272  1.00  0.00    -0.019 C 
ATOM      4  C   UNL     1       0.420 -20.410  -4.224  1.00  0.00     0.036 C 
ATOM      5  C   UNL     1       1.810 -19.745  -4.249  1.00  0.00     0.025 C 
ATOM      6  C   UNL     1       2.126 -19.217  -5.659  1.00  0.00     0.089 C 
ATOM      7  C   UNL     1       1.930 -20.300  -6.685  1.00  0.00     0.158 C 
ATOM      8  O   UNL     1       2.568 -20.239  -7.771  1.00  0.00    -0.295 OA
ENDROOT
BRANCH   5   9
ATOM      9  C   UNL     1       1.919 -18.643  -3.204  1.00  0.00    -0.077 C 
ATOM     10  C   UNL     1       2.649 -18.836  -2.094  1.00  0.00     0.008 C 
ATOM     11  C   UNL     1       1.222 -17.316  -3.386  1.00  0.00     0.039 C 
ENDBRANCH   5   9
TORSDOF 1
ENDMDL
MODEL 5
REMARK VINA RESULT:    -4.784      0.984      0.984
REMARK INTER + INTRA:          -5.162
REMARK INTER:                  -5.065
REMARK INTRA:                  -0.097
REMARK UNBOUND:                -0.098
REMARK SMILES C=C(C)[C@H]1CC=C(C)C(=O)C1
REMARK SMILES IDX 8 1 7 2 6 3 5 4 4 5 11 6 9 7 10 8 2 9 1 10 3 11
REMARK H PARENT
REMARK Flexibility Score: inf
ROOT
ATOM      1  C   UNL     1       3.698 -18.389  -2.915  1.00  0.00     0.048 C 
ATOM      2  C   UNL     1       2.945 -19.055  -4.034  1.00  0.00    -0.012 C 
ATOM      3  C   UNL     1       3.397 -18.955  -5.296  1.00  0.00    -0.019 C 
ATOM      4  C   UNL     1       2.673 -19.587  -6.455  1.00  0.00     0.036 C 
ATOM      5  C   UNL     1       1.972 -20.890  -6.027  1.00  0.00     0.025 C 
ATOM      6  C   UNL     1       1.039 -20.627  -4.831  1.00  0.00     0.089 C 
ATOM      7  C   UNL     1       1.780 -19.922  -3.729  1.00  0.00     0.158 C 
ATOM      8  O   UNL     1       1.375 -20.045  -2.540  1.00  0.00    -0.295 OA
ENDROOT
BRANCH   5   9
ATOM      9  C   UNL     1       1.222 -21.527  -7.188  1.00  0.00    -0.077 C 
ATOM     10  C   UNL     1       0.379 -22.548  -6.967  1.00  0.00     0.008 C 
ATOM     11  C   UNL     1       1.397 -21.032  -8.604  1.00  0.00     0.039 C 
ENDBRANCH   5   9
TORSDOF 1
ENDMDL
MODEL 6
REMARK VINA RESULT:    -4.709      2.986      3.581
REMARK INTER + INTRA:          -5.082
REMARK INTER:                  -4.984
REMARK INTRA:                  -0.098
REMARK UNBOUND:                -0.098
REMARK SMILES C=C(C)[C@H]1CC=C(C)C(=O)C1
REMARK SMILES IDX 8 1 7 2 6 3 5 4 4 5 11 6 9 7 10 8 2 9 1 10 3 11
REMARK H PARENT
REMARK Flexibility Score: inf
ROOT
ATOM      1  C   UNL     1       6.882 -20.101  -5.550  1.00  0.00     0.048 C 
ATOM      2  C   UNL     1       5.472 -20.266  -6.047  1.00  0.00    -0.012 C 
ATOM      3  C   UNL     1       5.187 -20.025  -7.339  1.00  0.00    -0.019 C 
ATOM      4  C   UNL     1       3.790 -20.158  -7.885  1.00  0.00     0.036 C 
ATOM      5  C   UNL     1       3.013 -21.271  -7.156  1.00  0.00     0.025 C 
ATOM      6  C   UNL     1       3.022 -21.022  -5.637  1.00  0.00     0.089 C 
ATOM      7  C   UNL     1       4.428 -20.813  -5.145  1.00  0.00     0.158 C 
ATOM      8  O   UNL     1       4.703 -21.073  -3.942  1.00  0.00    -0.295 OA
ENDROOT
BRANCH   5   9
ATOM      9  C   UNL     1       1.593 -21.399  -7.689  1.00  0.00    -0.077 C 
ATOM     10  C   UNL     1       1.267 -20.857  -8.874  1.00  0.00     0.008 C 
ATOM     11  C   UNL     1       0.525 -22.133  -6.915  1.00  0.00     0.039 C 
ENDBRANCH   5   9
TORSDOF 1
ENDMDL
MODEL 7
REMARK VINA RESULT:    -4.689      1.510      4.030
REMARK INTER + INTRA:          -5.061
REMARK INTER:                  -4.963
REMARK INTRA:                  -0.098
REMARK UNBOUND:                -0.098
REMARK SMILES C=C(C)[C@H]1CC=C(C)C(=O)C1
REMARK SMILES IDX 8 1 7 2 6 3 5 4 4 5 11 6 9 7 10 8 2 9 1 10 3 11
REMARK H PARENT
REMARK Flexibility Score: inf
ROOT
ATOM      1  C   UNL     1       0.440 -23.075  -6.880  1.00  0.00     0.048 C 
ATOM      2  C   UNL     1       1.190 -21.802  -6.601  1.00  0.00    -0.012 C 
ATOM      3  C   UNL     1       2.042 -21.313  -7.518  1.00  0.00    -0.019 C 
ATOM      4  C   UNL     1       2.832 -20.053  -7.283  1.00  0.00     0.036 C 
ATOM      5  C   UNL     1       2.041 -19.059  -6.410  1.00  0.00     0.025 C 
ATOM      6  C   UNL     1       1.608 -19.729  -5.094  1.00  0.00     0.089 C 
ATOM      7  C   UNL     1       0.896 -21.025  -5.371  1.00  0.00     0.158 C 
ATOM      8  O   UNL     1       0.071 -21.464  -4.525  1.00  0.00    -0.295 OA
ENDROOT
BRANCH   5   9
ATOM      9  C   UNL     1       2.840 -17.788  -6.151  1.00  0.00    -0.077 C 
ATOM     10  C   UNL     1       4.181 -17.830  -6.127  1.00  0.00     0.008 C 
ATOM     11  C   UNL     1       2.156 -16.463  -5.921  1.00  0.00     0.039 C 
ENDBRANCH   5   9
TORSDOF 1
ENDMDL
MODEL 8
REMARK VINA RESULT:    -4.573     11.652     13.275
REMARK INTER + INTRA:          -4.938
REMARK INTER:                  -4.842
REMARK INTRA:                  -0.096
REMARK UNBOUND:                -0.098
REMARK SMILES C=C(C)[C@H]1CC=C(C)C(=O)C1
REMARK SMILES IDX 8 1 7 2 6 3 5 4 4 5 11 6 9 7 10 8 2 9 1 10 3 11
REMARK H PARENT
REMARK Flexibility Score: inf
ROOT
ATOM      1  C   UNL     1       5.205 -24.835  10.119  1.00  0.00     0.048 C 
ATOM      2  C   UNL     1       4.991 -24.406   8.693  1.00  0.00    -0.012 C 
ATOM      3  C   UNL     1       5.577 -23.285   8.238  1.00  0.00    -0.019 C 
ATOM      4  C   UNL     1       5.382 -22.800   6.826  1.00  0.00     0.036 C 
ATOM      5  C   UNL     1       5.201 -23.982   5.854  1.00  0.00     0.025 C 
ATOM      6  C   UNL     1       4.049 -24.888   6.323  1.00  0.00     0.089 C 
ATOM      7  C   UNL     1       4.240 -25.283   7.762  1.00  0.00     0.158 C 
ATOM      8  O   UNL     1       3.719 -26.353   8.179  1.00  0.00    -0.295 OA
ENDROOT
BRANCH   5   9
ATOM      9  C   UNL     1       4.985 -23.500   4.426  1.00  0.00    -0.077 C 
ATOM     10  C   UNL     1       3.854 -22.854   4.098  1.00  0.00     0.008 C 
ATOM     11  C   UNL     1       6.021 -23.728   3.353  1.00  0.00     0.039 C 
ENDBRANCH   5   9
TORSDOF 1
ENDMDL
MODEL 9
REMARK VINA RESULT:    -4.529     10.358     11.641
REMARK INTER + INTRA:          -4.892
REMARK INTER:                  -4.793
REMARK INTRA:                  -0.099
REMARK UNBOUND:                -0.098
REMARK SMILES C=C(C)[C@H]1CC=C(C)C(=O)C1
REMARK SMILES IDX 8 1 7 2 6 3 5 4 4 5 11 6 9 7 10 8 2 9 1 10 3 11
REMARK H PARENT
REMARK Flexibility Score: inf
ROOT
ATOM      1  C   UNL     1      -9.793 -24.558  -1.010  1.00  0.00     0.048 C 
ATOM      2  C   UNL     1      -8.829 -25.597  -1.515  1.00  0.00    -0.012 C 
ATOM      3  C   UNL     1      -9.182 -26.894  -1.513  1.00  0.00    -0.019 C 
ATOM      4  C   UNL     1      -8.250 -27.976  -1.989  1.00  0.00     0.036 C 
ATOM      5  C   UNL     1      -7.340 -27.464  -3.122  1.00  0.00     0.025 C 
ATOM      6  C   UNL     1      -6.584 -26.201  -2.671  1.00  0.00     0.089 C 
ATOM      7  C   UNL     1      -7.543 -25.178  -2.126  1.00  0.00     0.158 C 
ATOM      8  O   UNL     1      -7.225 -23.958  -2.161  1.00  0.00    -0.295 OA
ENDROOT
BRANCH   5   9
ATOM      9  C   UNL     1      -6.380 -28.546  -3.597  1.00  0.00    -0.077 C 
ATOM     10  C   UNL     1      -5.054 -28.353  -3.515  1.00  0.00     0.008 C 
ATOM     11  C   UNL     1      -6.884 -29.851  -4.163  1.00  0.00     0.039 C 
ENDBRANCH   5   9
TORSDOF 1
ENDMDL
