MODEL 1
REMARK VINA RESULT:     5.998      0.000      0.000
REMARK INTER + INTRA:          10.292
REMARK INTER:                  10.908
REMARK INTRA:                  -0.616
REMARK UNBOUND:                -0.616
REMARK SMILES CCCCCCCCCCCCCC[C@H](C)C(=O)[O-]
REMARK SMILES IDX 9 1 10 2 11 3 12 4 13 5 14 6 15 7 16 8 17 9 18 10 19 11 8 12
REMARK SMILES IDX 7 13 6 14 5 15 4 16 3 17 2 18 1 19
REMARK H PARENT
REMARK Flexibility Score: inf
ROOT
ATOM      1  C   UNL     1     -20.166   5.138 -19.738  1.00  0.00     0.000 C 
ENDROOT
BRANCH   1   2
ATOM      2  C   UNL     1     -20.460   6.618 -19.449  1.00  0.00     0.000 C 
BRANCH   2   3
ATOM      3  C   UNL     1     -21.954   6.893 -19.216  1.00  0.00     0.000 C 
BRANCH   3   4
ATOM      4  C   UNL     1     -22.272   8.395 -19.123  1.00  0.00     0.000 C 
BRANCH   4   5
ATOM      5  C   UNL     1     -23.725   8.668 -18.699  1.00  0.00     0.001 C 
BRANCH   5   6
ATOM      6  C   UNL     1     -23.913   8.640 -17.171  1.00  0.00     0.009 C 
BRANCH   6   7
ATOM      7  C   UNL     1     -23.370   9.918 -16.497  1.00  0.00     0.032 C 
ATOM      8  C   UNL     1     -23.166  11.031 -17.531  1.00  0.00     0.014 C 
BRANCH   7   9
ATOM      9  C   UNL     1     -22.079   9.654 -15.770  1.00  0.00     0.044 C 
ATOM     10  O   UNL     1     -22.004   8.738 -14.908  1.00  0.00    -0.550 OA
ATOM     11  O   UNL     1     -20.957  10.424 -16.048  1.00  0.00    -0.550 OA
ENDBRANCH   7   9
ENDBRANCH   6   7
ENDBRANCH   5   6
ENDBRANCH   4   5
ENDBRANCH   3   4
ENDBRANCH   2   3
ENDBRANCH   1   2
BRANCH   1  12
ATOM     12  C   UNL     1     -21.062   4.225 -18.891  1.00  0.00     0.000 C 
BRANCH  12  13
ATOM     13  C   UNL     1     -20.298   2.972 -18.438  1.00  0.00    -0.000 C 
BRANCH  13  14
ATOM     14  C   UNL     1     -18.835   2.966 -18.912  1.00  0.00    -0.000 C 
BRANCH  14  15
ATOM     15  C   UNL     1     -17.839   3.145 -17.754  1.00  0.00    -0.000 C 
BRANCH  15  16
ATOM     16  C   UNL     1     -16.438   3.574 -18.229  1.00  0.00    -0.000 C 
BRANCH  16  17
ATOM     17  C   UNL     1     -16.143   3.310 -19.718  1.00  0.00    -0.000 C 
BRANCH  17  18
ATOM     18  C   UNL     1     -14.642   3.307 -20.040  1.00  0.00    -0.003 C 
ATOM     19  C   UNL     1     -14.087   4.728 -20.088  1.00  0.00     0.004 C 
ENDBRANCH  17  18
ENDBRANCH  16  17
ENDBRANCH  15  16
ENDBRANCH  14  15
ENDBRANCH  13  14
ENDBRANCH  12  13
ENDBRANCH   1  12
TORSDOF 14
ENDMDL
