MODEL 1
REMARK VINA RESULT:    -3.561      0.000      0.000
REMARK INTER + INTRA:          -4.832
REMARK INTER:                  -5.019
REMARK INTRA:                   0.186
REMARK UNBOUND:                 0.186
REMARK SMILES CC1=CCC(=C(C)C)C(=O)CC(C)=CCC1
REMARK SMILES IDX 12 1 14 2 13 3 15 4 16 5 2 6 1 7 3 8 11 10 9 11 10 12 5 13
REMARK SMILES IDX 6 14 7 15 8 16 4 17
REMARK H PARENT
REMARK Flexibility Score: 60.00
ROOT
ATOM      1  C   UNL     1     -13.848  26.638  14.917  1.00  0.00    -0.070 C 
ATOM      2  C   UNL     1     -14.133  25.322  15.035  1.00  0.00    -0.027 C 
ATOM      3  C   UNL     1     -14.023  27.278  13.563  1.00  0.00     0.039 C 
ENDROOT
BRANCH   2   4
ATOM      4  C   UNL     1     -14.114  24.527  16.323  1.00  0.00     0.032 C 
BRANCH   4   5
ATOM      5  C   UNL     1     -15.480  24.404  17.029  1.00  0.00     0.034 C 
BRANCH   5   6
ATOM      6  C   UNL     1     -15.388  24.537  18.538  1.00  0.00    -0.077 C 
ATOM      7  C   UNL     1     -14.967  23.322  19.325  1.00  0.00     0.039 C 
ATOM      8  C   UNL     1     -15.591  25.694  19.217  1.00  0.00    -0.023 CG0
ATOM      9  G   UNL     1     -16.035  27.025  18.643  1.00  0.00     0.000 G0
ENDBRANCH   5   6
ENDBRANCH   4   5
ENDBRANCH   2   4
BRANCH   1  10
ATOM     10  C   UNL     1     -13.455  27.512  16.090  1.00  0.00     0.111 C 
BRANCH  10  11
ATOM     11  C   UNL     1     -14.662  28.096  16.777  1.00  0.00     0.163 C 
ATOM     12  O   UNL     1     -15.519  28.691  16.069  1.00  0.00    -0.294 OA
BRANCH  11  13
ATOM     13  C   UNL     1     -14.903  27.939  18.242  1.00  0.00    -0.002 C 
ATOM     14  C   UNL     1     -14.176  28.656  19.151  1.00  0.00    -0.069 C 
ATOM     15  C   UNL     1     -14.501  28.639  20.629  1.00  0.00     0.039 C 
ATOM     16  C   UNL     1     -13.003  29.509  18.720  1.00  0.00     0.039 C 
BRANCH  13  17
ATOM     17  C   UNL     1     -16.046  27.030  18.666  1.00  0.00     0.066 CG0
ATOM     18  G   UNL     1     -15.554  25.705  19.216  1.00  0.00     0.000 G0
ENDBRANCH  13  17
ENDBRANCH  11  13
ENDBRANCH  10  11
ENDBRANCH   1  10
TORSDOF 0
ENDMDL
MODEL 2
REMARK VINA RESULT:    -3.544      1.311      3.930
REMARK INTER + INTRA:          -4.808
REMARK INTER:                  -5.397
REMARK INTRA:                   0.589
REMARK UNBOUND:                 0.186
REMARK SMILES CC1=CCC(=C(C)C)C(=O)CC(C)=CCC1
REMARK SMILES IDX 12 1 14 2 13 3 15 4 16 5 2 6 1 7 3 8 11 10 9 11 10 12 5 13
REMARK SMILES IDX 6 14 7 15 8 16 4 17
REMARK H PARENT
REMARK Flexibility Score: 60.00
ROOT
ATOM      1  C   UNL     1     -13.828  28.732  16.296  1.00  0.00    -0.070 C 
ATOM      2  C   UNL     1     -13.459  29.433  17.391  1.00  0.00    -0.027 C 
ATOM      3  C   UNL     1     -14.135  29.501  15.036  1.00  0.00     0.039 C 
ENDROOT
BRANCH   2   4
ATOM      4  C   UNL     1     -13.020  28.841  18.713  1.00  0.00     0.032 C 
BRANCH   4   5
ATOM      5  C   UNL     1     -13.994  29.079  19.885  1.00  0.00     0.034 C 
BRANCH   5   6
ATOM      6  C   UNL     1     -15.454  28.975  19.480  1.00  0.00    -0.077 C 
ATOM      7  C   UNL     1     -16.233  30.256  19.330  1.00  0.00     0.039 C 
ATOM      8  C   UNL     1     -16.081  27.811  19.177  1.00  0.00    -0.023 CG0
ATOM      9  G   UNL     1     -15.507  26.411  19.272  1.00  0.00     0.000 G0
ENDBRANCH   5   6
ENDBRANCH   4   5
ENDBRANCH   2   4
BRANCH   1  10
ATOM     10  C   UNL     1     -13.858  27.218  16.250  1.00  0.00     0.111 C 
BRANCH  10  11
ATOM     11  C   UNL     1     -15.169  26.673  16.753  1.00  0.00     0.163 C 
ATOM     12  O   UNL     1     -16.217  26.961  16.112  1.00  0.00    -0.294 OA
BRANCH  11  13
ATOM     13  C   UNL     1     -15.259  25.763  17.933  1.00  0.00    -0.002 C 
ATOM     14  C   UNL     1     -15.037  24.420  17.800  1.00  0.00    -0.069 C 
ATOM     15  C   UNL     1     -14.964  23.499  18.998  1.00  0.00     0.039 C 
ATOM     16  C   UNL     1     -14.849  23.788  16.439  1.00  0.00     0.039 C 
BRANCH  13  17
ATOM     17  C   UNL     1     -15.510  26.405  19.288  1.00  0.00     0.066 CG0
ATOM     18  G   UNL     1     -16.079  27.806  19.166  1.00  0.00     0.000 G0
ENDBRANCH  13  17
ENDBRANCH  11  13
ENDBRANCH  10  11
ENDBRANCH   1  10
TORSDOF 0
ENDMDL
MODEL 3
REMARK VINA RESULT:    -3.428      1.954      3.983
REMARK INTER + INTRA:          -4.644
REMARK INTER:                  -4.802
REMARK INTRA:                   0.158
REMARK UNBOUND:                 0.186
REMARK SMILES CC1=CCC(=C(C)C)C(=O)CC(C)=CCC1
REMARK SMILES IDX 12 1 14 2 13 3 15 4 16 5 2 6 1 7 3 8 11 10 9 11 10 12 5 13
REMARK SMILES IDX 6 14 7 15 8 16 4 17
REMARK H PARENT
REMARK Flexibility Score: 60.00
ROOT
ATOM      1  C   UNL     1     -15.384  24.655  17.913  1.00  0.00    -0.070 C 
ATOM      2  C   UNL     1     -14.750  24.361  16.755  1.00  0.00    -0.027 C 
ATOM      3  C   UNL     1     -15.303  23.651  19.035  1.00  0.00     0.039 C 
ENDROOT
BRANCH   2   4
ATOM      4  C   UNL     1     -14.635  25.276  15.555  1.00  0.00     0.032 C 
BRANCH   4   5
ATOM      5  C   UNL     1     -13.422  26.228  15.581  1.00  0.00     0.034 C 
BRANCH   5   6
ATOM      6  C   UNL     1     -13.775  27.656  15.202  1.00  0.00    -0.077 C 
ATOM      7  C   UNL     1     -14.065  27.945  13.751  1.00  0.00     0.039 C 
ATOM      8  C   UNL     1     -13.914  28.670  16.092  1.00  0.00    -0.023 CG0
ATOM      9  G   UNL     1     -13.657  28.619  17.585  1.00  0.00     0.000 G0
ENDBRANCH   5   6
ENDBRANCH   4   5
ENDBRANCH   2   4
BRANCH   1  10
ATOM     10  C   UNL     1     -16.087  25.973  18.164  1.00  0.00     0.111 C 
BRANCH  10  11
ATOM     11  C   UNL     1     -15.188  26.956  18.868  1.00  0.00     0.163 C 
ATOM     12  O   UNL     1     -14.560  26.562  19.888  1.00  0.00    -0.294 OA
BRANCH  11  13
ATOM     13  C   UNL     1     -14.972  28.345  18.366  1.00  0.00    -0.002 C 
ATOM     14  C   UNL     1     -15.857  29.344  18.668  1.00  0.00    -0.069 C 
ATOM     15  C   UNL     1     -15.586  30.789  18.310  1.00  0.00     0.039 C 
ATOM     16  C   UNL     1     -17.157  29.049  19.382  1.00  0.00     0.039 C 
BRANCH  13  17
ATOM     17  C   UNL     1     -13.689  28.615  17.596  1.00  0.00     0.066 CG0
ATOM     18  G   UNL     1     -13.916  28.654  16.097  1.00  0.00     0.000 G0
ENDBRANCH  13  17
ENDBRANCH  11  13
ENDBRANCH  10  11
ENDBRANCH   1  10
TORSDOF 0
ENDMDL
MODEL 4
REMARK VINA RESULT:    -3.253      1.447      3.816
REMARK INTER + INTRA:          -4.398
REMARK INTER:                  -4.640
REMARK INTRA:                   0.243
REMARK UNBOUND:                 0.186
REMARK SMILES CC1=CCC(=C(C)C)C(=O)CC(C)=CCC1
REMARK SMILES IDX 12 1 14 2 13 3 15 4 16 5 2 6 1 7 3 8 11 10 9 11 10 12 5 13
REMARK SMILES IDX 6 14 7 15 8 16 4 17
REMARK H PARENT
REMARK Flexibility Score: 60.00
ROOT
ATOM      1  C   UNL     1     -13.968  28.611  19.148  1.00  0.00    -0.070 C 
ATOM      2  C   UNL     1     -14.391  27.738  20.090  1.00  0.00    -0.027 C 
ATOM      3  C   UNL     1     -13.812  30.057  19.545  1.00  0.00     0.039 C 
ENDROOT
BRANCH   2   4
ATOM      4  C   UNL     1     -14.516  26.240  19.914  1.00  0.00     0.032 C 
BRANCH   4   5
ATOM      5  C   UNL     1     -15.765  25.782  19.133  1.00  0.00     0.034 C 
BRANCH   5   6
ATOM      6  C   UNL     1     -15.433  24.924  17.925  1.00  0.00    -0.077 C 
ATOM      7  C   UNL     1     -14.877  23.545  18.176  1.00  0.00     0.039 C 
ATOM      8  C   UNL     1     -15.670  25.288  16.641  1.00  0.00    -0.023 CG0
ATOM      9  G   UNL     1     -16.202  26.622  16.151  1.00  0.00     0.000 G0
ENDBRANCH   5   6
ENDBRANCH   4   5
ENDBRANCH   2   4
BRANCH   1  10
ATOM     10  C   UNL     1     -13.559  28.191  17.751  1.00  0.00     0.111 C 
BRANCH  10  11
ATOM     11  C   UNL     1     -14.606  28.557  16.732  1.00  0.00     0.163 C 
ATOM     12  O   UNL     1     -15.033  29.743  16.718  1.00  0.00    -0.294 OA
BRANCH  11  13
ATOM     13  C   UNL     1     -15.102  27.588  15.711  1.00  0.00    -0.002 C 
ATOM     14  C   UNL     1     -14.517  27.512  14.476  1.00  0.00    -0.069 C 
ATOM     15  C   UNL     1     -14.891  26.437  13.478  1.00  0.00     0.039 C 
ATOM     16  C   UNL     1     -13.460  28.505  14.048  1.00  0.00     0.039 C 
BRANCH  13  17
ATOM     17  C   UNL     1     -16.209  26.635  16.134  1.00  0.00     0.066 CG0
ATOM     18  G   UNL     1     -15.668  25.305  16.623  1.00  0.00     0.000 G0
ENDBRANCH  13  17
ENDBRANCH  11  13
ENDBRANCH  10  11
ENDBRANCH   1  10
TORSDOF 0
ENDMDL
MODEL 5
REMARK VINA RESULT:    -3.232      0.931      1.022
REMARK INTER + INTRA:          -4.368
REMARK INTER:                  -4.650
REMARK INTRA:                   0.282
REMARK UNBOUND:                 0.186
REMARK SMILES CC1=CCC(=C(C)C)C(=O)CC(C)=CCC1
REMARK SMILES IDX 12 1 14 2 13 3 15 4 16 5 2 6 1 7 3 8 11 10 9 11 10 12 5 13
REMARK SMILES IDX 6 14 7 15 8 16 4 17
REMARK H PARENT
REMARK Flexibility Score: 60.00
ROOT
ATOM      1  C   UNL     1     -14.434  25.355  14.972  1.00  0.00    -0.070 C 
ATOM      2  C   UNL     1     -14.721  24.167  15.550  1.00  0.00    -0.027 C 
ATOM      3  C   UNL     1     -14.826  25.551  13.529  1.00  0.00     0.039 C 
ENDROOT
BRANCH   2   4
ATOM      4  C   UNL     1     -14.496  23.816  17.005  1.00  0.00     0.032 C 
BRANCH   4   5
ATOM      5  C   UNL     1     -15.776  23.756  17.862  1.00  0.00     0.034 C 
BRANCH   5   6
ATOM      6  C   UNL     1     -15.661  24.527  19.165  1.00  0.00    -0.077 C 
ATOM      7  C   UNL     1     -15.221  23.769  20.392  1.00  0.00     0.039 C 
ATOM      8  C   UNL     1     -15.859  25.863  19.282  1.00  0.00    -0.023 CG0
ATOM      9  G   UNL     1     -16.319  26.819  18.198  1.00  0.00     0.000 G0
ENDBRANCH   5   6
ENDBRANCH   4   5
ENDBRANCH   2   4
BRANCH   1  10
ATOM     10  C   UNL     1     -13.827  26.521  15.726  1.00  0.00     0.111 C 
BRANCH  10  11
ATOM     11  C   UNL     1     -14.882  27.488  16.196  1.00  0.00     0.163 C 
ATOM     12  O   UNL     1     -15.540  28.120  15.325  1.00  0.00    -0.294 OA
BRANCH  11  13
ATOM     13  C   UNL     1     -15.212  27.673  17.641  1.00  0.00    -0.002 C 
ATOM     14  C   UNL     1     -14.579  28.630  18.385  1.00  0.00    -0.069 C 
ATOM     15  C   UNL     1     -15.000  28.948  19.804  1.00  0.00     0.039 C 
ATOM     16  C   UNL     1     -13.421  29.423  17.822  1.00  0.00     0.039 C 
BRANCH  13  17
ATOM     17  C   UNL     1     -16.337  26.825  18.212  1.00  0.00     0.066 CG0
ATOM     18  G   UNL     1     -15.846  25.853  19.267  1.00  0.00     0.000 G0
ENDBRANCH  13  17
ENDBRANCH  11  13
ENDBRANCH  10  11
ENDBRANCH   1  10
TORSDOF 0
ENDMDL
MODEL 6
REMARK VINA RESULT:    -3.212      3.492      5.244
REMARK INTER + INTRA:          -4.340
REMARK INTER:                  -4.587
REMARK INTRA:                   0.246
REMARK UNBOUND:                 0.186
REMARK SMILES CC1=CCC(=C(C)C)C(=O)CC(C)=CCC1
REMARK SMILES IDX 12 1 14 2 13 3 15 4 16 5 2 6 1 7 3 8 11 10 9 11 10 12 5 13
REMARK SMILES IDX 6 14 7 15 8 16 4 17
REMARK H PARENT
REMARK Flexibility Score: 60.00
ROOT
ATOM      1  C   UNL     1     -14.000  28.754  18.911  1.00  0.00    -0.070 C 
ATOM      2  C   UNL     1     -13.954  27.942  17.831  1.00  0.00    -0.027 C 
ATOM      3  C   UNL     1     -13.564  28.189  20.239  1.00  0.00     0.039 C 
ENDROOT
BRANCH   2   4
ATOM      4  C   UNL     1     -14.256  28.349  16.406  1.00  0.00     0.032 C 
BRANCH   4   5
ATOM      5  C   UNL     1     -15.747  28.612  16.110  1.00  0.00     0.034 C 
BRANCH   5   6
ATOM      6  C   UNL     1     -16.001  29.966  15.471  1.00  0.00    -0.077 C 
ATOM      7  C   UNL     1     -15.353  30.246  14.140  1.00  0.00     0.039 C 
ATOM      8  C   UNL     1     -16.827  30.910  15.986  1.00  0.00    -0.023 CG0
ATOM      9  G   UNL     1     -17.566  30.856  17.310  1.00  0.00     0.000 G0
ENDBRANCH   5   6
ENDBRANCH   4   5
ENDBRANCH   2   4
BRANCH   1  10
ATOM     10  C   UNL     1     -14.379  30.219  18.833  1.00  0.00     0.111 C 
BRANCH  10  11
ATOM     11  C   UNL     1     -15.826  30.439  19.187  1.00  0.00     0.163 C 
ATOM     12  O   UNL     1     -16.300  29.806  20.170  1.00  0.00    -0.294 OA
BRANCH  11  13
ATOM     13  C   UNL     1     -16.689  31.417  18.461  1.00  0.00    -0.002 C 
ATOM     14  C   UNL     1     -16.627  32.753  18.748  1.00  0.00    -0.069 C 
ATOM     15  C   UNL     1     -17.369  33.784  17.926  1.00  0.00     0.039 C 
ATOM     16  C   UNL     1     -15.807  33.267  19.910  1.00  0.00     0.039 C 
BRANCH  13  17
ATOM     17  C   UNL     1     -17.556  30.878  17.335  1.00  0.00     0.066 CG0
ATOM     18  G   UNL     1     -16.847  30.913  15.995  1.00  0.00     0.000 G0
ENDBRANCH  13  17
ENDBRANCH  11  13
ENDBRANCH  10  11
ENDBRANCH   1  10
TORSDOF 0
ENDMDL
MODEL 7
REMARK VINA RESULT:    -3.210      3.568      6.206
REMARK INTER + INTRA:          -4.338
REMARK INTER:                  -4.922
REMARK INTRA:                   0.584
REMARK UNBOUND:                 0.186
REMARK SMILES CC1=CCC(=C(C)C)C(=O)CC(C)=CCC1
REMARK SMILES IDX 12 1 14 2 13 3 15 4 16 5 2 6 1 7 3 8 11 10 9 11 10 12 5 13
REMARK SMILES IDX 6 14 7 15 8 16 4 17
REMARK H PARENT
REMARK Flexibility Score: 60.00
ROOT
ATOM      1  C   UNL     1     -14.354  30.699  19.361  1.00  0.00    -0.070 C 
ATOM      2  C   UNL     1     -14.605  32.023  19.476  1.00  0.00    -0.027 C 
ATOM      3  C   UNL     1     -12.927  30.268  19.138  1.00  0.00     0.039 C 
ENDROOT
BRANCH   2   4
ATOM      4  C   UNL     1     -15.948  32.643  19.796  1.00  0.00     0.032 C 
BRANCH   4   5
ATOM      5  C   UNL     1     -16.684  33.255  18.587  1.00  0.00     0.034 C 
BRANCH   5   6
ATOM      6  C   UNL     1     -17.750  32.340  18.010  1.00  0.00    -0.077 C 
ATOM      7  C   UNL     1     -19.159  32.493  18.523  1.00  0.00     0.039 C 
ATOM      8  C   UNL     1     -17.530  31.445  17.015  1.00  0.00    -0.023 CG0
ATOM      9  G   UNL     1     -16.203  31.109  16.362  1.00  0.00     0.000 G0
ENDBRANCH   5   6
ENDBRANCH   4   5
ENDBRANCH   2   4
BRANCH   1  10
ATOM     10  C   UNL     1     -15.417  29.634  19.539  1.00  0.00     0.111 C 
BRANCH  10  11
ATOM     11  C   UNL     1     -16.111  29.320  18.239  1.00  0.00     0.163 C 
ATOM     12  O   UNL     1     -17.187  28.664  18.284  1.00  0.00    -0.294 OA
BRANCH  11  13
ATOM     13  C   UNL     1     -15.604  29.808  16.923  1.00  0.00    -0.002 C 
ATOM     14  C   UNL     1     -14.712  29.066  16.198  1.00  0.00    -0.069 C 
ATOM     15  C   UNL     1     -14.302  29.454  14.794  1.00  0.00     0.039 C 
ATOM     16  C   UNL     1     -14.090  27.811  16.769  1.00  0.00     0.039 C 
BRANCH  13  17
ATOM     17  C   UNL     1     -16.193  31.103  16.387  1.00  0.00     0.066 CG0
ATOM     18  G   UNL     1     -17.538  31.424  17.009  1.00  0.00     0.000 G0
ENDBRANCH  13  17
ENDBRANCH  11  13
ENDBRANCH  10  11
ENDBRANCH   1  10
TORSDOF 0
ENDMDL
MODEL 8
REMARK VINA RESULT:    -3.162      3.283      5.240
REMARK INTER + INTRA:          -4.270
REMARK INTER:                  -4.449
REMARK INTRA:                   0.178
REMARK UNBOUND:                 0.186
REMARK SMILES CC1=CCC(=C(C)C)C(=O)CC(C)=CCC1
REMARK SMILES IDX 12 1 14 2 13 3 15 4 16 5 2 6 1 7 3 8 11 10 9 11 10 12 5 13
REMARK SMILES IDX 6 14 7 15 8 16 4 17
REMARK H PARENT
REMARK Flexibility Score: 60.00
ROOT
ATOM      1  C   UNL     1     -13.791  28.036  16.347  1.00  0.00    -0.070 C 
ATOM      2  C   UNL     1     -13.783  28.096  17.698  1.00  0.00    -0.027 C 
ATOM      3  C   UNL     1     -13.771  26.674  15.701  1.00  0.00     0.039 C 
ENDROOT
BRANCH   2   4
ATOM      4  C   UNL     1     -13.896  29.357  18.526  1.00  0.00     0.032 C 
BRANCH   4   5
ATOM      5  C   UNL     1     -15.329  29.713  18.970  1.00  0.00     0.034 C 
BRANCH   5   6
ATOM      6  C   UNL     1     -15.733  31.132  18.607  1.00  0.00    -0.077 C 
ATOM      7  C   UNL     1     -15.289  32.243  19.524  1.00  0.00     0.039 C 
ATOM      8  C   UNL     1     -16.403  31.470  17.478  1.00  0.00    -0.023 CG0
ATOM      9  G   UNL     1     -16.960  30.528  16.428  1.00  0.00     0.000 G0
ENDBRANCH   5   6
ENDBRANCH   4   5
ENDBRANCH   2   4
BRANCH   1  10
ATOM     10  C   UNL     1     -13.911  29.260  15.462  1.00  0.00     0.111 C 
BRANCH  10  11
ATOM     11  C   UNL     1     -15.286  29.375  14.857  1.00  0.00     0.163 C 
ATOM     12  O   UNL     1     -15.706  28.418  14.151  1.00  0.00    -0.294 OA
BRANCH  11  13
ATOM     13  C   UNL     1     -16.180  30.542  15.116  1.00  0.00    -0.002 C 
ATOM     14  C   UNL     1     -16.333  31.527  14.178  1.00  0.00    -0.069 C 
ATOM     15  C   UNL     1     -17.348  32.637  14.343  1.00  0.00     0.039 C 
ATOM     16  C   UNL     1     -15.490  31.552  12.923  1.00  0.00     0.039 C 
BRANCH  13  17
ATOM     17  C   UNL     1     -16.976  30.536  16.411  1.00  0.00     0.066 CG0
ATOM     18  G   UNL     1     -16.387  31.467  17.453  1.00  0.00     0.000 G0
ENDBRANCH  13  17
ENDBRANCH  11  13
ENDBRANCH  10  11
ENDBRANCH   1  10
TORSDOF 0
ENDMDL
MODEL 9
REMARK VINA RESULT:    -3.079      2.646      4.803
REMARK INTER + INTRA:          -4.153
REMARK INTER:                  -4.317
REMARK INTRA:                   0.164
REMARK UNBOUND:                 0.186
REMARK SMILES CC1=CCC(=C(C)C)C(=O)CC(C)=CCC1
REMARK SMILES IDX 12 1 14 2 13 3 15 4 16 5 2 6 1 7 3 8 11 10 9 11 10 12 5 13
REMARK SMILES IDX 6 14 7 15 8 16 4 17
REMARK H PARENT
REMARK Flexibility Score: 60.00
ROOT
ATOM      1  C   UNL     1     -14.511  30.673  19.334  1.00  0.00    -0.070 C 
ATOM      2  C   UNL     1     -13.456  30.105  18.707  1.00  0.00    -0.027 C 
ATOM      3  C   UNL     1     -14.404  32.126  19.719  1.00  0.00     0.039 C 
ENDROOT
BRANCH   2   4
ATOM      4  C   UNL     1     -13.408  28.696  18.158  1.00  0.00     0.032 C 
BRANCH   4   5
ATOM      5  C   UNL     1     -13.839  28.560  16.683  1.00  0.00     0.034 C 
BRANCH   5   6
ATOM      6  C   UNL     1     -14.876  27.473  16.461  1.00  0.00    -0.077 C 
ATOM      7  C   UNL     1     -14.395  26.045  16.410  1.00  0.00     0.039 C 
ATOM      8  C   UNL     1     -16.211  27.696  16.376  1.00  0.00    -0.023 CG0
ATOM      9  G   UNL     1     -16.916  29.039  16.382  1.00  0.00     0.000 G0
ENDBRANCH   5   6
ENDBRANCH   4   5
ENDBRANCH   2   4
BRANCH   1  10
ATOM     10  C   UNL     1     -15.818  29.948  19.582  1.00  0.00     0.111 C 
BRANCH  10  11
ATOM     11  C   UNL     1     -16.873  30.348  18.585  1.00  0.00     0.163 C 
ATOM     12  O   UNL     1     -17.130  31.576  18.452  1.00  0.00    -0.294 OA
BRANCH  11  13
ATOM     13  C   UNL     1     -17.571  29.356  17.715  1.00  0.00    -0.002 C 
ATOM     14  C   UNL     1     -18.779  28.830  18.084  1.00  0.00    -0.069 C 
ATOM     15  C   UNL     1     -19.584  27.947  17.156  1.00  0.00     0.039 C 
ATOM     16  C   UNL     1     -19.373  29.111  19.446  1.00  0.00     0.039 C 
BRANCH  13  17
ATOM     17  C   UNL     1     -16.931  29.035  16.374  1.00  0.00     0.066 CG0
ATOM     18  G   UNL     1     -16.208  27.702  16.385  1.00  0.00     0.000 G0
ENDBRANCH  13  17
ENDBRANCH  11  13
ENDBRANCH  10  11
ENDBRANCH   1  10
TORSDOF 0
ENDMDL
