MODEL 1
REMARK VINA RESULT:    -4.193      0.000      0.000
REMARK INTER + INTRA:          -9.305
REMARK INTER:                  -7.380
REMARK INTRA:                  -1.926
REMARK UNBOUND:                -1.926
REMARK SMILES CCCCCCC=CCCCCCCCC(=O)[O-]
REMARK SMILES IDX 10 1 11 2 12 3 13 4 14 5 15 6 16 7 17 8 18 9 9 10 8 11 7 12
REMARK SMILES IDX 6 13 5 14 4 15 3 16 2 17 1 18
REMARK H PARENT
REMARK Flexibility Score: inf
ROOT
ATOM      1  C   UNL     1      97.401   3.239 -25.182  1.00  0.00     0.004 C 
ENDROOT
BRANCH   1   2
ATOM      2  C   UNL     1      96.378   2.944 -26.290  1.00  0.00     0.000 C 
BRANCH   2   3
ATOM      3  C   UNL     1      95.409   4.112 -26.528  1.00  0.00     0.000 C 
BRANCH   3   4
ATOM      4  C   UNL     1      93.969   3.783 -26.104  1.00  0.00     0.000 C 
BRANCH   4   5
ATOM      5  C   UNL     1      93.370   4.918 -25.267  1.00  0.00     0.006 C 
BRANCH   5   6
ATOM      6  C   UNL     1      92.961   6.097 -26.154  1.00  0.00     0.053 C 
BRANCH   6   7
ATOM      7  C   UNL     1      91.825   5.713 -27.048  1.00  0.00     0.041 C 
ATOM      8  O   UNL     1      91.947   5.799 -28.299  1.00  0.00    -0.550 OA
ATOM      9  O   UNL     1      90.647   5.220 -26.503  1.00  0.00    -0.550 OA
ENDBRANCH   6   7
ENDBRANCH   5   6
ENDBRANCH   4   5
ENDBRANCH   3   4
ENDBRANCH   2   3
ENDBRANCH   1   2
BRANCH   1  10
ATOM     10  C   UNL     1      98.738   2.551 -25.474  1.00  0.00     0.027 C 
BRANCH  10  11
ATOM     11  C   UNL     1      98.531   1.091 -25.787  1.00  0.00    -0.031 C 
ATOM     12  C   UNL     1      99.011   0.470 -26.882  1.00  0.00    -0.031 C 
BRANCH  12  13
ATOM     13  C   UNL     1      99.753   1.160 -27.999  1.00  0.00     0.027 C 
BRANCH  13  14
ATOM     14  C   UNL     1      98.783   1.617 -29.097  1.00  0.00     0.004 C 
BRANCH  14  15
ATOM     15  C   UNL     1      99.106   3.024 -29.632  1.00  0.00     0.000 C 
BRANCH  15  16
ATOM     16  C   UNL     1      98.084   4.111 -29.253  1.00  0.00    -0.000 C 
BRANCH  16  17
ATOM     17  C   UNL     1      98.707   5.264 -28.456  1.00  0.00    -0.003 C 
ATOM     18  C   UNL     1     100.121   4.916 -27.998  1.00  0.00     0.004 C 
ENDBRANCH  16  17
ENDBRANCH  15  16
ENDBRANCH  14  15
ENDBRANCH  13  14
ENDBRANCH  12  13
ENDBRANCH  10  11
ENDBRANCH   1  10
TORSDOF 13
ENDMDL
MODEL 2
REMARK VINA RESULT:    -4.163      3.269      6.203
REMARK INTER + INTRA:          -9.253
REMARK INTER:                  -7.146
REMARK INTRA:                  -2.108
REMARK UNBOUND:                -1.926
REMARK SMILES CCCCCCC=CCCCCCCCC(=O)[O-]
REMARK SMILES IDX 10 1 11 2 12 3 13 4 14 5 15 6 16 7 17 8 18 9 9 10 8 11 7 12
REMARK SMILES IDX 6 13 5 14 4 15 3 16 2 17 1 18
REMARK H PARENT
REMARK Flexibility Score: inf
ROOT
ATOM      1  C   UNL     1      98.926   2.126 -29.447  1.00  0.00     0.004 C 
ENDROOT
BRANCH   1   2
ATOM      2  C   UNL     1     100.092   1.293 -28.894  1.00  0.00     0.000 C 
BRANCH   2   3
ATOM      3  C   UNL     1     100.046   1.152 -27.365  1.00  0.00     0.000 C 
BRANCH   3   4
ATOM      4  C   UNL     1      99.108   0.026 -26.902  1.00  0.00     0.000 C 
BRANCH   4   5
ATOM      5  C   UNL     1      99.484  -0.459 -25.498  1.00  0.00     0.006 C 
BRANCH   5   6
ATOM      6  C   UNL     1      98.563   0.156 -24.440  1.00  0.00     0.053 C 
BRANCH   6   7
ATOM      7  C   UNL     1      97.315  -0.656 -24.294  1.00  0.00     0.041 C 
ATOM      8  O   UNL     1      96.224  -0.094 -24.006  1.00  0.00    -0.550 OA
ATOM      9  O   UNL     1      97.346  -2.026 -24.518  1.00  0.00    -0.550 OA
ENDBRANCH   6   7
ENDBRANCH   5   6
ENDBRANCH   4   5
ENDBRANCH   3   4
ENDBRANCH   2   3
ENDBRANCH   1   2
BRANCH   1  10
ATOM     10  C   UNL     1      99.319   3.602 -29.571  1.00  0.00     0.027 C 
BRANCH  10  11
ATOM     11  C   UNL     1      98.224   4.493 -29.041  1.00  0.00    -0.031 C 
ATOM     12  C   UNL     1      98.128   4.904 -27.762  1.00  0.00    -0.031 C 
BRANCH  12  13
ATOM     13  C   UNL     1      99.050   4.466 -26.652  1.00  0.00     0.027 C 
BRANCH  13  14
ATOM     14  C   UNL     1      98.255   3.841 -25.497  1.00  0.00     0.004 C 
BRANCH  14  15
ATOM     15  C   UNL     1      97.091   2.959 -25.982  1.00  0.00     0.000 C 
BRANCH  15  16
ATOM     16  C   UNL     1      95.743   3.225 -25.288  1.00  0.00    -0.000 C 
BRANCH  16  17
ATOM     17  C   UNL     1      94.733   3.937 -26.198  1.00  0.00    -0.003 C 
ATOM     18  C   UNL     1      94.621   3.236 -27.549  1.00  0.00     0.004 C 
ENDBRANCH  16  17
ENDBRANCH  15  16
ENDBRANCH  14  15
ENDBRANCH  13  14
ENDBRANCH  12  13
ENDBRANCH  10  11
ENDBRANCH   1  10
TORSDOF 13
ENDMDL
MODEL 3
REMARK VINA RESULT:    -4.155      1.699      3.826
REMARK INTER + INTRA:          -9.238
REMARK INTER:                  -7.080
REMARK INTRA:                  -2.159
REMARK UNBOUND:                -1.926
REMARK SMILES CCCCCCC=CCCCCCCCC(=O)[O-]
REMARK SMILES IDX 10 1 11 2 12 3 13 4 14 5 15 6 16 7 17 8 18 9 9 10 8 11 7 12
REMARK SMILES IDX 6 13 5 14 4 15 3 16 2 17 1 18
REMARK H PARENT
REMARK Flexibility Score: inf
ROOT
ATOM      1  C   UNL     1      98.502   4.875 -27.322  1.00  0.00     0.004 C 
ENDROOT
BRANCH   1   2
ATOM      2  C   UNL     1      98.479   3.914 -26.123  1.00  0.00     0.000 C 
BRANCH   2   3
ATOM      3  C   UNL     1      97.154   3.145 -26.007  1.00  0.00     0.000 C 
BRANCH   3   4
ATOM      4  C   UNL     1      96.275   3.286 -27.259  1.00  0.00     0.000 C 
BRANCH   4   5
ATOM      5  C   UNL     1      94.788   3.179 -26.902  1.00  0.00     0.006 C 
BRANCH   5   6
ATOM      6  C   UNL     1      94.310   4.429 -26.159  1.00  0.00     0.053 C 
BRANCH   6   7
ATOM      7  C   UNL     1      93.612   4.053 -24.892  1.00  0.00     0.041 C 
ATOM      8  O   UNL     1      92.529   4.613 -24.575  1.00  0.00    -0.550 OA
ATOM      9  O   UNL     1      94.133   3.053 -24.081  1.00  0.00    -0.550 OA
ENDBRANCH   6   7
ENDBRANCH   5   6
ENDBRANCH   4   5
ENDBRANCH   3   4
ENDBRANCH   2   3
ENDBRANCH   1   2
BRANCH   1  10
ATOM     10  C   UNL     1      99.672   4.554 -28.258  1.00  0.00     0.027 C 
BRANCH  10  11
ATOM     11  C   UNL     1      99.184   3.873 -29.511  1.00  0.00    -0.031 C 
ATOM     12  C   UNL     1      99.345   2.563 -29.780  1.00  0.00    -0.031 C 
BRANCH  12  13
ATOM     13  C   UNL     1     100.112   1.600 -28.910  1.00  0.00     0.027 C 
BRANCH  13  14
ATOM     14  C   UNL     1      99.157   0.756 -28.055  1.00  0.00     0.004 C 
BRANCH  14  15
ATOM     15  C   UNL     1      99.718   0.452 -26.654  1.00  0.00     0.000 C 
BRANCH  15  16
ATOM     16  C   UNL     1      98.918  -0.587 -25.848  1.00  0.00    -0.000 C 
BRANCH  16  17
ATOM     17  C   UNL     1      98.340  -0.015 -24.546  1.00  0.00    -0.003 C 
ATOM     18  C   UNL     1      99.313   0.963 -23.895  1.00  0.00     0.004 C 
ENDBRANCH  16  17
ENDBRANCH  15  16
ENDBRANCH  14  15
ENDBRANCH  13  14
ENDBRANCH  12  13
ENDBRANCH  10  11
ENDBRANCH   1  10
TORSDOF 13
ENDMDL
MODEL 4
REMARK VINA RESULT:    -4.147      4.360      6.550
REMARK INTER + INTRA:          -9.224
REMARK INTER:                  -7.308
REMARK INTRA:                  -1.916
REMARK UNBOUND:                -1.926
REMARK SMILES CCCCCCC=CCCCCCCCC(=O)[O-]
REMARK SMILES IDX 10 1 11 2 12 3 13 4 14 5 15 6 16 7 17 8 18 9 9 10 8 11 7 12
REMARK SMILES IDX 6 13 5 14 4 15 3 16 2 17 1 18
REMARK H PARENT
REMARK Flexibility Score: inf
ROOT
ATOM      1  C   UNL     1      99.078   0.612 -28.090  1.00  0.00     0.004 C 
ENDROOT
BRANCH   1   2
ATOM      2  C   UNL     1     100.125   0.991 -27.032  1.00  0.00     0.000 C 
BRANCH   2   3
ATOM      3  C   UNL     1      99.792   0.428 -25.641  1.00  0.00     0.000 C 
BRANCH   3   4
ATOM      4  C   UNL     1      98.877  -0.805 -25.705  1.00  0.00     0.000 C 
BRANCH   4   5
ATOM      5  C   UNL     1      98.829  -1.524 -24.353  1.00  0.00     0.006 C 
BRANCH   5   6
ATOM      6  C   UNL     1      97.466  -1.337 -23.680  1.00  0.00     0.053 C 
BRANCH   6   7
ATOM      7  C   UNL     1      96.848  -2.663 -23.369  1.00  0.00     0.041 C 
ATOM      8  O   UNL     1      96.396  -3.386 -24.297  1.00  0.00    -0.550 OA
ATOM      9  O   UNL     1      96.808  -3.122 -22.058  1.00  0.00    -0.550 OA
ENDBRANCH   6   7
ENDBRANCH   5   6
ENDBRANCH   4   5
ENDBRANCH   3   4
ENDBRANCH   2   3
ENDBRANCH   1   2
BRANCH   1  10
ATOM     10  C   UNL     1      99.442   1.202 -29.456  1.00  0.00     0.027 C 
BRANCH  10  11
ATOM     11  C   UNL     1      98.352   2.121 -29.949  1.00  0.00    -0.031 C 
ATOM     12  C   UNL     1      98.403   3.465 -29.889  1.00  0.00    -0.031 C 
BRANCH  12  13
ATOM     13  C   UNL     1      99.516   4.250 -29.242  1.00  0.00     0.027 C 
BRANCH  13  14
ATOM     14  C   UNL     1      98.966   5.178 -28.150  1.00  0.00     0.004 C 
BRANCH  14  15
ATOM     15  C   UNL     1      98.910   4.505 -26.767  1.00  0.00     0.000 C 
BRANCH  15  16
ATOM     16  C   UNL     1      97.626   3.704 -26.487  1.00  0.00    -0.000 C 
BRANCH  16  17
ATOM     17  C   UNL     1      97.560   3.163 -25.053  1.00  0.00    -0.003 C 
ATOM     18  C   UNL     1      96.404   2.180 -24.888  1.00  0.00     0.004 C 
ENDBRANCH  16  17
ENDBRANCH  15  16
ENDBRANCH  14  15
ENDBRANCH  13  14
ENDBRANCH  12  13
ENDBRANCH  10  11
ENDBRANCH   1  10
TORSDOF 13
ENDMDL
MODEL 5
REMARK VINA RESULT:    -4.141      3.947      6.239
REMARK INTER + INTRA:          -9.214
REMARK INTER:                  -7.023
REMARK INTRA:                  -2.190
REMARK UNBOUND:                -1.926
REMARK SMILES CCCCCCC=CCCCCCCCC(=O)[O-]
REMARK SMILES IDX 10 1 11 2 12 3 13 4 14 5 15 6 16 7 17 8 18 9 9 10 8 11 7 12
REMARK SMILES IDX 6 13 5 14 4 15 3 16 2 17 1 18
REMARK H PARENT
REMARK Flexibility Score: inf
ROOT
ATOM      1  C   UNL     1      99.049   0.738 -28.004  1.00  0.00     0.004 C 
ENDROOT
BRANCH   1   2
ATOM      2  C   UNL     1     100.125   1.183 -27.002  1.00  0.00     0.000 C 
BRANCH   2   3
ATOM      3  C   UNL     1     100.119   0.345 -25.714  1.00  0.00     0.000 C 
BRANCH   3   4
ATOM      4  C   UNL     1      98.974  -0.679 -25.681  1.00  0.00     0.000 C 
BRANCH   4   5
ATOM      5  C   UNL     1      97.816  -0.180 -24.810  1.00  0.00     0.006 C 
BRANCH   5   6
ATOM      6  C   UNL     1      98.336   0.501 -23.542  1.00  0.00     0.053 C 
BRANCH   6   7
ATOM      7  C   UNL     1      98.161  -0.393 -22.355  1.00  0.00     0.041 C 
ATOM      8  O   UNL     1      98.357  -1.633 -22.462  1.00  0.00    -0.550 OA
ATOM      9  O   UNL     1      97.822   0.147 -21.121  1.00  0.00    -0.550 OA
ENDBRANCH   6   7
ENDBRANCH   5   6
ENDBRANCH   4   5
ENDBRANCH   3   4
ENDBRANCH   2   3
ENDBRANCH   1   2
BRANCH   1  10
ATOM     10  C   UNL     1      99.314   1.330 -29.392  1.00  0.00     0.027 C 
BRANCH  10  11
ATOM     11  C   UNL     1      98.296   2.392 -29.724  1.00  0.00    -0.031 C 
ATOM     12  C   UNL     1      98.529   3.717 -29.664  1.00  0.00    -0.031 C 
BRANCH  12  13
ATOM     13  C   UNL     1      99.812   4.338 -29.173  1.00  0.00     0.027 C 
BRANCH  13  14
ATOM     14  C   UNL     1      99.676   4.792 -27.713  1.00  0.00     0.004 C 
BRANCH  14  15
ATOM     15  C   UNL     1      98.219   4.772 -27.215  1.00  0.00     0.000 C 
BRANCH  15  16
ATOM     16  C   UNL     1      97.948   3.808 -26.046  1.00  0.00    -0.000 C 
BRANCH  16  17
ATOM     17  C   UNL     1      96.729   2.906 -26.288  1.00  0.00    -0.003 C 
ATOM     18  C   UNL     1      95.563   3.701 -26.869  1.00  0.00     0.004 C 
ENDBRANCH  16  17
ENDBRANCH  15  16
ENDBRANCH  14  15
ENDBRANCH  13  14
ENDBRANCH  12  13
ENDBRANCH  10  11
ENDBRANCH   1  10
TORSDOF 13
ENDMDL
MODEL 6
REMARK VINA RESULT:    -4.028      1.676      3.297
REMARK INTER + INTRA:          -9.014
REMARK INTER:                  -7.600
REMARK INTRA:                  -1.414
REMARK UNBOUND:                -1.926
REMARK SMILES CCCCCCC=CCCCCCCCC(=O)[O-]
REMARK SMILES IDX 10 1 11 2 12 3 13 4 14 5 15 6 16 7 17 8 18 9 9 10 8 11 7 12
REMARK SMILES IDX 6 13 5 14 4 15 3 16 2 17 1 18
REMARK H PARENT
REMARK Flexibility Score: inf
ROOT
ATOM      1  C   UNL     1      93.739   3.617 -23.987  1.00  0.00     0.004 C 
ENDROOT
BRANCH   1   2
ATOM      2  C   UNL     1      92.467   4.324 -24.477  1.00  0.00     0.000 C 
BRANCH   2   3
ATOM      3  C   UNL     1      92.620   5.852 -24.526  1.00  0.00     0.000 C 
BRANCH   3   4
ATOM      4  C   UNL     1      92.878   6.377 -25.947  1.00  0.00     0.000 C 
BRANCH   4   5
ATOM      5  C   UNL     1      92.081   5.575 -26.981  1.00  0.00     0.006 C 
BRANCH   5   6
ATOM      6  C   UNL     1      91.288   6.505 -27.903  1.00  0.00     0.053 C 
BRANCH   6   7
ATOM      7  C   UNL     1      90.197   5.753 -28.597  1.00  0.00     0.041 C 
ATOM      8  O   UNL     1      90.409   5.222 -29.720  1.00  0.00    -0.550 OA
ATOM      9  O   UNL     1      88.959   5.600 -27.986  1.00  0.00    -0.550 OA
ENDBRANCH   6   7
ENDBRANCH   5   6
ENDBRANCH   4   5
ENDBRANCH   3   4
ENDBRANCH   2   3
ENDBRANCH   1   2
BRANCH   1  10
ATOM     10  C   UNL     1      94.220   2.583 -25.011  1.00  0.00     0.027 C 
BRANCH  10  11
ATOM     11  C   UNL     1      94.883   3.260 -26.184  1.00  0.00    -0.031 C 
ATOM     12  C   UNL     1      96.213   3.436 -26.310  1.00  0.00    -0.031 C 
BRANCH  12  13
ATOM     13  C   UNL     1      97.228   3.060 -25.261  1.00  0.00     0.027 C 
BRANCH  13  14
ATOM     14  C   UNL     1      98.552   3.802 -25.492  1.00  0.00     0.004 C 
BRANCH  14  15
ATOM     15  C   UNL     1      99.068   3.668 -26.936  1.00  0.00     0.000 C 
BRANCH  15  16
ATOM     16  C   UNL     1      99.492   4.991 -27.598  1.00  0.00    -0.000 C 
BRANCH  16  17
ATOM     17  C   UNL     1      98.571   5.403 -28.754  1.00  0.00    -0.003 C 
ATOM     18  C   UNL     1      98.054   4.180 -29.507  1.00  0.00     0.004 C 
ENDBRANCH  16  17
ENDBRANCH  15  16
ENDBRANCH  14  15
ENDBRANCH  13  14
ENDBRANCH  12  13
ENDBRANCH  10  11
ENDBRANCH   1  10
TORSDOF 13
ENDMDL
MODEL 7
REMARK VINA RESULT:    -3.939      3.191      7.010
REMARK INTER + INTRA:          -8.858
REMARK INTER:                  -7.529
REMARK INTRA:                  -1.329
REMARK UNBOUND:                -1.926
REMARK SMILES CCCCCCC=CCCCCCCCC(=O)[O-]
REMARK SMILES IDX 10 1 11 2 12 3 13 4 14 5 15 6 16 7 17 8 18 9 9 10 8 11 7 12
REMARK SMILES IDX 6 13 5 14 4 15 3 16 2 17 1 18
REMARK H PARENT
REMARK Flexibility Score: inf
ROOT
ATOM      1  C   UNL     1      96.326   3.170 -26.892  1.00  0.00     0.004 C 
ENDROOT
BRANCH   1   2
ATOM      2  C   UNL     1      97.312   3.022 -25.724  1.00  0.00     0.000 C 
BRANCH   2   3
ATOM      3  C   UNL     1      98.651   3.728 -25.987  1.00  0.00     0.000 C 
BRANCH   3   4
ATOM      4  C   UNL     1      98.575   4.727 -27.151  1.00  0.00     0.000 C 
BRANCH   4   5
ATOM      5  C   UNL     1      99.631   4.413 -28.216  1.00  0.00     0.006 C 
BRANCH   5   6
ATOM      6  C   UNL     1      98.978   3.894 -29.500  1.00  0.00     0.053 C 
BRANCH   6   7
ATOM      7  C   UNL     1      99.272   2.440 -29.689  1.00  0.00     0.041 C 
ATOM      8  O   UNL     1      98.862   1.596 -28.848  1.00  0.00    -0.550 OA
ATOM      9  O   UNL     1      99.962   2.010 -30.815  1.00  0.00    -0.550 OA
ENDBRANCH   6   7
ENDBRANCH   5   6
ENDBRANCH   4   5
ENDBRANCH   3   4
ENDBRANCH   2   3
ENDBRANCH   1   2
BRANCH   1  10
ATOM     10  C   UNL     1      95.013   3.807 -26.422  1.00  0.00     0.027 C 
BRANCH  10  11
ATOM     11  C   UNL     1      94.676   3.364 -25.021  1.00  0.00    -0.031 C 
ATOM     12  C   UNL     1      93.512   3.631 -24.396  1.00  0.00    -0.031 C 
BRANCH  12  13
ATOM     13  C   UNL     1      92.409   4.483 -24.971  1.00  0.00     0.027 C 
BRANCH  13  14
ATOM     14  C   UNL     1      92.693   5.973 -24.737  1.00  0.00     0.004 C 
BRANCH  14  15
ATOM     15  C   UNL     1      92.745   6.784 -26.045  1.00  0.00     0.000 C 
BRANCH  15  16
ATOM     16  C   UNL     1      92.263   6.027 -27.296  1.00  0.00    -0.000 C 
BRANCH  16  17
ATOM     17  C   UNL     1      91.033   6.674 -27.947  1.00  0.00    -0.003 C 
ATOM     18  C   UNL     1      91.012   6.424 -29.452  1.00  0.00     0.004 C 
ENDBRANCH  16  17
ENDBRANCH  15  16
ENDBRANCH  14  15
ENDBRANCH  13  14
ENDBRANCH  12  13
ENDBRANCH  10  11
ENDBRANCH   1  10
TORSDOF 13
ENDMDL
MODEL 8
REMARK VINA RESULT:    -3.917      3.584      6.824
REMARK INTER + INTRA:          -8.821
REMARK INTER:                  -7.357
REMARK INTRA:                  -1.464
REMARK UNBOUND:                -1.926
REMARK SMILES CCCCCCC=CCCCCCCCC(=O)[O-]
REMARK SMILES IDX 10 1 11 2 12 3 13 4 14 5 15 6 16 7 17 8 18 9 9 10 8 11 7 12
REMARK SMILES IDX 6 13 5 14 4 15 3 16 2 17 1 18
REMARK H PARENT
REMARK Flexibility Score: inf
ROOT
ATOM      1  C   UNL     1      98.756   4.172 -29.491  1.00  0.00     0.004 C 
ENDROOT
BRANCH   1   2
ATOM      2  C   UNL     1     100.059   3.386 -29.705  1.00  0.00     0.000 C 
BRANCH   2   3
ATOM      3  C   UNL     1      99.809   1.917 -30.080  1.00  0.00     0.000 C 
BRANCH   3   4
ATOM      4  C   UNL     1      98.976   1.170 -29.027  1.00  0.00     0.000 C 
BRANCH   4   5
ATOM      5  C   UNL     1      99.766   0.993 -27.726  1.00  0.00     0.006 C 
BRANCH   5   6
ATOM      6  C   UNL     1      98.971   0.168 -26.709  1.00  0.00     0.053 C 
BRANCH   6   7
ATOM      7  C   UNL     1      99.590   0.269 -25.352  1.00  0.00     0.041 C 
ATOM      8  O   UNL     1      99.607   1.373 -24.744  1.00  0.00    -0.550 OA
ATOM      9  O   UNL     1     100.111  -0.863 -24.738  1.00  0.00    -0.550 OA
ENDBRANCH   6   7
ENDBRANCH   5   6
ENDBRANCH   4   5
ENDBRANCH   3   4
ENDBRANCH   2   3
ENDBRANCH   1   2
BRANCH   1  10
ATOM     10  C   UNL     1      98.910   5.187 -28.354  1.00  0.00     0.027 C 
BRANCH  10  11
ATOM     11  C   UNL     1      99.011   4.486 -27.022  1.00  0.00    -0.031 C 
ATOM     12  C   UNL     1      97.966   3.954 -26.360  1.00  0.00    -0.031 C 
BRANCH  12  13
ATOM     13  C   UNL     1      96.530   4.053 -26.808  1.00  0.00     0.027 C 
BRANCH  13  14
ATOM     14  C   UNL     1      95.662   3.008 -26.093  1.00  0.00     0.004 C 
BRANCH  14  15
ATOM     15  C   UNL     1      94.356   3.598 -25.532  1.00  0.00     0.000 C 
BRANCH  15  16
ATOM     16  C   UNL     1      93.592   4.518 -26.500  1.00  0.00    -0.000 C 
BRANCH  16  17
ATOM     17  C   UNL     1      92.422   5.252 -25.829  1.00  0.00    -0.003 C 
ATOM     18  C   UNL     1      92.616   5.329 -24.317  1.00  0.00     0.004 C 
ENDBRANCH  16  17
ENDBRANCH  15  16
ENDBRANCH  14  15
ENDBRANCH  13  14
ENDBRANCH  12  13
ENDBRANCH  10  11
ENDBRANCH   1  10
TORSDOF 13
ENDMDL
