MODEL 1
REMARK VINA RESULT:    -3.269      0.000      0.000
REMARK INTER + INTRA:          -4.532
REMARK INTER:                  -4.033
REMARK INTRA:                  -0.499
REMARK UNBOUND:                -0.499
REMARK SMILES CCCCC=CC(C)=O
REMARK SMILES IDX 4 1 3 2 2 3 1 4 5 5 6 6 7 7 9 8 8 9
REMARK H PARENT
REMARK Flexibility Score: inf
ROOT
ATOM      1  C   UNL     1      77.847  15.418   2.815  1.00  0.00     0.027 C 
ENDROOT
BRANCH   1   2
ATOM      2  C   UNL     1      78.689  14.472   3.687  1.00  0.00     0.004 C 
BRANCH   2   3
ATOM      3  C   UNL     1      79.762  15.224   4.486  1.00  0.00    -0.003 C 
ATOM      4  C   UNL     1      79.236  16.564   4.989  1.00  0.00     0.004 C 
ENDBRANCH   2   3
ENDBRANCH   1   2
BRANCH   1   5
ATOM      5  C   UNL     1      78.243  15.376   1.361  1.00  0.00    -0.023 C 
ATOM      6  C   UNL     1      78.717  16.407   0.643  1.00  0.00     0.042 C 
BRANCH   6   7
ATOM      7  C   UNL     1      78.851  17.805   1.103  1.00  0.00     0.152 C 
ATOM      8  O   UNL     1      77.882  18.590   0.930  1.00  0.00    -0.295 OA
ATOM      9  C   UNL     1      80.063  18.308   1.826  1.00  0.00     0.093 C 
ENDBRANCH   6   7
ENDBRANCH   1   5
TORSDOF 4
ENDMDL
MODEL 2
REMARK VINA RESULT:    -3.232      1.583      1.924
REMARK INTER + INTRA:          -4.486
REMARK INTER:                  -4.234
REMARK INTRA:                  -0.252
REMARK UNBOUND:                -0.499
REMARK SMILES CCCCC=CC(C)=O
REMARK SMILES IDX 4 1 3 2 2 3 1 4 5 5 6 6 7 7 9 8 8 9
REMARK H PARENT
REMARK Flexibility Score: inf
ROOT
ATOM      1  C   UNL     1      78.358  15.987   3.876  1.00  0.00     0.027 C 
ENDROOT
BRANCH   1   2
ATOM      2  C   UNL     1      79.219  15.855   5.143  1.00  0.00     0.004 C 
BRANCH   2   3
ATOM      3  C   UNL     1      79.446  14.388   5.536  1.00  0.00    -0.003 C 
ATOM      4  C   UNL     1      79.807  14.264   7.013  1.00  0.00     0.004 C 
ENDBRANCH   2   3
ENDBRANCH   1   2
BRANCH   1   5
ATOM      5  C   UNL     1      79.070  15.512   2.636  1.00  0.00    -0.023 C 
ATOM      6  C   UNL     1      79.526  16.291   1.641  1.00  0.00     0.042 C 
BRANCH   6   7
ATOM      7  C   UNL     1      79.334  17.750   1.515  1.00  0.00     0.152 C 
ATOM      8  O   UNL     1      80.269  18.513   1.875  1.00  0.00    -0.295 OA
ATOM      9  C   UNL     1      78.103  18.357   0.916  1.00  0.00     0.093 C 
ENDBRANCH   6   7
ENDBRANCH   1   5
TORSDOF 4
ENDMDL
MODEL 3
REMARK VINA RESULT:    -3.215      2.314      3.938
REMARK INTER + INTRA:          -4.465
REMARK INTER:                  -3.952
REMARK INTRA:                  -0.514
REMARK UNBOUND:                -0.499
REMARK SMILES CCCCC=CC(C)=O
REMARK SMILES IDX 4 1 3 2 2 3 1 4 5 5 6 6 7 7 9 8 8 9
REMARK H PARENT
REMARK Flexibility Score: inf
ROOT
ATOM      1  C   UNL     1      78.794  14.836   1.916  1.00  0.00     0.027 C 
ENDROOT
BRANCH   1   2
ATOM      2  C   UNL     1      78.852  15.903   0.812  1.00  0.00     0.004 C 
BRANCH   2   3
ATOM      3  C   UNL     1      78.453  17.293   1.329  1.00  0.00    -0.003 C 
ATOM      4  C   UNL     1      79.682  18.147   1.616  1.00  0.00     0.004 C 
ENDBRANCH   2   3
ENDBRANCH   1   2
BRANCH   1   5
ATOM      5  C   UNL     1      80.140  14.571   2.540  1.00  0.00    -0.023 C 
ATOM      6  C   UNL     1      80.454  14.732   3.837  1.00  0.00     0.042 C 
BRANCH   6   7
ATOM      7  C   UNL     1      79.577  15.291   4.886  1.00  0.00     0.152 C 
ATOM      8  O   UNL     1      79.068  14.503   5.726  1.00  0.00    -0.295 OA
ATOM      9  C   UNL     1      79.322  16.759   5.031  1.00  0.00     0.093 C 
ENDBRANCH   6   7
ENDBRANCH   1   5
TORSDOF 4
ENDMDL
MODEL 4
REMARK VINA RESULT:    -3.142      1.454      2.063
REMARK INTER + INTRA:          -4.376
REMARK INTER:                  -3.948
REMARK INTRA:                  -0.428
REMARK UNBOUND:                -0.499
REMARK SMILES CCCCC=CC(C)=O
REMARK SMILES IDX 4 1 3 2 2 3 1 4 5 5 6 6 7 7 9 8 8 9
REMARK H PARENT
REMARK Flexibility Score: inf
ROOT
ATOM      1  C   UNL     1      79.385  15.602   1.281  1.00  0.00     0.027 C 
ENDROOT
BRANCH   1   2
ATOM      2  C   UNL     1      78.554  14.609   2.110  1.00  0.00     0.004 C 
BRANCH   2   3
ATOM      3  C   UNL     1      78.175  15.179   3.484  1.00  0.00    -0.003 C 
ATOM      4  C   UNL     1      79.133  14.692   4.566  1.00  0.00     0.004 C 
ENDBRANCH   2   3
ENDBRANCH   1   2
BRANCH   1   5
ATOM      5  C   UNL     1      78.638  16.874   0.977  1.00  0.00    -0.023 C 
ATOM      6  C   UNL     1      79.029  18.116   1.307  1.00  0.00     0.042 C 
BRANCH   6   7
ATOM      7  C   UNL     1      80.213  18.475   2.115  1.00  0.00     0.152 C 
ATOM      8  O   UNL     1      81.146  19.114   1.562  1.00  0.00    -0.295 OA
ATOM      9  C   UNL     1      80.319  18.169   3.577  1.00  0.00     0.093 C 
ENDBRANCH   6   7
ENDBRANCH   1   5
TORSDOF 4
ENDMDL
MODEL 5
REMARK VINA RESULT:    -3.106      2.440      4.524
REMARK INTER + INTRA:          -4.331
REMARK INTER:                  -4.057
REMARK INTRA:                  -0.274
REMARK UNBOUND:                -0.499
REMARK SMILES CCCCC=CC(C)=O
REMARK SMILES IDX 4 1 3 2 2 3 1 4 5 5 6 6 7 7 9 8 8 9
REMARK H PARENT
REMARK Flexibility Score: inf
ROOT
ATOM      1  C   UNL     1      79.713  17.089   3.116  1.00  0.00     0.027 C 
ENDROOT
BRANCH   1   2
ATOM      2  C   UNL     1      79.787  17.912   1.819  1.00  0.00     0.004 C 
BRANCH   2   3
ATOM      3  C   UNL     1      78.608  17.620   0.880  1.00  0.00    -0.003 C 
ATOM      4  C   UNL     1      77.631  18.790   0.843  1.00  0.00     0.004 C 
ENDBRANCH   2   3
ENDBRANCH   1   2
BRANCH   1   5
ATOM      5  C   UNL     1      78.780  15.911   3.004  1.00  0.00    -0.023 C 
ATOM      6  C   UNL     1      78.800  14.813   3.778  1.00  0.00     0.042 C 
BRANCH   6   7
ATOM      7  C   UNL     1      79.796  14.498   4.822  1.00  0.00     0.152 C 
ATOM      8  O   UNL     1      80.940  14.110   4.464  1.00  0.00    -0.295 OA
ATOM      9  C   UNL     1      79.526  14.684   6.284  1.00  0.00     0.093 C 
ENDBRANCH   6   7
ENDBRANCH   1   5
TORSDOF 4
ENDMDL
MODEL 6
REMARK VINA RESULT:    -3.091     18.814     20.634
REMARK INTER + INTRA:          -4.313
REMARK INTER:                  -3.940
REMARK INTRA:                  -0.373
REMARK UNBOUND:                -0.499
REMARK SMILES CCCCC=CC(C)=O
REMARK SMILES IDX 4 1 3 2 2 3 1 4 5 5 6 6 7 7 9 8 8 9
REMARK H PARENT
REMARK Flexibility Score: inf
ROOT
ATOM      1  C   UNL     1      91.291  26.540  16.979  1.00  0.00     0.027 C 
ENDROOT
BRANCH   1   2
ATOM      2  C   UNL     1      91.866  27.143  15.687  1.00  0.00     0.004 C 
BRANCH   2   3
ATOM      3  C   UNL     1      92.069  26.083  14.595  1.00  0.00    -0.003 C 
ATOM      4  C   UNL     1      92.075  26.716  13.208  1.00  0.00     0.004 C 
ENDBRANCH   2   3
ENDBRANCH   1   2
BRANCH   1   5
ATOM      5  C   UNL     1      90.159  27.355  17.548  1.00  0.00    -0.023 C 
ATOM      6  C   UNL     1      88.849  27.109  17.382  1.00  0.00     0.042 C 
BRANCH   6   7
ATOM      7  C   UNL     1      88.258  26.055  16.531  1.00  0.00     0.152 C 
ATOM      8  O   UNL     1      87.633  25.115  17.088  1.00  0.00    -0.295 OA
ATOM      9  C   UNL     1      88.315  26.095  15.035  1.00  0.00     0.093 C 
ENDBRANCH   6   7
ENDBRANCH   1   5
TORSDOF 4
ENDMDL
MODEL 7
REMARK VINA RESULT:    -3.033      1.625      3.086
REMARK INTER + INTRA:          -4.241
REMARK INTER:                  -3.805
REMARK INTRA:                  -0.436
REMARK UNBOUND:                -0.499
REMARK SMILES CCCCC=CC(C)=O
REMARK SMILES IDX 4 1 3 2 2 3 1 4 5 5 6 6 7 7 9 8 8 9
REMARK H PARENT
REMARK Flexibility Score: inf
ROOT
ATOM      1  C   UNL     1      79.674  14.654   2.445  1.00  0.00     0.027 C 
ENDROOT
BRANCH   1   2
ATOM      2  C   UNL     1      78.254  14.096   2.258  1.00  0.00     0.004 C 
BRANCH   2   3
ATOM      3  C   UNL     1      77.886  13.937   0.775  1.00  0.00    -0.003 C 
ATOM      4  C   UNL     1      79.067  14.285  -0.125  1.00  0.00     0.004 C 
ENDBRANCH   2   3
ENDBRANCH   1   2
BRANCH   1   5
ATOM      5  C   UNL     1      79.759  15.667   3.558  1.00  0.00    -0.023 C 
ATOM      6  C   UNL     1      79.634  16.998   3.425  1.00  0.00     0.042 C 
BRANCH   6   7
ATOM      7  C   UNL     1      79.489  17.739   2.155  1.00  0.00     0.152 C 
ATOM      8  O   UNL     1      80.465  18.420   1.743  1.00  0.00    -0.295 OA
ATOM      9  C   UNL     1      78.258  17.662   1.307  1.00  0.00     0.093 C 
ENDBRANCH   6   7
ENDBRANCH   1   5
TORSDOF 4
ENDMDL
MODEL 8
REMARK VINA RESULT:    -2.985      1.186      2.216
REMARK INTER + INTRA:          -4.182
REMARK INTER:                  -3.858
REMARK INTRA:                  -0.323
REMARK UNBOUND:                -0.499
REMARK SMILES CCCCC=CC(C)=O
REMARK SMILES IDX 4 1 3 2 2 3 1 4 5 5 6 6 7 7 9 8 8 9
REMARK H PARENT
REMARK Flexibility Score: inf
ROOT
ATOM      1  C   UNL     1      78.637  16.206   4.239  1.00  0.00     0.027 C 
ENDROOT
BRANCH   1   2
ATOM      2  C   UNL     1      79.032  14.746   4.514  1.00  0.00     0.004 C 
BRANCH   2   3
ATOM      3  C   UNL     1      80.528  14.497   4.277  1.00  0.00    -0.003 C 
ATOM      4  C   UNL     1      80.773  13.876   2.906  1.00  0.00     0.004 C 
ENDBRANCH   2   3
ENDBRANCH   1   2
BRANCH   1   5
ATOM      5  C   UNL     1      79.745  16.996   3.589  1.00  0.00    -0.023 C 
ATOM      6  C   UNL     1      79.749  17.457   2.327  1.00  0.00     0.042 C 
BRANCH   6   7
ATOM      7  C   UNL     1      78.719  17.200   1.299  1.00  0.00     0.152 C 
ATOM      8  O   UNL     1      77.928  18.133   0.996  1.00  0.00    -0.295 OA
ATOM      9  C   UNL     1      78.620  15.903   0.557  1.00  0.00     0.093 C 
ENDBRANCH   6   7
ENDBRANCH   1   5
TORSDOF 4
ENDMDL
MODEL 9
REMARK VINA RESULT:    -2.967     19.631     20.784
REMARK INTER + INTRA:          -4.160
REMARK INTER:                  -3.849
REMARK INTRA:                  -0.310
REMARK UNBOUND:                -0.499
REMARK SMILES CCCCC=CC(C)=O
REMARK SMILES IDX 4 1 3 2 2 3 1 4 5 5 6 6 7 7 9 8 8 9
REMARK H PARENT
REMARK Flexibility Score: inf
ROOT
ATOM      1  C   UNL     1      89.890  27.767  14.536  1.00  0.00     0.027 C 
ENDROOT
BRANCH   1   2
ATOM      2  C   UNL     1      91.396  27.724  14.846  1.00  0.00     0.004 C 
BRANCH   2   3
ATOM      3  C   UNL     1      92.083  26.508  14.207  1.00  0.00    -0.003 C 
ATOM      4  C   UNL     1      92.125  26.635  12.688  1.00  0.00     0.004 C 
ENDBRANCH   2   3
ENDBRANCH   1   2
BRANCH   1   5
ATOM      5  C   UNL     1      89.145  26.587  15.105  1.00  0.00    -0.023 C 
ATOM      6  C   UNL     1      88.769  26.434  16.385  1.00  0.00     0.042 C 
BRANCH   6   7
ATOM      7  C   UNL     1      89.095  27.340  17.506  1.00  0.00     0.152 C 
ATOM      8  O   UNL     1      88.220  28.160  17.889  1.00  0.00    -0.295 OA
ATOM      9  C   UNL     1      90.395  27.278  18.247  1.00  0.00     0.093 C 
ENDBRANCH   6   7
ENDBRANCH   1   5
TORSDOF 4
ENDMDL
