MODEL 1
REMARK VINA RESULT:    -3.998      0.000      0.000
REMARK INTER + INTRA:          -4.252
REMARK INTER:                  -4.232
REMARK INTRA:                  -0.020
REMARK UNBOUND:                -0.020
REMARK SMILES O=C([O-])c1cccnc1
REMARK SMILES IDX 4 1 5 2 9 3 6 4 8 5 7 6 2 7 1 8 3 9
REMARK H PARENT
REMARK Flexibility Score: inf
ROOT
ATOM      1  C   UNL     1       6.276 -29.978 -17.896  1.00  0.00     0.016 A 
ATOM      2  C   UNL     1       7.521 -29.373 -17.656  1.00  0.00     0.013 A 
ATOM      3  C   UNL     1       5.129 -29.165 -17.901  1.00  0.00     0.120 A 
ATOM      4  C   UNL     1       7.600 -27.998 -17.429  1.00  0.00     0.021 A 
ATOM      5  N   UNL     1       5.235 -27.827 -17.677  1.00  0.00    -0.264 NA
ATOM      6  C   UNL     1       6.433 -27.233 -17.444  1.00  0.00     0.111 A 
ENDROOT
BRANCH   1   7
ATOM      7  C   UNL     1       6.180 -31.433 -18.137  1.00  0.00     0.073 C 
ATOM      8  O   UNL     1       5.223 -32.099 -17.659  1.00  0.00    -0.545 OA
ATOM      9  O   UNL     1       7.146 -32.087 -18.893  1.00  0.00    -0.545 OA
ENDBRANCH   1   7
TORSDOF 1
ENDMDL
MODEL 2
REMARK VINA RESULT:    -3.921     14.470     15.936
REMARK INTER + INTRA:          -4.170
REMARK INTER:                  -4.152
REMARK INTRA:                  -0.018
REMARK UNBOUND:                -0.020
REMARK SMILES O=C([O-])c1cccnc1
REMARK SMILES IDX 4 1 5 2 9 3 6 4 8 5 7 6 2 7 1 8 3 9
REMARK H PARENT
REMARK Flexibility Score: inf
ROOT
ATOM      1  C   UNL     1      -1.064 -43.104 -17.394  1.00  0.00     0.016 A 
ATOM      2  C   UNL     1      -1.777 -44.245 -17.795  1.00  0.00     0.013 A 
ATOM      3  C   UNL     1      -0.829 -42.911 -16.022  1.00  0.00     0.120 A 
ATOM      4  C   UNL     1      -2.235 -45.156 -16.841  1.00  0.00     0.021 A 
ATOM      5  N   UNL     1      -1.287 -43.815 -15.113  1.00  0.00    -0.264 NA
ATOM      6  C   UNL     1      -1.977 -44.922 -15.490  1.00  0.00     0.111 A 
ENDROOT
BRANCH   1   7
ATOM      7  C   UNL     1      -0.574 -42.132 -18.395  1.00  0.00     0.073 C 
ATOM      8  O   UNL     1       0.657 -41.883 -18.496  1.00  0.00    -0.545 OA
ATOM      9  O   UNL     1      -1.466 -41.478 -19.237  1.00  0.00    -0.545 OA
ENDBRANCH   1   7
TORSDOF 1
ENDMDL
MODEL 3
REMARK VINA RESULT:    -3.901     14.860     16.355
REMARK INTER + INTRA:          -4.150
REMARK INTER:                  -4.134
REMARK INTRA:                  -0.016
REMARK UNBOUND:                -0.020
REMARK SMILES O=C([O-])c1cccnc1
REMARK SMILES IDX 4 1 5 2 9 3 6 4 8 5 7 6 2 7 1 8 3 9
REMARK H PARENT
REMARK Flexibility Score: inf
ROOT
ATOM      1  C   UNL     1      -0.812 -43.630 -17.892  1.00  0.00     0.016 A 
ATOM      2  C   UNL     1      -1.905 -44.487 -17.681  1.00  0.00     0.013 A 
ATOM      3  C   UNL     1       0.480 -44.184 -17.894  1.00  0.00     0.120 A 
ATOM      4  C   UNL     1      -1.697 -45.853 -17.481  1.00  0.00     0.021 A 
ATOM      5  N   UNL     1       0.655 -45.519 -17.696  1.00  0.00    -0.264 NA
ATOM      6  C   UNL     1      -0.395 -46.356 -17.492  1.00  0.00     0.111 A 
ENDROOT
BRANCH   1   7
ATOM      7  C   UNL     1      -1.020 -42.182 -18.105  1.00  0.00     0.073 C 
ATOM      8  O   UNL     1      -1.077 -41.393 -17.125  1.00  0.00    -0.545 OA
ATOM      9  O   UNL     1      -1.157 -41.672 -19.391  1.00  0.00    -0.545 OA
ENDBRANCH   1   7
TORSDOF 1
ENDMDL
MODEL 4
REMARK VINA RESULT:    -3.873     14.542     16.173
REMARK INTER + INTRA:          -4.120
REMARK INTER:                  -4.096
REMARK INTRA:                  -0.024
REMARK UNBOUND:                -0.020
REMARK SMILES O=C([O-])c1cccnc1
REMARK SMILES IDX 4 1 5 2 9 3 6 4 8 5 7 6 2 7 1 8 3 9
REMARK H PARENT
REMARK Flexibility Score: inf
ROOT
ATOM      1  C   UNL     1      -0.037 -43.783 -17.862  1.00  0.00     0.016 A 
ATOM      2  C   UNL     1      -1.432 -43.620 -17.828  1.00  0.00     0.013 A 
ATOM      3  C   UNL     1       0.488 -45.075 -17.691  1.00  0.00     0.120 A 
ATOM      4  C   UNL     1      -2.262 -44.725 -17.630  1.00  0.00     0.021 A 
ATOM      5  N   UNL     1      -0.344 -46.135 -17.500  1.00  0.00    -0.264 NA
ATOM      6  C   UNL     1      -1.693 -45.989 -17.466  1.00  0.00     0.111 A 
ENDROOT
BRANCH   1   7
ATOM      7  C   UNL     1       0.851 -42.620 -18.070  1.00  0.00     0.073 C 
ATOM      8  O   UNL     1       0.369 -41.478 -18.291  1.00  0.00    -0.545 OA
ATOM      9  O   UNL     1       2.232 -42.772 -18.027  1.00  0.00    -0.545 OA
ENDBRANCH   1   7
TORSDOF 1
ENDMDL
MODEL 5
REMARK VINA RESULT:    -3.862      2.660      3.529
REMARK INTER + INTRA:          -4.108
REMARK INTER:                  -4.085
REMARK INTRA:                  -0.024
REMARK UNBOUND:                -0.020
REMARK SMILES O=C([O-])c1cccnc1
REMARK SMILES IDX 4 1 5 2 9 3 6 4 8 5 7 6 2 7 1 8 3 9
REMARK H PARENT
REMARK Flexibility Score: inf
ROOT
ATOM      1  C   UNL     1       6.313 -29.198 -17.742  1.00  0.00     0.016 A 
ATOM      2  C   UNL     1       7.205 -30.273 -17.888  1.00  0.00     0.013 A 
ATOM      3  C   UNL     1       4.934 -29.467 -17.765  1.00  0.00     0.120 A 
ATOM      4  C   UNL     1       6.718 -31.571 -18.052  1.00  0.00     0.021 A 
ATOM      5  N   UNL     1       4.485 -30.742 -17.926  1.00  0.00    -0.264 NA
ATOM      6  C   UNL     1       5.339 -31.788 -18.067  1.00  0.00     0.111 A 
ENDROOT
BRANCH   1   7
ATOM      7  C   UNL     1       6.818 -27.819 -17.569  1.00  0.00     0.073 C 
ATOM      8  O   UNL     1       6.025 -26.877 -17.303  1.00  0.00    -0.545 OA
ATOM      9  O   UNL     1       8.174 -27.544 -17.698  1.00  0.00    -0.545 OA
ENDBRANCH   1   7
TORSDOF 1
ENDMDL
MODEL 6
REMARK VINA RESULT:    -3.861     15.073     16.214
REMARK INTER + INTRA:          -4.107
REMARK INTER:                  -4.090
REMARK INTRA:                  -0.016
REMARK UNBOUND:                -0.020
REMARK SMILES O=C([O-])c1cccnc1
REMARK SMILES IDX 4 1 5 2 9 3 6 4 8 5 7 6 2 7 1 8 3 9
REMARK H PARENT
REMARK Flexibility Score: inf
ROOT
ATOM      1  C   UNL     1      -1.322 -44.174 -17.010  1.00  0.00     0.016 A 
ATOM      2  C   UNL     1      -1.182 -43.122 -17.930  1.00  0.00     0.013 A 
ATOM      3  C   UNL     1      -1.194 -43.884 -15.640  1.00  0.00     0.120 A 
ATOM      4  C   UNL     1      -0.923 -41.826 -17.479  1.00  0.00     0.021 A 
ATOM      5  N   UNL     1      -0.941 -42.612 -15.228  1.00  0.00    -0.264 NA
ATOM      6  C   UNL     1      -0.804 -41.588 -16.110  1.00  0.00     0.111 A 
ENDROOT
BRANCH   1   7
ATOM      7  C   UNL     1      -1.596 -45.550 -17.476  1.00  0.00     0.073 C 
ATOM      8  O   UNL     1      -0.667 -46.398 -17.549  1.00  0.00    -0.545 OA
ATOM      9  O   UNL     1      -2.884 -45.926 -17.840  1.00  0.00    -0.545 OA
ENDBRANCH   1   7
TORSDOF 1
ENDMDL
MODEL 7
REMARK VINA RESULT:    -3.790     14.693     15.969
REMARK INTER + INTRA:          -4.032
REMARK INTER:                  -4.008
REMARK INTRA:                  -0.024
REMARK UNBOUND:                -0.020
REMARK SMILES O=C([O-])c1cccnc1
REMARK SMILES IDX 4 1 5 2 9 3 6 4 8 5 7 6 2 7 1 8 3 9
REMARK H PARENT
REMARK Flexibility Score: inf
ROOT
ATOM      1  C   UNL     1      -0.672 -44.260 -17.815  1.00  0.00     0.016 A 
ATOM      2  C   UNL     1      -1.555 -43.176 -17.955  1.00  0.00     0.013 A 
ATOM      3  C   UNL     1       0.707 -44.017 -17.935  1.00  0.00     0.120 A 
ATOM      4  C   UNL     1      -1.059 -41.896 -18.208  1.00  0.00     0.021 A 
ATOM      5  N   UNL     1       1.164 -42.759 -18.181  1.00  0.00    -0.264 NA
ATOM      6  C   UNL     1       0.319 -41.705 -18.318  1.00  0.00     0.111 A 
ENDROOT
BRANCH   1   7
ATOM      7  C   UNL     1      -1.186 -45.620 -17.547  1.00  0.00     0.073 C 
ATOM      8  O   UNL     1      -2.410 -45.807 -17.314  1.00  0.00    -0.545 OA
ATOM      9  O   UNL     1      -0.325 -46.711 -17.549  1.00  0.00    -0.545 OA
ENDBRANCH   1   7
TORSDOF 1
ENDMDL
MODEL 8
REMARK VINA RESULT:    -3.707     15.124     16.259
REMARK INTER + INTRA:          -3.944
REMARK INTER:                  -3.922
REMARK INTRA:                  -0.022
REMARK UNBOUND:                -0.020
REMARK SMILES O=C([O-])c1cccnc1
REMARK SMILES IDX 4 1 5 2 9 3 6 4 8 5 7 6 2 7 1 8 3 9
REMARK H PARENT
REMARK Flexibility Score: inf
ROOT
ATOM      1  C   UNL     1       0.618 -44.465 -17.634  1.00  0.00     0.016 A 
ATOM      2  C   UNL     1       0.104 -45.756 -17.426  1.00  0.00     0.013 A 
ATOM      3  C   UNL     1      -0.288 -43.417 -17.872  1.00  0.00     0.120 A 
ATOM      4  C   UNL     1      -1.275 -45.975 -17.457  1.00  0.00     0.021 A 
ATOM      5  N   UNL     1      -1.627 -43.658 -17.897  1.00  0.00    -0.264 NA
ATOM      6  C   UNL     1      -2.134 -44.902 -17.696  1.00  0.00     0.111 A 
ENDROOT
BRANCH   1   7
ATOM      7  C   UNL     1       2.075 -44.222 -17.604  1.00  0.00     0.073 C 
ATOM      8  O   UNL     1       2.823 -44.906 -16.855  1.00  0.00    -0.545 OA
ATOM      9  O   UNL     1       2.641 -43.233 -18.400  1.00  0.00    -0.545 OA
ENDBRANCH   1   7
TORSDOF 1
ENDMDL
MODEL 9
REMARK VINA RESULT:    -3.679     15.001     16.151
REMARK INTER + INTRA:          -3.915
REMARK INTER:                  -3.899
REMARK INTRA:                  -0.016
REMARK UNBOUND:                -0.020
REMARK SMILES O=C([O-])c1cccnc1
REMARK SMILES IDX 4 1 5 2 9 3 6 4 8 5 7 6 2 7 1 8 3 9
REMARK H PARENT
REMARK Flexibility Score: inf
ROOT
ATOM      1  C   UNL     1      -0.494 -43.659 -17.776  1.00  0.00     0.016 A 
ATOM      2  C   UNL     1       0.842 -43.965 -18.085  1.00  0.00     0.013 A 
ATOM      3  C   UNL     1      -1.363 -44.715 -17.451  1.00  0.00     0.120 A 
ATOM      4  C   UNL     1       1.280 -45.290 -18.066  1.00  0.00     0.021 A 
ATOM      5  N   UNL     1      -0.909 -45.998 -17.440  1.00  0.00    -0.264 NA
ATOM      6  C   UNL     1       0.380 -46.304 -17.737  1.00  0.00     0.111 A 
ENDROOT
BRANCH   1   7
ATOM      7  C   UNL     1      -0.969 -42.259 -17.794  1.00  0.00     0.073 C 
ATOM      8  O   UNL     1      -1.517 -41.783 -18.824  1.00  0.00    -0.545 OA
ATOM      9  O   UNL     1      -0.817 -41.449 -16.675  1.00  0.00    -0.545 OA
ENDBRANCH   1   7
TORSDOF 1
ENDMDL
