MODEL 1
REMARK VINA RESULT:    -5.560      0.000      0.000
REMARK INTER + INTRA:         -14.946
REMARK INTER:                 -12.061
REMARK INTRA:                  -2.886
REMARK UNBOUND:                -2.886
REMARK SMILES CCCCCCCCCCCCCCCCCCCCCC(=O)[O-]
REMARK SMILES IDX 12 1 11 2 10 3 9 4 8 5 7 6 6 7 5 8 4 9 3 10 2 11 1 12 13 13
REMARK SMILES IDX 14 14 15 15 16 16 17 17 18 18 19 19 20 20 21 21 22 22 23 23
REMARK SMILES IDX 24 24
REMARK H PARENT
REMARK Flexibility Score: inf
ROOT
ATOM      1  C   UNL     1     -10.219  -4.165  -7.316  1.00  0.00     0.000 C 
ENDROOT
BRANCH   1   2
ATOM      2  C   UNL     1      -9.522  -5.521  -7.564  1.00  0.00     0.000 C 
BRANCH   2   3
ATOM      3  C   UNL     1     -10.094  -6.258  -8.789  1.00  0.00     0.000 C 
BRANCH   3   4
ATOM      4  C   UNL     1     -10.532  -7.698  -8.469  1.00  0.00    -0.000 C 
BRANCH   4   5
ATOM      5  C   UNL     1     -11.929  -8.082  -8.993  1.00  0.00    -0.000 C 
BRANCH   5   6
ATOM      6  C   UNL     1     -12.500  -7.060  -9.985  1.00  0.00    -0.000 C 
BRANCH   6   7
ATOM      7  C   UNL     1     -13.836  -6.490  -9.478  1.00  0.00    -0.000 C 
BRANCH   7   8
ATOM      8  C   UNL     1     -13.684  -5.706  -8.162  1.00  0.00    -0.000 C 
BRANCH   8   9
ATOM      9  C   UNL     1     -14.667  -6.169  -7.075  1.00  0.00    -0.000 C 
BRANCH   9  10
ATOM     10  C   UNL     1     -13.933  -6.958  -5.977  1.00  0.00    -0.000 C 
BRANCH  10  11
ATOM     11  C   UNL     1     -12.547  -6.378  -5.650  1.00  0.00    -0.003 C 
ATOM     12  C   UNL     1     -11.601  -7.409  -5.029  1.00  0.00     0.004 C 
ENDBRANCH  10  11
ENDBRANCH   9  10
ENDBRANCH   8   9
ENDBRANCH   7   8
ENDBRANCH   6   7
ENDBRANCH   5   6
ENDBRANCH   4   5
ENDBRANCH   3   4
ENDBRANCH   2   3
ENDBRANCH   1   2
BRANCH   1  13
ATOM     13  C   UNL     1      -9.563  -2.982  -8.054  1.00  0.00     0.000 C 
BRANCH  13  14
ATOM     14  C   UNL     1     -10.149  -2.668  -9.444  1.00  0.00     0.000 C 
BRANCH  14  15
ATOM     15  C   UNL     1     -11.617  -3.099  -9.640  1.00  0.00     0.000 C 
BRANCH  15  16
ATOM     16  C   UNL     1     -12.478  -1.987 -10.256  1.00  0.00     0.000 C 
BRANCH  16  17
ATOM     17  C   UNL     1     -11.654  -0.752 -10.663  1.00  0.00     0.000 C 
BRANCH  17  18
ATOM     18  C   UNL     1     -11.956   0.496  -9.804  1.00  0.00     0.000 C 
BRANCH  18  19
ATOM     19  C   UNL     1     -13.462   0.776  -9.704  1.00  0.00     0.000 C 
BRANCH  19  20
ATOM     20  C   UNL     1     -13.731   2.276  -9.508  1.00  0.00     0.006 C 
BRANCH  20  21
ATOM     21  C   UNL     1     -12.443   3.091  -9.650  1.00  0.00     0.053 C 
BRANCH  21  22
ATOM     22  C   UNL     1     -12.230   3.961  -8.451  1.00  0.00     0.041 C 
ATOM     23  O   UNL     1     -11.113   3.970  -7.866  1.00  0.00    -0.550 OA
ATOM     24  O   UNL     1     -13.264   4.762  -7.976  1.00  0.00    -0.550 OA
ENDBRANCH  21  22
ENDBRANCH  20  21
ENDBRANCH  19  20
ENDBRANCH  18  19
ENDBRANCH  17  18
ENDBRANCH  16  17
ENDBRANCH  15  16
ENDBRANCH  14  15
ENDBRANCH  13  14
ENDBRANCH   1  13
TORSDOF 20
ENDMDL
MODEL 2
REMARK VINA RESULT:    -5.226      3.437      7.881
REMARK INTER + INTRA:         -14.223
REMARK INTER:                 -11.927
REMARK INTRA:                  -2.296
REMARK UNBOUND:                -2.886
REMARK SMILES CCCCCCCCCCCCCCCCCCCCCC(=O)[O-]
REMARK SMILES IDX 12 1 11 2 10 3 9 4 8 5 7 6 6 7 5 8 4 9 3 10 2 11 1 12 13 13
REMARK SMILES IDX 14 14 15 15 16 16 17 17 18 18 19 19 20 20 21 21 22 22 23 23
REMARK SMILES IDX 24 24
REMARK H PARENT
REMARK Flexibility Score: inf
ROOT
ATOM      1  C   UNL     1      -9.668  -2.853  -7.480  1.00  0.00     0.000 C 
ENDROOT
BRANCH   1   2
ATOM      2  C   UNL     1      -9.681  -2.939  -9.022  1.00  0.00     0.000 C 
BRANCH   2   3
ATOM      3  C   UNL     1     -10.626  -1.902  -9.658  1.00  0.00     0.000 C 
BRANCH   3   4
ATOM      4  C   UNL     1     -11.985  -2.501 -10.063  1.00  0.00    -0.000 C 
BRANCH   4   5
ATOM      5  C   UNL     1     -12.967  -1.503 -10.705  1.00  0.00    -0.000 C 
BRANCH   5   6
ATOM      6  C   UNL     1     -14.377  -1.575 -10.100  1.00  0.00    -0.000 C 
BRANCH   6   7
ATOM      7  C   UNL     1     -14.784  -0.220  -9.496  1.00  0.00    -0.000 C 
BRANCH   7   8
ATOM      8  C   UNL     1     -14.172   0.974 -10.251  1.00  0.00    -0.000 C 
BRANCH   8   9
ATOM      9  C   UNL     1     -13.817   2.147  -9.324  1.00  0.00    -0.000 C 
BRANCH   9  10
ATOM     10  C   UNL     1     -12.297   2.385  -9.304  1.00  0.00    -0.000 C 
BRANCH  10  11
ATOM     11  C   UNL     1     -11.921   3.814  -8.879  1.00  0.00    -0.003 C 
ATOM     12  C   UNL     1     -13.059   4.539  -8.156  1.00  0.00     0.004 C 
ENDBRANCH  10  11
ENDBRANCH   9  10
ENDBRANCH   8   9
ENDBRANCH   7   8
ENDBRANCH   6   7
ENDBRANCH   5   6
ENDBRANCH   4   5
ENDBRANCH   3   4
ENDBRANCH   2   3
ENDBRANCH   1   2
BRANCH   1  13
ATOM     13  C   UNL     1     -10.125  -4.146  -6.778  1.00  0.00     0.000 C 
BRANCH  13  14
ATOM     14  C   UNL     1      -9.526  -5.447  -7.345  1.00  0.00     0.000 C 
BRANCH  14  15
ATOM     15  C   UNL     1      -9.873  -6.721  -6.548  1.00  0.00     0.000 C 
BRANCH  15  16
ATOM     16  C   UNL     1     -10.483  -7.819  -7.432  1.00  0.00     0.000 C 
BRANCH  16  17
ATOM     17  C   UNL     1     -10.694  -7.363  -8.887  1.00  0.00     0.000 C 
BRANCH  17  18
ATOM     18  C   UNL     1     -12.012  -7.878  -9.505  1.00  0.00     0.000 C 
BRANCH  18  19
ATOM     19  C   UNL     1     -12.994  -6.736  -9.806  1.00  0.00     0.000 C 
BRANCH  19  20
ATOM     20  C   UNL     1     -12.997  -5.700  -8.672  1.00  0.00     0.006 C 
BRANCH  20  21
ATOM     21  C   UNL     1     -14.192  -5.907  -7.738  1.00  0.00     0.053 C 
BRANCH  21  22
ATOM     22  C   UNL     1     -13.799  -6.721  -6.546  1.00  0.00     0.041 C 
ATOM     23  O   UNL     1     -14.106  -7.942  -6.484  1.00  0.00    -0.550 OA
ATOM     24  O   UNL     1     -13.095  -6.133  -5.500  1.00  0.00    -0.550 OA
ENDBRANCH  21  22
ENDBRANCH  20  21
ENDBRANCH  19  20
ENDBRANCH  18  19
ENDBRANCH  17  18
ENDBRANCH  16  17
ENDBRANCH  15  16
ENDBRANCH  14  15
ENDBRANCH  13  14
ENDBRANCH   1  13
TORSDOF 20
ENDMDL
MODEL 3
REMARK VINA RESULT:    -5.226      3.269      8.053
REMARK INTER + INTRA:         -14.222
REMARK INTER:                 -11.640
REMARK INTRA:                  -2.582
REMARK UNBOUND:                -2.886
REMARK SMILES CCCCCCCCCCCCCCCCCCCCCC(=O)[O-]
REMARK SMILES IDX 12 1 11 2 10 3 9 4 8 5 7 6 6 7 5 8 4 9 3 10 2 11 1 12 13 13
REMARK SMILES IDX 14 14 15 15 16 16 17 17 18 18 19 19 20 20 21 21 22 22 23 23
REMARK SMILES IDX 24 24
REMARK H PARENT
REMARK Flexibility Score: inf
ROOT
ATOM      1  C   UNL     1     -10.006  -3.956 -10.019  1.00  0.00     0.000 C 
ENDROOT
BRANCH   1   2
ATOM      2  C   UNL     1      -9.334  -2.717  -9.386  1.00  0.00     0.000 C 
BRANCH   2   3
ATOM      3  C   UNL     1     -10.341  -1.828  -8.632  1.00  0.00     0.000 C 
BRANCH   3   4
ATOM      4  C   UNL     1     -10.620  -0.497  -9.352  1.00  0.00    -0.000 C 
BRANCH   4   5
ATOM      5  C   UNL     1     -11.504  -0.612 -10.608  1.00  0.00    -0.000 C 
BRANCH   5   6
ATOM      6  C   UNL     1     -12.947  -1.027 -10.290  1.00  0.00    -0.000 C 
BRANCH   6   7
ATOM      7  C   UNL     1     -13.926   0.124 -10.581  1.00  0.00    -0.000 C 
BRANCH   7   8
ATOM      8  C   UNL     1     -14.646   0.624  -9.316  1.00  0.00    -0.000 C 
BRANCH   8   9
ATOM      9  C   UNL     1     -14.263   2.064  -8.942  1.00  0.00    -0.000 C 
BRANCH   9  10
ATOM     10  C   UNL     1     -12.971   2.489  -9.662  1.00  0.00    -0.000 C 
BRANCH  10  11
ATOM     11  C   UNL     1     -12.179   3.556  -8.888  1.00  0.00    -0.003 C 
ATOM     12  C   UNL     1     -13.081   4.540  -8.138  1.00  0.00     0.004 C 
ENDBRANCH  10  11
ENDBRANCH   9  10
ENDBRANCH   8   9
ENDBRANCH   7   8
ENDBRANCH   6   7
ENDBRANCH   5   6
ENDBRANCH   4   5
ENDBRANCH   3   4
ENDBRANCH   2   3
ENDBRANCH   1   2
BRANCH   1  13
ATOM     13  C   UNL     1     -11.148  -4.548  -9.172  1.00  0.00     0.000 C 
BRANCH  13  14
ATOM     14  C   UNL     1     -10.878  -5.950  -8.594  1.00  0.00     0.000 C 
BRANCH  14  15
ATOM     15  C   UNL     1      -9.925  -5.978  -7.381  1.00  0.00     0.000 C 
BRANCH  15  16
ATOM     16  C   UNL     1     -10.328  -4.972  -6.294  1.00  0.00     0.000 C 
BRANCH  16  17
ATOM     17  C   UNL     1     -11.458  -5.496  -5.389  1.00  0.00     0.000 C 
BRANCH  17  18
ATOM     18  C   UNL     1     -11.385  -7.018  -5.137  1.00  0.00     0.000 C 
BRANCH  18  19
ATOM     19  C   UNL     1     -12.733  -7.710  -5.387  1.00  0.00     0.000 C 
BRANCH  19  20
ATOM     20  C   UNL     1     -13.681  -6.798  -6.181  1.00  0.00     0.006 C 
BRANCH  20  21
ATOM     21  C   UNL     1     -14.067  -7.435  -7.518  1.00  0.00     0.053 C 
BRANCH  21  22
ATOM     22  C   UNL     1     -14.566  -6.398  -8.475  1.00  0.00     0.041 C 
ATOM     23  O   UNL     1     -14.800  -5.226  -8.073  1.00  0.00    -0.550 OA
ATOM     24  O   UNL     1     -14.774  -6.723  -9.811  1.00  0.00    -0.550 OA
ENDBRANCH  21  22
ENDBRANCH  20  21
ENDBRANCH  19  20
ENDBRANCH  18  19
ENDBRANCH  17  18
ENDBRANCH  16  17
ENDBRANCH  15  16
ENDBRANCH  14  15
ENDBRANCH  13  14
ENDBRANCH   1  13
TORSDOF 20
ENDMDL
MODEL 4
REMARK VINA RESULT:    -5.133      3.320      7.993
REMARK INTER + INTRA:         -14.021
REMARK INTER:                 -11.426
REMARK INTRA:                  -2.595
REMARK UNBOUND:                -2.886
REMARK SMILES CCCCCCCCCCCCCCCCCCCCCC(=O)[O-]
REMARK SMILES IDX 12 1 11 2 10 3 9 4 8 5 7 6 6 7 5 8 4 9 3 10 2 11 1 12 13 13
REMARK SMILES IDX 14 14 15 15 16 16 17 17 18 18 19 19 20 20 21 21 22 22 23 23
REMARK SMILES IDX 24 24
REMARK H PARENT
REMARK Flexibility Score: inf
ROOT
ATOM      1  C   UNL     1     -10.182  -3.680  -7.679  1.00  0.00     0.000 C 
ENDROOT
BRANCH   1   2
ATOM      2  C   UNL     1      -9.822  -2.260  -8.169  1.00  0.00     0.000 C 
BRANCH   2   3
ATOM      3  C   UNL     1     -10.123  -2.065  -9.667  1.00  0.00     0.000 C 
BRANCH   3   4
ATOM      4  C   UNL     1     -11.399  -1.241  -9.918  1.00  0.00    -0.000 C 
BRANCH   4   5
ATOM      5  C   UNL     1     -12.587  -2.043 -10.481  1.00  0.00    -0.000 C 
BRANCH   5   6
ATOM      6  C   UNL     1     -13.942  -1.370 -10.220  1.00  0.00    -0.000 C 
BRANCH   6   7
ATOM      7  C   UNL     1     -13.838   0.156 -10.386  1.00  0.00    -0.000 C 
BRANCH   7   8
ATOM      8  C   UNL     1     -14.632   0.924  -9.315  1.00  0.00    -0.000 C 
BRANCH   8   9
ATOM      9  C   UNL     1     -14.123   2.360  -9.111  1.00  0.00    -0.000 C 
BRANCH   9  10
ATOM     10  C   UNL     1     -12.638   2.471  -9.497  1.00  0.00    -0.000 C 
BRANCH  10  11
ATOM     11  C   UNL     1     -11.958   3.717  -8.905  1.00  0.00    -0.003 C 
ATOM     12  C   UNL     1     -12.899   4.552  -8.034  1.00  0.00     0.004 C 
ENDBRANCH  10  11
ENDBRANCH   9  10
ENDBRANCH   8   9
ENDBRANCH   7   8
ENDBRANCH   6   7
ENDBRANCH   5   6
ENDBRANCH   4   5
ENDBRANCH   3   4
ENDBRANCH   2   3
ENDBRANCH   1   2
BRANCH   1  13
ATOM     13  C   UNL     1      -9.868  -4.791  -8.700  1.00  0.00     0.000 C 
BRANCH  13  14
ATOM     14  C   UNL     1     -11.098  -5.509  -9.288  1.00  0.00     0.000 C 
BRANCH  14  15
ATOM     15  C   UNL     1     -12.450  -5.072  -8.689  1.00  0.00     0.000 C 
BRANCH  15  16
ATOM     16  C   UNL     1     -13.631  -5.875  -9.255  1.00  0.00     0.000 C 
BRANCH  16  17
ATOM     17  C   UNL     1     -14.831  -5.926  -8.293  1.00  0.00     0.000 C 
BRANCH  17  18
ATOM     18  C   UNL     1     -14.421  -5.988  -6.805  1.00  0.00     0.000 C 
BRANCH  18  19
ATOM     19  C   UNL     1     -14.530  -7.410  -6.236  1.00  0.00     0.000 C 
BRANCH  19  20
ATOM     20  C   UNL     1     -13.270  -7.782  -5.440  1.00  0.00     0.006 C 
BRANCH  20  21
ATOM     21  C   UNL     1     -12.025  -7.747  -6.329  1.00  0.00     0.053 C 
BRANCH  21  22
ATOM     22  C   UNL     1     -10.995  -6.819  -5.765  1.00  0.00     0.041 C 
ATOM     23  O   UNL     1     -11.350  -5.822  -5.079  1.00  0.00    -0.550 OA
ATOM     24  O   UNL     1      -9.644  -7.052  -5.996  1.00  0.00    -0.550 OA
ENDBRANCH  21  22
ENDBRANCH  20  21
ENDBRANCH  19  20
ENDBRANCH  18  19
ENDBRANCH  17  18
ENDBRANCH  16  17
ENDBRANCH  15  16
ENDBRANCH  14  15
ENDBRANCH  13  14
ENDBRANCH   1  13
TORSDOF 20
ENDMDL
MODEL 5
REMARK VINA RESULT:    -5.089      1.193      2.592
REMARK INTER + INTRA:         -13.925
REMARK INTER:                 -11.849
REMARK INTRA:                  -2.076
REMARK UNBOUND:                -2.886
REMARK SMILES CCCCCCCCCCCCCCCCCCCCCC(=O)[O-]
REMARK SMILES IDX 12 1 11 2 10 3 9 4 8 5 7 6 6 7 5 8 4 9 3 10 2 11 1 12 13 13
REMARK SMILES IDX 14 14 15 15 16 16 17 17 18 18 19 19 20 20 21 21 22 22 23 23
REMARK SMILES IDX 24 24
REMARK H PARENT
REMARK Flexibility Score: inf
ROOT
ATOM      1  C   UNL     1     -10.263  -1.334  -8.482  1.00  0.00     0.000 C 
ENDROOT
BRANCH   1   2
ATOM      2  C   UNL     1      -9.720  -2.563  -7.720  1.00  0.00     0.000 C 
BRANCH   2   3
ATOM      3  C   UNL     1      -8.562  -3.250  -8.467  1.00  0.00     0.000 C 
BRANCH   3   4
ATOM      4  C   UNL     1      -8.634  -4.786  -8.400  1.00  0.00    -0.000 C 
BRANCH   4   5
ATOM      5  C   UNL     1     -10.051  -5.361  -8.219  1.00  0.00    -0.000 C 
BRANCH   5   6
ATOM      6  C   UNL     1     -10.161  -6.831  -8.645  1.00  0.00    -0.000 C 
BRANCH   6   7
ATOM      7  C   UNL     1     -10.593  -7.714  -7.461  1.00  0.00    -0.000 C 
BRANCH   7   8
ATOM      8  C   UNL     1     -10.212  -7.107  -6.099  1.00  0.00    -0.000 C 
BRANCH   8   9
ATOM      9  C   UNL     1     -11.410  -6.474  -5.373  1.00  0.00    -0.000 C 
BRANCH   9  10
ATOM     10  C   UNL     1     -12.642  -7.393  -5.451  1.00  0.00    -0.000 C 
BRANCH  10  11
ATOM     11  C   UNL     1     -13.913  -6.652  -5.897  1.00  0.00    -0.003 C 
ATOM     12  C   UNL     1     -13.806  -6.085  -7.315  1.00  0.00     0.004 C 
ENDBRANCH  10  11
ENDBRANCH   9  10
ENDBRANCH   8   9
ENDBRANCH   7   8
ENDBRANCH   6   7
ENDBRANCH   5   6
ENDBRANCH   4   5
ENDBRANCH   3   4
ENDBRANCH   2   3
ENDBRANCH   1   2
BRANCH   1  13
ATOM     13  C   UNL     1     -10.797  -1.659  -9.890  1.00  0.00     0.000 C 
BRANCH  13  14
ATOM     14  C   UNL     1     -11.948  -2.682  -9.936  1.00  0.00     0.000 C 
BRANCH  14  15
ATOM     15  C   UNL     1     -13.166  -2.249 -10.777  1.00  0.00     0.000 C 
BRANCH  15  16
ATOM     16  C   UNL     1     -14.443  -2.112  -9.936  1.00  0.00     0.000 C 
BRANCH  16  17
ATOM     17  C   UNL     1     -14.774  -0.649  -9.590  1.00  0.00     0.000 C 
BRANCH  17  18
ATOM     18  C   UNL     1     -13.988   0.374 -10.440  1.00  0.00     0.000 C 
BRANCH  18  19
ATOM     19  C   UNL     1     -12.999   1.189  -9.594  1.00  0.00     0.000 C 
BRANCH  19  20
ATOM     20  C   UNL     1     -13.515   2.618  -9.368  1.00  0.00     0.006 C 
BRANCH  20  21
ATOM     21  C   UNL     1     -12.389   3.642  -9.521  1.00  0.00     0.053 C 
BRANCH  21  22
ATOM     22  C   UNL     1     -11.787   3.972  -8.191  1.00  0.00     0.041 C 
ATOM     23  O   UNL     1     -10.566   3.745  -7.975  1.00  0.00    -0.550 OA
ATOM     24  O   UNL     1     -12.573   4.529  -7.187  1.00  0.00    -0.550 OA
ENDBRANCH  21  22
ENDBRANCH  20  21
ENDBRANCH  19  20
ENDBRANCH  18  19
ENDBRANCH  17  18
ENDBRANCH  16  17
ENDBRANCH  15  16
ENDBRANCH  14  15
ENDBRANCH  13  14
ENDBRANCH   1  13
TORSDOF 20
ENDMDL
MODEL 6
REMARK VINA RESULT:    -5.073      1.203      3.796
REMARK INTER + INTRA:         -13.890
REMARK INTER:                 -11.249
REMARK INTRA:                  -2.641
REMARK UNBOUND:                -2.886
REMARK SMILES CCCCCCCCCCCCCCCCCCCCCC(=O)[O-]
REMARK SMILES IDX 12 1 11 2 10 3 9 4 8 5 7 6 6 7 5 8 4 9 3 10 2 11 1 12 13 13
REMARK SMILES IDX 14 14 15 15 16 16 17 17 18 18 19 19 20 20 21 21 22 22 23 23
REMARK SMILES IDX 24 24
REMARK H PARENT
REMARK Flexibility Score: inf
ROOT
ATOM      1  C   UNL     1     -13.162  -6.238  -9.630  1.00  0.00     0.000 C 
ENDROOT
BRANCH   1   2
ATOM      2  C   UNL     1     -12.690  -7.542  -8.952  1.00  0.00     0.000 C 
BRANCH   2   3
ATOM      3  C   UNL     1     -13.594  -7.949  -7.773  1.00  0.00     0.000 C 
BRANCH   3   4
ATOM      4  C   UNL     1     -12.849  -7.969  -6.426  1.00  0.00    -0.000 C 
BRANCH   4   5
ATOM      5  C   UNL     1     -12.957  -6.669  -5.607  1.00  0.00    -0.000 C 
BRANCH   5   6
ATOM      6  C   UNL     1     -11.605  -5.971  -5.407  1.00  0.00    -0.000 C 
BRANCH   6   7
ATOM      7  C   UNL     1     -10.509  -6.647  -6.250  1.00  0.00    -0.000 C 
BRANCH   7   8
ATOM      8  C   UNL     1      -9.627  -5.631  -6.998  1.00  0.00    -0.000 C 
BRANCH   8   9
ATOM      9  C   UNL     1     -10.446  -4.566  -7.744  1.00  0.00    -0.000 C 
BRANCH   9  10
ATOM     10  C   UNL     1     -10.090  -4.555  -9.241  1.00  0.00    -0.000 C 
BRANCH  10  11
ATOM     11  C   UNL     1      -9.565  -3.191  -9.720  1.00  0.00    -0.003 C 
ATOM     12  C   UNL     1     -10.209  -2.013  -8.985  1.00  0.00     0.004 C 
ENDBRANCH  10  11
ENDBRANCH   9  10
ENDBRANCH   8   9
ENDBRANCH   7   8
ENDBRANCH   6   7
ENDBRANCH   5   6
ENDBRANCH   4   5
ENDBRANCH   3   4
ENDBRANCH   2   3
ENDBRANCH   1   2
BRANCH   1  13
ATOM     13  C   UNL     1     -14.227  -5.466  -8.826  1.00  0.00     0.000 C 
BRANCH  13  14
ATOM     14  C   UNL     1     -14.687  -4.137  -9.453  1.00  0.00     0.000 C 
BRANCH  14  15
ATOM     15  C   UNL     1     -13.551  -3.261 -10.020  1.00  0.00     0.000 C 
BRANCH  15  16
ATOM     16  C   UNL     1     -14.071  -2.151 -10.946  1.00  0.00     0.000 C 
BRANCH  16  17
ATOM     17  C   UNL     1     -13.061  -1.003 -11.125  1.00  0.00     0.000 C 
BRANCH  17  18
ATOM     18  C   UNL     1     -13.079   0.013  -9.962  1.00  0.00     0.000 C 
BRANCH  18  19
ATOM     19  C   UNL     1     -14.236   1.015 -10.089  1.00  0.00     0.000 C 
BRANCH  19  20
ATOM     20  C   UNL     1     -13.900   2.337  -9.382  1.00  0.00     0.006 C 
BRANCH  20  21
ATOM     21  C   UNL     1     -12.389   2.493  -9.193  1.00  0.00     0.053 C 
BRANCH  21  22
ATOM     22  C   UNL     1     -12.062   3.837  -8.620  1.00  0.00     0.041 C 
ATOM     23  O   UNL     1     -12.979   4.676  -8.412  1.00  0.00    -0.550 OA
ATOM     24  O   UNL     1     -10.745   4.165  -8.318  1.00  0.00    -0.550 OA
ENDBRANCH  21  22
ENDBRANCH  20  21
ENDBRANCH  19  20
ENDBRANCH  18  19
ENDBRANCH  17  18
ENDBRANCH  16  17
ENDBRANCH  15  16
ENDBRANCH  14  15
ENDBRANCH  13  14
ENDBRANCH   1  13
TORSDOF 20
ENDMDL
MODEL 7
REMARK VINA RESULT:    -5.029      1.185      2.542
REMARK INTER + INTRA:         -13.795
REMARK INTER:                 -11.404
REMARK INTRA:                  -2.391
REMARK UNBOUND:                -2.886
REMARK SMILES CCCCCCCCCCCCCCCCCCCCCC(=O)[O-]
REMARK SMILES IDX 12 1 11 2 10 3 9 4 8 5 7 6 6 7 5 8 4 9 3 10 2 11 1 12 13 13
REMARK SMILES IDX 14 14 15 15 16 16 17 17 18 18 19 19 20 20 21 21 22 22 23 23
REMARK SMILES IDX 24 24
REMARK H PARENT
REMARK Flexibility Score: inf
ROOT
ATOM      1  C   UNL     1      -9.868  -4.099  -6.977  1.00  0.00     0.000 C 
ENDROOT
BRANCH   1   2
ATOM      2  C   UNL     1      -9.803  -5.503  -7.617  1.00  0.00     0.000 C 
BRANCH   2   3
ATOM      3  C   UNL     1      -9.856  -6.628  -6.565  1.00  0.00     0.000 C 
BRANCH   3   4
ATOM      4  C   UNL     1     -10.738  -7.812  -7.001  1.00  0.00    -0.000 C 
BRANCH   4   5
ATOM      5  C   UNL     1     -11.976  -8.057  -6.119  1.00  0.00    -0.000 C 
BRANCH   5   6
ATOM      6  C   UNL     1     -12.536  -6.769  -5.499  1.00  0.00    -0.000 C 
BRANCH   6   7
ATOM      7  C   UNL     1     -14.029  -6.603  -5.836  1.00  0.00    -0.000 C 
BRANCH   7   8
ATOM      8  C   UNL     1     -14.417  -7.287  -7.159  1.00  0.00    -0.000 C 
BRANCH   8   9
ATOM      9  C   UNL     1     -14.709  -6.284  -8.285  1.00  0.00    -0.000 C 
BRANCH   9  10
ATOM     10  C   UNL     1     -13.399  -5.752  -8.893  1.00  0.00    -0.000 C 
BRANCH  10  11
ATOM     11  C   UNL     1     -13.556  -4.358  -9.523  1.00  0.00    -0.003 C 
ATOM     12  C   UNL     1     -14.970  -3.792  -9.374  1.00  0.00     0.004 C 
ENDBRANCH  10  11
ENDBRANCH   9  10
ENDBRANCH   8   9
ENDBRANCH   7   8
ENDBRANCH   6   7
ENDBRANCH   5   6
ENDBRANCH   4   5
ENDBRANCH   3   4
ENDBRANCH   2   3
ENDBRANCH   1   2
BRANCH   1  13
ATOM     13  C   UNL     1      -9.588  -2.950  -7.965  1.00  0.00     0.000 C 
BRANCH  13  14
ATOM     14  C   UNL     1      -9.975  -3.234  -9.429  1.00  0.00     0.000 C 
BRANCH  14  15
ATOM     15  C   UNL     1     -10.969  -2.227 -10.043  1.00  0.00     0.000 C 
BRANCH  15  16
ATOM     16  C   UNL     1     -10.631  -0.773  -9.681  1.00  0.00     0.000 C 
BRANCH  16  17
ATOM     17  C   UNL     1     -11.771   0.204 -10.021  1.00  0.00     0.000 C 
BRANCH  17  18
ATOM     18  C   UNL     1     -13.121  -0.498 -10.287  1.00  0.00     0.000 C 
BRANCH  18  19
ATOM     19  C   UNL     1     -14.315   0.359  -9.841  1.00  0.00     0.000 C 
BRANCH  19  20
ATOM     20  C   UNL     1     -13.998   1.856  -9.975  1.00  0.00     0.006 C 
BRANCH  20  21
ATOM     21  C   UNL     1     -14.175   2.579  -8.638  1.00  0.00     0.053 C 
BRANCH  21  22
ATOM     22  C   UNL     1     -13.130   3.637  -8.463  1.00  0.00     0.041 C 
ATOM     23  O   UNL     1     -13.178   4.416  -7.473  1.00  0.00    -0.550 OA
ATOM     24  O   UNL     1     -12.104   3.765  -9.393  1.00  0.00    -0.550 OA
ENDBRANCH  21  22
ENDBRANCH  20  21
ENDBRANCH  19  20
ENDBRANCH  18  19
ENDBRANCH  17  18
ENDBRANCH  16  17
ENDBRANCH  15  16
ENDBRANCH  14  15
ENDBRANCH  13  14
ENDBRANCH   1  13
TORSDOF 20
ENDMDL
MODEL 8
REMARK VINA RESULT:    -4.795      2.365      7.283
REMARK INTER + INTRA:         -13.287
REMARK INTER:                 -10.948
REMARK INTRA:                  -2.339
REMARK UNBOUND:                -2.886
REMARK SMILES CCCCCCCCCCCCCCCCCCCCCC(=O)[O-]
REMARK SMILES IDX 12 1 11 2 10 3 9 4 8 5 7 6 6 7 5 8 4 9 3 10 2 11 1 12 13 13
REMARK SMILES IDX 14 14 15 15 16 16 17 17 18 18 19 19 20 20 21 21 22 22 23 23
REMARK SMILES IDX 24 24
REMARK H PARENT
REMARK Flexibility Score: inf
ROOT
ATOM      1  C   UNL     1     -11.778  -5.610  -9.511  1.00  0.00     0.000 C 
ENDROOT
BRANCH   1   2
ATOM      2  C   UNL     1     -12.801  -4.486  -9.235  1.00  0.00     0.000 C 
BRANCH   2   3
ATOM      3  C   UNL     1     -14.213  -4.844  -9.736  1.00  0.00     0.000 C 
BRANCH   3   4
ATOM      4  C   UNL     1     -14.920  -3.664 -10.424  1.00  0.00    -0.000 C 
BRANCH   4   5
ATOM      5  C   UNL     1     -14.538  -2.274  -9.883  1.00  0.00    -0.000 C 
BRANCH   5   6
ATOM      6  C   UNL     1     -13.805  -1.408 -10.917  1.00  0.00    -0.000 C 
BRANCH   6   7
ATOM      7  C   UNL     1     -12.296  -1.358 -10.619  1.00  0.00    -0.000 C 
BRANCH   7   8
ATOM      8  C   UNL     1     -11.741   0.077 -10.612  1.00  0.00    -0.000 C 
BRANCH   8   9
ATOM      9  C   UNL     1     -12.014   0.816  -9.293  1.00  0.00    -0.000 C 
BRANCH   9  10
ATOM     10  C   UNL     1     -12.862   2.076  -9.539  1.00  0.00    -0.000 C 
BRANCH  10  11
ATOM     11  C   UNL     1     -12.088   3.378  -9.273  1.00  0.00    -0.003 C 
ATOM     12  C   UNL     1     -12.862   4.361  -8.392  1.00  0.00     0.004 C 
ENDBRANCH  10  11
ENDBRANCH   9  10
ENDBRANCH   8   9
ENDBRANCH   7   8
ENDBRANCH   6   7
ENDBRANCH   5   6
ENDBRANCH   4   5
ENDBRANCH   3   4
ENDBRANCH   2   3
ENDBRANCH   1   2
BRANCH   1  13
ATOM     13  C   UNL     1     -12.416  -6.998  -9.712  1.00  0.00     0.000 C 
BRANCH  13  14
ATOM     14  C   UNL     1     -12.201  -7.994  -8.556  1.00  0.00     0.000 C 
BRANCH  14  15
ATOM     15  C   UNL     1     -13.338  -8.031  -7.515  1.00  0.00     0.000 C 
BRANCH  15  16
ATOM     16  C   UNL     1     -13.306  -6.822  -6.567  1.00  0.00     0.000 C 
BRANCH  16  17
ATOM     17  C   UNL     1     -12.345  -7.022  -5.381  1.00  0.00     0.000 C 
BRANCH  17  18
ATOM     18  C   UNL     1     -11.338  -5.864  -5.207  1.00  0.00     0.000 C 
BRANCH  18  19
ATOM     19  C   UNL     1     -10.426  -5.703  -6.433  1.00  0.00     0.000 C 
BRANCH  19  20
ATOM     20  C   UNL     1      -9.949  -4.250  -6.577  1.00  0.00     0.006 C 
BRANCH  20  21
ATOM     21  C   UNL     1      -8.944  -4.110  -7.722  1.00  0.00     0.053 C 
BRANCH  21  22
ATOM     22  C   UNL     1      -9.344  -3.005  -8.648  1.00  0.00     0.041 C 
ATOM     23  O   UNL     1      -9.178  -3.130  -9.892  1.00  0.00    -0.550 OA
ATOM     24  O   UNL     1      -9.900  -1.835  -8.141  1.00  0.00    -0.550 OA
ENDBRANCH  21  22
ENDBRANCH  20  21
ENDBRANCH  19  20
ENDBRANCH  18  19
ENDBRANCH  17  18
ENDBRANCH  16  17
ENDBRANCH  15  16
ENDBRANCH  14  15
ENDBRANCH  13  14
ENDBRANCH   1  13
TORSDOF 20
ENDMDL
MODEL 9
REMARK VINA RESULT:    -4.515     15.469     18.499
REMARK INTER + INTRA:         -12.680
REMARK INTER:                 -10.262
REMARK INTRA:                  -2.418
REMARK UNBOUND:                -2.886
REMARK SMILES CCCCCCCCCCCCCCCCCCCCCC(=O)[O-]
REMARK SMILES IDX 12 1 11 2 10 3 9 4 8 5 7 6 6 7 5 8 4 9 3 10 2 11 1 12 13 13
REMARK SMILES IDX 14 14 15 15 16 16 17 17 18 18 19 19 20 20 21 21 22 22 23 23
REMARK SMILES IDX 24 24
REMARK H PARENT
REMARK Flexibility Score: inf
ROOT
ATOM      1  C   UNL     1     -11.593   3.843   6.531  1.00  0.00     0.000 C 
ENDROOT
BRANCH   1   2
ATOM      2  C   UNL     1     -10.727   4.184   7.765  1.00  0.00     0.000 C 
BRANCH   2   3
ATOM      3  C   UNL     1     -10.895   5.649   8.210  1.00  0.00     0.000 C 
BRANCH   3   4
ATOM      4  C   UNL     1      -9.644   6.504   7.940  1.00  0.00    -0.000 C 
BRANCH   4   5
ATOM      5  C   UNL     1      -8.922   6.196   6.616  1.00  0.00    -0.000 C 
BRANCH   5   6
ATOM      6  C   UNL     1      -9.243   7.208   5.507  1.00  0.00    -0.000 C 
BRANCH   6   7
ATOM      7  C   UNL     1      -9.849   8.493   6.097  1.00  0.00    -0.000 C 
BRANCH   7   8
ATOM      8  C   UNL     1      -9.130   9.764   5.612  1.00  0.00    -0.000 C 
BRANCH   8   9
ATOM      9  C   UNL     1      -7.829   9.459   4.852  1.00  0.00    -0.000 C 
BRANCH   9  10
ATOM     10  C   UNL     1      -6.750  10.507   5.177  1.00  0.00    -0.000 C 
BRANCH  10  11
ATOM     11  C   UNL     1      -5.936  10.156   6.433  1.00  0.00    -0.003 C 
ATOM     12  C   UNL     1      -4.734  11.079   6.642  1.00  0.00     0.004 C 
ENDBRANCH  10  11
ENDBRANCH   9  10
ENDBRANCH   8   9
ENDBRANCH   7   8
ENDBRANCH   6   7
ENDBRANCH   5   6
ENDBRANCH   4   5
ENDBRANCH   3   4
ENDBRANCH   2   3
ENDBRANCH   1   2
BRANCH   1  13
ATOM     13  C   UNL     1     -12.563   4.968   6.120  1.00  0.00     0.000 C 
BRANCH  13  14
ATOM     14  C   UNL     1     -12.258   5.635   4.765  1.00  0.00     0.000 C 
BRANCH  14  15
ATOM     15  C   UNL     1     -13.291   5.349   3.656  1.00  0.00     0.000 C 
BRANCH  15  16
ATOM     16  C   UNL     1     -14.097   6.597   3.268  1.00  0.00     0.000 C 
BRANCH  16  17
ATOM     17  C   UNL     1     -14.808   7.244   4.471  1.00  0.00     0.000 C 
BRANCH  17  18
ATOM     18  C   UNL     1     -14.616   8.775   4.544  1.00  0.00     0.000 C 
BRANCH  18  19
ATOM     19  C   UNL     1     -13.286   9.159   5.209  1.00  0.00     0.000 C 
BRANCH  19  20
ATOM     20  C   UNL     1     -12.921  10.620   4.907  1.00  0.00     0.006 C 
BRANCH  20  21
ATOM     21  C   UNL     1     -13.606  11.107   3.628  1.00  0.00     0.053 C 
BRANCH  21  22
ATOM     22  C   UNL     1     -12.613  11.730   2.698  1.00  0.00     0.041 C 
ATOM     23  O   UNL     1     -12.903  11.898   1.483  1.00  0.00    -0.550 OA
ATOM     24  O   UNL     1     -11.365  12.124   3.171  1.00  0.00    -0.550 OA
ENDBRANCH  21  22
ENDBRANCH  20  21
ENDBRANCH  19  20
ENDBRANCH  18  19
ENDBRANCH  17  18
ENDBRANCH  16  17
ENDBRANCH  15  16
ENDBRANCH  14  15
ENDBRANCH  13  14
ENDBRANCH   1  13
TORSDOF 20
ENDMDL
