MODEL 1
REMARK VINA RESULT:    -3.293      0.000      0.000
REMARK INTER + INTRA:          -3.685
REMARK INTER:                  -3.678
REMARK INTRA:                  -0.008
REMARK UNBOUND:                -0.008
REMARK SMILES CCCC(=O)[O-]
REMARK SMILES IDX 3 1 4 2 5 3 6 4 2 5 1 6
REMARK H PARENT
REMARK Flexibility Score: inf
ROOT
ATOM      1  C   UNL     1      -8.757  14.627 -13.656  1.00  0.00     0.052 C 
ENDROOT
BRANCH   1   2
ATOM      2  C   UNL     1      -7.982  15.085 -12.458  1.00  0.00     0.041 C 
ATOM      3  O   UNL     1      -7.559  16.269 -12.390  1.00  0.00    -0.550 OA
ATOM      4  O   UNL     1      -7.700  14.193 -11.431  1.00  0.00    -0.550 OA
ENDBRANCH   1   2
BRANCH   1   5
ATOM      5  C   UNL     1      -8.244  13.281 -14.182  1.00  0.00     0.003 C 
ATOM      6  C   UNL     1      -9.166  12.680 -15.242  1.00  0.00     0.004 C 
ENDBRANCH   1   5
TORSDOF 2
ENDMDL
MODEL 2
REMARK VINA RESULT:    -3.257      0.126      1.324
REMARK INTER + INTRA:          -3.645
REMARK INTER:                  -3.636
REMARK INTRA:                  -0.010
REMARK UNBOUND:                -0.008
REMARK SMILES CCCC(=O)[O-]
REMARK SMILES IDX 3 1 4 2 5 3 6 4 2 5 1 6
REMARK H PARENT
REMARK Flexibility Score: inf
ROOT
ATOM      1  C   UNL     1      -8.745  14.558 -13.670  1.00  0.00     0.052 C 
ENDROOT
BRANCH   1   2
ATOM      2  C   UNL     1      -7.954  14.959 -12.463  1.00  0.00     0.041 C 
ATOM      3  O   UNL     1      -7.668  14.108 -11.580  1.00  0.00    -0.550 OA
ATOM      4  O   UNL     1      -7.559  16.280 -12.299  1.00  0.00    -0.550 OA
ENDBRANCH   1   2
BRANCH   1   5
ATOM      5  C   UNL     1      -8.339  13.169 -14.178  1.00  0.00     0.003 C 
ATOM      6  C   UNL     1      -9.270  12.655 -15.276  1.00  0.00     0.004 C 
ENDBRANCH   1   5
TORSDOF 2
ENDMDL
MODEL 3
REMARK VINA RESULT:    -3.080      1.192      1.369
REMARK INTER + INTRA:          -3.448
REMARK INTER:                  -3.436
REMARK INTRA:                  -0.012
REMARK UNBOUND:                -0.008
REMARK SMILES CCCC(=O)[O-]
REMARK SMILES IDX 3 1 4 2 5 3 6 4 2 5 1 6
REMARK H PARENT
REMARK Flexibility Score: inf
ROOT
ATOM      1  C   UNL     1      -8.466  15.090 -14.311  1.00  0.00     0.052 C 
ENDROOT
BRANCH   1   2
ATOM      2  C   UNL     1      -8.793  15.768 -13.015  1.00  0.00     0.041 C 
ATOM      3  O   UNL     1      -9.927  16.287 -12.839  1.00  0.00    -0.550 OA
ATOM      4  O   UNL     1      -7.834  15.853 -12.015  1.00  0.00    -0.550 OA
ENDBRANCH   1   2
BRANCH   1   5
ATOM      5  C   UNL     1      -8.420  13.564 -14.156  1.00  0.00     0.003 C 
ATOM      6  C   UNL     1      -9.300  12.848 -15.181  1.00  0.00     0.004 C 
ENDBRANCH   1   5
TORSDOF 2
ENDMDL
MODEL 4
REMARK VINA RESULT:    -2.953      1.622      2.714
REMARK INTER + INTRA:          -3.306
REMARK INTER:                  -3.270
REMARK INTRA:                  -0.036
REMARK UNBOUND:                -0.008
REMARK SMILES CCCC(=O)[O-]
REMARK SMILES IDX 3 1 4 2 5 3 6 4 2 5 1 6
REMARK H PARENT
REMARK Flexibility Score: inf
ROOT
ATOM      1  C   UNL     1      -8.621  14.676 -13.641  1.00  0.00     0.052 C 
ENDROOT
BRANCH   1   2
ATOM      2  C   UNL     1      -7.615  14.038 -12.732  1.00  0.00     0.041 C 
ATOM      3  O   UNL     1      -6.712  13.297 -13.204  1.00  0.00    -0.550 OA
ATOM      4  O   UNL     1      -7.696  14.235 -11.359  1.00  0.00    -0.550 OA
ENDBRANCH   1   2
BRANCH   1   5
ATOM      5  C   UNL     1      -8.496  16.205 -13.639  1.00  0.00     0.003 C 
ATOM      6  C   UNL     1      -9.584  16.877 -12.802  1.00  0.00     0.004 C 
ENDBRANCH   1   5
TORSDOF 2
ENDMDL
MODEL 5
REMARK VINA RESULT:    -2.874      2.871      4.072
REMARK INTER + INTRA:          -3.218
REMARK INTER:                  -3.207
REMARK INTRA:                  -0.011
REMARK UNBOUND:                -0.008
REMARK SMILES CCCC(=O)[O-]
REMARK SMILES IDX 3 1 4 2 5 3 6 4 2 5 1 6
REMARK H PARENT
REMARK Flexibility Score: inf
ROOT
ATOM      1  C   UNL     1      -9.148  17.521 -12.667  1.00  0.00     0.052 C 
ENDROOT
BRANCH   1   2
ATOM      2  C   UNL     1      -8.681  16.097 -12.640  1.00  0.00     0.041 C 
ATOM      3  O   UNL     1      -7.749  15.750 -11.869  1.00  0.00    -0.550 OA
ATOM      4  O   UNL     1      -9.256  15.162 -13.491  1.00  0.00    -0.550 OA
ENDBRANCH   1   2
BRANCH   1   5
ATOM      5  C   UNL     1      -8.450  18.325 -13.771  1.00  0.00     0.003 C 
ATOM      6  C   UNL     1      -8.043  19.723 -13.305  1.00  0.00     0.004 C 
ENDBRANCH   1   5
TORSDOF 2
ENDMDL
MODEL 6
REMARK VINA RESULT:    -2.798      2.496      3.023
REMARK INTER + INTRA:          -3.133
REMARK INTER:                  -3.092
REMARK INTRA:                  -0.041
REMARK UNBOUND:                -0.008
REMARK SMILES CCCC(=O)[O-]
REMARK SMILES IDX 3 1 4 2 5 3 6 4 2 5 1 6
REMARK H PARENT
REMARK Flexibility Score: inf
ROOT
ATOM      1  C   UNL     1      -9.380  16.223 -12.583  1.00  0.00     0.052 C 
ENDROOT
BRANCH   1   2
ATOM      2  C   UNL     1      -8.882  17.287 -13.512  1.00  0.00     0.041 C 
ATOM      3  O   UNL     1      -8.400  18.356 -13.052  1.00  0.00    -0.550 OA
ATOM      4  O   UNL     1      -8.979  17.112 -14.886  1.00  0.00    -0.550 OA
ENDBRANCH   1   2
BRANCH   1   5
ATOM      5  C   UNL     1      -8.250  15.288 -12.134  1.00  0.00     0.003 C 
ATOM      6  C   UNL     1      -7.928  14.220 -13.179  1.00  0.00     0.004 C 
ENDBRANCH   1   5
TORSDOF 2
ENDMDL
MODEL 7
REMARK VINA RESULT:    -2.775     19.741     20.838
REMARK INTER + INTRA:          -3.107
REMARK INTER:                  -3.088
REMARK INTRA:                  -0.019
REMARK UNBOUND:                -0.008
REMARK SMILES CCCC(=O)[O-]
REMARK SMILES IDX 3 1 4 2 5 3 6 4 2 5 1 6
REMARK H PARENT
REMARK Flexibility Score: inf
ROOT
ATOM      1  C   UNL     1     -25.729   2.844 -15.810  1.00  0.00     0.052 C 
ENDROOT
BRANCH   1   2
ATOM      2  C   UNL     1     -25.198   1.637 -15.099  1.00  0.00     0.041 C 
ATOM      3  O   UNL     1     -25.843   1.129 -14.143  1.00  0.00    -0.550 OA
ATOM      4  O   UNL     1     -23.976   1.093 -15.471  1.00  0.00    -0.550 OA
ENDBRANCH   1   2
BRANCH   1   5
ATOM      5  C   UNL     1     -25.481   4.128 -15.010  1.00  0.00     0.003 C 
ATOM      6  C   UNL     1     -23.993   4.405 -14.800  1.00  0.00     0.004 C 
ENDBRANCH   1   5
TORSDOF 2
ENDMDL
MODEL 8
REMARK VINA RESULT:    -2.736      2.436      3.529
REMARK INTER + INTRA:          -3.064
REMARK INTER:                  -3.013
REMARK INTRA:                  -0.051
REMARK UNBOUND:                -0.008
REMARK SMILES CCCC(=O)[O-]
REMARK SMILES IDX 3 1 4 2 5 3 6 4 2 5 1 6
REMARK H PARENT
REMARK Flexibility Score: inf
ROOT
ATOM      1  C   UNL     1      -7.745  14.946 -13.636  1.00  0.00     0.052 C 
ENDROOT
BRANCH   1   2
ATOM      2  C   UNL     1      -8.752  14.633 -14.700  1.00  0.00     0.041 C 
ATOM      3  O   UNL     1      -9.444  13.583 -14.632  1.00  0.00    -0.550 OA
ATOM      4  O   UNL     1      -8.903  15.487 -15.785  1.00  0.00    -0.550 OA
ENDBRANCH   1   2
BRANCH   1   5
ATOM      5  C   UNL     1      -8.420  15.369 -12.325  1.00  0.00     0.003 C 
ATOM      6  C   UNL     1      -9.426  16.503 -12.528  1.00  0.00     0.004 C 
ENDBRANCH   1   5
TORSDOF 2
ENDMDL
MODEL 9
REMARK VINA RESULT:    -2.687      2.843      3.929
REMARK INTER + INTRA:          -3.009
REMARK INTER:                  -2.936
REMARK INTRA:                  -0.072
REMARK UNBOUND:                -0.008
REMARK SMILES CCCC(=O)[O-]
REMARK SMILES IDX 3 1 4 2 5 3 6 4 2 5 1 6
REMARK H PARENT
REMARK Flexibility Score: inf
ROOT
ATOM      1  C   UNL     1      -8.488  16.971 -14.394  1.00  0.00     0.052 C 
ENDROOT
BRANCH   1   2
ATOM      2  C   UNL     1      -8.879  16.436 -13.050  1.00  0.00     0.041 C 
ATOM      3  O   UNL     1     -10.094  16.352 -12.729  1.00  0.00    -0.550 OA
ATOM      4  O   UNL     1      -7.900  16.060 -12.140  1.00  0.00    -0.550 OA
ENDBRANCH   1   2
BRANCH   1   5
ATOM      5  C   UNL     1      -7.587  18.206 -14.271  1.00  0.00     0.003 C 
ATOM      6  C   UNL     1      -8.273  19.355 -13.532  1.00  0.00     0.004 C 
ENDBRANCH   1   5
TORSDOF 2
ENDMDL
