MODEL 1
REMARK VINA RESULT:    -5.251      0.000      0.000
REMARK INTER + INTRA:          -8.026
REMARK INTER:                  -8.014
REMARK INTRA:                  -0.012
REMARK UNBOUND:                -0.012
REMARK SMILES CC1=CCC[C@H](C)C(=O)C[C@@H](C(C)C)C(=O)C1
REMARK SMILES IDX 8 1 9 2 6 3 7 4 5 5 4 6 3 7 2 8 1 9 10 11 11 12 15 13 16 14
REMARK SMILES IDX 17 15 12 17 13 18 14 19
REMARK H PARENT
REMARK Flexibility Score: 70.00
ROOT
ATOM      1  C   UNL     1      -4.202 -10.673  29.951  1.00  0.00     0.136 C 
ATOM      2  O   UNL     1      -3.763  -9.876  29.134  1.00  0.00    -0.299 OA
ENDROOT
BRANCH   1   3
ATOM      3  C   UNL     1      -3.761 -10.604  31.405  1.00  0.00     0.053 C 
ATOM      4  C   UNL     1      -4.853 -11.051  32.390  1.00  0.00     0.016 C 
BRANCH   3   5
ATOM      5  C   UNL     1      -2.412 -11.319  31.666  1.00  0.00     0.015 C 
BRANCH   5   6
ATOM      6  C   UNL     1      -1.314 -11.216  30.581  1.00  0.00     0.028 C 
BRANCH   6   7
ATOM      7  C   UNL     1      -0.735 -12.510  30.059  1.00  0.00    -0.028 C 
ATOM      8  C   UNL     1      -1.061 -13.125  28.899  1.00  0.00    -0.070 CG0
ATOM      9  C   UNL     1      -0.194 -14.284  28.467  1.00  0.00     0.039 C 
ATOM     10  G   UNL     1      -2.194 -12.668  27.998  1.00  0.00     0.000 G0
ENDBRANCH   6   7
ENDBRANCH   5   6
ENDBRANCH   3   5
ENDBRANCH   1   3
BRANCH   1  11
ATOM     11  C   UNL     1      -5.090 -11.805  29.482  1.00  0.00     0.087 C 
BRANCH  11  12
ATOM     12  C   UNL     1      -4.397 -13.197  29.437  1.00  0.00     0.066 C 
BRANCH  12  13
ATOM     13  C   UNL     1      -3.474 -13.439  28.241  1.00  0.00     0.140 C 
ATOM     14  O   UNL     1      -3.793 -14.315  27.448  1.00  0.00    -0.299 OA
BRANCH  13  15
ATOM     15  C   UNL     1      -2.187 -12.687  27.973  1.00  0.00     0.106 CG0
ATOM     16  G   UNL     1      -1.079 -13.138  28.909  1.00  0.00     0.000 G0
ENDBRANCH  13  15
ENDBRANCH  12  13
BRANCH  12  17
ATOM     17  C   UNL     1      -5.419 -14.373  29.559  1.00  0.00    -0.006 C 
ATOM     18  C   UNL     1      -6.699 -14.153  28.736  1.00  0.00     0.008 C 
ATOM     19  C   UNL     1      -5.773 -14.703  31.019  1.00  0.00     0.008 C 
ENDBRANCH  12  17
ENDBRANCH  11  12
ENDBRANCH   1  11
TORSDOF 1
ENDMDL
MODEL 2
REMARK VINA RESULT:    -5.048      1.805      3.855
REMARK INTER + INTRA:          -7.715
REMARK INTER:                  -7.836
REMARK INTRA:                   0.121
REMARK UNBOUND:                -0.012
REMARK SMILES CC1=CCC[C@H](C)C(=O)C[C@@H](C(C)C)C(=O)C1
REMARK SMILES IDX 8 1 9 2 6 3 7 4 5 5 4 6 3 7 2 8 1 9 10 11 11 12 15 13 16 14
REMARK SMILES IDX 17 15 12 17 13 18 14 19
REMARK H PARENT
REMARK Flexibility Score: 70.00
ROOT
ATOM      1  C   UNL     1      -5.361 -14.156  30.652  1.00  0.00     0.136 C 
ATOM      2  O   UNL     1      -6.324 -14.758  31.108  1.00  0.00    -0.299 OA
ENDROOT
BRANCH   1   3
ATOM      3  C   UNL     1      -5.212 -13.975  29.149  1.00  0.00     0.053 C 
ATOM      4  C   UNL     1      -6.237 -14.783  28.338  1.00  0.00     0.016 C 
BRANCH   3   5
ATOM      5  C   UNL     1      -5.169 -12.488  28.717  1.00  0.00     0.015 C 
BRANCH   5   6
ATOM      6  C   UNL     1      -4.000 -12.030  27.813  1.00  0.00     0.028 C 
BRANCH   6   7
ATOM      7  C   UNL     1      -2.722 -12.835  27.874  1.00  0.00    -0.028 C 
ATOM      8  C   UNL     1      -1.729 -12.698  28.781  1.00  0.00    -0.070 CG0
ATOM      9  C   UNL     1      -0.653 -13.758  28.792  1.00  0.00     0.039 C 
ATOM     10  G   UNL     1      -1.686 -11.585  29.815  1.00  0.00     0.000 G0
ENDBRANCH   6   7
ENDBRANCH   5   6
ENDBRANCH   3   5
ENDBRANCH   1   3
BRANCH   1  11
ATOM     11  C   UNL     1      -4.258 -13.701  31.582  1.00  0.00     0.087 C 
BRANCH  11  12
ATOM     12  C   UNL     1      -3.804 -12.228  31.379  1.00  0.00     0.066 C 
BRANCH  12  13
ATOM     13  C   UNL     1      -2.308 -12.024  31.135  1.00  0.00     0.140 C 
ATOM     14  O   UNL     1      -1.549 -12.213  32.077  1.00  0.00    -0.299 OA
BRANCH  13  15
ATOM     15  C   UNL     1      -1.695 -11.588  29.819  1.00  0.00     0.106 CG0
ATOM     16  G   UNL     1      -1.729 -12.709  28.796  1.00  0.00     0.000 G0
ENDBRANCH  13  15
ENDBRANCH  12  13
BRANCH  12  17
ATOM     17  C   UNL     1      -4.280 -11.294  32.538  1.00  0.00    -0.006 C 
ATOM     18  C   UNL     1      -5.278 -11.972  33.492  1.00  0.00     0.008 C 
ATOM     19  C   UNL     1      -4.851  -9.960  32.029  1.00  0.00     0.008 C 
ENDBRANCH  12  17
ENDBRANCH  11  12
ENDBRANCH   1  11
TORSDOF 1
ENDMDL
MODEL 3
REMARK VINA RESULT:    -4.934      1.572      2.055
REMARK INTER + INTRA:          -7.543
REMARK INTER:                  -7.758
REMARK INTRA:                   0.215
REMARK UNBOUND:                -0.012
REMARK SMILES CC1=CCC[C@H](C)C(=O)C[C@@H](C(C)C)C(=O)C1
REMARK SMILES IDX 8 1 9 2 6 3 7 4 5 5 4 6 3 7 2 8 1 9 10 11 11 12 15 13 16 14
REMARK SMILES IDX 17 15 12 17 13 18 14 19
REMARK H PARENT
REMARK Flexibility Score: 70.00
ROOT
ATOM      1  C   UNL     1      -4.158 -13.209  31.620  1.00  0.00     0.136 C 
ATOM      2  O   UNL     1      -3.549 -14.073  32.237  1.00  0.00    -0.299 OA
ENDROOT
BRANCH   1   3
ATOM      3  C   UNL     1      -3.981 -11.742  31.979  1.00  0.00     0.053 C 
ATOM      4  C   UNL     1      -4.862 -11.298  33.158  1.00  0.00     0.016 C 
BRANCH   3   5
ATOM      5  C   UNL     1      -2.499 -11.337  32.174  1.00  0.00     0.015 C 
BRANCH   5   6
ATOM      6  C   UNL     1      -1.615 -11.193  30.913  1.00  0.00     0.028 C 
BRANCH   6   7
ATOM      7  C   UNL     1      -1.207 -12.465  30.205  1.00  0.00    -0.028 C 
ATOM      8  C   UNL     1      -1.586 -12.852  28.966  1.00  0.00    -0.070 CG0
ATOM      9  C   UNL     1      -0.878 -14.045  28.369  1.00  0.00     0.039 C 
ATOM     10  G   UNL     1      -2.623 -12.112  28.138  1.00  0.00     0.000 G0
ENDBRANCH   6   7
ENDBRANCH   5   6
ENDBRANCH   3   5
ENDBRANCH   1   3
BRANCH   1  11
ATOM     11  C   UNL     1      -5.181 -13.617  30.582  1.00  0.00     0.087 C 
BRANCH  11  12
ATOM     12  C   UNL     1      -4.669 -13.572  29.115  1.00  0.00     0.066 C 
BRANCH  12  13
ATOM     13  C   UNL     1      -4.028 -12.254  28.676  1.00  0.00     0.140 C 
ATOM     14  O   UNL     1      -4.706 -11.239  28.762  1.00  0.00    -0.299 OA
BRANCH  13  15
ATOM     15  C   UNL     1      -2.623 -12.113  28.127  1.00  0.00     0.106 CG0
ATOM     16  G   UNL     1      -1.619 -12.869  28.980  1.00  0.00     0.000 G0
ENDBRANCH  13  15
ENDBRANCH  12  13
BRANCH  12  17
ATOM     17  C   UNL     1      -5.772 -13.988  28.088  1.00  0.00    -0.006 C 
ATOM     18  C   UNL     1      -6.992 -14.654  28.746  1.00  0.00     0.008 C 
ATOM     19  C   UNL     1      -5.227 -14.873  26.956  1.00  0.00     0.008 C 
ENDBRANCH  12  17
ENDBRANCH  11  12
ENDBRANCH   1  11
TORSDOF 1
ENDMDL
MODEL 4
REMARK VINA RESULT:    -4.886      2.152      3.996
REMARK INTER + INTRA:          -7.469
REMARK INTER:                  -7.470
REMARK INTRA:                   0.001
REMARK UNBOUND:                -0.012
REMARK SMILES CC1=CCC[C@H](C)C(=O)C[C@@H](C(C)C)C(=O)C1
REMARK SMILES IDX 8 1 9 2 6 3 7 4 5 5 4 6 3 7 2 8 1 9 10 11 11 12 15 13 16 14
REMARK SMILES IDX 17 15 12 17 13 18 14 19
REMARK H PARENT
REMARK Flexibility Score: 70.00
ROOT
ATOM      1  C   UNL     1      -1.054 -13.280  29.215  1.00  0.00     0.136 C 
ATOM      2  O   UNL     1       0.027 -13.579  28.727  1.00  0.00    -0.299 OA
ENDROOT
BRANCH   1   3
ATOM      3  C   UNL     1      -1.118 -12.502  30.520  1.00  0.00     0.053 C 
ATOM      4  C   UNL     1       0.083 -12.769  31.443  1.00  0.00     0.016 C 
BRANCH   3   5
ATOM      5  C   UNL     1      -1.369 -10.988  30.314  1.00  0.00     0.015 C 
BRANCH   5   6
ATOM      6  C   UNL     1      -2.465 -10.311  31.171  1.00  0.00     0.028 C 
BRANCH   6   7
ATOM      7  C   UNL     1      -3.268 -11.198  32.094  1.00  0.00    -0.028 C 
ATOM      8  C   UNL     1      -4.369 -11.912  31.765  1.00  0.00    -0.070 CG0
ATOM      9  C   UNL     1      -4.874 -12.907  32.783  1.00  0.00     0.039 C 
ATOM     10  G   UNL     1      -5.063 -11.808  30.419  1.00  0.00     0.000 G0
ENDBRANCH   6   7
ENDBRANCH   5   6
ENDBRANCH   3   5
ENDBRANCH   1   3
BRANCH   1  11
ATOM     11  C   UNL     1      -2.326 -13.797  28.580  1.00  0.00     0.087 C 
BRANCH  11  12
ATOM     12  C   UNL     1      -3.465 -12.746  28.459  1.00  0.00     0.066 C 
BRANCH  12  13
ATOM     13  C   UNL     1      -4.612 -12.892  29.460  1.00  0.00     0.140 C 
ATOM     14  O   UNL     1      -5.209 -13.960  29.484  1.00  0.00    -0.299 OA
BRANCH  13  15
ATOM     15  C   UNL     1      -5.076 -11.809  30.412  1.00  0.00     0.106 CG0
ATOM     16  G   UNL     1      -4.368 -11.911  31.752  1.00  0.00     0.000 G0
ENDBRANCH  13  15
ENDBRANCH  12  13
BRANCH  12  17
ATOM     17  C   UNL     1      -4.041 -12.658  27.008  1.00  0.00    -0.006 C 
ATOM     18  C   UNL     1      -4.131 -14.025  26.308  1.00  0.00     0.008 C 
ATOM     19  C   UNL     1      -3.278 -11.656  26.126  1.00  0.00     0.008 C 
ENDBRANCH  12  17
ENDBRANCH  11  12
ENDBRANCH   1  11
TORSDOF 1
ENDMDL
MODEL 5
REMARK VINA RESULT:    -4.832      2.238      4.798
REMARK INTER + INTRA:          -7.387
REMARK INTER:                  -7.807
REMARK INTRA:                   0.420
REMARK UNBOUND:                -0.012
REMARK SMILES CC1=CCC[C@H](C)C(=O)C[C@@H](C(C)C)C(=O)C1
REMARK SMILES IDX 8 1 9 2 6 3 7 4 5 5 4 6 3 7 2 8 1 9 10 11 11 12 15 13 16 14
REMARK SMILES IDX 17 15 12 17 13 18 14 19
REMARK H PARENT
REMARK Flexibility Score: 70.00
ROOT
ATOM      1  C   UNL     1      -3.752 -11.372  28.512  1.00  0.00     0.136 C 
ATOM      2  O   UNL     1      -4.428 -10.482  29.010  1.00  0.00    -0.299 OA
ENDROOT
BRANCH   1   3
ATOM      3  C   UNL     1      -4.305 -12.206  27.367  1.00  0.00     0.053 C 
ATOM      4  C   UNL     1      -3.358 -12.278  26.158  1.00  0.00     0.016 C 
BRANCH   3   5
ATOM      5  C   UNL     1      -4.789 -13.608  27.812  1.00  0.00     0.015 C 
BRANCH   5   6
ATOM      6  C   UNL     1      -6.032 -13.690  28.728  1.00  0.00     0.028 C 
BRANCH   6   7
ATOM      7  C   UNL     1      -5.926 -14.555  29.962  1.00  0.00    -0.028 C 
ATOM      8  C   UNL     1      -5.380 -14.200  31.148  1.00  0.00    -0.070 CG0
ATOM      9  C   UNL     1      -5.588 -15.139  32.312  1.00  0.00     0.039 C 
ATOM     10  G   UNL     1      -4.642 -12.891  31.372  1.00  0.00     0.000 G0
ENDBRANCH   6   7
ENDBRANCH   5   6
ENDBRANCH   3   5
ENDBRANCH   1   3
BRANCH   1  11
ATOM     11  C   UNL     1      -2.414 -11.722  29.125  1.00  0.00     0.087 C 
BRANCH  11  12
ATOM     12  C   UNL     1      -2.383 -13.077  29.886  1.00  0.00     0.066 C 
BRANCH  12  13
ATOM     13  C   UNL     1      -3.133 -13.106  31.219  1.00  0.00     0.140 C 
ATOM     14  O   UNL     1      -2.480 -13.322  32.231  1.00  0.00    -0.299 OA
BRANCH  13  15
ATOM     15  C   UNL     1      -4.626 -12.903  31.379  1.00  0.00     0.106 CG0
ATOM     16  G   UNL     1      -5.387 -14.198  31.153  1.00  0.00     0.000 G0
ENDBRANCH  13  15
ENDBRANCH  12  13
BRANCH  12  17
ATOM     17  C   UNL     1      -0.928 -13.611  30.090  1.00  0.00    -0.006 C 
ATOM     18  C   UNL     1      -0.004 -12.600  30.790  1.00  0.00     0.008 C 
ATOM     19  C   UNL     1      -0.287 -14.103  28.782  1.00  0.00     0.008 C 
ENDBRANCH  12  17
ENDBRANCH  11  12
ENDBRANCH   1  11
TORSDOF 1
ENDMDL
MODEL 6
REMARK VINA RESULT:    -4.811      1.742      3.125
REMARK INTER + INTRA:          -7.355
REMARK INTER:                  -7.642
REMARK INTRA:                   0.287
REMARK UNBOUND:                -0.012
REMARK SMILES CC1=CCC[C@H](C)C(=O)C[C@@H](C(C)C)C(=O)C1
REMARK SMILES IDX 8 1 9 2 6 3 7 4 5 5 4 6 3 7 2 8 1 9 10 11 11 12 15 13 16 14
REMARK SMILES IDX 17 15 12 17 13 18 14 19
REMARK H PARENT
REMARK Flexibility Score: 70.00
ROOT
ATOM      1  C   UNL     1      -1.957 -11.736  31.280  1.00  0.00     0.136 C 
ATOM      2  O   UNL     1      -2.143 -10.530  31.185  1.00  0.00    -0.299 OA
ENDROOT
BRANCH   1   3
ATOM      3  C   UNL     1      -0.662 -12.354  30.777  1.00  0.00     0.053 C 
ATOM      4  C   UNL     1       0.403 -12.504  31.876  1.00  0.00     0.016 C 
BRANCH   3   5
ATOM      5  C   UNL     1      -0.880 -13.673  29.995  1.00  0.00     0.015 C 
BRANCH   5   6
ATOM      6  C   UNL     1      -1.059 -13.585  28.461  1.00  0.00     0.028 C 
BRANCH   6   7
ATOM      7  C   UNL     1      -2.308 -14.201  27.875  1.00  0.00    -0.028 C 
ATOM      8  C   UNL     1      -3.494 -13.580  27.679  1.00  0.00    -0.070 CG0
ATOM      9  C   UNL     1      -4.533 -14.319  26.869  1.00  0.00     0.039 C 
ATOM     10  G   UNL     1      -3.795 -12.174  28.168  1.00  0.00     0.000 G0
ENDBRANCH   6   7
ENDBRANCH   5   6
ENDBRANCH   3   5
ENDBRANCH   1   3
BRANCH   1  11
ATOM     11  C   UNL     1      -3.074 -12.623  31.784  1.00  0.00     0.087 C 
BRANCH  11  12
ATOM     12  C   UNL     1      -4.009 -13.183  30.675  1.00  0.00     0.066 C 
BRANCH  12  13
ATOM     13  C   UNL     1      -4.400 -12.193  29.576  1.00  0.00     0.140 C 
ATOM     14  O   UNL     1      -5.259 -11.362  29.841  1.00  0.00    -0.299 OA
BRANCH  13  15
ATOM     15  C   UNL     1      -3.816 -12.174  28.178  1.00  0.00     0.106 CG0
ATOM     16  G   UNL     1      -3.503 -13.578  27.692  1.00  0.00     0.000 G0
ENDBRANCH  13  15
ENDBRANCH  12  13
BRANCH  12  17
ATOM     17  C   UNL     1      -5.295 -13.850  31.263  1.00  0.00    -0.006 C 
ATOM     18  C   UNL     1      -5.030 -14.643  32.554  1.00  0.00     0.008 C 
ATOM     19  C   UNL     1      -6.030 -14.729  30.239  1.00  0.00     0.008 C 
ENDBRANCH  12  17
ENDBRANCH  11  12
ENDBRANCH   1  11
TORSDOF 1
ENDMDL
MODEL 7
REMARK VINA RESULT:    -4.687      1.509      3.649
REMARK INTER + INTRA:          -7.165
REMARK INTER:                  -7.116
REMARK INTRA:                  -0.049
REMARK UNBOUND:                -0.012
REMARK SMILES CC1=CCC[C@H](C)C(=O)C[C@@H](C(C)C)C(=O)C1
REMARK SMILES IDX 8 1 9 2 6 3 7 4 5 5 4 6 3 7 2 8 1 9 10 11 11 12 15 13 16 14
REMARK SMILES IDX 17 15 12 17 13 18 14 19
REMARK H PARENT
REMARK Flexibility Score: 70.00
ROOT
ATOM      1  C   UNL     1      -4.066 -10.783  30.758  1.00  0.00     0.136 C 
ATOM      2  O   UNL     1      -5.123 -10.490  30.216  1.00  0.00    -0.299 OA
ENDROOT
BRANCH   1   3
ATOM      3  C   UNL     1      -4.054 -11.297  32.189  1.00  0.00     0.053 C 
ATOM      4  C   UNL     1      -4.486 -10.238  33.216  1.00  0.00     0.016 C 
BRANCH   3   5
ATOM      5  C   UNL     1      -4.827 -12.628  32.364  1.00  0.00     0.015 C 
BRANCH   5   6
ATOM      6  C   UNL     1      -4.466 -13.805  31.427  1.00  0.00     0.028 C 
BRANCH   6   7
ATOM      7  C   UNL     1      -5.390 -14.067  30.260  1.00  0.00    -0.028 C 
ATOM      8  C   UNL     1      -5.031 -14.177  28.960  1.00  0.00    -0.070 CG0
ATOM      9  C   UNL     1      -6.083 -14.668  27.994  1.00  0.00     0.039 C 
ATOM     10  G   UNL     1      -3.626 -13.901  28.453  1.00  0.00     0.000 G0
ENDBRANCH   6   7
ENDBRANCH   5   6
ENDBRANCH   3   5
ENDBRANCH   1   3
BRANCH   1  11
ATOM     11  C   UNL     1      -2.762 -10.512  30.040  1.00  0.00     0.087 C 
BRANCH  11  12
ATOM     12  C   UNL     1      -2.241 -11.694  29.174  1.00  0.00     0.066 C 
BRANCH  12  13
ATOM     13  C   UNL     1      -3.299 -12.426  28.347  1.00  0.00     0.140 C 
ATOM     14  O   UNL     1      -3.957 -11.765  27.555  1.00  0.00    -0.299 OA
BRANCH  13  15
ATOM     15  C   UNL     1      -3.605 -13.907  28.446  1.00  0.00     0.106 CG0
ATOM     16  G   UNL     1      -5.013 -14.147  28.962  1.00  0.00     0.000 G0
ENDBRANCH  13  15
ENDBRANCH  12  13
BRANCH  12  17
ATOM     17  C   UNL     1      -1.420 -12.727  30.012  1.00  0.00    -0.006 C 
ATOM     18  C   UNL     1      -0.785 -12.118  31.273  1.00  0.00     0.008 C 
ATOM     19  C   UNL     1      -0.354 -13.456  29.177  1.00  0.00     0.008 C 
ENDBRANCH  12  17
ENDBRANCH  11  12
ENDBRANCH   1  11
TORSDOF 1
ENDMDL
MODEL 8
REMARK VINA RESULT:    -4.638      1.700      3.801
REMARK INTER + INTRA:          -7.090
REMARK INTER:                  -8.041
REMARK INTRA:                   0.951
REMARK UNBOUND:                -0.012
REMARK SMILES CC1=CCC[C@H](C)C(=O)C[C@@H](C(C)C)C(=O)C1
REMARK SMILES IDX 8 1 9 2 6 3 7 4 5 5 4 6 3 7 2 8 1 9 10 11 11 12 15 13 16 14
REMARK SMILES IDX 17 15 12 17 13 18 14 19
REMARK H PARENT
REMARK Flexibility Score: 70.00
ROOT
ATOM      1  C   UNL     1      -2.307 -13.216  28.399  1.00  0.00     0.136 C 
ATOM      2  O   UNL     1      -2.184 -12.297  27.601  1.00  0.00    -0.299 OA
ENDROOT
BRANCH   1   3
ATOM      3  C   UNL     1      -1.116 -13.686  29.218  1.00  0.00     0.053 C 
ATOM      4  C   UNL     1       0.035 -14.231  28.356  1.00  0.00     0.016 C 
BRANCH   3   5
ATOM      5  C   UNL     1      -0.627 -12.632  30.242  1.00  0.00     0.015 C 
BRANCH   5   6
ATOM      6  C   UNL     1      -1.347 -12.560  31.609  1.00  0.00     0.028 C 
BRANCH   6   7
ATOM      7  C   UNL     1      -2.130 -11.304  31.914  1.00  0.00    -0.028 C 
ATOM      8  C   UNL     1      -3.471 -11.152  31.826  1.00  0.00    -0.070 CG0
ATOM      9  C   UNL     1      -4.060  -9.884  32.397  1.00  0.00     0.039 C 
ATOM     10  G   UNL     1      -4.398 -12.209  31.251  1.00  0.00     0.000 G0
ENDBRANCH   6   7
ENDBRANCH   5   6
ENDBRANCH   3   5
ENDBRANCH   1   3
BRANCH   1  11
ATOM     11  C   UNL     1      -3.620 -13.964  28.474  1.00  0.00     0.087 C 
BRANCH  11  12
ATOM     12  C   UNL     1      -4.865 -13.066  28.722  1.00  0.00     0.066 C 
BRANCH  12  13
ATOM     13  C   UNL     1      -4.693 -11.972  29.777  1.00  0.00     0.140 C 
ATOM     14  O   UNL     1      -4.794 -10.809  29.408  1.00  0.00    -0.299 OA
BRANCH  13  15
ATOM     15  C   UNL     1      -4.391 -12.218  31.241  1.00  0.00     0.106 CG0
ATOM     16  G   UNL     1      -3.458 -11.157  31.799  1.00  0.00     0.000 G0
ENDBRANCH  13  15
ENDBRANCH  12  13
BRANCH  12  17
ATOM     17  C   UNL     1      -6.148 -13.903  29.037  1.00  0.00    -0.006 C 
ATOM     18  C   UNL     1      -6.158 -14.484  30.461  1.00  0.00     0.008 C 
ATOM     19  C   UNL     1      -6.400 -15.014  28.005  1.00  0.00     0.008 C 
ENDBRANCH  12  17
ENDBRANCH  11  12
ENDBRANCH   1  11
TORSDOF 1
ENDMDL
MODEL 9
REMARK VINA RESULT:    -4.535      2.043      3.184
REMARK INTER + INTRA:          -6.934
REMARK INTER:                  -7.295
REMARK INTRA:                   0.362
REMARK UNBOUND:                -0.012
REMARK SMILES CC1=CCC[C@H](C)C(=O)C[C@@H](C(C)C)C(=O)C1
REMARK SMILES IDX 8 1 9 2 6 3 7 4 5 5 4 6 3 7 2 8 1 9 10 11 11 12 15 13 16 14
REMARK SMILES IDX 17 15 12 17 13 18 14 19
REMARK H PARENT
REMARK Flexibility Score: 70.00
ROOT
ATOM      1  C   UNL     1      -3.902 -12.727  28.198  1.00  0.00     0.136 C 
ATOM      2  O   UNL     1      -3.550 -13.861  27.901  1.00  0.00    -0.299 OA
ENDROOT
BRANCH   1   3
ATOM      3  C   UNL     1      -3.094 -11.526  27.732  1.00  0.00     0.053 C 
ATOM      4  C   UNL     1      -3.000 -11.417  26.202  1.00  0.00     0.016 C 
BRANCH   3   5
ATOM      5  C   UNL     1      -3.548 -10.197  28.385  1.00  0.00     0.015 C 
BRANCH   5   6
ATOM      6  C   UNL     1      -3.153  -9.939  29.858  1.00  0.00     0.028 C 
BRANCH   6   7
ATOM      7  C   UNL     1      -1.838 -10.515  30.332  1.00  0.00    -0.028 C 
ATOM      8  C   UNL     1      -1.676 -11.551  31.186  1.00  0.00    -0.070 CG0
ATOM      9  C   UNL     1      -0.280 -12.105  31.341  1.00  0.00     0.039 C 
ATOM     10  G   UNL     1      -2.825 -12.212  31.928  1.00  0.00     0.000 G0
ENDBRANCH   6   7
ENDBRANCH   5   6
ENDBRANCH   3   5
ENDBRANCH   1   3
BRANCH   1  11
ATOM     11  C   UNL     1      -5.074 -12.534  29.136  1.00  0.00     0.087 C 
BRANCH  11  12
ATOM     12  C   UNL     1      -4.913 -13.215  30.524  1.00  0.00     0.066 C 
BRANCH  12  13
ATOM     13  C   UNL     1      -3.483 -13.290  31.064  1.00  0.00     0.140 C 
ATOM     14  O   UNL     1      -2.828 -14.287  30.793  1.00  0.00    -0.299 OA
BRANCH  13  15
ATOM     15  C   UNL     1      -2.824 -12.230  31.922  1.00  0.00     0.106 CG0
ATOM     16  G   UNL     1      -1.693 -11.541  31.178  1.00  0.00     0.000 G0
ENDBRANCH  13  15
ENDBRANCH  12  13
BRANCH  12  17
ATOM     17  C   UNL     1      -5.567 -14.634  30.569  1.00  0.00    -0.006 C 
ATOM     18  C   UNL     1      -6.738 -14.793  29.584  1.00  0.00     0.008 C 
ATOM     19  C   UNL     1      -6.003 -15.043  31.986  1.00  0.00     0.008 C 
ENDBRANCH  12  17
ENDBRANCH  11  12
ENDBRANCH   1  11
TORSDOF 1
ENDMDL
