MODEL 1
REMARK VINA RESULT:    -3.408      0.000      0.000
REMARK INTER + INTRA:          -3.829
REMARK INTER:                  -3.806
REMARK INTRA:                  -0.023
REMARK UNBOUND:                -0.023
REMARK SMILES CC(C)CC=O
REMARK SMILES IDX 4 1 2 2 1 3 3 4 5 5 6 6
REMARK H PARENT
REMARK Flexibility Score: inf
ROOT
ATOM      1  C   UNL     1      24.491  57.257  -8.686  1.00  0.00     0.075 C 
ENDROOT
BRANCH   1   2
ATOM      2  C   UNL     1      24.443  55.730  -8.460  1.00  0.00    -0.010 C 
ATOM      3  C   UNL     1      23.262  55.312  -7.572  1.00  0.00     0.008 C 
ATOM      4  C   UNL     1      25.768  55.182  -7.912  1.00  0.00     0.008 C 
ENDBRANCH   1   2
BRANCH   1   5
ATOM      5  C   UNL     1      25.856  57.787  -9.035  1.00  0.00     0.224 C 
ATOM      6  O   UNL     1      26.045  58.992  -9.076  1.00  0.00    -0.303 OA
ENDBRANCH   1   5
TORSDOF 2
ENDMDL
MODEL 2
REMARK VINA RESULT:    -3.115     16.109     17.391
REMARK INTER + INTRA:          -3.501
REMARK INTER:                  -3.463
REMARK INTRA:                  -0.039
REMARK UNBOUND:                -0.023
REMARK SMILES CC(C)CC=O
REMARK SMILES IDX 4 1 2 2 1 3 3 4 5 5 6 6
REMARK H PARENT
REMARK Flexibility Score: inf
ROOT
ATOM      1  C   UNL     1      18.652  43.882   2.128  1.00  0.00     0.075 C 
ENDROOT
BRANCH   1   2
ATOM      2  C   UNL     1      19.824  44.162   1.163  1.00  0.00    -0.010 C 
ATOM      3  C   UNL     1      19.397  45.021  -0.036  1.00  0.00     0.008 C 
ATOM      4  C   UNL     1      20.517  42.872   0.701  1.00  0.00     0.008 C 
ENDBRANCH   1   2
BRANCH   1   5
ATOM      5  C   UNL     1      17.314  43.751   1.453  1.00  0.00     0.224 C 
ATOM      6  O   UNL     1      16.365  44.401   1.859  1.00  0.00    -0.303 OA
ENDBRANCH   1   5
TORSDOF 2
ENDMDL
MODEL 3
REMARK VINA RESULT:    -3.097      2.430      3.321
REMARK INTER + INTRA:          -3.481
REMARK INTER:                  -3.474
REMARK INTRA:                  -0.007
REMARK UNBOUND:                -0.023
REMARK SMILES CC(C)CC=O
REMARK SMILES IDX 4 1 2 2 1 3 3 4 5 5 6 6
REMARK H PARENT
REMARK Flexibility Score: inf
ROOT
ATOM      1  C   UNL     1      23.646  56.310  -8.269  1.00  0.00     0.075 C 
ENDROOT
BRANCH   1   2
ATOM      2  C   UNL     1      25.105  56.168  -8.756  1.00  0.00    -0.010 C 
ATOM      3  C   UNL     1      25.924  55.221  -7.867  1.00  0.00     0.008 C 
ATOM      4  C   UNL     1      25.802  57.528  -8.905  1.00  0.00     0.008 C 
ENDBRANCH   1   2
BRANCH   1   5
ATOM      5  C   UNL     1      23.074  55.060  -7.658  1.00  0.00     0.224 C 
ATOM      6  O   UNL     1      22.807  55.036  -6.468  1.00  0.00    -0.303 OA
ENDBRANCH   1   5
TORSDOF 2
ENDMDL
MODEL 4
REMARK VINA RESULT:    -3.053     15.669     17.011
REMARK INTER + INTRA:          -3.432
REMARK INTER:                  -3.408
REMARK INTRA:                  -0.025
REMARK UNBOUND:                -0.023
REMARK SMILES CC(C)CC=O
REMARK SMILES IDX 4 1 2 2 1 3 3 4 5 5 6 6
REMARK H PARENT
REMARK Flexibility Score: inf
ROOT
ATOM      1  C   UNL     1      19.279  43.417   1.466  1.00  0.00     0.075 C 
ENDROOT
BRANCH   1   2
ATOM      2  C   UNL     1      18.585  44.090   0.262  1.00  0.00    -0.010 C 
ATOM      3  C   UNL     1      19.325  45.352  -0.204  1.00  0.00     0.008 C 
ATOM      4  C   UNL     1      17.104  44.387   0.537  1.00  0.00     0.008 C 
ENDBRANCH   1   2
BRANCH   1   5
ATOM      5  C   UNL     1      20.731  43.094   1.241  1.00  0.00     0.224 C 
ATOM      6  O   UNL     1      21.054  42.379   0.306  1.00  0.00    -0.303 OA
ENDBRANCH   1   5
TORSDOF 2
ENDMDL
MODEL 5
REMARK VINA RESULT:    -3.041     15.777     16.667
REMARK INTER + INTRA:          -3.420
REMARK INTER:                  -3.387
REMARK INTRA:                  -0.033
REMARK UNBOUND:                -0.023
REMARK SMILES CC(C)CC=O
REMARK SMILES IDX 4 1 2 2 1 3 3 4 5 5 6 6
REMARK H PARENT
REMARK Flexibility Score: inf
ROOT
ATOM      1  C   UNL     1      19.174  44.893  -0.006  1.00  0.00     0.075 C 
ENDROOT
BRANCH   1   2
ATOM      2  C   UNL     1      19.839  44.160   1.180  1.00  0.00    -0.010 C 
ATOM      3  C   UNL     1      20.595  42.900   0.734  1.00  0.00     0.008 C 
ATOM      4  C   UNL     1      18.836  43.838   2.297  1.00  0.00     0.008 C 
ENDBRANCH   1   2
BRANCH   1   5
ATOM      5  C   UNL     1      17.680  44.732  -0.073  1.00  0.00     0.224 C 
ATOM      6  O   UNL     1      16.993  45.640  -0.513  1.00  0.00    -0.303 OA
ENDBRANCH   1   5
TORSDOF 2
ENDMDL
MODEL 6
REMARK VINA RESULT:    -2.848     16.112     17.429
REMARK INTER + INTRA:          -3.204
REMARK INTER:                  -3.182
REMARK INTRA:                  -0.022
REMARK UNBOUND:                -0.023
REMARK SMILES CC(C)CC=O
REMARK SMILES IDX 4 1 2 2 1 3 3 4 5 5 6 6
REMARK H PARENT
REMARK Flexibility Score: inf
ROOT
ATOM      1  C   UNL     1      19.306  42.565   0.057  1.00  0.00     0.075 C 
ENDROOT
BRANCH   1   2
ATOM      2  C   UNL     1      19.660  43.877   0.789  1.00  0.00    -0.010 C 
ATOM      3  C   UNL     1      19.034  43.949   2.189  1.00  0.00     0.008 C 
ATOM      4  C   UNL     1      19.305  45.119  -0.040  1.00  0.00     0.008 C 
ENDBRANCH   1   2
BRANCH   1   5
ATOM      5  C   UNL     1      17.863  42.459  -0.357  1.00  0.00     0.224 C 
ATOM      6  O   UNL     1      17.544  41.686  -1.246  1.00  0.00    -0.303 OA
ENDBRANCH   1   5
TORSDOF 2
ENDMDL
MODEL 7
REMARK VINA RESULT:    -2.778     17.028     17.987
REMARK INTER + INTRA:          -3.126
REMARK INTER:                  -3.097
REMARK INTRA:                  -0.029
REMARK UNBOUND:                -0.023
REMARK SMILES CC(C)CC=O
REMARK SMILES IDX 4 1 2 2 1 3 3 4 5 5 6 6
REMARK H PARENT
REMARK Flexibility Score: inf
ROOT
ATOM      1  C   UNL     1      18.618  43.860   2.121  1.00  0.00     0.075 C 
ENDROOT
BRANCH   1   2
ATOM      2  C   UNL     1      17.345  43.529   1.313  1.00  0.00    -0.010 C 
ATOM      3  C   UNL     1      16.155  44.411   1.717  1.00  0.00     0.008 C 
ATOM      4  C   UNL     1      16.980  42.040   1.389  1.00  0.00     0.008 C 
ENDBRANCH   1   2
BRANCH   1   5
ATOM      5  C   UNL     1      19.868  43.965   1.290  1.00  0.00     0.224 C 
ATOM      6  O   UNL     1      20.723  43.097   1.371  1.00  0.00    -0.303 OA
ENDBRANCH   1   5
TORSDOF 2
ENDMDL
MODEL 8
REMARK VINA RESULT:    -2.767      3.150      5.180
REMARK INTER + INTRA:          -3.113
REMARK INTER:                  -3.086
REMARK INTRA:                  -0.026
REMARK UNBOUND:                -0.023
REMARK SMILES CC(C)CC=O
REMARK SMILES IDX 4 1 2 2 1 3 3 4 5 5 6 6
REMARK H PARENT
REMARK Flexibility Score: inf
ROOT
ATOM      1  C   UNL     1      27.267  58.826 -10.222  1.00  0.00     0.075 C 
ENDROOT
BRANCH   1   2
ATOM      2  C   UNL     1      28.030  60.167 -10.293  1.00  0.00    -0.010 C 
ATOM      3  C   UNL     1      29.514  59.973 -10.636  1.00  0.00     0.008 C 
ATOM      4  C   UNL     1      27.862  60.999  -9.014  1.00  0.00     0.008 C 
ENDBRANCH   1   2
BRANCH   1   5
ATOM      5  C   UNL     1      26.136  58.811  -9.230  1.00  0.00     0.224 C 
ATOM      6  O   UNL     1      25.669  57.745  -8.861  1.00  0.00    -0.303 OA
ENDBRANCH   1   5
TORSDOF 2
ENDMDL
