MODEL 1
REMARK VINA RESULT:    29.543      0.000      0.000
REMARK INTER + INTRA:          45.373
REMARK INTER:                  41.632
REMARK INTRA:                   3.741
REMARK UNBOUND:                 3.741
REMARK SMILES COc1ccc(-c2cc(=O)c3c(OC)c(OC)c(OC)c(OC)c3o2)cc1OC
REMARK SMILES IDX 7 1 8 2 9 3 10 4 11 5 24 6 25 7 21 8 18 9 15 10 12 11 6 12
REMARK SMILES IDX 3 13 27 14 4 15 26 16 5 17 2 18 1 19 28 20 29 21 22 22 23 23
REMARK SMILES IDX 13 24 14 25 19 26 20 27 16 28 17 29
REMARK H PARENT
REMARK Flexibility Score: inf
ROOT
ATOM      1  C   UNL     1     142.069 173.942 174.068  1.00  0.00     0.138 A 
ATOM      2  C   UNL     1     142.097 174.736 175.224  1.00  0.00     0.100 A 
ATOM      3  C   UNL     1     141.940 174.133 176.471  1.00  0.00     0.197 A 
ATOM      4  O   UNL     1     141.941 174.861 177.500  1.00  0.00    -0.289 OA
ATOM      5  C   UNL     1     141.756 172.735 176.555  1.00  0.00     0.115 A 
ATOM      6  C   UNL     1     141.715 172.008 175.346  1.00  0.00     0.188 A 
ATOM      7  O   UNL     1     141.877 172.632 174.182  1.00  0.00    -0.452 OA
ATOM      8  C   UNL     1     141.500 170.625 175.346  1.00  0.00     0.209 A 
ATOM      9  C   UNL     1     141.250 169.956 176.569  1.00  0.00     0.211 A 
ATOM     10  C   UNL     1     141.307 170.669 177.789  1.00  0.00     0.208 A 
ATOM     11  C   UNL     1     141.615 172.049 177.782  1.00  0.00     0.179 A 
ENDROOT
BRANCH   1  12
ATOM     12  C   UNL     1     142.214 174.530 172.711  1.00  0.00     0.021 A 
ATOM     13  C   UNL     1     142.563 175.620 170.130  1.00  0.00     0.160 A 
ATOM     14  C   UNL     1     141.374 174.950 170.450  1.00  0.00     0.161 A 
ATOM     15  C   UNL     1     143.564 175.767 171.109  1.00  0.00     0.051 A 
ATOM     16  C   UNL     1     141.200 174.413 171.741  1.00  0.00     0.062 A 
ATOM     17  C   UNL     1     143.386 175.230 172.385  1.00  0.00     0.016 A 
BRANCH  13  18
ATOM     18  O   UNL     1     142.716 176.125 168.828  1.00  0.00    -0.493 OA
ATOM     19  C   UNL     1     143.706 175.687 167.902  1.00  0.00     0.278 C 
ENDBRANCH  13  18
BRANCH  14  20
ATOM     20  O   UNL     1     140.386 174.837 169.458  1.00  0.00    -0.493 OA
ATOM     21  C   UNL     1     139.348 175.787 169.237  1.00  0.00     0.278 C 
ENDBRANCH  14  20
ENDBRANCH   1  12
BRANCH   8  22
ATOM     22  O   UNL     1     141.522 169.983 174.091  1.00  0.00    -0.490 OA
ATOM     23  C   UNL     1     140.709 168.889 173.681  1.00  0.00     0.278 C 
ENDBRANCH   8  22
BRANCH  11  24
ATOM     24  O   UNL     1     141.826 172.723 178.988  1.00  0.00    -0.492 OA
ATOM     25  C   UNL     1     142.725 173.827 179.061  1.00  0.00     0.278 C 
ENDBRANCH  11  24
BRANCH   9  26
ATOM     26  O   UNL     1     140.958 168.585 176.558  1.00  0.00    -0.490 OA
ATOM     27  C   UNL     1     141.941 167.556 176.664  1.00  0.00     0.279 C 
ENDBRANCH   9  26
BRANCH  10  28
ATOM     28  O   UNL     1     141.086 169.954 178.978  1.00  0.00    -0.490 OA
ATOM     29  C   UNL     1     140.244 168.810 179.121  1.00  0.00     0.278 C 
ENDBRANCH  10  28
TORSDOF 7
ENDMDL
