MODEL 1
REMARK VINA RESULT:    -5.639      0.000      0.000
REMARK INTER + INTRA:          -8.529
REMARK INTER:                  -7.617
REMARK INTRA:                  -0.913
REMARK UNBOUND:                -0.913
REMARK SMILES CC(=O)CCC=C(C)CCC=C(C)C
REMARK SMILES IDX 7 1 6 2 8 3 9 4 10 5 11 6 13 7 12 8 14 9 5 10 4 11 2 12 3 13
REMARK SMILES IDX 1 14
REMARK H PARENT
REMARK Flexibility Score: inf
ROOT
ATOM      1  C   UNL     1     -12.748 -36.047  31.671  1.00  0.00    -0.077 C 
ATOM      2  C   UNL     1     -13.504 -34.969  31.985  1.00  0.00    -0.028 C 
ATOM      3  C   UNL     1     -11.275 -36.111  32.001  1.00  0.00     0.039 C 
ENDROOT
BRANCH   1   4
ATOM      4  C   UNL     1     -13.395 -37.218  30.960  1.00  0.00     0.034 C 
BRANCH   4   5
ATOM      5  C   UNL     1     -12.862 -37.384  29.529  1.00  0.00     0.032 C 
BRANCH   5   6
ATOM      6  C   UNL     1     -13.436 -36.347  28.593  1.00  0.00    -0.028 C 
ATOM      7  C   UNL     1     -13.403 -34.368  27.107  1.00  0.00     0.039 C 
ATOM      8  C   UNL     1     -12.731 -35.325  28.057  1.00  0.00    -0.080 C 
ATOM      9  C   UNL     1     -11.290 -35.066  28.421  1.00  0.00     0.039 C 
ENDBRANCH   5   6
ENDBRANCH   4   5
ENDBRANCH   1   4
BRANCH   2  10
ATOM     10  C   UNL     1     -13.003 -33.771  32.751  1.00  0.00     0.035 C 
BRANCH  10  11
ATOM     11  C   UNL     1     -14.148 -33.124  33.543  1.00  0.00     0.079 C 
BRANCH  11  12
ATOM     12  C   UNL     1     -15.416 -32.907  32.747  1.00  0.00     0.130 C 
ATOM     13  O   UNL     1     -16.438 -33.460  33.122  1.00  0.00    -0.300 OA
ATOM     14  C   UNL     1     -15.474 -32.038  31.520  1.00  0.00     0.087 C 
ENDBRANCH  11  12
ENDBRANCH  10  11
ENDBRANCH   2  10
TORSDOF 6
ENDMDL
MODEL 2
REMARK VINA RESULT:    -5.602      2.139      4.524
REMARK INTER + INTRA:          -8.480
REMARK INTER:                  -7.648
REMARK INTRA:                  -0.833
REMARK UNBOUND:                -0.913
REMARK SMILES CC(=O)CCC=C(C)CCC=C(C)C
REMARK SMILES IDX 7 1 6 2 8 3 9 4 10 5 11 6 13 7 12 8 14 9 5 10 4 11 2 12 3 13
REMARK SMILES IDX 1 14
REMARK H PARENT
REMARK Flexibility Score: inf
ROOT
ATOM      1  C   UNL     1     -13.305 -37.431  29.535  1.00  0.00    -0.077 C 
ATOM      2  C   UNL     1     -12.548 -36.384  29.135  1.00  0.00    -0.028 C 
ATOM      3  C   UNL     1     -14.345 -38.053  28.634  1.00  0.00     0.039 C 
ENDROOT
BRANCH   1   4
ATOM      4  C   UNL     1     -13.111 -37.990  30.930  1.00  0.00     0.034 C 
BRANCH   4   5
ATOM      5  C   UNL     1     -12.679 -36.905  31.927  1.00  0.00     0.032 C 
BRANCH   5   6
ATOM      6  C   UNL     1     -13.697 -35.793  32.022  1.00  0.00    -0.028 C 
ATOM      7  C   UNL     1     -14.495 -33.465  32.281  1.00  0.00     0.039 C 
ATOM      8  C   UNL     1     -13.394 -34.493  32.238  1.00  0.00    -0.080 C 
ATOM      9  C   UNL     1     -11.982 -34.031  32.501  1.00  0.00     0.039 C 
ENDBRANCH   5   6
ENDBRANCH   4   5
ENDBRANCH   1   4
BRANCH   2  10
ATOM     10  C   UNL     1     -12.591 -35.779  27.755  1.00  0.00     0.035 C 
BRANCH  10  11
ATOM     11  C   UNL     1     -11.614 -34.598  27.655  1.00  0.00     0.079 C 
BRANCH  11  12
ATOM     12  C   UNL     1     -11.849 -33.504  28.673  1.00  0.00     0.130 C 
ATOM     13  O   UNL     1     -10.910 -33.150  29.371  1.00  0.00    -0.300 OA
ATOM     14  C   UNL     1     -13.181 -32.831  28.859  1.00  0.00     0.087 C 
ENDBRANCH  11  12
ENDBRANCH  10  11
ENDBRANCH   2  10
TORSDOF 6
ENDMDL
MODEL 3
REMARK VINA RESULT:    -5.517      1.440      2.454
REMARK INTER + INTRA:          -8.365
REMARK INTER:                  -7.441
REMARK INTRA:                  -0.924
REMARK UNBOUND:                -0.913
REMARK SMILES CC(=O)CCC=C(C)CCC=C(C)C
REMARK SMILES IDX 7 1 6 2 8 3 9 4 10 5 11 6 13 7 12 8 14 9 5 10 4 11 2 12 3 13
REMARK SMILES IDX 1 14
REMARK H PARENT
REMARK Flexibility Score: inf
ROOT
ATOM      1  C   UNL     1     -12.213 -33.779  30.417  1.00  0.00    -0.077 C 
ATOM      2  C   UNL     1     -13.374 -33.896  31.103  1.00  0.00    -0.028 C 
ATOM      3  C   UNL     1     -10.875 -33.738  31.116  1.00  0.00     0.039 C 
ENDROOT
BRANCH   1   4
ATOM      4  C   UNL     1     -12.257 -33.678  28.906  1.00  0.00     0.034 C 
BRANCH   4   5
ATOM      5  C   UNL     1     -11.787 -34.975  28.232  1.00  0.00     0.032 C 
BRANCH   5   6
ATOM      6  C   UNL     1     -12.914 -35.971  28.085  1.00  0.00    -0.028 C 
ATOM      7  C   UNL     1     -14.337 -37.894  28.716  1.00  0.00     0.039 C 
ATOM      8  C   UNL     1     -13.162 -36.981  28.950  1.00  0.00    -0.080 C 
ATOM      9  C   UNL     1     -12.262 -37.269  30.126  1.00  0.00     0.039 C 
ENDBRANCH   5   6
ENDBRANCH   4   5
ENDBRANCH   1   4
BRANCH   2  10
ATOM     10  C   UNL     1     -13.467 -34.075  32.597  1.00  0.00     0.035 C 
BRANCH  10  11
ATOM     11  C   UNL     1     -14.276 -32.932  33.226  1.00  0.00     0.079 C 
BRANCH  11  12
ATOM     12  C   UNL     1     -15.769 -33.023  32.998  1.00  0.00     0.130 C 
ATOM     13  O   UNL     1     -16.275 -32.284  32.167  1.00  0.00    -0.300 OA
ATOM     14  C   UNL     1     -16.654 -33.984  33.744  1.00  0.00     0.087 C 
ENDBRANCH  11  12
ENDBRANCH  10  11
ENDBRANCH   2  10
TORSDOF 6
ENDMDL
MODEL 4
REMARK VINA RESULT:    -5.380      1.152      2.184
REMARK INTER + INTRA:          -8.180
REMARK INTER:                  -7.236
REMARK INTRA:                  -0.944
REMARK UNBOUND:                -0.913
REMARK SMILES CC(=O)CCC=C(C)CCC=C(C)C
REMARK SMILES IDX 7 1 6 2 8 3 9 4 10 5 11 6 13 7 12 8 14 9 5 10 4 11 2 12 3 13
REMARK SMILES IDX 1 14
REMARK H PARENT
REMARK Flexibility Score: inf
ROOT
ATOM      1  C   UNL     1     -12.504 -34.808  31.877  1.00  0.00    -0.077 C 
ATOM      2  C   UNL     1     -13.690 -34.390  31.377  1.00  0.00    -0.028 C 
ATOM      3  C   UNL     1     -11.365 -33.850  32.134  1.00  0.00     0.039 C 
ENDROOT
BRANCH   1   4
ATOM      4  C   UNL     1     -12.310 -36.280  32.181  1.00  0.00     0.034 C 
BRANCH   4   5
ATOM      5  C   UNL     1     -11.755 -37.045  30.970  1.00  0.00     0.032 C 
BRANCH   5   6
ATOM      6  C   UNL     1     -12.839 -37.804  30.241  1.00  0.00    -0.028 C 
ATOM      7  C   UNL     1     -14.441 -38.277  28.415  1.00  0.00     0.039 C 
ATOM      8  C   UNL     1     -13.387 -37.419  29.066  1.00  0.00    -0.080 C 
ATOM      9  C   UNL     1     -13.021 -36.117  28.399  1.00  0.00     0.039 C 
ENDBRANCH   5   6
ENDBRANCH   4   5
ENDBRANCH   1   4
BRANCH   2  10
ATOM     10  C   UNL     1     -14.038 -32.950  31.099  1.00  0.00     0.035 C 
BRANCH  10  11
ATOM     11  C   UNL     1     -15.320 -32.553  31.845  1.00  0.00     0.079 C 
BRANCH  11  12
ATOM     12  C   UNL     1     -15.363 -32.992  33.292  1.00  0.00     0.130 C 
ATOM     13  O   UNL     1     -16.262 -33.741  33.644  1.00  0.00    -0.300 OA
ATOM     14  C   UNL     1     -14.348 -32.553  34.312  1.00  0.00     0.087 C 
ENDBRANCH  11  12
ENDBRANCH  10  11
ENDBRANCH   2  10
TORSDOF 6
ENDMDL
MODEL 5
REMARK VINA RESULT:    -5.351      2.930      5.030
REMARK INTER + INTRA:          -8.141
REMARK INTER:                  -7.119
REMARK INTRA:                  -1.023
REMARK UNBOUND:                -0.913
REMARK SMILES CC(=O)CCC=C(C)CCC=C(C)C
REMARK SMILES IDX 7 1 6 2 8 3 9 4 10 5 11 6 13 7 12 8 14 9 5 10 4 11 2 12 3 13
REMARK SMILES IDX 1 14
REMARK H PARENT
REMARK Flexibility Score: inf
ROOT
ATOM      1  C   UNL     1     -11.645 -33.941  31.327  1.00  0.00    -0.077 C 
ATOM      2  C   UNL     1     -11.985 -33.868  30.020  1.00  0.00    -0.028 C 
ATOM      3  C   UNL     1     -10.204 -33.923  31.779  1.00  0.00     0.039 C 
ENDROOT
BRANCH   1   4
ATOM      4  C   UNL     1     -12.740 -34.054  32.369  1.00  0.00     0.034 C 
BRANCH   4   5
ATOM      5  C   UNL     1     -13.804 -35.087  31.971  1.00  0.00     0.032 C 
BRANCH   5   6
ATOM      6  C   UNL     1     -13.331 -36.502  32.210  1.00  0.00    -0.028 C 
ATOM      7  C   UNL     1     -12.622 -38.791  31.592  1.00  0.00     0.039 C 
ATOM      8  C   UNL     1     -13.128 -37.417  31.235  1.00  0.00    -0.080 C 
ATOM      9  C   UNL     1     -13.448 -37.133  29.789  1.00  0.00     0.039 C 
ENDBRANCH   5   6
ENDBRANCH   4   5
ENDBRANCH   1   4
BRANCH   2  10
ATOM     10  C   UNL     1     -11.002 -33.684  28.893  1.00  0.00     0.035 C 
BRANCH  10  11
ATOM     11  C   UNL     1     -11.018 -34.903  27.960  1.00  0.00     0.079 C 
BRANCH  11  12
ATOM     12  C   UNL     1     -11.868 -34.732  26.720  1.00  0.00     0.130 C 
ATOM     13  O   UNL     1     -11.372 -34.997  25.636  1.00  0.00    -0.300 OA
ATOM     14  C   UNL     1     -13.294 -34.256  26.764  1.00  0.00     0.087 C 
ENDBRANCH  11  12
ENDBRANCH  10  11
ENDBRANCH   2  10
TORSDOF 6
ENDMDL
MODEL 6
REMARK VINA RESULT:    -5.316      1.142      1.980
REMARK INTER + INTRA:          -8.094
REMARK INTER:                  -7.141
REMARK INTRA:                  -0.954
REMARK UNBOUND:                -0.913
REMARK SMILES CC(=O)CCC=C(C)CCC=C(C)C
REMARK SMILES IDX 7 1 6 2 8 3 9 4 10 5 11 6 13 7 12 8 14 9 5 10 4 11 2 12 3 13
REMARK SMILES IDX 1 14
REMARK H PARENT
REMARK Flexibility Score: inf
ROOT
ATOM      1  C   UNL     1     -11.697 -35.705  30.912  1.00  0.00    -0.077 C 
ATOM      2  C   UNL     1     -12.302 -34.699  31.584  1.00  0.00    -0.028 C 
ATOM      3  C   UNL     1     -12.270 -37.102  30.880  1.00  0.00     0.039 C 
ENDROOT
BRANCH   1   4
ATOM      4  C   UNL     1     -10.402 -35.424  30.176  1.00  0.00     0.034 C 
BRANCH   4   5
ATOM      5  C   UNL     1     -10.548 -34.260  29.186  1.00  0.00     0.032 C 
BRANCH   5   6
ATOM      6  C   UNL     1     -11.508 -34.590  28.067  1.00  0.00    -0.028 C 
ATOM      7  C   UNL     1     -13.531 -34.333  26.665  1.00  0.00     0.039 C 
ATOM      8  C   UNL     1     -12.667 -33.934  27.833  1.00  0.00    -0.080 C 
ATOM      9  C   UNL     1     -13.167 -32.839  28.743  1.00  0.00     0.039 C 
ENDBRANCH   5   6
ENDBRANCH   4   5
ENDBRANCH   1   4
BRANCH   2  10
ATOM     10  C   UNL     1     -13.625 -34.826  32.297  1.00  0.00     0.035 C 
BRANCH  10  11
ATOM     11  C   UNL     1     -13.981 -33.511  33.005  1.00  0.00     0.079 C 
BRANCH  11  12
ATOM     12  C   UNL     1     -15.320 -32.929  32.607  1.00  0.00     0.130 C 
ATOM     13  O   UNL     1     -16.306 -33.246  33.254  1.00  0.00    -0.300 OA
ATOM     14  C   UNL     1     -15.488 -31.974  31.457  1.00  0.00     0.087 C 
ENDBRANCH  11  12
ENDBRANCH  10  11
ENDBRANCH   2  10
TORSDOF 6
ENDMDL
MODEL 7
REMARK VINA RESULT:    -5.267      2.227      4.180
REMARK INTER + INTRA:          -8.027
REMARK INTER:                  -7.243
REMARK INTRA:                  -0.784
REMARK UNBOUND:                -0.913
REMARK SMILES CC(=O)CCC=C(C)CCC=C(C)C
REMARK SMILES IDX 7 1 6 2 8 3 9 4 10 5 11 6 13 7 12 8 14 9 5 10 4 11 2 12 3 13
REMARK SMILES IDX 1 14
REMARK H PARENT
REMARK Flexibility Score: inf
ROOT
ATOM      1  C   UNL     1     -11.507 -34.951  31.856  1.00  0.00    -0.077 C 
ATOM      2  C   UNL     1     -11.497 -36.296  31.713  1.00  0.00    -0.028 C 
ATOM      3  C   UNL     1     -12.759 -34.198  32.239  1.00  0.00     0.039 C 
ENDROOT
BRANCH   1   4
ATOM      4  C   UNL     1     -10.227 -34.176  31.617  1.00  0.00     0.034 C 
BRANCH   4   5
ATOM      5  C   UNL     1     -10.322 -33.285  30.369  1.00  0.00     0.032 C 
BRANCH   5   6
ATOM      6  C   UNL     1     -10.532 -34.099  29.114  1.00  0.00    -0.028 C 
ATOM      7  C   UNL     1     -11.704 -34.849  27.068  1.00  0.00     0.039 C 
ATOM      8  C   UNL     1     -11.619 -34.008  28.315  1.00  0.00    -0.080 C 
ATOM      9  C   UNL     1     -12.795 -33.127  28.657  1.00  0.00     0.039 C 
ENDBRANCH   5   6
ENDBRANCH   4   5
ENDBRANCH   1   4
BRANCH   2  10
ATOM     10  C   UNL     1     -12.679 -37.191  31.988  1.00  0.00     0.035 C 
BRANCH  10  11
ATOM     11  C   UNL     1     -12.902 -38.162  30.820  1.00  0.00     0.079 C 
BRANCH  11  12
ATOM     12  C   UNL     1     -13.644 -37.566  29.644  1.00  0.00     0.130 C 
ATOM     13  O   UNL     1     -13.688 -36.349  29.542  1.00  0.00    -0.300 OA
ATOM     14  C   UNL     1     -14.322 -38.403  28.594  1.00  0.00     0.087 C 
ENDBRANCH  11  12
ENDBRANCH  10  11
ENDBRANCH   2  10
TORSDOF 6
ENDMDL
MODEL 8
REMARK VINA RESULT:    -5.126      2.483      4.289
REMARK INTER + INTRA:          -7.837
REMARK INTER:                  -6.916
REMARK INTRA:                  -0.920
REMARK UNBOUND:                -0.913
REMARK SMILES CC(=O)CCC=C(C)CCC=C(C)C
REMARK SMILES IDX 7 1 6 2 8 3 9 4 10 5 11 6 13 7 12 8 14 9 5 10 4 11 2 12 3 13
REMARK SMILES IDX 1 14
REMARK H PARENT
REMARK Flexibility Score: inf
ROOT
ATOM      1  C   UNL     1     -11.965 -33.716  28.499  1.00  0.00    -0.077 C 
ATOM      2  C   UNL     1     -10.746 -33.747  29.084  1.00  0.00    -0.028 C 
ATOM      3  C   UNL     1     -13.056 -32.787  28.977  1.00  0.00     0.039 C 
ENDROOT
BRANCH   1   4
ATOM      4  C   UNL     1     -12.248 -34.647  27.337  1.00  0.00     0.034 C 
BRANCH   4   5
ATOM      5  C   UNL     1     -13.287 -35.717  27.701  1.00  0.00     0.032 C 
BRANCH   5   6
ATOM      6  C   UNL     1     -13.039 -36.297  29.073  1.00  0.00    -0.028 C 
ATOM      7  C   UNL     1     -13.155 -37.990  30.874  1.00  0.00     0.039 C 
ATOM      8  C   UNL     1     -13.494 -37.501  29.490  1.00  0.00    -0.080 C 
ATOM      9  C   UNL     1     -14.389 -38.361  28.633  1.00  0.00     0.039 C 
ENDBRANCH   5   6
ENDBRANCH   4   5
ENDBRANCH   1   4
BRANCH   2  10
ATOM     10  C   UNL     1     -10.312 -32.829  30.199  1.00  0.00     0.035 C 
BRANCH  10  11
ATOM     11  C   UNL     1      -9.880 -33.642  31.427  1.00  0.00     0.079 C 
BRANCH  11  12
ATOM     12  C   UNL     1     -10.919 -34.621  31.927  1.00  0.00     0.130 C 
ATOM     13  O   UNL     1     -10.624 -35.805  31.979  1.00  0.00    -0.300 OA
ATOM     14  C   UNL     1     -12.295 -34.200  32.368  1.00  0.00     0.087 C 
ENDBRANCH  11  12
ENDBRANCH  10  11
ENDBRANCH   2  10
TORSDOF 6
ENDMDL
MODEL 9
REMARK VINA RESULT:    -5.077      2.068      4.856
REMARK INTER + INTRA:          -7.770
REMARK INTER:                  -6.893
REMARK INTRA:                  -0.877
REMARK UNBOUND:                -0.913
REMARK SMILES CC(=O)CCC=C(C)CCC=C(C)C
REMARK SMILES IDX 7 1 6 2 8 3 9 4 10 5 11 6 13 7 12 8 14 9 5 10 4 11 2 12 3 13
REMARK SMILES IDX 1 14
REMARK H PARENT
REMARK Flexibility Score: inf
ROOT
ATOM      1  C   UNL     1     -12.431 -36.337  30.423  1.00  0.00    -0.077 C 
ATOM      2  C   UNL     1     -11.602 -35.454  29.820  1.00  0.00    -0.028 C 
ATOM      3  C   UNL     1     -13.075 -37.473  29.663  1.00  0.00     0.039 C 
ENDROOT
BRANCH   1   4
ATOM      4  C   UNL     1     -12.728 -36.179  31.900  1.00  0.00     0.034 C 
BRANCH   4   5
ATOM      5  C   UNL     1     -12.699 -34.706  32.335  1.00  0.00     0.032 C 
BRANCH   5   6
ATOM      6  C   UNL     1     -13.999 -34.002  32.022  1.00  0.00    -0.028 C 
ATOM      7  C   UNL     1     -15.876 -32.434  32.396  1.00  0.00     0.039 C 
ATOM      8  C   UNL     1     -14.594 -33.096  32.830  1.00  0.00    -0.080 C 
ATOM      9  C   UNL     1     -14.048 -32.758  34.195  1.00  0.00     0.039 C 
ENDBRANCH   5   6
ENDBRANCH   4   5
ENDBRANCH   1   4
BRANCH   2  10
ATOM     10  C   UNL     1     -11.169 -35.539  28.378  1.00  0.00     0.035 C 
BRANCH  10  11
ATOM     11  C   UNL     1     -11.541 -34.251  27.629  1.00  0.00     0.079 C 
BRANCH  11  12
ATOM     12  C   UNL     1     -13.006 -33.884  27.704  1.00  0.00     0.130 C 
ATOM     13  O   UNL     1     -13.804 -34.548  27.059  1.00  0.00    -0.300 OA
ATOM     14  C   UNL     1     -13.524 -32.746  28.540  1.00  0.00     0.087 C 
ENDBRANCH  11  12
ENDBRANCH  10  11
ENDBRANCH   2  10
TORSDOF 6
ENDMDL
