MODEL 1
REMARK VINA RESULT:    -0.860      0.000      0.000
REMARK INTER + INTRA:          -0.046
REMARK INTER:                  -1.263
REMARK INTRA:                   1.217
REMARK UNBOUND:                 1.217
REMARK SMILES C=C1CC=CC(C)(C)CC=C(C)CCC1
REMARK SMILES IDX 2 1 1 2 15 3 14 4 13 5 11 6 12 7 10 8 3 10 4 11 5 12 6 13
REMARK SMILES IDX 7 14 8 15 9 16
REMARK H PARENT
REMARK Flexibility Score: 60.00
ROOT
ATOM      1  C   UNL     1       3.456   9.778  11.621  1.00  0.00    -0.074 C 
ATOM      2  C   UNL     1       2.548  10.468  10.915  1.00  0.00     0.008 C 
ENDROOT
BRANCH   1   3
ATOM      3  C   UNL     1       3.103   9.284  13.013  1.00  0.00     0.031 C 
BRANCH   3   4
ATOM      4  C   UNL     1       2.838   7.770  13.002  1.00  0.00     0.009 C 
BRANCH   4   5
ATOM      5  C   UNL     1       3.892   6.983  13.804  1.00  0.00     0.030 C 
BRANCH   5   6
ATOM      6  C   UNL     1       4.340   5.755  13.039  1.00  0.00    -0.077 C 
ATOM      7  C   UNL     1       3.262   4.905  12.414  1.00  0.00     0.039 C 
ATOM      8  C   UNL     1       5.633   5.343  12.971  1.00  0.00    -0.027 CG0
ATOM      9  G   UNL     1       6.853   6.089  13.490  1.00  0.00     0.000 G0
ENDBRANCH   5   6
ENDBRANCH   4   5
ENDBRANCH   3   4
ENDBRANCH   1   3
BRANCH   1  10
ATOM     10  C   UNL     1       4.836   9.562  11.018  1.00  0.00     0.057 C 
BRANCH  10  11
ATOM     11  C   UNL     1       5.795   8.870  11.955  1.00  0.00    -0.026 C 
ATOM     12  C   UNL     1       6.432   7.732  11.613  1.00  0.00    -0.024 C 
BRANCH  12  13
ATOM     13  C   UNL     1       7.506   7.090  12.484  1.00  0.00    -0.014 C 
ATOM     14  C   UNL     1       8.290   8.202  13.217  1.00  0.00     0.016 C 
ATOM     15  C   UNL     1       8.511   6.323  11.593  1.00  0.00     0.016 C 
BRANCH  13  16
ATOM     16  C   UNL     1       6.859   6.091  13.497  1.00  0.00     0.038 CG0
ATOM     17  G   UNL     1       5.644   5.344  12.969  1.00  0.00     0.000 G0
ENDBRANCH  13  16
ENDBRANCH  12  13
ENDBRANCH  10  11
ENDBRANCH   1  10
TORSDOF 0
ENDMDL
MODEL 2
REMARK VINA RESULT:     1.043      1.319      3.365
REMARK INTER + INTRA:           2.748
REMARK INTER:                  -0.230
REMARK INTRA:                   2.978
REMARK UNBOUND:                 1.217
REMARK SMILES C=C1CC=CC(C)(C)CC=C(C)CCC1
REMARK SMILES IDX 2 1 1 2 15 3 14 4 13 5 11 6 12 7 10 8 3 10 4 11 5 12 6 13
REMARK SMILES IDX 7 14 8 15 9 16
REMARK H PARENT
REMARK Flexibility Score: 60.00
ROOT
ATOM      1  C   UNL     1       4.277   9.999  11.529  1.00  0.00    -0.074 C 
ATOM      2  C   UNL     1       3.972  11.277  11.798  1.00  0.00     0.008 C 
ENDROOT
BRANCH   1   3
ATOM      3  C   UNL     1       5.614   9.667  10.890  1.00  0.00     0.031 C 
BRANCH   3   4
ATOM      4  C   UNL     1       6.329   8.554  11.673  1.00  0.00     0.009 C 
BRANCH   4   5
ATOM      5  C   UNL     1       6.981   9.071  12.968  1.00  0.00     0.030 C 
BRANCH   5   6
ATOM      6  C   UNL     1       7.873   8.011  13.580  1.00  0.00    -0.077 C 
ATOM      7  C   UNL     1       9.363   8.230  13.486  1.00  0.00     0.039 C 
ATOM      8  C   UNL     1       7.405   6.854  14.116  1.00  0.00    -0.027 CG0
ATOM      9  G   UNL     1       5.948   6.482  14.343  1.00  0.00     0.000 G0
ENDBRANCH   5   6
ENDBRANCH   4   5
ENDBRANCH   3   4
ENDBRANCH   1   3
BRANCH   1  10
ATOM     10  C   UNL     1       3.241   8.925  11.826  1.00  0.00     0.057 C 
BRANCH  10  11
ATOM     11  C   UNL     1       3.756   7.833  12.731  1.00  0.00    -0.026 C 
ATOM     12  C   UNL     1       4.544   6.840  12.274  1.00  0.00    -0.024 C 
BRANCH  12  13
ATOM     13  C   UNL     1       5.188   5.804  13.190  1.00  0.00    -0.014 C 
ATOM     14  C   UNL     1       6.149   4.926  12.358  1.00  0.00     0.016 C 
ATOM     15  C   UNL     1       4.098   4.875  13.773  1.00  0.00     0.016 C 
BRANCH  13  16
ATOM     16  C   UNL     1       5.938   6.509  14.366  1.00  0.00     0.038 CG0
ATOM     17  G   UNL     1       7.407   6.803  14.099  1.00  0.00     0.000 G0
ENDBRANCH  13  16
ENDBRANCH  12  13
ENDBRANCH  10  11
ENDBRANCH   1  10
TORSDOF 0
ENDMDL
MODEL 3
REMARK VINA RESULT:     1.172      1.623      4.402
REMARK INTER + INTRA:           2.937
REMARK INTER:                   1.400
REMARK INTRA:                   1.537
REMARK UNBOUND:                 1.217
REMARK SMILES C=C1CC=CC(C)(C)CC=C(C)CCC1
REMARK SMILES IDX 2 1 1 2 15 3 14 4 13 5 11 6 12 7 10 8 3 10 4 11 5 12 6 13
REMARK SMILES IDX 7 14 8 15 9 16
REMARK H PARENT
REMARK Flexibility Score: 60.00
ROOT
ATOM      1  C   UNL     1       8.323   8.093  13.814  1.00  0.00    -0.074 C 
ATOM      2  C   UNL     1       9.637   8.235  13.585  1.00  0.00     0.008 C 
ENDROOT
BRANCH   1   3
ATOM      3  C   UNL     1       7.730   6.700  13.931  1.00  0.00     0.031 C 
BRANCH   3   4
ATOM      4  C   UNL     1       7.688   6.010  12.558  1.00  0.00     0.009 C 
BRANCH   4   5
ATOM      5  C   UNL     1       6.641   6.636  11.617  1.00  0.00     0.030 C 
BRANCH   5   6
ATOM      6  C   UNL     1       5.241   6.223  12.024  1.00  0.00    -0.077 C 
ATOM      7  C   UNL     1       5.106   4.949  12.820  1.00  0.00     0.039 C 
ATOM      8  C   UNL     1       4.121   6.884  11.634  1.00  0.00    -0.027 CG0
ATOM      9  G   UNL     1       4.060   8.203  10.878  1.00  0.00     0.000 G0
ENDBRANCH   5   6
ENDBRANCH   4   5
ENDBRANCH   3   4
ENDBRANCH   1   3
BRANCH   1  10
ATOM     10  C   UNL     1       7.458   9.343  13.892  1.00  0.00     0.057 C 
BRANCH  10  11
ATOM     11  C   UNL     1       6.497   9.478  12.737  1.00  0.00    -0.026 C 
ATOM     12  C   UNL     1       5.179   9.236  12.874  1.00  0.00    -0.024 C 
BRANCH  12  13
ATOM     13  C   UNL     1       4.169   9.496  11.761  1.00  0.00    -0.014 C 
ATOM     14  C   UNL     1       4.648  10.701  10.920  1.00  0.00     0.016 C 
ATOM     15  C   UNL     1       2.801   9.874  12.375  1.00  0.00     0.016 C 
BRANCH  13  16
ATOM     16  C   UNL     1       3.994   8.221  10.875  1.00  0.00     0.038 CG0
ATOM     17  G   UNL     1       4.119   6.902  11.624  1.00  0.00     0.000 G0
ENDBRANCH  13  16
ENDBRANCH  12  13
ENDBRANCH  10  11
ENDBRANCH   1  10
TORSDOF 0
ENDMDL
MODEL 4
REMARK VINA RESULT:     1.734      5.662      7.439
REMARK INTER + INTRA:           3.762
REMARK INTER:                   1.913
REMARK INTRA:                   1.849
REMARK UNBOUND:                 1.217
REMARK SMILES C=C1CC=CC(C)(C)CC=C(C)CCC1
REMARK SMILES IDX 2 1 1 2 15 3 14 4 13 5 11 6 12 7 10 8 3 10 4 11 5 12 6 13
REMARK SMILES IDX 7 14 8 15 9 16
REMARK H PARENT
REMARK Flexibility Score: 60.00
ROOT
ATOM      1  C   UNL     1       2.752  13.304  15.988  1.00  0.00    -0.074 C 
ATOM      2  C   UNL     1       2.667  13.896  17.188  1.00  0.00     0.008 C 
ENDROOT
BRANCH   1   3
ATOM      3  C   UNL     1       1.617  12.415  15.510  1.00  0.00     0.031 C 
BRANCH   3   4
ATOM      4  C   UNL     1       1.998  11.705  14.201  1.00  0.00     0.009 C 
BRANCH   4   5
ATOM      5  C   UNL     1       0.919  11.861  13.113  1.00  0.00     0.030 C 
BRANCH   5   6
ATOM      6  C   UNL     1       1.494  11.568  11.742  1.00  0.00    -0.077 C 
ATOM      7  C   UNL     1       1.658  10.117  11.364  1.00  0.00     0.039 C 
ATOM      8  C   UNL     1       1.942  12.530  10.895  1.00  0.00    -0.027 CG0
ATOM      9  G   UNL     1       1.815  14.035  11.079  1.00  0.00     0.000 G0
ENDBRANCH   5   6
ENDBRANCH   4   5
ENDBRANCH   3   4
ENDBRANCH   1   3
BRANCH   1  10
ATOM     10  C   UNL     1       4.017  13.502  15.166  1.00  0.00     0.057 C 
BRANCH  10  11
ATOM     11  C   UNL     1       3.762  13.549  13.680  1.00  0.00    -0.026 C 
ATOM     12  C   UNL     1       3.273  14.649  13.073  1.00  0.00    -0.024 C 
BRANCH  12  13
ATOM     13  C   UNL     1       3.136  14.768  11.559  1.00  0.00    -0.014 C 
ATOM     14  C   UNL     1       4.387  14.155  10.891  1.00  0.00     0.016 C 
ATOM     15  C   UNL     1       3.079  16.260  11.156  1.00  0.00     0.016 C 
BRANCH  13  16
ATOM     16  C   UNL     1       1.830  14.060  11.073  1.00  0.00     0.038 CG0
ATOM     17  G   UNL     1       1.944  12.551  10.914  1.00  0.00     0.000 G0
ENDBRANCH  13  16
ENDBRANCH  12  13
ENDBRANCH  10  11
ENDBRANCH   1  10
TORSDOF 0
ENDMDL
MODEL 5
REMARK VINA RESULT:     1.974      4.885      7.351
REMARK INTER + INTRA:           4.115
REMARK INTER:                   1.474
REMARK INTRA:                   2.641
REMARK UNBOUND:                 1.217
REMARK SMILES C=C1CC=CC(C)(C)CC=C(C)CCC1
REMARK SMILES IDX 2 1 1 2 15 3 14 4 13 5 11 6 12 7 10 8 3 10 4 11 5 12 6 13
REMARK SMILES IDX 7 14 8 15 9 16
REMARK H PARENT
REMARK Flexibility Score: 60.00
ROOT
ATOM      1  C   UNL     1       2.190  12.397  15.434  1.00  0.00    -0.074 C 
ATOM      2  C   UNL     1       1.606  12.255  16.633  1.00  0.00     0.008 C 
ENDROOT
BRANCH   1   3
ATOM      3  C   UNL     1       1.712  11.554  14.265  1.00  0.00     0.031 C 
BRANCH   3   4
ATOM      4  C   UNL     1       1.477  12.431  13.024  1.00  0.00     0.009 C 
BRANCH   4   5
ATOM      5  C   UNL     1       1.746  11.673  11.710  1.00  0.00     0.030 C 
BRANCH   5   6
ATOM      6  C   UNL     1       3.213  11.748  11.339  1.00  0.00    -0.077 C 
ATOM      7  C   UNL     1       4.007  10.468  11.416  1.00  0.00     0.039 C 
ATOM      8  C   UNL     1       3.852  12.908  11.036  1.00  0.00    -0.027 CG0
ATOM      9  G   UNL     1       3.215  14.278  10.860  1.00  0.00     0.000 G0
ENDBRANCH   5   6
ENDBRANCH   4   5
ENDBRANCH   3   4
ENDBRANCH   1   3
BRANCH   1  10
ATOM     10  C   UNL     1       3.357  13.365  15.302  1.00  0.00     0.057 C 
BRANCH  10  11
ATOM     11  C   UNL     1       3.662  13.740  13.873  1.00  0.00    -0.026 C 
ATOM     12  C   UNL     1       3.256  14.909  13.340  1.00  0.00    -0.024 C 
BRANCH  12  13
ATOM     13  C   UNL     1       3.667  15.371  11.946  1.00  0.00    -0.014 C 
ATOM     14  C   UNL     1       5.193  15.616  11.928  1.00  0.00     0.016 C 
ATOM     15  C   UNL     1       2.977  16.716  11.617  1.00  0.00     0.016 C 
BRANCH  13  16
ATOM     16  C   UNL     1       3.250  14.311  10.876  1.00  0.00     0.038 CG0
ATOM     17  G   UNL     1       3.857  12.930  11.077  1.00  0.00     0.000 G0
ENDBRANCH  13  16
ENDBRANCH  12  13
ENDBRANCH  10  11
ENDBRANCH   1  10
TORSDOF 0
ENDMDL
