MODEL 1
REMARK VINA RESULT:    -7.471      0.000      0.000
REMARK INTER + INTRA:          -8.960
REMARK INTER:                  -8.781
REMARK INTRA:                  -0.179
REMARK UNBOUND:                -0.179
REMARK SMILES O=c1c(O)c(-c2ccc(O)c(O)c2)oc2cc(O)ccc12
REMARK SMILES IDX 5 1 3 2 2 3 1 4 21 5 15 6 14 7 16 8 17 9 19 10 20 11 6 12
REMARK SMILES IDX 7 13 8 14 9 15 13 16 11 17 10 18 12 20 4 22 18 24
REMARK H PARENT 10 19 12 21 4 23 18 25
REMARK Flexibility Score: inf
ROOT
ATOM      1  C   UNL     1     102.435  93.161 103.745  1.00  0.00     0.180 A 
ATOM      2  C   UNL     1     103.826  93.043 103.538  1.00  0.00     0.208 A 
ATOM      3  C   UNL     1     104.318  93.072 102.225  1.00  0.00     0.235 A 
ATOM      4  O   UNL     1     105.559  92.978 102.014  1.00  0.00    -0.285 OA
ATOM      5  C   UNL     1     103.421  93.198 101.152  1.00  0.00     0.069 A 
ATOM      6  C   UNL     1     102.042  93.287 101.441  1.00  0.00     0.142 A 
ATOM      7  O   UNL     1     101.617  93.265 102.699  1.00  0.00    -0.452 OA
ATOM      8  C   UNL     1     101.115  93.404 100.400  1.00  0.00     0.094 A 
ATOM      9  C   UNL     1     101.547  93.435  99.070  1.00  0.00     0.119 A 
ATOM     10  C   UNL     1     102.916  93.347  98.779  1.00  0.00     0.047 A 
ATOM     11  C   UNL     1     103.850  93.230  99.812  1.00  0.00     0.020 A 
ENDROOT
BRANCH   1  12
ATOM     12  C   UNL     1     101.839  93.158 105.099  1.00  0.00     0.025 A 
ATOM     13  C   UNL     1     102.114  94.218 105.978  1.00  0.00     0.016 A 
ATOM     14  C   UNL     1     101.579  94.226 107.268  1.00  0.00     0.051 A 
ATOM     15  C   UNL     1     100.774  93.169 107.706  1.00  0.00     0.157 A 
ATOM     16  C   UNL     1     101.045  92.086 105.549  1.00  0.00     0.062 A 
ATOM     17  C   UNL     1     100.508  92.091 106.845  1.00  0.00     0.158 A 
BRANCH  15  18
ATOM     18  O   UNL     1     100.252  93.205 108.998  1.00  0.00    -0.504 OA
ATOM     19  H   UNL     1     100.326  92.418 109.631  1.00  0.00     0.293 HD
ENDBRANCH  15  18
BRANCH  17  20
ATOM     20  O   UNL     1      99.719  91.029 107.280  1.00  0.00    -0.504 OA
ATOM     21  H   UNL     1      99.636  90.796 108.264  1.00  0.00     0.293 HD
ENDBRANCH  17  20
ENDBRANCH   1  12
BRANCH   2  22
ATOM     22  O   UNL     1     104.689  92.869 104.621  1.00  0.00    -0.502 OA
ATOM     23  H   UNL     1     105.621  92.487 104.515  1.00  0.00     0.293 HD
ENDBRANCH   2  22
BRANCH   9  24
ATOM     24  O   UNL     1     100.611  93.551  98.046  1.00  0.00    -0.508 OA
ATOM     25  H   UNL     1     100.882  93.497  97.071  1.00  0.00     0.293 HD
ENDBRANCH   9  24
TORSDOF 5
ENDMDL
MODEL 2
REMARK VINA RESULT:    -7.267      3.184      4.454
REMARK INTER + INTRA:          -8.720
REMARK INTER:                  -8.397
REMARK INTRA:                  -0.324
REMARK UNBOUND:                -0.179
REMARK SMILES O=c1c(O)c(-c2ccc(O)c(O)c2)oc2cc(O)ccc12
REMARK SMILES IDX 5 1 3 2 2 3 1 4 21 5 15 6 14 7 16 8 17 9 19 10 20 11 6 12
REMARK SMILES IDX 7 13 8 14 9 15 13 16 11 17 10 18 12 20 4 22 18 24
REMARK H PARENT 10 19 12 21 4 23 18 25
REMARK Flexibility Score: inf
ROOT
ATOM      1  C   UNL     1     105.341  91.961 103.903  1.00  0.00     0.180 A 
ATOM      2  C   UNL     1     106.490  91.674 104.671  1.00  0.00     0.208 A 
ATOM      3  C   UNL     1     107.706  91.451 104.010  1.00  0.00     0.235 A 
ATOM      4  O   UNL     1     108.750  91.203 104.675  1.00  0.00    -0.285 OA
ATOM      5  C   UNL     1     107.749  91.498 102.607  1.00  0.00     0.069 A 
ATOM      6  C   UNL     1     106.552  91.767 101.910  1.00  0.00     0.142 A 
ATOM      7  O   UNL     1     105.422  91.982 102.574  1.00  0.00    -0.452 OA
ATOM      8  C   UNL     1     106.551  91.813 100.512  1.00  0.00     0.094 A 
ATOM      9  C   UNL     1     107.734  91.595  99.798  1.00  0.00     0.119 A 
ATOM     10  C   UNL     1     108.925  91.328 100.487  1.00  0.00     0.047 A 
ATOM     11  C   UNL     1     108.936  91.279 101.883  1.00  0.00     0.020 A 
ENDROOT
BRANCH   1  12
ATOM     12  C   UNL     1     104.025  92.226 104.527  1.00  0.00     0.025 A 
ATOM     13  C   UNL     1     103.126  91.165 104.719  1.00  0.00     0.016 A 
ATOM     14  C   UNL     1     101.870  91.396 105.287  1.00  0.00     0.051 A 
ATOM     15  C   UNL     1     101.488  92.689 105.657  1.00  0.00     0.157 A 
ATOM     16  C   UNL     1     103.631  93.529 104.880  1.00  0.00     0.062 A 
ATOM     17  C   UNL     1     102.370  93.763 105.449  1.00  0.00     0.158 A 
BRANCH  15  18
ATOM     18  O   UNL     1     100.230  92.888 106.223  1.00  0.00    -0.504 OA
ATOM     19  H   UNL     1      99.425  92.336 105.954  1.00  0.00     0.293 HD
ENDBRANCH  15  18
BRANCH  17  20
ATOM     20  O   UNL     1     101.989  95.056 105.802  1.00  0.00    -0.504 OA
ATOM     21  H   UNL     1     101.675  95.726 105.108  1.00  0.00     0.293 HD
ENDBRANCH  17  20
ENDBRANCH   1  12
BRANCH   2  22
ATOM     22  O   UNL     1     106.406  91.585 106.062  1.00  0.00    -0.502 OA
ATOM     23  H   UNL     1     106.087  90.746 106.533  1.00  0.00     0.293 HD
ENDBRANCH   2  22
BRANCH   9  24
ATOM     24  O   UNL     1     107.715  91.644  98.406  1.00  0.00    -0.508 OA
ATOM     25  H   UNL     1     107.413  92.474  97.910  1.00  0.00     0.293 HD
ENDBRANCH   9  24
TORSDOF 5
ENDMDL
MODEL 3
REMARK VINA RESULT:    -7.252      3.534      7.389
REMARK INTER + INTRA:          -8.704
REMARK INTER:                  -8.843
REMARK INTRA:                   0.140
REMARK UNBOUND:                -0.179
REMARK SMILES O=c1c(O)c(-c2ccc(O)c(O)c2)oc2cc(O)ccc12
REMARK SMILES IDX 5 1 3 2 2 3 1 4 21 5 15 6 14 7 16 8 17 9 19 10 20 11 6 12
REMARK SMILES IDX 7 13 8 14 9 15 13 16 11 17 10 18 12 20 4 22 18 24
REMARK H PARENT 10 19 12 21 4 23 18 25
REMARK Flexibility Score: inf
ROOT
ATOM      1  C   UNL     1     104.331  92.142 105.482  1.00  0.00     0.180 A 
ATOM      2  C   UNL     1     103.153  91.504 105.038  1.00  0.00     0.208 A 
ATOM      3  C   UNL     1     101.958  91.730 105.737  1.00  0.00     0.235 A 
ATOM      4  O   UNL     1     100.889  91.179 105.354  1.00  0.00    -0.285 OA
ATOM      5  C   UNL     1     101.965  92.565 106.866  1.00  0.00     0.069 A 
ATOM      6  C   UNL     1     103.189  93.146 107.259  1.00  0.00     0.142 A 
ATOM      7  O   UNL     1     104.297  92.915 106.565  1.00  0.00    -0.452 OA
ATOM      8  C   UNL     1     103.239  93.977 108.385  1.00  0.00     0.094 A 
ATOM      9  C   UNL     1     102.080  94.235 109.123  1.00  0.00     0.119 A 
ATOM     10  C   UNL     1     100.862  93.660 108.734  1.00  0.00     0.047 A 
ATOM     11  C   UNL     1     100.802  92.829 107.613  1.00  0.00     0.020 A 
ENDROOT
BRANCH   1  12
ATOM     12  C   UNL     1     105.627  91.969 104.788  1.00  0.00     0.025 A 
ATOM     13  C   UNL     1     105.665  91.973 103.384  1.00  0.00     0.016 A 
ATOM     14  C   UNL     1     106.874  91.792 102.709  1.00  0.00     0.051 A 
ATOM     15  C   UNL     1     108.060  91.589 103.422  1.00  0.00     0.157 A 
ATOM     16  C   UNL     1     106.818  91.745 105.504  1.00  0.00     0.062 A 
ATOM     17  C   UNL     1     108.033  91.561 104.826  1.00  0.00     0.158 A 
BRANCH  15  18
ATOM     18  O   UNL     1     109.252  91.414 102.720  1.00  0.00    -0.504 OA
ATOM     19  H   UNL     1     109.313  91.557 101.720  1.00  0.00     0.293 HD
ENDBRANCH  15  18
BRANCH  17  20
ATOM     20  O   UNL     1     109.208  91.345 105.543  1.00  0.00    -0.504 OA
ATOM     21  H   UNL     1     109.194  90.981 106.489  1.00  0.00     0.293 HD
ENDBRANCH  17  20
ENDBRANCH   1  12
BRANCH   2  22
ATOM     22  O   UNL     1     103.187  90.640 103.941  1.00  0.00    -0.502 OA
ATOM     23  H   UNL     1     102.594  89.821 103.878  1.00  0.00     0.293 HD
ENDBRANCH   2  22
BRANCH   9  24
ATOM     24  O   UNL     1     102.148  95.064 110.240  1.00  0.00    -0.508 OA
ATOM     25  H   UNL     1     102.005  96.065 110.167  1.00  0.00     0.293 HD
ENDBRANCH   9  24
TORSDOF 5
ENDMDL
MODEL 4
REMARK VINA RESULT:    -7.190      2.019      3.784
REMARK INTER + INTRA:          -8.630
REMARK INTER:                  -8.312
REMARK INTRA:                  -0.318
REMARK UNBOUND:                -0.179
REMARK SMILES O=c1c(O)c(-c2ccc(O)c(O)c2)oc2cc(O)ccc12
REMARK SMILES IDX 5 1 3 2 2 3 1 4 21 5 15 6 14 7 16 8 17 9 19 10 20 11 6 12
REMARK SMILES IDX 7 13 8 14 9 15 13 16 11 17 10 18 12 20 4 22 18 24
REMARK H PARENT 10 19 12 21 4 23 18 25
REMARK Flexibility Score: inf
ROOT
ATOM      1  C   UNL     1     103.456  92.914 104.572  1.00  0.00     0.180 A 
ATOM      2  C   UNL     1     103.134  93.536 103.347  1.00  0.00     0.208 A 
ATOM      3  C   UNL     1     104.014  93.390 102.264  1.00  0.00     0.235 A 
ATOM      4  O   UNL     1     103.744  93.928 101.155  1.00  0.00    -0.285 OA
ATOM      5  C   UNL     1     105.196  92.650 102.428  1.00  0.00     0.069 A 
ATOM      6  C   UNL     1     105.457  92.080 103.693  1.00  0.00     0.142 A 
ATOM      7  O   UNL     1     104.594  92.233 104.690  1.00  0.00    -0.452 OA
ATOM      8  C   UNL     1     106.630  91.344 103.899  1.00  0.00     0.094 A 
ATOM      9  C   UNL     1     107.546  91.168 102.858  1.00  0.00     0.119 A 
ATOM     10  C   UNL     1     107.289  91.733 101.600  1.00  0.00     0.047 A 
ATOM     11  C   UNL     1     106.122  92.470 101.384  1.00  0.00     0.020 A 
ENDROOT
BRANCH   1  12
ATOM     12  C   UNL     1     102.572  93.005 105.755  1.00  0.00     0.025 A 
ATOM     13  C   UNL     1     102.859  93.940 106.762  1.00  0.00     0.016 A 
ATOM     14  C   UNL     1     102.049  94.030 107.897  1.00  0.00     0.051 A 
ATOM     15  C   UNL     1     100.951  93.178 108.052  1.00  0.00     0.157 A 
ATOM     16  C   UNL     1     101.478  92.135 105.922  1.00  0.00     0.062 A 
ATOM     17  C   UNL     1     100.665  92.223 107.062  1.00  0.00     0.158 A 
BRANCH  15  18
ATOM     18  O   UNL     1     100.160  93.292 109.194  1.00  0.00    -0.504 OA
ATOM     19  H   UNL     1      99.176  93.050 109.193  1.00  0.00     0.293 HD
ENDBRANCH  15  18
BRANCH  17  20
ATOM     20  O   UNL     1      99.581  91.361 107.216  1.00  0.00    -0.504 OA
ATOM     21  H   UNL     1      99.701  90.408 107.543  1.00  0.00     0.293 HD
ENDBRANCH  17  20
ENDBRANCH   1  12
BRANCH   2  22
ATOM     22  O   UNL     1     101.976  94.306 103.227  1.00  0.00    -0.502 OA
ATOM     23  H   UNL     1     101.648  94.656 102.335  1.00  0.00     0.293 HD
ENDBRANCH   2  22
BRANCH   9  24
ATOM     24  O   UNL     1     108.707  90.433 103.081  1.00  0.00    -0.508 OA
ATOM     25  H   UNL     1     109.489  90.468 102.437  1.00  0.00     0.293 HD
ENDBRANCH   9  24
TORSDOF 5
ENDMDL
MODEL 5
REMARK VINA RESULT:    -7.158      1.780      6.664
REMARK INTER + INTRA:          -8.592
REMARK INTER:                  -8.448
REMARK INTRA:                  -0.144
REMARK UNBOUND:                -0.179
REMARK SMILES O=c1c(O)c(-c2ccc(O)c(O)c2)oc2cc(O)ccc12
REMARK SMILES IDX 5 1 3 2 2 3 1 4 21 5 15 6 14 7 16 8 17 9 19 10 20 11 6 12
REMARK SMILES IDX 7 13 8 14 9 15 13 16 11 17 10 18 12 20 4 22 18 24
REMARK H PARENT 10 19 12 21 4 23 18 25
REMARK Flexibility Score: inf
ROOT
ATOM      1  C   UNL     1     103.338  93.022 103.049  1.00  0.00     0.180 A 
ATOM      2  C   UNL     1     104.501  92.249 103.254  1.00  0.00     0.208 A 
ATOM      3  C   UNL     1     104.973  92.073 104.564  1.00  0.00     0.235 A 
ATOM      4  O   UNL     1     106.005  91.378 104.774  1.00  0.00    -0.285 OA
ATOM      5  C   UNL     1     104.294  92.682 105.631  1.00  0.00     0.069 A 
ATOM      6  C   UNL     1     103.153  93.459 105.341  1.00  0.00     0.142 A 
ATOM      7  O   UNL     1     102.732  93.594 104.088  1.00  0.00    -0.452 OA
ATOM      8  C   UNL     1     102.454  94.090 106.376  1.00  0.00     0.094 A 
ATOM      9  C   UNL     1     102.880  93.954 107.701  1.00  0.00     0.119 A 
ATOM     10  C   UNL     1     104.014  93.182 107.993  1.00  0.00     0.047 A 
ATOM     11  C   UNL     1     104.719  92.549 106.966  1.00  0.00     0.020 A 
ENDROOT
BRANCH   1  12
ATOM     12  C   UNL     1     102.766  93.239 101.702  1.00  0.00     0.025 A 
ATOM     13  C   UNL     1     101.507  92.701 101.392  1.00  0.00     0.016 A 
ATOM     14  C   UNL     1     100.956  92.877 100.120  1.00  0.00     0.051 A 
ATOM     15  C   UNL     1     101.660  93.577  99.135  1.00  0.00     0.157 A 
ATOM     16  C   UNL     1     103.481  93.925 100.704  1.00  0.00     0.062 A 
ATOM     17  C   UNL     1     102.930  94.101  99.425  1.00  0.00     0.158 A 
BRANCH  15  18
ATOM     18  O   UNL     1     101.084  93.738  97.875  1.00  0.00    -0.504 OA
ATOM     19  H   UNL     1     100.085  93.665  97.727  1.00  0.00     0.293 HD
ENDBRANCH  15  18
BRANCH  17  20
ATOM     20  O   UNL     1     103.643  94.787  98.444  1.00  0.00    -0.504 OA
ATOM     21  H   UNL     1     104.452  94.377  97.989  1.00  0.00     0.293 HD
ENDBRANCH  17  20
ENDBRANCH   1  12
BRANCH   2  22
ATOM     22  O   UNL     1     105.183  91.697 102.168  1.00  0.00    -0.502 OA
ATOM     23  H   UNL     1     104.716  91.448 101.305  1.00  0.00     0.293 HD
ENDBRANCH   2  22
BRANCH   9  24
ATOM     24  O   UNL     1     102.173  94.589 108.719  1.00  0.00    -0.508 OA
ATOM     25  H   UNL     1     101.194  94.389 108.888  1.00  0.00     0.293 HD
ENDBRANCH   9  24
TORSDOF 5
ENDMDL
MODEL 6
REMARK VINA RESULT:    -7.105      1.727      2.595
REMARK INTER + INTRA:          -8.530
REMARK INTER:                  -8.577
REMARK INTRA:                   0.047
REMARK UNBOUND:                -0.179
REMARK SMILES O=c1c(O)c(-c2ccc(O)c(O)c2)oc2cc(O)ccc12
REMARK SMILES IDX 5 1 3 2 2 3 1 4 21 5 15 6 14 7 16 8 17 9 19 10 20 11 6 12
REMARK SMILES IDX 7 13 8 14 9 15 13 16 11 17 10 18 12 20 4 22 18 24
REMARK H PARENT 10 19 12 21 4 23 18 25
REMARK Flexibility Score: inf
ROOT
ATOM      1  C   UNL     1     101.815  92.780 104.126  1.00  0.00     0.180 A 
ATOM      2  C   UNL     1     101.128  91.592 103.798  1.00  0.00     0.208 A 
ATOM      3  C   UNL     1     100.965  91.257 102.446  1.00  0.00     0.235 A 
ATOM      4  O   UNL     1     100.363  90.195 102.127  1.00  0.00    -0.285 OA
ATOM      5  C   UNL     1     101.469  92.115 101.456  1.00  0.00     0.069 A 
ATOM      6  C   UNL     1     102.123  93.297 101.865  1.00  0.00     0.142 A 
ATOM      7  O   UNL     1     102.265  93.573 103.156  1.00  0.00    -0.452 OA
ATOM      8  C   UNL     1     102.631  94.183 100.908  1.00  0.00     0.094 A 
ATOM      9  C   UNL     1     102.495  93.904  99.545  1.00  0.00     0.119 A 
ATOM     10  C   UNL     1     101.846  92.730  99.135  1.00  0.00     0.047 A 
ATOM     11  C   UNL     1     101.335  91.840 100.082  1.00  0.00     0.020 A 
ENDROOT
BRANCH   1  12
ATOM     12  C   UNL     1     102.045  93.194 105.529  1.00  0.00     0.025 A 
ATOM     13  C   UNL     1     103.339  93.548 105.941  1.00  0.00     0.016 A 
ATOM     14  C   UNL     1     103.583  93.923 107.265  1.00  0.00     0.051 A 
ATOM     15  C   UNL     1     102.542  93.934 108.199  1.00  0.00     0.157 A 
ATOM     16  C   UNL     1     101.003  93.187 106.475  1.00  0.00     0.062 A 
ATOM     17  C   UNL     1     101.247  93.561 107.805  1.00  0.00     0.158 A 
BRANCH  15  18
ATOM     18  O   UNL     1     102.815  94.314 109.513  1.00  0.00    -0.504 OA
ATOM     19  H   UNL     1     102.803  93.652 110.278  1.00  0.00     0.293 HD
ENDBRANCH  15  18
BRANCH  17  20
ATOM     20  O   UNL     1     100.208  93.557 108.735  1.00  0.00    -0.504 OA
ATOM     21  H   UNL     1      99.514  92.818 108.752  1.00  0.00     0.293 HD
ENDBRANCH  17  20
ENDBRANCH   1  12
BRANCH   2  22
ATOM     22  O   UNL     1     100.595  90.783 104.804  1.00  0.00    -0.502 OA
ATOM     23  H   UNL     1     100.729  89.780 104.820  1.00  0.00     0.293 HD
ENDBRANCH   2  22
BRANCH   9  24
ATOM     24  O   UNL     1     103.006  94.797  98.606  1.00  0.00    -0.508 OA
ATOM     25  H   UNL     1     102.742  95.775  98.608  1.00  0.00     0.293 HD
ENDBRANCH   9  24
TORSDOF 5
ENDMDL
MODEL 7
REMARK VINA RESULT:    -7.092      3.164      5.304
REMARK INTER + INTRA:          -8.515
REMARK INTER:                  -8.342
REMARK INTRA:                  -0.173
REMARK UNBOUND:                -0.179
REMARK SMILES O=c1c(O)c(-c2ccc(O)c(O)c2)oc2cc(O)ccc12
REMARK SMILES IDX 5 1 3 2 2 3 1 4 21 5 15 6 14 7 16 8 17 9 19 10 20 11 6 12
REMARK SMILES IDX 7 13 8 14 9 15 13 16 11 17 10 18 12 20 4 22 18 24
REMARK H PARENT 10 19 12 21 4 23 18 25
REMARK Flexibility Score: inf
ROOT
ATOM      1  C   UNL     1     104.909  92.098 103.926  1.00  0.00     0.180 A 
ATOM      2  C   UNL     1     103.740  92.109 104.717  1.00  0.00     0.208 A 
ATOM      3  C   UNL     1     102.550  92.598 104.157  1.00  0.00     0.235 A 
ATOM      4  O   UNL     1     101.489  92.609 104.840  1.00  0.00    -0.285 OA
ATOM      5  C   UNL     1     102.554  93.082 102.839  1.00  0.00     0.069 A 
ATOM      6  C   UNL     1     103.770  93.059 102.122  1.00  0.00     0.142 A 
ATOM      7  O   UNL     1     104.872  92.579 102.685  1.00  0.00    -0.452 OA
ATOM      8  C   UNL     1     103.816  93.541 100.809  1.00  0.00     0.094 A 
ATOM      9  C   UNL     1     102.663  94.045 100.200  1.00  0.00     0.119 A 
ATOM     10  C   UNL     1     101.453  94.068 100.909  1.00  0.00     0.047 A 
ATOM     11  C   UNL     1     101.396  93.590 102.221  1.00  0.00     0.020 A 
ENDROOT
BRANCH   1  12
ATOM     12  C   UNL     1     106.198  91.581 104.436  1.00  0.00     0.025 A 
ATOM     13  C   UNL     1     106.724  90.393 103.906  1.00  0.00     0.016 A 
ATOM     14  C   UNL     1     107.930  89.875 104.386  1.00  0.00     0.051 A 
ATOM     15  C   UNL     1     108.620  90.527 105.413  1.00  0.00     0.157 A 
ATOM     16  C   UNL     1     106.883  92.225 105.483  1.00  0.00     0.062 A 
ATOM     17  C   UNL     1     108.093  91.705 105.968  1.00  0.00     0.158 A 
BRANCH  15  18
ATOM     18  O   UNL     1     109.821  89.989 105.871  1.00  0.00    -0.504 OA
ATOM     19  H   UNL     1     110.408  90.473 106.539  1.00  0.00     0.293 HD
ENDBRANCH  15  18
BRANCH  17  20
ATOM     20  O   UNL     1     108.769  92.352 107.002  1.00  0.00    -0.504 OA
ATOM     21  H   UNL     1     108.403  92.366 107.948  1.00  0.00     0.293 HD
ENDBRANCH  17  20
ENDBRANCH   1  12
BRANCH   2  22
ATOM     22  O   UNL     1     103.778  91.668 106.041  1.00  0.00    -0.502 OA
ATOM     23  H   UNL     1     103.120  91.992 106.739  1.00  0.00     0.293 HD
ENDBRANCH   2  22
BRANCH   9  24
ATOM     24  O   UNL     1     102.728  94.520  98.893  1.00  0.00    -0.508 OA
ATOM     25  H   UNL     1     103.530  94.335  98.301  1.00  0.00     0.293 HD
ENDBRANCH   9  24
TORSDOF 5
ENDMDL
MODEL 8
REMARK VINA RESULT:    -7.069      1.073      1.736
REMARK INTER + INTRA:          -8.488
REMARK INTER:                  -8.300
REMARK INTRA:                  -0.188
REMARK UNBOUND:                -0.179
REMARK SMILES O=c1c(O)c(-c2ccc(O)c(O)c2)oc2cc(O)ccc12
REMARK SMILES IDX 5 1 3 2 2 3 1 4 21 5 15 6 14 7 16 8 17 9 19 10 20 11 6 12
REMARK SMILES IDX 7 13 8 14 9 15 13 16 11 17 10 18 12 20 4 22 18 24
REMARK H PARENT 10 19 12 21 4 23 18 25
REMARK Flexibility Score: inf
ROOT
ATOM      1  C   UNL     1     103.006  93.015 104.162  1.00  0.00     0.180 A 
ATOM      2  C   UNL     1     104.312  92.505 104.004  1.00  0.00     0.208 A 
ATOM      3  C   UNL     1     104.887  92.506 102.724  1.00  0.00     0.235 A 
ATOM      4  O   UNL     1     106.057  92.064 102.557  1.00  0.00    -0.285 OA
ATOM      5  C   UNL     1     104.147  92.993 101.634  1.00  0.00     0.069 A 
ATOM      6  C   UNL     1     102.838  93.463 101.872  1.00  0.00     0.142 A 
ATOM      7  O   UNL     1     102.334  93.454 103.100  1.00  0.00    -0.452 OA
ATOM      8  C   UNL     1     102.065  93.947 100.810  1.00  0.00     0.094 A 
ATOM      9  C   UNL     1     102.584  93.969  99.512  1.00  0.00     0.119 A 
ATOM     10  C   UNL     1     103.884  93.503  99.272  1.00  0.00     0.047 A 
ATOM     11  C   UNL     1     104.663  93.017 100.325  1.00  0.00     0.020 A 
ENDROOT
BRANCH   1  12
ATOM     12  C   UNL     1     102.337  93.066 105.482  1.00  0.00     0.025 A 
ATOM     13  C   UNL     1     101.160  92.329 105.688  1.00  0.00     0.016 A 
ATOM     14  C   UNL     1     100.502  92.378 106.919  1.00  0.00     0.051 A 
ATOM     15  C   UNL     1     100.998  93.175 107.956  1.00  0.00     0.157 A 
ATOM     16  C   UNL     1     102.824  93.883 106.519  1.00  0.00     0.062 A 
ATOM     17  C   UNL     1     102.162  93.935 107.755  1.00  0.00     0.158 A 
BRANCH  15  18
ATOM     18  O   UNL     1     100.320  93.202 109.174  1.00  0.00    -0.504 OA
ATOM     19  H   UNL     1     100.798  93.080 110.059  1.00  0.00     0.293 HD
ENDBRANCH  15  18
BRANCH  17  20
ATOM     20  O   UNL     1     102.654  94.742 108.780  1.00  0.00    -0.504 OA
ATOM     21  H   UNL     1     103.502  94.504 109.282  1.00  0.00     0.293 HD
ENDBRANCH  17  20
ENDBRANCH   1  12
BRANCH   2  22
ATOM     22  O   UNL     1     105.005  91.982 105.097  1.00  0.00    -0.502 OA
ATOM     23  H   UNL     1     105.172  90.989 105.208  1.00  0.00     0.293 HD
ENDBRANCH   2  22
BRANCH   9  24
ATOM     24  O   UNL     1     101.800  94.454  98.468  1.00  0.00    -0.508 OA
ATOM     25  H   UNL     1     101.088  93.881  98.030  1.00  0.00     0.293 HD
ENDBRANCH   9  24
TORSDOF 5
ENDMDL
MODEL 9
REMARK VINA RESULT:    -6.920      2.459      6.483
REMARK INTER + INTRA:          -8.313
REMARK INTER:                  -7.999
REMARK INTRA:                  -0.314
REMARK UNBOUND:                -0.179
REMARK SMILES O=c1c(O)c(-c2ccc(O)c(O)c2)oc2cc(O)ccc12
REMARK SMILES IDX 5 1 3 2 2 3 1 4 21 5 15 6 14 7 16 8 17 9 19 10 20 11 6 12
REMARK SMILES IDX 7 13 8 14 9 15 13 16 11 17 10 18 12 20 4 22 18 24
REMARK H PARENT 10 19 12 21 4 23 18 25
REMARK Flexibility Score: inf
ROOT
ATOM      1  C   UNL     1     103.639  92.623 102.782  1.00  0.00     0.180 A 
ATOM      2  C   UNL     1     103.105  92.914 104.056  1.00  0.00     0.208 A 
ATOM      3  C   UNL     1     103.926  92.765 105.183  1.00  0.00     0.235 A 
ATOM      4  O   UNL     1     103.475  93.029 106.332  1.00  0.00    -0.285 OA
ATOM      5  C   UNL     1     105.246  92.315 105.022  1.00  0.00     0.069 A 
ATOM      6  C   UNL     1     105.698  92.022 103.718  1.00  0.00     0.142 A 
ATOM      7  O   UNL     1     104.892  92.185 102.675  1.00  0.00    -0.452 OA
ATOM      8  C   UNL     1     107.004  91.561 103.517  1.00  0.00     0.094 A 
ATOM      9  C   UNL     1     107.867  91.390 104.604  1.00  0.00     0.119 A 
ATOM     10  C   UNL     1     107.422  91.681 105.901  1.00  0.00     0.047 A 
ATOM     11  C   UNL     1     106.120  92.141 106.112  1.00  0.00     0.020 A 
ENDROOT
BRANCH   1  12
ATOM     12  C   UNL     1     102.844  92.772 101.543  1.00  0.00     0.025 A 
ATOM     13  C   UNL     1     102.773  94.026 100.915  1.00  0.00     0.016 A 
ATOM     14  C   UNL     1     102.012  94.195  99.756  1.00  0.00     0.051 A 
ATOM     15  C   UNL     1     101.298  93.120  99.215  1.00  0.00     0.157 A 
ATOM     16  C   UNL     1     102.109  91.698 101.010  1.00  0.00     0.062 A 
ATOM     17  C   UNL     1     101.343  91.866  99.847  1.00  0.00     0.158 A 
BRANCH  15  18
ATOM     18  O   UNL     1     100.549  93.318  98.056  1.00  0.00    -0.504 OA
ATOM     19  H   UNL     1     100.898  93.065  97.140  1.00  0.00     0.293 HD
ENDBRANCH  15  18
BRANCH  17  20
ATOM     20  O   UNL     1     100.622  90.794  99.321  1.00  0.00    -0.504 OA
ATOM     21  H   UNL     1      99.931  90.298  99.873  1.00  0.00     0.293 HD
ENDBRANCH  17  20
ENDBRANCH   1  12
BRANCH   2  22
ATOM     22  O   UNL     1     101.773  93.313 104.189  1.00  0.00    -0.502 OA
ATOM     23  H   UNL     1     101.016  92.647 104.286  1.00  0.00     0.293 HD
ENDBRANCH   2  22
BRANCH   9  24
ATOM     24  O   UNL     1     109.164  90.931 104.385  1.00  0.00    -0.508 OA
ATOM     25  H   UNL     1     109.908  91.559 104.103  1.00  0.00     0.293 HD
ENDBRANCH   9  24
TORSDOF 5
ENDMDL
