MODEL 1
REMARK VINA RESULT:    -3.339      0.000      0.000
REMARK INTER + INTRA:          -3.883
REMARK INTER:                  -3.827
REMARK INTRA:                  -0.055
REMARK UNBOUND:                -0.055
REMARK SMILES CC(C)[C@H]([NH3+])C(=O)[O-]
REMARK SMILES IDX 4 1 5 2 6 6 7 7 8 8 2 9 1 10 3 11
REMARK H PARENT 5 3 5 4 5 5
REMARK Flexibility Score: inf
ROOT
ATOM      1  C   UNL     1      29.543   3.971 142.384  1.00  0.00     0.230 C 
ENDROOT
BRANCH   1   2
ATOM      2  N   UNL     1      30.419   3.114 143.197  1.00  0.00    -0.350 N 
ATOM      3  H   UNL     1      29.933   2.780 144.060  1.00  0.00     0.345 HD
ATOM      4  H   UNL     1      31.269   3.653 143.482  1.00  0.00     0.345 HD
ATOM      5  H   UNL     1      30.732   2.288 142.637  1.00  0.00     0.345 HD
ENDBRANCH   1   2
BRANCH   1   6
ATOM      6  C   UNL     1      28.715   4.880 143.261  1.00  0.00     0.099 C 
ATOM      7  O   UNL     1      27.790   4.416 143.978  1.00  0.00    -0.544 OA
ATOM      8  O   UNL     1      28.953   6.249 143.257  1.00  0.00    -0.544 OA
ENDBRANCH   1   6
BRANCH   1   9
ATOM      9  C   UNL     1      28.678   3.138 141.390  1.00  0.00     0.047 C 
ATOM     10  C   UNL     1      28.297   3.904 140.111  1.00  0.00     0.014 C 
ATOM     11  C   UNL     1      29.367   1.814 141.025  1.00  0.00     0.014 C 
ENDBRANCH   1   9
TORSDOF 3
ENDMDL
MODEL 2
REMARK VINA RESULT:    -3.329     14.577     15.190
REMARK INTER + INTRA:          -3.871
REMARK INTER:                  -3.832
REMARK INTRA:                  -0.039
REMARK UNBOUND:                -0.055
REMARK SMILES CC(C)[C@H]([NH3+])C(=O)[O-]
REMARK SMILES IDX 4 1 5 2 6 6 7 7 8 8 2 9 1 10 3 11
REMARK H PARENT 5 3 5 4 5 5
REMARK Flexibility Score: inf
ROOT
ATOM      1  C   UNL     1      36.419  16.340 136.458  1.00  0.00     0.230 C 
ENDROOT
BRANCH   1   2
ATOM      2  N   UNL     1      37.125  16.120 137.728  1.00  0.00    -0.350 N 
ATOM      3  H   UNL     1      37.355  15.111 137.870  1.00  0.00     0.345 HD
ATOM      4  H   UNL     1      36.523  16.438 138.523  1.00  0.00     0.345 HD
ATOM      5  H   UNL     1      38.009  16.680 137.749  1.00  0.00     0.345 HD
ENDBRANCH   1   2
BRANCH   1   6
ATOM      6  C   UNL     1      34.958  16.637 136.699  1.00  0.00     0.099 C 
ATOM      7  O   UNL     1      34.278  17.263 135.843  1.00  0.00    -0.544 OA
ATOM      8  O   UNL     1      34.360  16.244 137.889  1.00  0.00    -0.544 OA
ENDBRANCH   1   6
BRANCH   1   9
ATOM      9  C   UNL     1      36.638  15.160 135.462  1.00  0.00     0.047 C 
ATOM     10  C   UNL     1      35.572  14.057 135.568  1.00  0.00     0.014 C 
ATOM     11  C   UNL     1      36.733  15.664 134.014  1.00  0.00     0.014 C 
ENDBRANCH   1   9
TORSDOF 3
ENDMDL
MODEL 3
REMARK VINA RESULT:    -3.326     14.126     14.690
REMARK INTER + INTRA:          -3.867
REMARK INTER:                  -3.816
REMARK INTRA:                  -0.051
REMARK UNBOUND:                -0.055
REMARK SMILES CC(C)[C@H]([NH3+])C(=O)[O-]
REMARK SMILES IDX 4 1 5 2 6 6 7 7 8 8 2 9 1 10 3 11
REMARK H PARENT 5 3 5 4 5 5
REMARK Flexibility Score: inf
ROOT
ATOM      1  C   UNL     1      35.759  16.182 136.879  1.00  0.00     0.230 C 
ENDROOT
BRANCH   1   2
ATOM      2  N   UNL     1      37.122  16.173 137.431  1.00  0.00    -0.350 N 
ATOM      3  H   UNL     1      37.434  17.134 137.698  1.00  0.00     0.345 HD
ATOM      4  H   UNL     1      37.786  15.795 136.716  1.00  0.00     0.345 HD
ATOM      5  H   UNL     1      37.164  15.552 138.272  1.00  0.00     0.345 HD
ENDBRANCH   1   2
BRANCH   1   6
ATOM      6  C   UNL     1      34.786  15.539 137.839  1.00  0.00     0.099 C 
ATOM      7  O   UNL     1      34.995  14.381 138.289  1.00  0.00    -0.544 OA
ATOM      8  O   UNL     1      33.632  16.217 138.210  1.00  0.00    -0.544 OA
ENDBRANCH   1   6
BRANCH   1   9
ATOM      9  C   UNL     1      35.707  15.552 135.454  1.00  0.00     0.047 C 
ATOM     10  C   UNL     1      34.650  16.189 134.536  1.00  0.00     0.014 C 
ATOM     11  C   UNL     1      37.085  15.590 134.776  1.00  0.00     0.014 C 
ENDBRANCH   1   9
TORSDOF 3
ENDMDL
MODEL 4
REMARK VINA RESULT:    -3.269     15.809     16.470
REMARK INTER + INTRA:          -3.802
REMARK INTER:                  -3.751
REMARK INTRA:                  -0.051
REMARK UNBOUND:                -0.055
REMARK SMILES CC(C)[C@H]([NH3+])C(=O)[O-]
REMARK SMILES IDX 4 1 5 2 6 6 7 7 8 8 2 9 1 10 3 11
REMARK H PARENT 5 3 5 4 5 5
REMARK Flexibility Score: inf
ROOT
ATOM      1  C   UNL     1      26.219  17.749 133.509  1.00  0.00     0.230 C 
ENDROOT
BRANCH   1   2
ATOM      2  N   UNL     1      25.764  19.122 133.248  1.00  0.00    -0.350 N 
ATOM      3  H   UNL     1      25.684  19.311 132.223  1.00  0.00     0.345 HD
ATOM      4  H   UNL     1      26.446  19.801 133.658  1.00  0.00     0.345 HD
ATOM      5  H   UNL     1      24.835  19.284 133.701  1.00  0.00     0.345 HD
ENDBRANCH   1   2
BRANCH   1   6
ATOM      6  C   UNL     1      25.561  17.191 134.749  1.00  0.00     0.099 C 
ATOM      7  O   UNL     1      26.177  16.387 135.498  1.00  0.00    -0.544 OA
ATOM      8  O   UNL     1      24.252  17.542 135.055  1.00  0.00    -0.544 OA
ENDBRANCH   1   6
BRANCH   1   9
ATOM      9  C   UNL     1      27.774  17.653 133.555  1.00  0.00     0.047 C 
ATOM     10  C   UNL     1      28.349  16.524 132.682  1.00  0.00     0.014 C 
ATOM     11  C   UNL     1      28.427  18.992 133.180  1.00  0.00     0.014 C 
ENDBRANCH   1   9
TORSDOF 3
ENDMDL
MODEL 5
REMARK VINA RESULT:    -3.268     13.849     14.482
REMARK INTER + INTRA:          -3.802
REMARK INTER:                  -3.800
REMARK INTRA:                  -0.001
REMARK UNBOUND:                -0.055
REMARK SMILES CC(C)[C@H]([NH3+])C(=O)[O-]
REMARK SMILES IDX 4 1 5 2 6 6 7 7 8 8 2 9 1 10 3 11
REMARK H PARENT 5 3 5 4 5 5
REMARK Flexibility Score: inf
ROOT
ATOM      1  C   UNL     1      35.772  15.356 137.573  1.00  0.00     0.230 C 
ENDROOT
BRANCH   1   2
ATOM      2  N   UNL     1      37.125  15.911 137.725  1.00  0.00    -0.350 N 
ATOM      3  H   UNL     1      37.750  15.260 138.252  1.00  0.00     0.345 HD
ATOM      4  H   UNL     1      37.075  16.817 138.247  1.00  0.00     0.345 HD
ATOM      5  H   UNL     1      37.542  16.102 136.785  1.00  0.00     0.345 HD
ENDBRANCH   1   2
BRANCH   1   6
ATOM      6  C   UNL     1      35.708  14.408 136.399  1.00  0.00     0.099 C 
ATOM      7  O   UNL     1      34.735  13.621 136.259  1.00  0.00    -0.544 OA
ATOM      8  O   UNL     1      36.747  14.379 135.477  1.00  0.00    -0.544 OA
ENDBRANCH   1   6
BRANCH   1   9
ATOM      9  C   UNL     1      34.691  16.477 137.503  1.00  0.00     0.047 C 
ATOM     10  C   UNL     1      34.443  17.007 136.080  1.00  0.00     0.014 C 
ATOM     11  C   UNL     1      33.367  16.015 138.131  1.00  0.00     0.014 C 
ENDBRANCH   1   9
TORSDOF 3
ENDMDL
MODEL 6
REMARK VINA RESULT:    -3.225     13.245     13.898
REMARK INTER + INTRA:          -3.751
REMARK INTER:                  -3.732
REMARK INTRA:                  -0.020
REMARK UNBOUND:                -0.055
REMARK SMILES CC(C)[C@H]([NH3+])C(=O)[O-]
REMARK SMILES IDX 4 1 5 2 6 6 7 7 8 8 2 9 1 10 3 11
REMARK H PARENT 5 3 5 4 5 5
REMARK Flexibility Score: inf
ROOT
ATOM      1  C   UNL     1      33.752  16.110 137.973  1.00  0.00     0.230 C 
ENDROOT
BRANCH   1   2
ATOM      2  N   UNL     1      32.589  16.204 138.868  1.00  0.00    -0.350 N 
ATOM      3  H   UNL     1      31.824  15.556 138.571  1.00  0.00     0.345 HD
ATOM      4  H   UNL     1      32.218  17.182 138.858  1.00  0.00     0.345 HD
ATOM      5  H   UNL     1      32.871  15.974 139.849  1.00  0.00     0.345 HD
ENDBRANCH   1   2
BRANCH   1   6
ATOM      6  C   UNL     1      33.379  16.507 136.564  1.00  0.00     0.099 C 
ATOM      7  O   UNL     1      34.253  16.931 135.762  1.00  0.00    -0.544 OA
ATOM      8  O   UNL     1      32.054  16.433 136.152  1.00  0.00    -0.544 OA
ENDBRANCH   1   6
BRANCH   1   9
ATOM      9  C   UNL     1      34.427  14.707 138.047  1.00  0.00     0.047 C 
ATOM     10  C   UNL     1      33.768  13.656 137.136  1.00  0.00     0.014 C 
ATOM     11  C   UNL     1      35.931  14.796 137.745  1.00  0.00     0.014 C 
ENDBRANCH   1   9
TORSDOF 3
ENDMDL
MODEL 7
REMARK VINA RESULT:    -3.221     13.629     14.249
REMARK INTER + INTRA:          -3.747
REMARK INTER:                  -3.853
REMARK INTRA:                   0.106
REMARK UNBOUND:                -0.055
REMARK SMILES CC(C)[C@H]([NH3+])C(=O)[O-]
REMARK SMILES IDX 4 1 5 2 6 6 7 7 8 8 2 9 1 10 3 11
REMARK H PARENT 5 3 5 4 5 5
REMARK Flexibility Score: inf
ROOT
ATOM      1  C   UNL     1      35.421  15.550 137.735  1.00  0.00     0.230 C 
ENDROOT
BRANCH   1   2
ATOM      2  N   UNL     1      36.138  14.267 137.743  1.00  0.00    -0.350 N 
ATOM      3  H   UNL     1      37.086  14.355 137.310  1.00  0.00     0.345 HD
ATOM      4  H   UNL     1      35.591  13.557 137.203  1.00  0.00     0.345 HD
ATOM      5  H   UNL     1      36.241  13.919 138.724  1.00  0.00     0.345 HD
ENDBRANCH   1   2
BRANCH   1   6
ATOM      6  C   UNL     1      33.932  15.334 137.866  1.00  0.00     0.099 C 
ATOM      7  O   UNL     1      33.196  16.215 138.384  1.00  0.00    -0.544 OA
ATOM      8  O   UNL     1      33.366  14.140 137.438  1.00  0.00    -0.544 OA
ENDBRANCH   1   6
BRANCH   1   9
ATOM      9  C   UNL     1      35.799  16.417 136.496  1.00  0.00     0.047 C 
ATOM     10  C   UNL     1      37.125  16.003 135.834  1.00  0.00     0.014 C 
ATOM     11  C   UNL     1      34.670  16.422 135.454  1.00  0.00     0.014 C 
ENDBRANCH   1   9
TORSDOF 3
ENDMDL
MODEL 8
REMARK VINA RESULT:    -3.218     14.092     14.687
REMARK INTER + INTRA:          -3.744
REMARK INTER:                  -3.698
REMARK INTRA:                  -0.046
REMARK UNBOUND:                -0.055
REMARK SMILES CC(C)[C@H]([NH3+])C(=O)[O-]
REMARK SMILES IDX 4 1 5 2 6 6 7 7 8 8 2 9 1 10 3 11
REMARK H PARENT 5 3 5 4 5 5
REMARK Flexibility Score: inf
ROOT
ATOM      1  C   UNL     1      35.694  14.649 135.888  1.00  0.00     0.230 C 
ENDROOT
BRANCH   1   2
ATOM      2  N   UNL     1      34.829  15.716 135.362  1.00  0.00    -0.350 N 
ATOM      3  H   UNL     1      35.233  16.662 135.546  1.00  0.00     0.345 HD
ATOM      4  H   UNL     1      33.890  15.661 135.820  1.00  0.00     0.345 HD
ATOM      5  H   UNL     1      34.695  15.594 134.332  1.00  0.00     0.345 HD
ENDBRANCH   1   2
BRANCH   1   6
ATOM      6  C   UNL     1      35.972  14.858 137.358  1.00  0.00     0.099 C 
ATOM      7  O   UNL     1      35.299  14.251 138.233  1.00  0.00    -0.544 OA
ATOM      8  O   UNL     1      36.961  15.749 137.754  1.00  0.00    -0.544 OA
ENDBRANCH   1   6
BRANCH   1   9
ATOM      9  C   UNL     1      36.995  14.491 135.044  1.00  0.00     0.047 C 
ATOM     10  C   UNL     1      37.124  13.119 134.359  1.00  0.00     0.014 C 
ATOM     11  C   UNL     1      37.125  15.613 134.002  1.00  0.00     0.014 C 
ENDBRANCH   1   9
TORSDOF 3
ENDMDL
MODEL 9
REMARK VINA RESULT:    -3.206     14.466     15.160
REMARK INTER + INTRA:          -3.730
REMARK INTER:                  -3.673
REMARK INTRA:                  -0.056
REMARK UNBOUND:                -0.055
REMARK SMILES CC(C)[C@H]([NH3+])C(=O)[O-]
REMARK SMILES IDX 4 1 5 2 6 6 7 7 8 8 2 9 1 10 3 11
REMARK H PARENT 5 3 5 4 5 5
REMARK Flexibility Score: inf
ROOT
ATOM      1  C   UNL     1      35.891  14.619 135.579  1.00  0.00     0.230 C 
ENDROOT
BRANCH   1   2
ATOM      2  N   UNL     1      37.124  13.831 135.436  1.00  0.00    -0.350 N 
ATOM      3  H   UNL     1      37.691  13.843 136.314  1.00  0.00     0.345 HD
ATOM      4  H   UNL     1      37.705  14.228 134.661  1.00  0.00     0.345 HD
ATOM      5  H   UNL     1      36.891  12.841 135.191  1.00  0.00     0.345 HD
ENDBRANCH   1   2
BRANCH   1   6
ATOM      6  C   UNL     1      35.767  15.632 134.466  1.00  0.00     0.099 C 
ATOM      7  O   UNL     1      34.726  16.330 134.343  1.00  0.00    -0.544 OA
ATOM      8  O   UNL     1      36.798  15.777 133.546  1.00  0.00    -0.544 OA
ENDBRANCH   1   6
BRANCH   1   9
ATOM      9  C   UNL     1      35.776  15.261 136.995  1.00  0.00     0.047 C 
ATOM     10  C   UNL     1      35.215  14.305 138.063  1.00  0.00     0.014 C 
ATOM     11  C   UNL     1      37.124  15.835 137.459  1.00  0.00     0.014 C 
ENDBRANCH   1   9
TORSDOF 3
ENDMDL
