MODEL 1
REMARK VINA RESULT:    -7.646      0.000      0.000
REMARK INTER + INTRA:          -9.029
REMARK INTER:                  -9.210
REMARK INTRA:                   0.181
REMARK UNBOUND:                 0.181
REMARK SMILES O=c1c(O)c(-c2ccc(O)c(O)c2)oc2cc(O)cc(O)c12
REMARK SMILES IDX 5 1 3 2 2 3 1 4 22 5 20 6 19 7 17 8 16 9 15 10 14 11 6 12
REMARK SMILES IDX 7 13 8 14 9 15 13 16 11 17 10 18 12 20 4 22 21 24 18 26
REMARK H PARENT 10 19 12 21 4 23 21 25 18 27
REMARK Flexibility Score: inf
ROOT
ATOM      1  C   UNL     1     169.003 145.474 153.453  1.00  0.00     0.180 A 
ATOM      2  C   UNL     1     169.927 145.383 152.397  1.00  0.00     0.208 A 
ATOM      3  C   UNL     1     169.567 145.878 151.133  1.00  0.00     0.238 A 
ATOM      4  O   UNL     1     170.377 145.745 150.179  1.00  0.00    -0.285 OA
ATOM      5  C   UNL     1     168.295 146.473 150.945  1.00  0.00     0.111 A 
ATOM      6  C   UNL     1     167.841 147.043 149.718  1.00  0.00     0.134 A 
ATOM      7  C   UNL     1     166.518 147.485 149.610  1.00  0.00     0.093 A 
ATOM      8  C   UNL     1     165.651 147.439 150.702  1.00  0.00     0.123 A 
ATOM      9  C   UNL     1     166.103 146.938 151.923  1.00  0.00     0.094 A 
ATOM     10  C   UNL     1     167.408 146.455 152.052  1.00  0.00     0.146 A 
ATOM     11  O   UNL     1     167.795 145.977 153.228  1.00  0.00    -0.452 OA
ENDROOT
BRANCH   1  12
ATOM     12  C   UNL     1     169.319 144.997 154.819  1.00  0.00     0.025 A 
ATOM     13  C   UNL     1     170.613 145.108 155.350  1.00  0.00     0.016 A 
ATOM     14  C   UNL     1     170.881 144.673 156.650  1.00  0.00     0.051 A 
ATOM     15  C   UNL     1     169.866 144.134 157.447  1.00  0.00     0.157 A 
ATOM     16  C   UNL     1     168.294 144.477 155.623  1.00  0.00     0.062 A 
ATOM     17  C   UNL     1     168.553 144.037 156.928  1.00  0.00     0.158 A 
BRANCH  15  18
ATOM     18  O   UNL     1     170.201 143.714 158.736  1.00  0.00    -0.504 OA
ATOM     19  H   UNL     1     169.716 142.983 159.236  1.00  0.00     0.293 HD
ENDBRANCH  15  18
BRANCH  17  20
ATOM     20  O   UNL     1     167.487 143.519 157.665  1.00  0.00    -0.504 OA
ATOM     21  H   UNL     1     167.457 143.496 158.675  1.00  0.00     0.293 HD
ENDBRANCH  17  20
ENDBRANCH   1  12
BRANCH   2  22
ATOM     22  O   UNL     1     171.168 144.774 152.599  1.00  0.00    -0.502 OA
ATOM     23  H   UNL     1     171.958 144.932 151.985  1.00  0.00     0.293 HD
ENDBRANCH   2  22
BRANCH   6  24
ATOM     24  O   UNL     1     168.652 147.221 148.593  1.00  0.00    -0.507 OA
ATOM     25  H   UNL     1     168.489 146.796 147.693  1.00  0.00     0.293 HD
ENDBRANCH   6  24
BRANCH   8  26
ATOM     26  O   UNL     1     164.344 147.902 150.563  1.00  0.00    -0.508 OA
ATOM     27  H   UNL     1     164.082 148.840 150.844  1.00  0.00     0.293 HD
ENDBRANCH   8  26
TORSDOF 6
ENDMDL
MODEL 2
REMARK VINA RESULT:    -7.479      0.635      1.419
REMARK INTER + INTRA:          -8.828
REMARK INTER:                  -8.748
REMARK INTRA:                  -0.080
REMARK UNBOUND:                 0.181
REMARK SMILES O=c1c(O)c(-c2ccc(O)c(O)c2)oc2cc(O)cc(O)c12
REMARK SMILES IDX 5 1 3 2 2 3 1 4 22 5 20 6 19 7 17 8 16 9 15 10 14 11 6 12
REMARK SMILES IDX 7 13 8 14 9 15 13 16 11 17 10 18 12 20 4 22 21 24 18 26
REMARK H PARENT 10 19 12 21 4 23 21 25 18 27
REMARK Flexibility Score: inf
ROOT
ATOM      1  C   UNL     1     168.762 145.468 153.507  1.00  0.00     0.180 A 
ATOM      2  C   UNL     1     169.712 145.347 152.477  1.00  0.00     0.208 A 
ATOM      3  C   UNL     1     169.401 145.844 151.202  1.00  0.00     0.238 A 
ATOM      4  O   UNL     1     170.233 145.685 150.271  1.00  0.00    -0.285 OA
ATOM      5  C   UNL     1     168.151 146.471 150.976  1.00  0.00     0.111 A 
ATOM      6  C   UNL     1     167.746 147.046 149.734  1.00  0.00     0.134 A 
ATOM      7  C   UNL     1     166.438 147.523 149.588  1.00  0.00     0.093 A 
ATOM      8  C   UNL     1     165.541 147.506 150.655  1.00  0.00     0.123 A 
ATOM      9  C   UNL     1     165.946 147.000 151.891  1.00  0.00     0.094 A 
ATOM     10  C   UNL     1     167.234 146.483 152.058  1.00  0.00     0.146 A 
ATOM     11  O   UNL     1     167.575 146.002 153.247  1.00  0.00    -0.452 OA
ENDROOT
BRANCH   1  12
ATOM     12  C   UNL     1     169.028 144.991 154.884  1.00  0.00     0.025 A 
ATOM     13  C   UNL     1     168.225 144.009 155.484  1.00  0.00     0.016 A 
ATOM     14  C   UNL     1     168.510 143.558 156.775  1.00  0.00     0.051 A 
ATOM     15  C   UNL     1     169.605 144.064 157.484  1.00  0.00     0.157 A 
ATOM     16  C   UNL     1     170.139 145.485 155.583  1.00  0.00     0.062 A 
ATOM     17  C   UNL     1     170.433 145.039 156.878  1.00  0.00     0.158 A 
BRANCH  15  18
ATOM     18  O   UNL     1     169.833 143.573 158.771  1.00  0.00    -0.504 OA
ATOM     19  H   UNL     1     170.428 144.026 159.450  1.00  0.00     0.293 HD
ENDBRANCH  15  18
BRANCH  17  20
ATOM     20  O   UNL     1     171.548 145.584 157.519  1.00  0.00    -0.504 OA
ATOM     21  H   UNL     1     171.621 145.706 158.519  1.00  0.00     0.293 HD
ENDBRANCH  17  20
ENDBRANCH   1  12
BRANCH   2  22
ATOM     22  O   UNL     1     170.931 144.706 152.717  1.00  0.00    -0.502 OA
ATOM     23  H   UNL     1     171.170 143.817 152.296  1.00  0.00     0.293 HD
ENDBRANCH   2  22
BRANCH   6  24
ATOM     24  O   UNL     1     168.593 147.197 148.631  1.00  0.00    -0.507 OA
ATOM     25  H   UNL     1     168.448 147.856 147.881  1.00  0.00     0.293 HD
ENDBRANCH   6  24
BRANCH   8  26
ATOM     26  O   UNL     1     164.252 148.003 150.478  1.00  0.00    -0.508 OA
ATOM     27  H   UNL     1     164.087 148.961 150.194  1.00  0.00     0.293 HD
ENDBRANCH   8  26
TORSDOF 6
ENDMDL
MODEL 3
REMARK VINA RESULT:    -7.463      2.231      6.611
REMARK INTER + INTRA:          -8.809
REMARK INTER:                  -8.724
REMARK INTRA:                  -0.085
REMARK UNBOUND:                 0.181
REMARK SMILES O=c1c(O)c(-c2ccc(O)c(O)c2)oc2cc(O)cc(O)c12
REMARK SMILES IDX 5 1 3 2 2 3 1 4 22 5 20 6 19 7 17 8 16 9 15 10 14 11 6 12
REMARK SMILES IDX 7 13 8 14 9 15 13 16 11 17 10 18 12 20 4 22 21 24 18 26
REMARK H PARENT 10 19 12 21 4 23 21 25 18 27
REMARK Flexibility Score: inf
ROOT
ATOM      1  C   UNL     1     169.407 146.074 152.908  1.00  0.00     0.180 A 
ATOM      2  C   UNL     1     170.252 144.982 152.641  1.00  0.00     0.208 A 
ATOM      3  C   UNL     1     171.195 144.598 153.609  1.00  0.00     0.238 A 
ATOM      4  O   UNL     1     171.984 143.656 153.343  1.00  0.00    -0.285 OA
ATOM      5  C   UNL     1     171.269 145.300 154.837  1.00  0.00     0.111 A 
ATOM      6  C   UNL     1     172.159 144.973 155.904  1.00  0.00     0.134 A 
ATOM      7  C   UNL     1     172.237 145.816 157.019  1.00  0.00     0.093 A 
ATOM      8  C   UNL     1     171.415 146.935 157.137  1.00  0.00     0.123 A 
ATOM      9  C   UNL     1     170.500 147.231 156.126  1.00  0.00     0.094 A 
ATOM     10  C   UNL     1     170.423 146.430 154.983  1.00  0.00     0.146 A 
ATOM     11  O   UNL     1     169.546 146.752 154.040  1.00  0.00    -0.452 OA
ENDROOT
BRANCH   1  12
ATOM     12  C   UNL     1     168.372 146.521 151.947  1.00  0.00     0.025 A 
ATOM     13  C   UNL     1     168.706 146.907 150.640  1.00  0.00     0.016 A 
ATOM     14  C   UNL     1     167.710 147.303 149.745  1.00  0.00     0.051 A 
ATOM     15  C   UNL     1     166.365 147.307 150.130  1.00  0.00     0.157 A 
ATOM     16  C   UNL     1     167.023 146.504 152.329  1.00  0.00     0.062 A 
ATOM     17  C   UNL     1     166.016 146.899 151.438  1.00  0.00     0.158 A 
BRANCH  15  18
ATOM     18  O   UNL     1     165.419 147.717 149.188  1.00  0.00    -0.504 OA
ATOM     19  H   UNL     1     164.484 148.021 149.422  1.00  0.00     0.293 HD
ENDBRANCH  15  18
BRANCH  17  20
ATOM     20  O   UNL     1     164.695 146.868 151.892  1.00  0.00    -0.504 OA
ATOM     21  H   UNL     1     163.905 147.191 151.351  1.00  0.00     0.293 HD
ENDBRANCH  17  20
ENDBRANCH   1  12
BRANCH   2  22
ATOM     22  O   UNL     1     170.176 144.316 151.415  1.00  0.00    -0.502 OA
ATOM     23  H   UNL     1     170.990 144.144 150.837  1.00  0.00     0.293 HD
ENDBRANCH   2  22
BRANCH   6  24
ATOM     24  O   UNL     1     172.959 143.827 155.930  1.00  0.00    -0.507 OA
ATOM     25  H   UNL     1     173.023 143.154 155.181  1.00  0.00     0.293 HD
ENDBRANCH   6  24
BRANCH   8  26
ATOM     26  O   UNL     1     171.510 147.743 158.268  1.00  0.00    -0.508 OA
ATOM     27  H   UNL     1     170.960 148.589 158.363  1.00  0.00     0.293 HD
ENDBRANCH   8  26
TORSDOF 6
ENDMDL
MODEL 4
REMARK VINA RESULT:    -7.346      1.763      7.230
REMARK INTER + INTRA:          -8.668
REMARK INTER:                  -8.464
REMARK INTRA:                  -0.204
REMARK UNBOUND:                 0.181
REMARK SMILES O=c1c(O)c(-c2ccc(O)c(O)c2)oc2cc(O)cc(O)c12
REMARK SMILES IDX 5 1 3 2 2 3 1 4 22 5 20 6 19 7 17 8 16 9 15 10 14 11 6 12
REMARK SMILES IDX 7 13 8 14 9 15 13 16 11 17 10 18 12 20 4 22 21 24 18 26
REMARK H PARENT 10 19 12 21 4 23 21 25 18 27
REMARK Flexibility Score: inf
ROOT
ATOM      1  C   UNL     1     168.676 145.551 154.224  1.00  0.00     0.180 A 
ATOM      2  C   UNL     1     168.233 144.438 154.959  1.00  0.00     0.208 A 
ATOM      3  C   UNL     1     168.900 144.097 156.146  1.00  0.00     0.238 A 
ATOM      4  O   UNL     1     168.534 143.068 156.772  1.00  0.00    -0.285 OA
ATOM      5  C   UNL     1     169.992 144.882 156.592  1.00  0.00     0.111 A 
ATOM      6  C   UNL     1     170.716 144.652 157.800  1.00  0.00     0.134 A 
ATOM      7  C   UNL     1     171.859 145.411 158.075  1.00  0.00     0.093 A 
ATOM      8  C   UNL     1     172.268 146.434 157.220  1.00  0.00     0.123 A 
ATOM      9  C   UNL     1     171.533 146.707 156.066  1.00  0.00     0.094 A 
ATOM     10  C   UNL     1     170.407 145.942 155.745  1.00  0.00     0.146 A 
ATOM     11  O   UNL     1     169.742 146.227 154.633  1.00  0.00    -0.452 OA
ENDROOT
BRANCH   1  12
ATOM     12  C   UNL     1     168.007 145.988 152.976  1.00  0.00     0.025 A 
ATOM     13  C   UNL     1     166.694 146.483 152.986  1.00  0.00     0.016 A 
ATOM     14  C   UNL     1     166.094 146.911 151.799  1.00  0.00     0.051 A 
ATOM     15  C   UNL     1     166.792 146.866 150.588  1.00  0.00     0.157 A 
ATOM     16  C   UNL     1     168.717 145.961 151.767  1.00  0.00     0.062 A 
ATOM     17  C   UNL     1     168.123 146.388 150.572  1.00  0.00     0.158 A 
BRANCH  15  18
ATOM     18  O   UNL     1     166.132 147.305 149.438  1.00  0.00    -0.504 OA
ATOM     19  H   UNL     1     165.344 147.936 149.446  1.00  0.00     0.293 HD
ENDBRANCH  15  18
BRANCH  17  20
ATOM     20  O   UNL     1     168.887 146.322 149.404  1.00  0.00    -0.504 OA
ATOM     21  H   UNL     1     169.633 145.658 149.254  1.00  0.00     0.293 HD
ENDBRANCH  17  20
ENDBRANCH   1  12
BRANCH   2  22
ATOM     22  O   UNL     1     167.167 143.665 154.491  1.00  0.00    -0.502 OA
ATOM     23  H   UNL     1     166.729 142.944 155.053  1.00  0.00     0.293 HD
ENDBRANCH   2  22
BRANCH   6  24
ATOM     24  O   UNL     1     170.340 143.716 158.768  1.00  0.00    -0.507 OA
ATOM     25  H   UNL     1     169.390 143.438 158.961  1.00  0.00     0.293 HD
ENDBRANCH   6  24
BRANCH   8  26
ATOM     26  O   UNL     1     173.402 147.180 157.533  1.00  0.00    -0.508 OA
ATOM     27  H   UNL     1     173.988 147.582 156.810  1.00  0.00     0.293 HD
ENDBRANCH   8  26
TORSDOF 6
ENDMDL
MODEL 5
REMARK VINA RESULT:    -7.280      3.411      6.769
REMARK INTER + INTRA:          -8.589
REMARK INTER:                  -9.060
REMARK INTRA:                   0.470
REMARK UNBOUND:                 0.181
REMARK SMILES O=c1c(O)c(-c2ccc(O)c(O)c2)oc2cc(O)cc(O)c12
REMARK SMILES IDX 5 1 3 2 2 3 1 4 22 5 20 6 19 7 17 8 16 9 15 10 14 11 6 12
REMARK SMILES IDX 7 13 8 14 9 15 13 16 11 17 10 18 12 20 4 22 21 24 18 26
REMARK H PARENT 10 19 12 21 4 23 21 25 18 27
REMARK Flexibility Score: inf
ROOT
ATOM      1  C   UNL     1     170.254 144.726 150.108  1.00  0.00     0.180 A 
ATOM      2  C   UNL     1     170.751 144.744 148.793  1.00  0.00     0.208 A 
ATOM      3  C   UNL     1     171.873 143.961 148.478  1.00  0.00     0.238 A 
ATOM      4  O   UNL     1     172.345 144.022 147.313  1.00  0.00    -0.285 OA
ATOM      5  C   UNL     1     172.475 143.158 149.478  1.00  0.00     0.111 A 
ATOM      6  C   UNL     1     173.591 142.296 149.261  1.00  0.00     0.134 A 
ATOM      7  C   UNL     1     174.186 141.649 150.351  1.00  0.00     0.093 A 
ATOM      8  C   UNL     1     173.666 141.780 151.638  1.00  0.00     0.123 A 
ATOM      9  C   UNL     1     172.538 142.574 151.852  1.00  0.00     0.094 A 
ATOM     10  C   UNL     1     171.945 143.261 150.789  1.00  0.00     0.146 A 
ATOM     11  O   UNL     1     170.880 144.014 151.037  1.00  0.00    -0.452 OA
ENDROOT
BRANCH   1  12
ATOM     12  C   UNL     1     169.060 145.504 150.509  1.00  0.00     0.025 A 
ATOM     13  C   UNL     1     168.347 146.279 149.581  1.00  0.00     0.016 A 
ATOM     14  C   UNL     1     167.210 146.986 149.979  1.00  0.00     0.051 A 
ATOM     15  C   UNL     1     166.755 146.923 151.300  1.00  0.00     0.157 A 
ATOM     16  C   UNL     1     168.594 145.422 151.830  1.00  0.00     0.062 A 
ATOM     17  C   UNL     1     167.454 146.127 152.238  1.00  0.00     0.158 A 
BRANCH  15  18
ATOM     18  O   UNL     1     165.614 147.656 151.633  1.00  0.00    -0.504 OA
ATOM     19  H   UNL     1     164.871 147.308 152.222  1.00  0.00     0.293 HD
ENDBRANCH  15  18
BRANCH  17  20
ATOM     20  O   UNL     1     167.056 146.008 153.571  1.00  0.00    -0.504 OA
ATOM     21  H   UNL     1     166.783 145.136 154.003  1.00  0.00     0.293 HD
ENDBRANCH  17  20
ENDBRANCH   1  12
BRANCH   2  22
ATOM     22  O   UNL     1     170.154 145.558 147.826  1.00  0.00    -0.502 OA
ATOM     23  H   UNL     1     170.183 145.340 146.838  1.00  0.00     0.293 HD
ENDBRANCH   2  22
BRANCH   6  24
ATOM     24  O   UNL     1     174.133 142.022 148.001  1.00  0.00    -0.507 OA
ATOM     25  H   UNL     1     174.987 142.421 147.643  1.00  0.00     0.293 HD
ENDBRANCH   6  24
BRANCH   8  26
ATOM     26  O   UNL     1     174.274 141.109 152.697  1.00  0.00    -0.508 OA
ATOM     27  H   UNL     1     173.801 140.980 153.584  1.00  0.00     0.293 HD
ENDBRANCH   8  26
TORSDOF 6
ENDMDL
MODEL 6
REMARK VINA RESULT:    -7.274      2.747      6.716
REMARK INTER + INTRA:          -8.582
REMARK INTER:                  -8.612
REMARK INTRA:                   0.030
REMARK UNBOUND:                 0.181
REMARK SMILES O=c1c(O)c(-c2ccc(O)c(O)c2)oc2cc(O)cc(O)c12
REMARK SMILES IDX 5 1 3 2 2 3 1 4 22 5 20 6 19 7 17 8 16 9 15 10 14 11 6 12
REMARK SMILES IDX 7 13 8 14 9 15 13 16 11 17 10 18 12 20 4 22 21 24 18 26
REMARK H PARENT 10 19 12 21 4 23 21 25 18 27
REMARK Flexibility Score: inf
ROOT
ATOM      1  C   UNL     1     169.793 145.290 151.614  1.00  0.00     0.180 A 
ATOM      2  C   UNL     1     170.409 145.503 152.860  1.00  0.00     0.208 A 
ATOM      3  C   UNL     1     171.552 144.757 153.190  1.00  0.00     0.238 A 
ATOM      4  O   UNL     1     172.067 144.912 154.327  1.00  0.00    -0.285 OA
ATOM      5  C   UNL     1     172.074 143.820 152.264  1.00  0.00     0.111 A 
ATOM      6  C   UNL     1     173.249 143.039 152.478  1.00  0.00     0.134 A 
ATOM      7  C   UNL     1     173.599 142.051 151.550  1.00  0.00     0.093 A 
ATOM      8  C   UNL     1     172.855 141.858 150.387  1.00  0.00     0.123 A 
ATOM      9  C   UNL     1     171.738 142.657 150.139  1.00  0.00     0.094 A 
ATOM     10  C   UNL     1     171.342 143.628 151.064  1.00  0.00     0.146 A 
ATOM     11  O   UNL     1     170.267 144.359 150.796  1.00  0.00    -0.452 OA
ENDROOT
BRANCH   1  12
ATOM     12  C   UNL     1     168.600 146.056 151.185  1.00  0.00     0.025 A 
ATOM     13  C   UNL     1     168.541 146.672 149.925  1.00  0.00     0.016 A 
ATOM     14  C   UNL     1     167.395 147.369 149.534  1.00  0.00     0.051 A 
ATOM     15  C   UNL     1     166.285 147.453 150.382  1.00  0.00     0.157 A 
ATOM     16  C   UNL     1     167.481 146.120 152.028  1.00  0.00     0.062 A 
ATOM     17  C   UNL     1     166.327 146.817 151.645  1.00  0.00     0.158 A 
BRANCH  15  18
ATOM     18  O   UNL     1     165.174 148.167 149.932  1.00  0.00    -0.504 OA
ATOM     19  H   UNL     1     164.220 147.848 150.029  1.00  0.00     0.293 HD
ENDBRANCH  15  18
BRANCH  17  20
ATOM     20  O   UNL     1     165.256 146.848 152.541  1.00  0.00    -0.504 OA
ATOM     21  H   UNL     1     164.652 146.060 152.726  1.00  0.00     0.293 HD
ENDBRANCH  17  20
ENDBRANCH   1  12
BRANCH   2  22
ATOM     22  O   UNL     1     169.866 146.417 153.766  1.00  0.00    -0.502 OA
ATOM     23  H   UNL     1     169.551 147.338 153.487  1.00  0.00     0.293 HD
ENDBRANCH   2  22
BRANCH   6  24
ATOM     24  O   UNL     1     174.116 143.213 153.562  1.00  0.00    -0.507 OA
ATOM     25  H   UNL     1     174.979 143.733 153.530  1.00  0.00     0.293 HD
ENDBRANCH   6  24
BRANCH   8  26
ATOM     26  O   UNL     1     173.241 140.875 149.478  1.00  0.00    -0.508 OA
ATOM     27  H   UNL     1     172.607 140.136 149.196  1.00  0.00     0.293 HD
ENDBRANCH   8  26
TORSDOF 6
ENDMDL
MODEL 7
REMARK VINA RESULT:    -7.210      2.274      7.171
REMARK INTER + INTRA:          -8.505
REMARK INTER:                  -8.348
REMARK INTRA:                  -0.157
REMARK UNBOUND:                 0.181
REMARK SMILES O=c1c(O)c(-c2ccc(O)c(O)c2)oc2cc(O)cc(O)c12
REMARK SMILES IDX 5 1 3 2 2 3 1 4 22 5 20 6 19 7 17 8 16 9 15 10 14 11 6 12
REMARK SMILES IDX 7 13 8 14 9 15 13 16 11 17 10 18 12 20 4 22 21 24 18 26
REMARK H PARENT 10 19 12 21 4 23 21 25 18 27
REMARK Flexibility Score: inf
ROOT
ATOM      1  C   UNL     1     169.495 145.425 151.401  1.00  0.00     0.180 A 
ATOM      2  C   UNL     1     168.225 145.878 151.797  1.00  0.00     0.208 A 
ATOM      3  C   UNL     1     167.970 146.080 153.164  1.00  0.00     0.238 A 
ATOM      4  O   UNL     1     166.815 146.434 153.517  1.00  0.00    -0.285 OA
ATOM      5  C   UNL     1     168.993 145.843 154.114  1.00  0.00     0.111 A 
ATOM      6  C   UNL     1     168.858 146.053 155.519  1.00  0.00     0.134 A 
ATOM      7  C   UNL     1     169.891 145.661 156.378  1.00  0.00     0.093 A 
ATOM      8  C   UNL     1     171.079 145.127 155.880  1.00  0.00     0.123 A 
ATOM      9  C   UNL     1     171.245 144.973 154.503  1.00  0.00     0.094 A 
ATOM     10  C   UNL     1     170.217 145.322 153.622  1.00  0.00     0.146 A 
ATOM     11  O   UNL     1     170.412 145.149 152.321  1.00  0.00    -0.452 OA
ENDROOT
BRANCH   1  12
ATOM     12  C   UNL     1     169.847 145.214 149.978  1.00  0.00     0.025 A 
ATOM     13  C   UNL     1     170.118 143.932 149.475  1.00  0.00     0.016 A 
ATOM     14  C   UNL     1     170.424 143.755 148.124  1.00  0.00     0.051 A 
ATOM     15  C   UNL     1     170.451 144.845 147.248  1.00  0.00     0.157 A 
ATOM     16  C   UNL     1     169.853 146.306 149.098  1.00  0.00     0.062 A 
ATOM     17  C   UNL     1     170.158 146.139 147.741  1.00  0.00     0.158 A 
BRANCH  15  18
ATOM     18  O   UNL     1     170.767 144.600 145.910  1.00  0.00    -0.504 OA
ATOM     19  H   UNL     1     171.438 145.139 145.381  1.00  0.00     0.293 HD
ENDBRANCH  15  18
BRANCH  17  20
ATOM     20  O   UNL     1     170.157 147.274 146.927  1.00  0.00    -0.504 OA
ATOM     21  H   UNL     1     170.723 147.373 146.096  1.00  0.00     0.293 HD
ENDBRANCH  17  20
ENDBRANCH   1  12
BRANCH   2  22
ATOM     22  O   UNL     1     167.223 146.087 150.845  1.00  0.00    -0.502 OA
ATOM     23  H   UNL     1     167.393 146.580 149.977  1.00  0.00     0.293 HD
ENDBRANCH   2  22
BRANCH   6  24
ATOM     24  O   UNL     1     167.749 146.663 156.114  1.00  0.00    -0.507 OA
ATOM     25  H   UNL     1     167.333 146.373 156.986  1.00  0.00     0.293 HD
ENDBRANCH   6  24
BRANCH   8  26
ATOM     26  O   UNL     1     172.093 144.762 156.763  1.00  0.00    -0.508 OA
ATOM     27  H   UNL     1     172.915 145.340 156.895  1.00  0.00     0.293 HD
ENDBRANCH   8  26
TORSDOF 6
ENDMDL
MODEL 8
REMARK VINA RESULT:    -7.184      1.390      3.145
REMARK INTER + INTRA:          -8.473
REMARK INTER:                  -8.778
REMARK INTRA:                   0.305
REMARK UNBOUND:                 0.181
REMARK SMILES O=c1c(O)c(-c2ccc(O)c(O)c2)oc2cc(O)cc(O)c12
REMARK SMILES IDX 5 1 3 2 2 3 1 4 22 5 20 6 19 7 17 8 16 9 15 10 14 11 6 12
REMARK SMILES IDX 7 13 8 14 9 15 13 16 11 17 10 18 12 20 4 22 21 24 18 26
REMARK H PARENT 10 19 12 21 4 23 21 25 18 27
REMARK Flexibility Score: inf
ROOT
ATOM      1  C   UNL     1     169.256 145.188 153.607  1.00  0.00     0.180 A 
ATOM      2  C   UNL     1     168.071 145.855 153.251  1.00  0.00     0.208 A 
ATOM      3  C   UNL     1     167.868 146.216 151.909  1.00  0.00     0.238 A 
ATOM      4  O   UNL     1     166.831 146.860 151.607  1.00  0.00    -0.285 OA
ATOM      5  C   UNL     1     168.846 145.892 150.938  1.00  0.00     0.111 A 
ATOM      6  C   UNL     1     168.728 146.174 149.544  1.00  0.00     0.134 A 
ATOM      7  C   UNL     1     169.813 145.926 148.695  1.00  0.00     0.093 A 
ATOM      8  C   UNL     1     170.987 145.347 149.175  1.00  0.00     0.123 A 
ATOM      9  C   UNL     1     171.091 145.012 150.526  1.00  0.00     0.094 A 
ATOM     10  C   UNL     1     170.038 145.281 151.406  1.00  0.00     0.146 A 
ATOM     11  O   UNL     1     170.182 144.957 152.685  1.00  0.00    -0.452 OA
ENDROOT
BRANCH   1  12
ATOM     12  C   UNL     1     169.529 144.753 154.996  1.00  0.00     0.025 A 
ATOM     13  C   UNL     1     170.833 144.733 155.513  1.00  0.00     0.016 A 
ATOM     14  C   UNL     1     171.062 144.342 156.834  1.00  0.00     0.051 A 
ATOM     15  C   UNL     1     169.998 143.978 157.667  1.00  0.00     0.157 A 
ATOM     16  C   UNL     1     168.458 144.409 155.834  1.00  0.00     0.062 A 
ATOM     17  C   UNL     1     168.677 144.016 157.161  1.00  0.00     0.158 A 
BRANCH  15  18
ATOM     18  O   UNL     1     170.295 143.593 158.975  1.00  0.00    -0.504 OA
ATOM     19  H   UNL     1     169.813 142.857 159.471  1.00  0.00     0.293 HD
ENDBRANCH  15  18
BRANCH  17  20
ATOM     20  O   UNL     1     167.564 143.676 157.933  1.00  0.00    -0.504 OA
ATOM     21  H   UNL     1     166.609 143.866 157.661  1.00  0.00     0.293 HD
ENDBRANCH  17  20
ENDBRANCH   1  12
BRANCH   2  22
ATOM     22  O   UNL     1     167.128 146.184 154.230  1.00  0.00    -0.502 OA
ATOM     23  H   UNL     1     167.391 146.522 155.147  1.00  0.00     0.293 HD
ENDBRANCH   2  22
BRANCH   6  24
ATOM     24  O   UNL     1     167.566 146.668 148.943  1.00  0.00    -0.507 OA
ATOM     25  H   UNL     1     166.634 146.550 149.311  1.00  0.00     0.293 HD
ENDBRANCH   6  24
BRANCH   8  26
ATOM     26  O   UNL     1     172.041 145.100 148.299  1.00  0.00    -0.508 OA
ATOM     27  H   UNL     1     173.000 145.054 148.623  1.00  0.00     0.293 HD
ENDBRANCH   8  26
TORSDOF 6
ENDMDL
MODEL 9
REMARK VINA RESULT:    -7.079      2.993      5.162
REMARK INTER + INTRA:          -8.346
REMARK INTER:                  -8.090
REMARK INTRA:                  -0.256
REMARK UNBOUND:                 0.181
REMARK SMILES O=c1c(O)c(-c2ccc(O)c(O)c2)oc2cc(O)cc(O)c12
REMARK SMILES IDX 5 1 3 2 2 3 1 4 22 5 20 6 19 7 17 8 16 9 15 10 14 11 6 12
REMARK SMILES IDX 7 13 8 14 9 15 13 16 11 17 10 18 12 20 4 22 21 24 18 26
REMARK H PARENT 10 19 12 21 4 23 21 25 18 27
REMARK Flexibility Score: inf
ROOT
ATOM      1  C   UNL     1     170.226 145.395 151.926  1.00  0.00     0.180 A 
ATOM      2  C   UNL     1     170.141 146.172 150.757  1.00  0.00     0.208 A 
ATOM      3  C   UNL     1     170.815 145.742 149.603  1.00  0.00     0.238 A 
ATOM      4  O   UNL     1     170.780 146.468 148.577  1.00  0.00    -0.285 OA
ATOM      5  C   UNL     1     171.553 144.533 149.628  1.00  0.00     0.111 A 
ATOM      6  C   UNL     1     172.242 143.982 148.506  1.00  0.00     0.134 A 
ATOM      7  C   UNL     1     173.047 142.850 148.679  1.00  0.00     0.093 A 
ATOM      8  C   UNL     1     173.137 142.211 149.915  1.00  0.00     0.123 A 
ATOM      9  C   UNL     1     172.420 142.707 151.004  1.00  0.00     0.094 A 
ATOM     10  C   UNL     1     171.636 143.857 150.872  1.00  0.00     0.146 A 
ATOM     11  O   UNL     1     170.979 144.302 151.936  1.00  0.00    -0.452 OA
ENDROOT
BRANCH   1  12
ATOM     12  C   UNL     1     169.522 145.770 153.174  1.00  0.00     0.025 A 
ATOM     13  C   UNL     1     168.127 145.664 153.286  1.00  0.00     0.016 A 
ATOM     14  C   UNL     1     167.488 146.001 154.481  1.00  0.00     0.051 A 
ATOM     15  C   UNL     1     168.225 146.436 155.588  1.00  0.00     0.157 A 
ATOM     16  C   UNL     1     170.266 146.185 154.288  1.00  0.00     0.062 A 
ATOM     17  C   UNL     1     169.634 146.526 155.492  1.00  0.00     0.158 A 
BRANCH  15  18
ATOM     18  O   UNL     1     167.525 146.761 156.751  1.00  0.00    -0.504 OA
ATOM     19  H   UNL     1     167.895 146.644 157.684  1.00  0.00     0.293 HD
ENDBRANCH  15  18
BRANCH  17  20
ATOM     20  O   UNL     1     170.437 146.942 156.555  1.00  0.00    -0.504 OA
ATOM     21  H   UNL     1     170.311 146.639 157.511  1.00  0.00     0.293 HD
ENDBRANCH  17  20
ENDBRANCH   1  12
BRANCH   2  22
ATOM     22  O   UNL     1     169.424 147.372 150.761  1.00  0.00    -0.502 OA
ATOM     23  H   UNL     1     168.902 147.692 151.568  1.00  0.00     0.293 HD
ENDBRANCH   2  22
BRANCH   6  24
ATOM     24  O   UNL     1     172.148 144.489 147.206  1.00  0.00    -0.507 OA
ATOM     25  H   UNL     1     171.293 144.799 146.771  1.00  0.00     0.293 HD
ENDBRANCH   6  24
BRANCH   8  26
ATOM     26  O   UNL     1     173.936 141.077 150.047  1.00  0.00    -0.508 OA
ATOM     27  H   UNL     1     174.947 141.141 150.072  1.00  0.00     0.293 HD
ENDBRANCH   8  26
TORSDOF 6
ENDMDL
