MODEL 1
REMARK VINA RESULT:    -2.388      0.000      0.000
REMARK INTER + INTRA:          -2.721
REMARK INTER:                  -2.667
REMARK INTRA:                  -0.054
REMARK UNBOUND:                -0.054
REMARK SMILES CCCC(=O)[O-]
REMARK SMILES IDX 3 1 4 2 5 3 6 4 2 5 1 6
REMARK H PARENT
REMARK Flexibility Score: inf
ROOT
ATOM      1  C   UNL     1      16.897  -8.643  28.409  1.00  0.00     0.052 C 
ENDROOT
BRANCH   1   2
ATOM      2  C   UNL     1      17.095  -9.640  29.506  1.00  0.00     0.041 C 
ATOM      3  O   UNL     1      18.209  -9.733  30.084  1.00  0.00    -0.550 OA
ATOM      4  O   UNL     1      16.063 -10.502  29.855  1.00  0.00    -0.550 OA
ENDBRANCH   1   2
BRANCH   1   5
ATOM      5  C   UNL     1      15.876  -7.581  28.826  1.00  0.00     0.003 C 
ATOM      6  C   UNL     1      16.366  -6.790  30.034  1.00  0.00     0.004 C 
ENDBRANCH   1   5
TORSDOF 2
ENDMDL
MODEL 2
REMARK VINA RESULT:    -2.356      1.551      2.343
REMARK INTER + INTRA:          -2.685
REMARK INTER:                  -2.649
REMARK INTRA:                  -0.036
REMARK UNBOUND:                -0.054
REMARK SMILES CCCC(=O)[O-]
REMARK SMILES IDX 3 1 4 2 5 3 6 4 2 5 1 6
REMARK H PARENT
REMARK Flexibility Score: inf
ROOT
ATOM      1  C   UNL     1      16.214  -9.267  28.539  1.00  0.00     0.052 C 
ENDROOT
BRANCH   1   2
ATOM      2  C   UNL     1      17.375  -8.958  29.429  1.00  0.00     0.041 C 
ATOM      3  O   UNL     1      18.110  -9.887  29.857  1.00  0.00    -0.550 OA
ATOM      4  O   UNL     1      17.616  -7.649  29.828  1.00  0.00    -0.550 OA
ENDBRANCH   1   2
BRANCH   1   5
ATOM      5  C   UNL     1      16.062  -8.190  27.461  1.00  0.00     0.003 C 
ATOM      6  C   UNL     1      16.701  -8.631  26.148  1.00  0.00     0.004 C 
ENDBRANCH   1   5
TORSDOF 2
ENDMDL
MODEL 3
REMARK VINA RESULT:    -1.817      3.592      4.199
REMARK INTER + INTRA:          -2.083
REMARK INTER:                  -2.067
REMARK INTRA:                  -0.016
REMARK UNBOUND:                -0.054
REMARK SMILES CCCC(=O)[O-]
REMARK SMILES IDX 3 1 4 2 5 3 6 4 2 5 1 6
REMARK H PARENT
REMARK Flexibility Score: inf
ROOT
ATOM      1  C   UNL     1      17.497  -8.686  26.799  1.00  0.00     0.052 C 
ENDROOT
BRANCH   1   2
ATOM      2  C   UNL     1      17.276  -8.433  25.342  1.00  0.00     0.041 C 
ATOM      3  O   UNL     1      16.121  -8.530  24.850  1.00  0.00    -0.550 OA
ATOM      4  O   UNL     1      18.354  -8.138  24.516  1.00  0.00    -0.550 OA
ENDBRANCH   1   2
BRANCH   1   5
ATOM      5  C   UNL     1      16.163  -8.701  27.550  1.00  0.00     0.003 C 
ATOM      6  C   UNL     1      16.280  -9.462  28.867  1.00  0.00     0.004 C 
ENDBRANCH   1   5
TORSDOF 2
ENDMDL
MODEL 4
REMARK VINA RESULT:    -1.767      1.933      2.393
REMARK INTER + INTRA:          -2.028
REMARK INTER:                  -1.989
REMARK INTRA:                  -0.038
REMARK UNBOUND:                -0.054
REMARK SMILES CCCC(=O)[O-]
REMARK SMILES IDX 3 1 4 2 5 3 6 4 2 5 1 6
REMARK H PARENT
REMARK Flexibility Score: inf
ROOT
ATOM      1  C   UNL     1      15.896  -7.509  28.283  1.00  0.00     0.052 C 
ENDROOT
BRANCH   1   2
ATOM      2  C   UNL     1      16.114  -8.841  27.637  1.00  0.00     0.041 C 
ATOM      3  O   UNL     1      15.875  -9.900  28.274  1.00  0.00    -0.550 OA
ATOM      4  O   UNL     1      16.629  -8.912  26.349  1.00  0.00    -0.550 OA
ENDBRANCH   1   2
BRANCH   1   5
ATOM      5  C   UNL     1      16.133  -7.599  29.793  1.00  0.00     0.003 C 
ATOM      6  C   UNL     1      17.618  -7.494  30.125  1.00  0.00     0.004 C 
ENDBRANCH   1   5
TORSDOF 2
ENDMDL
MODEL 5
REMARK VINA RESULT:    -1.640      2.723      3.509
REMARK INTER + INTRA:          -1.885
REMARK INTER:                  -1.877
REMARK INTRA:                  -0.008
REMARK UNBOUND:                -0.054
REMARK SMILES CCCC(=O)[O-]
REMARK SMILES IDX 3 1 4 2 5 3 6 4 2 5 1 6
REMARK H PARENT
REMARK Flexibility Score: inf
ROOT
ATOM      1  C   UNL     1      17.466  -8.780  26.834  1.00  0.00     0.052 C 
ENDROOT
BRANCH   1   2
ATOM      2  C   UNL     1      16.353  -8.620  27.820  1.00  0.00     0.041 C 
ATOM      3  O   UNL     1      15.875  -7.479  28.056  1.00  0.00    -0.550 OA
ATOM      4  O   UNL     1      15.876  -9.724  28.514  1.00  0.00    -0.550 OA
ENDBRANCH   1   2
BRANCH   1   5
ATOM      5  C   UNL     1      17.035  -8.281  25.452  1.00  0.00     0.003 C 
ATOM      6  C   UNL     1      18.216  -8.245  24.486  1.00  0.00     0.004 C 
ENDBRANCH   1   5
TORSDOF 2
ENDMDL
MODEL 6
REMARK VINA RESULT:    -1.025     18.554     19.428
REMARK INTER + INTRA:          -1.198
REMARK INTER:                  -1.163
REMARK INTRA:                  -0.035
REMARK UNBOUND:                -0.054
REMARK SMILES CCCC(=O)[O-]
REMARK SMILES IDX 3 1 4 2 5 3 6 4 2 5 1 6
REMARK H PARENT
REMARK Flexibility Score: inf
ROOT
ATOM      1  C   UNL     1      28.672 -14.991  15.549  1.00  0.00     0.052 C 
ENDROOT
BRANCH   1   2
ATOM      2  C   UNL     1      29.015 -15.279  16.976  1.00  0.00     0.041 C 
ATOM      3  O   UNL     1      28.873 -16.440  17.440  1.00  0.00    -0.550 OA
ATOM      4  O   UNL     1      29.444 -14.252  17.808  1.00  0.00    -0.550 OA
ENDBRANCH   1   2
BRANCH   1   5
ATOM      5  C   UNL     1      27.976 -16.197  14.911  1.00  0.00     0.003 C 
ATOM      6  C   UNL     1      28.730 -16.678  13.675  1.00  0.00     0.004 C 
ENDBRANCH   1   5
TORSDOF 2
ENDMDL
MODEL 7
REMARK VINA RESULT:    -0.755     19.794     20.422
REMARK INTER + INTRA:          -0.897
REMARK INTER:                  -0.861
REMARK INTRA:                  -0.036
REMARK UNBOUND:                -0.054
REMARK SMILES CCCC(=O)[O-]
REMARK SMILES IDX 3 1 4 2 5 3 6 4 2 5 1 6
REMARK H PARENT
REMARK Flexibility Score: inf
ROOT
ATOM      1  C   UNL     1      27.920 -16.079  15.113  1.00  0.00     0.052 C 
ENDROOT
BRANCH   1   2
ATOM      2  C   UNL     1      28.710 -16.586  13.948  1.00  0.00     0.041 C 
ATOM      3  O   UNL     1      28.123 -16.943  12.893  1.00  0.00    -0.550 OA
ATOM      4  O   UNL     1      30.090 -16.712  14.046  1.00  0.00    -0.550 OA
ENDBRANCH   1   2
BRANCH   1   5
ATOM      5  C   UNL     1      28.760 -15.109  15.949  1.00  0.00     0.003 C 
ATOM      6  C   UNL     1      29.109 -15.711  17.306  1.00  0.00     0.004 C 
ENDBRANCH   1   5
TORSDOF 2
ENDMDL
