MODEL 1
REMARK VINA RESULT:    19.055      0.000      0.000
REMARK INTER + INTRA:          33.797
REMARK INTER:                  34.649
REMARK INTRA:                  -0.853
REMARK UNBOUND:                -0.853
REMARK SMILES CCCCCCCCCCCCCC[C@@H](C)C(=O)[O-]
REMARK SMILES IDX 9 1 10 2 11 3 12 4 13 5 14 6 15 7 16 8 17 9 18 10 19 11 8 12
REMARK SMILES IDX 7 13 6 14 5 15 4 16 3 17 2 18 1 19
REMARK H PARENT
REMARK Flexibility Score: inf
ROOT
ATOM      1  C   UNL     1      57.461  47.654  21.580  1.00  0.00     0.000 C 
ENDROOT
BRANCH   1   2
ATOM      2  C   UNL     1      56.917  46.719  22.676  1.00  0.00     0.000 C 
BRANCH   2   3
ATOM      3  C   UNL     1      57.137  45.216  22.422  1.00  0.00     0.000 C 
BRANCH   3   4
ATOM      4  C   UNL     1      56.408  44.707  21.166  1.00  0.00     0.000 C 
BRANCH   4   5
ATOM      5  C   UNL     1      56.636  43.207  20.918  1.00  0.00     0.001 C 
BRANCH   5   6
ATOM      6  C   UNL     1      55.316  42.432  20.737  1.00  0.00     0.009 C 
BRANCH   6   7
ATOM      7  C   UNL     1      55.217  41.140  21.579  1.00  0.00     0.032 C 
ATOM      8  C   UNL     1      53.938  41.075  22.426  1.00  0.00     0.014 C 
BRANCH   7   9
ATOM      9  C   UNL     1      55.392  39.908  20.729  1.00  0.00     0.044 C 
ATOM     10  O   UNL     1      56.396  39.160  20.870  1.00  0.00    -0.550 OA
ATOM     11  O   UNL     1      54.408  39.560  19.811  1.00  0.00    -0.550 OA
ENDBRANCH   7   9
ENDBRANCH   6   7
ENDBRANCH   5   6
ENDBRANCH   4   5
ENDBRANCH   3   4
ENDBRANCH   2   3
ENDBRANCH   1   2
BRANCH   1  12
ATOM     12  C   UNL     1      56.355  48.442  20.858  1.00  0.00     0.000 C 
BRANCH  12  13
ATOM     13  C   UNL     1      55.936  47.777  19.528  1.00  0.00    -0.000 C 
BRANCH  13  14
ATOM     14  C   UNL     1      57.104  47.560  18.550  1.00  0.00    -0.000 C 
BRANCH  14  15
ATOM     15  C   UNL     1      57.099  48.563  17.385  1.00  0.00    -0.000 C 
BRANCH  15  16
ATOM     16  C   UNL     1      55.695  49.109  17.082  1.00  0.00    -0.000 C 
BRANCH  16  17
ATOM     17  C   UNL     1      55.704  50.200  15.997  1.00  0.00    -0.000 C 
BRANCH  17  18
ATOM     18  C   UNL     1      54.628  49.972  14.924  1.00  0.00    -0.003 C 
ATOM     19  C   UNL     1      53.220  50.291  15.425  1.00  0.00     0.004 C 
ENDBRANCH  17  18
ENDBRANCH  16  17
ENDBRANCH  15  16
ENDBRANCH  14  15
ENDBRANCH  13  14
ENDBRANCH  12  13
ENDBRANCH   1  12
TORSDOF 14
ENDMDL
MODEL 2
REMARK VINA RESULT:    19.293      0.872      1.566
REMARK INTER + INTRA:          34.231
REMARK INTER:                  34.633
REMARK INTRA:                  -0.402
REMARK UNBOUND:                -0.853
REMARK SMILES CCCCCCCCCCCCCC[C@@H](C)C(=O)[O-]
REMARK SMILES IDX 9 1 10 2 11 3 12 4 13 5 14 6 15 7 16 8 17 9 18 10 19 11 8 12
REMARK SMILES IDX 7 13 6 14 5 15 4 16 3 17 2 18 1 19
REMARK H PARENT
REMARK Flexibility Score: inf
ROOT
ATOM      1  C   UNL     1      56.438  47.708  21.095  1.00  0.00     0.000 C 
ENDROOT
BRANCH   1   2
ATOM      2  C   UNL     1      56.433  46.228  21.520  1.00  0.00     0.000 C 
BRANCH   2   3
ATOM      3  C   UNL     1      55.963  45.238  20.437  1.00  0.00     0.000 C 
BRANCH   3   4
ATOM      4  C   UNL     1      56.515  43.817  20.643  1.00  0.00     0.000 C 
BRANCH   4   5
ATOM      5  C   UNL     1      55.424  42.739  20.535  1.00  0.00     0.001 C 
BRANCH   5   6
ATOM      6  C   UNL     1      55.492  41.714  21.685  1.00  0.00     0.009 C 
BRANCH   6   7
ATOM      7  C   UNL     1      54.866  40.341  21.351  1.00  0.00     0.032 C 
ATOM      8  C   UNL     1      53.563  40.460  20.545  1.00  0.00     0.014 C 
BRANCH   7   9
ATOM      9  C   UNL     1      55.858  39.425  20.684  1.00  0.00     0.044 C 
ATOM     10  O   UNL     1      55.704  39.063  19.486  1.00  0.00    -0.550 OA
ATOM     11  O   UNL     1      56.988  39.012  21.379  1.00  0.00    -0.550 OA
ENDBRANCH   7   9
ENDBRANCH   6   7
ENDBRANCH   5   6
ENDBRANCH   4   5
ENDBRANCH   3   4
ENDBRANCH   2   3
ENDBRANCH   1   2
BRANCH   1  12
ATOM     12  C   UNL     1      55.990  47.919  19.639  1.00  0.00     0.000 C 
BRANCH  12  13
ATOM     13  C   UNL     1      57.118  47.610  18.630  1.00  0.00    -0.000 C 
BRANCH  13  14
ATOM     14  C   UNL     1      57.068  48.477  17.360  1.00  0.00    -0.000 C 
BRANCH  14  15
ATOM     15  C   UNL     1      55.672  49.063  17.093  1.00  0.00    -0.000 C 
BRANCH  15  16
ATOM     16  C   UNL     1      55.678  50.114  15.972  1.00  0.00    -0.000 C 
BRANCH  16  17
ATOM     17  C   UNL     1      54.629  49.826  14.883  1.00  0.00    -0.000 C 
BRANCH  17  18
ATOM     18  C   UNL     1      53.463  50.826  14.909  1.00  0.00    -0.003 C 
ATOM     19  C   UNL     1      52.215  50.259  15.585  1.00  0.00     0.004 C 
ENDBRANCH  17  18
ENDBRANCH  16  17
ENDBRANCH  15  16
ENDBRANCH  14  15
ENDBRANCH  13  14
ENDBRANCH  12  13
ENDBRANCH   1  12
TORSDOF 14
ENDMDL
MODEL 3
REMARK VINA RESULT:    19.744      1.178      1.531
REMARK INTER + INTRA:          35.050
REMARK INTER:                  34.920
REMARK INTRA:                   0.130
REMARK UNBOUND:                -0.853
REMARK SMILES CCCCCCCCCCCCCC[C@@H](C)C(=O)[O-]
REMARK SMILES IDX 9 1 10 2 11 3 12 4 13 5 14 6 15 7 16 8 17 9 18 10 19 11 8 12
REMARK SMILES IDX 7 13 6 14 5 15 4 16 3 17 2 18 1 19
REMARK H PARENT
REMARK Flexibility Score: inf
ROOT
ATOM      1  C   UNL     1      56.350  47.264  21.824  1.00  0.00     0.000 C 
ENDROOT
BRANCH   1   2
ATOM      2  C   UNL     1      56.475  45.836  21.261  1.00  0.00     0.000 C 
BRANCH   2   3
ATOM      3  C   UNL     1      55.474  45.483  20.146  1.00  0.00     0.000 C 
BRANCH   3   4
ATOM      4  C   UNL     1      55.100  43.990  20.126  1.00  0.00     0.000 C 
BRANCH   4   5
ATOM      5  C   UNL     1      56.317  43.074  20.331  1.00  0.00     0.001 C 
BRANCH   5   6
ATOM      6  C   UNL     1      56.033  41.930  21.325  1.00  0.00     0.009 C 
BRANCH   6   7
ATOM      7  C   UNL     1      55.532  40.625  20.665  1.00  0.00     0.032 C 
ATOM      8  C   UNL     1      56.295  39.381  21.146  1.00  0.00     0.014 C 
BRANCH   7   9
ATOM      9  C   UNL     1      54.042  40.463  20.812  1.00  0.00     0.044 C 
ATOM     10  O   UNL     1      53.521  40.253  21.941  1.00  0.00    -0.550 OA
ATOM     11  O   UNL     1      53.221  40.599  19.699  1.00  0.00    -0.550 OA
ENDBRANCH   7   9
ENDBRANCH   6   7
ENDBRANCH   5   6
ENDBRANCH   4   5
ENDBRANCH   3   4
ENDBRANCH   2   3
ENDBRANCH   1   2
BRANCH   1  12
ATOM     12  C   UNL     1      56.742  48.349  20.807  1.00  0.00     0.000 C 
BRANCH  12  13
ATOM     13  C   UNL     1      56.183  48.057  19.397  1.00  0.00    -0.000 C 
BRANCH  13  14
ATOM     14  C   UNL     1      57.269  47.736  18.355  1.00  0.00    -0.000 C 
BRANCH  14  15
ATOM     15  C   UNL     1      57.071  48.499  17.034  1.00  0.00    -0.000 C 
BRANCH  15  16
ATOM     16  C   UNL     1      55.720  49.229  16.971  1.00  0.00    -0.000 C 
BRANCH  16  17
ATOM     17  C   UNL     1      55.701  50.352  15.920  1.00  0.00    -0.000 C 
BRANCH  17  18
ATOM     18  C   UNL     1      54.564  50.184  14.899  1.00  0.00    -0.003 C 
ATOM     19  C   UNL     1      53.190  50.079  15.560  1.00  0.00     0.004 C 
ENDBRANCH  17  18
ENDBRANCH  16  17
ENDBRANCH  15  16
ENDBRANCH  14  15
ENDBRANCH  13  14
ENDBRANCH  12  13
ENDBRANCH   1  12
TORSDOF 14
ENDMDL
MODEL 4
REMARK VINA RESULT:    20.221      3.904      8.812
REMARK INTER + INTRA:          35.918
REMARK INTER:                  36.302
REMARK INTRA:                  -0.384
REMARK UNBOUND:                -0.853
REMARK SMILES CCCCCCCCCCCCCC[C@@H](C)C(=O)[O-]
REMARK SMILES IDX 9 1 10 2 11 3 12 4 13 5 14 6 15 7 16 8 17 9 18 10 19 11 8 12
REMARK SMILES IDX 7 13 6 14 5 15 4 16 3 17 2 18 1 19
REMARK H PARENT
REMARK Flexibility Score: inf
ROOT
ATOM      1  C   UNL     1      57.206  45.726  22.257  1.00  0.00     0.000 C 
ENDROOT
BRANCH   1   2
ATOM      2  C   UNL     1      56.471  47.053  22.520  1.00  0.00     0.000 C 
BRANCH   2   3
ATOM      3  C   UNL     1      56.738  48.164  21.487  1.00  0.00     0.000 C 
BRANCH   3   4
ATOM      4  C   UNL     1      56.204  47.822  20.086  1.00  0.00     0.000 C 
BRANCH   4   5
ATOM      5  C   UNL     1      55.289  48.921  19.518  1.00  0.00     0.001 C 
BRANCH   5   6
ATOM      6  C   UNL     1      54.875  48.646  18.059  1.00  0.00     0.009 C 
BRANCH   6   7
ATOM      7  C   UNL     1      55.614  49.513  17.015  1.00  0.00     0.032 C 
ATOM      8  C   UNL     1      56.909  48.863  16.507  1.00  0.00     0.014 C 
BRANCH   7   9
ATOM      9  C   UNL     1      54.705  49.916  15.883  1.00  0.00     0.044 C 
ATOM     10  O   UNL     1      53.519  49.492  15.821  1.00  0.00    -0.550 OA
ATOM     11  O   UNL     1      55.159  50.808  14.919  1.00  0.00    -0.550 OA
ENDBRANCH   7   9
ENDBRANCH   6   7
ENDBRANCH   5   6
ENDBRANCH   4   5
ENDBRANCH   3   4
ENDBRANCH   2   3
ENDBRANCH   1   2
BRANCH   1  12
ATOM     12  C   UNL     1      56.517  44.856  21.191  1.00  0.00     0.000 C 
BRANCH  12  13
ATOM     13  C   UNL     1      56.801  43.351  21.393  1.00  0.00    -0.000 C 
BRANCH  13  14
ATOM     14  C   UNL     1      55.813  42.431  20.656  1.00  0.00    -0.000 C 
BRANCH  14  15
ATOM     15  C   UNL     1      55.122  41.426  21.593  1.00  0.00    -0.000 C 
BRANCH  15  16
ATOM     16  C   UNL     1      54.781  40.102  20.890  1.00  0.00    -0.000 C 
BRANCH  16  17
ATOM     17  C   UNL     1      56.017  39.417  20.283  1.00  0.00    -0.000 C 
BRANCH  17  18
ATOM     18  C   UNL     1      57.021  38.958  21.352  1.00  0.00    -0.003 C 
ATOM     19  C   UNL     1      57.396  37.482  21.212  1.00  0.00     0.004 C 
ENDBRANCH  17  18
ENDBRANCH  16  17
ENDBRANCH  15  16
ENDBRANCH  14  15
ENDBRANCH  13  14
ENDBRANCH  12  13
ENDBRANCH   1  12
TORSDOF 14
ENDMDL
MODEL 5
REMARK VINA RESULT:    20.315      6.345      8.450
REMARK INTER + INTRA:          36.090
REMARK INTER:                  36.790
REMARK INTRA:                  -0.700
REMARK UNBOUND:                -0.853
REMARK SMILES CCCCCCCCCCCCCC[C@@H](C)C(=O)[O-]
REMARK SMILES IDX 9 1 10 2 11 3 12 4 13 5 14 6 15 7 16 8 17 9 18 10 19 11 8 12
REMARK SMILES IDX 7 13 6 14 5 15 4 16 3 17 2 18 1 19
REMARK H PARENT
REMARK Flexibility Score: inf
ROOT
ATOM      1  C   UNL     1      54.872  52.917  21.339  1.00  0.00     0.000 C 
ENDROOT
BRANCH   1   2
ATOM      2  C   UNL     1      55.042  51.858  20.235  1.00  0.00     0.000 C 
BRANCH   2   3
ATOM      3  C   UNL     1      55.466  50.462  20.727  1.00  0.00     0.000 C 
BRANCH   3   4
ATOM      4  C   UNL     1      54.777  49.320  19.960  1.00  0.00     0.000 C 
BRANCH   4   5
ATOM      5  C   UNL     1      55.723  48.619  18.971  1.00  0.00     0.001 C 
BRANCH   5   6
ATOM      6  C   UNL     1      56.771  47.739  19.681  1.00  0.00     0.009 C 
BRANCH   6   7
ATOM      7  C   UNL     1      56.233  46.981  20.916  1.00  0.00     0.032 C 
ATOM      8  C   UNL     1      56.031  45.481  20.655  1.00  0.00     0.014 C 
BRANCH   7   9
ATOM      9  C   UNL     1      57.082  47.231  22.135  1.00  0.00     0.044 C 
ATOM     10  O   UNL     1      56.580  47.211  23.291  1.00  0.00    -0.550 OA
ATOM     11  O   UNL     1      58.449  47.437  21.991  1.00  0.00    -0.550 OA
ENDBRANCH   7   9
ENDBRANCH   6   7
ENDBRANCH   5   6
ENDBRANCH   4   5
ENDBRANCH   3   4
ENDBRANCH   2   3
ENDBRANCH   1   2
BRANCH   1  12
ATOM     12  C   UNL     1      53.493  52.862  22.020  1.00  0.00     0.000 C 
BRANCH  12  13
ATOM     13  C   UNL     1      53.046  54.242  22.549  1.00  0.00    -0.000 C 
BRANCH  13  14
ATOM     14  C   UNL     1      54.079  54.918  23.468  1.00  0.00    -0.000 C 
BRANCH  14  15
ATOM     15  C   UNL     1      53.437  55.882  24.479  1.00  0.00    -0.000 C 
BRANCH  15  16
ATOM     16  C   UNL     1      54.479  56.703  25.255  1.00  0.00    -0.000 C 
BRANCH  16  17
ATOM     17  C   UNL     1      55.911  56.173  25.067  1.00  0.00    -0.000 C 
BRANCH  17  18
ATOM     18  C   UNL     1      56.969  57.103  25.683  1.00  0.00    -0.003 C 
ATOM     19  C   UNL     1      58.163  56.339  26.255  1.00  0.00     0.004 C 
ENDBRANCH  17  18
ENDBRANCH  16  17
ENDBRANCH  15  16
ENDBRANCH  14  15
ENDBRANCH  13  14
ENDBRANCH  12  13
ENDBRANCH   1  12
TORSDOF 14
ENDMDL
MODEL 6
REMARK VINA RESULT:    21.269      7.676     10.873
REMARK INTER + INTRA:          37.824
REMARK INTER:                  38.506
REMARK INTRA:                  -0.682
REMARK UNBOUND:                -0.853
REMARK SMILES CCCCCCCCCCCCCC[C@@H](C)C(=O)[O-]
REMARK SMILES IDX 9 1 10 2 11 3 12 4 13 5 14 6 15 7 16 8 17 9 18 10 19 11 8 12
REMARK SMILES IDX 7 13 6 14 5 15 4 16 3 17 2 18 1 19
REMARK H PARENT
REMARK Flexibility Score: inf
ROOT
ATOM      1  C   UNL     1      55.246  51.594  20.246  1.00  0.00     0.000 C 
ENDROOT
BRANCH   1   2
ATOM      2  C   UNL     1      54.944  52.581  21.388  1.00  0.00     0.000 C 
BRANCH   2   3
ATOM      3  C   UNL     1      53.457  52.706  21.770  1.00  0.00     0.000 C 
BRANCH   3   4
ATOM      4  C   UNL     1      53.049  54.145  22.129  1.00  0.00     0.000 C 
BRANCH   4   5
ATOM      5  C   UNL     1      53.611  54.597  23.487  1.00  0.00     0.001 C 
BRANCH   5   6
ATOM      6  C   UNL     1      53.863  56.118  23.544  1.00  0.00     0.009 C 
BRANCH   6   7
ATOM      7  C   UNL     1      54.597  56.592  24.818  1.00  0.00     0.032 C 
ATOM      8  C   UNL     1      54.059  55.935  26.098  1.00  0.00     0.014 C 
BRANCH   7   9
ATOM      9  C   UNL     1      56.090  56.436  24.690  1.00  0.00     0.044 C 
ATOM     10  O   UNL     1      56.830  56.421  25.711  1.00  0.00    -0.550 OA
ATOM     11  O   UNL     1      56.657  56.252  23.435  1.00  0.00    -0.550 OA
ENDBRANCH   7   9
ENDBRANCH   6   7
ENDBRANCH   5   6
ENDBRANCH   4   5
ENDBRANCH   3   4
ENDBRANCH   2   3
ENDBRANCH   1   2
BRANCH   1  12
ATOM     12  C   UNL     1      55.611  50.186  20.747  1.00  0.00     0.000 C 
BRANCH  12  13
ATOM     13  C   UNL     1      55.389  49.105  19.666  1.00  0.00    -0.000 C 
BRANCH  13  14
ATOM     14  C   UNL     1      56.366  47.920  19.765  1.00  0.00    -0.000 C 
BRANCH  14  15
ATOM     15  C   UNL     1      55.849  46.797  20.678  1.00  0.00    -0.000 C 
BRANCH  15  16
ATOM     16  C   UNL     1      56.722  46.605  21.929  1.00  0.00    -0.000 C 
BRANCH  16  17
ATOM     17  C   UNL     1      57.652  47.801  22.193  1.00  0.00    -0.000 C 
BRANCH  17  18
ATOM     18  C   UNL     1      59.104  47.372  22.460  1.00  0.00    -0.003 C 
ATOM     19  C   UNL     1      60.124  48.303  21.805  1.00  0.00     0.004 C 
ENDBRANCH  17  18
ENDBRANCH  16  17
ENDBRANCH  15  16
ENDBRANCH  14  15
ENDBRANCH  13  14
ENDBRANCH  12  13
ENDBRANCH   1  12
TORSDOF 14
ENDMDL
MODEL 7
REMARK VINA RESULT:    21.405      4.313      8.807
REMARK INTER + INTRA:          38.071
REMARK INTER:                  38.742
REMARK INTRA:                  -0.671
REMARK UNBOUND:                -0.853
REMARK SMILES CCCCCCCCCCCCCC[C@@H](C)C(=O)[O-]
REMARK SMILES IDX 9 1 10 2 11 3 12 4 13 5 14 6 15 7 16 8 17 9 18 10 19 11 8 12
REMARK SMILES IDX 7 13 6 14 5 15 4 16 3 17 2 18 1 19
REMARK H PARENT
REMARK Flexibility Score: inf
ROOT
ATOM      1  C   UNL     1      56.730  47.536  22.148  1.00  0.00     0.000 C 
ENDROOT
BRANCH   1   2
ATOM      2  C   UNL     1      56.284  48.247  20.857  1.00  0.00     0.000 C 
BRANCH   2   3
ATOM      3  C   UNL     1      56.363  47.392  19.579  1.00  0.00     0.000 C 
BRANCH   3   4
ATOM      4  C   UNL     1      57.489  47.836  18.630  1.00  0.00     0.000 C 
BRANCH   4   5
ATOM      5  C   UNL     1      56.996  48.052  17.189  1.00  0.00     0.001 C 
BRANCH   5   6
ATOM      6  C   UNL     1      55.686  48.862  17.130  1.00  0.00     0.009 C 
BRANCH   6   7
ATOM      7  C   UNL     1      55.564  49.783  15.895  1.00  0.00     0.032 C 
ATOM      8  C   UNL     1      54.142  49.819  15.315  1.00  0.00     0.014 C 
BRANCH   7   9
ATOM      9  C   UNL     1      56.091  51.166  16.178  1.00  0.00     0.044 C 
ATOM     10  O   UNL     1      57.100  51.613  15.568  1.00  0.00    -0.550 OA
ATOM     11  O   UNL     1      55.428  51.982  17.087  1.00  0.00    -0.550 OA
ENDBRANCH   7   9
ENDBRANCH   6   7
ENDBRANCH   5   6
ENDBRANCH   4   5
ENDBRANCH   3   4
ENDBRANCH   2   3
ENDBRANCH   1   2
BRANCH   1  12
ATOM     12  C   UNL     1      57.549  46.261  21.882  1.00  0.00     0.000 C 
BRANCH  12  13
ATOM     13  C   UNL     1      56.760  44.978  22.224  1.00  0.00    -0.000 C 
BRANCH  13  14
ATOM     14  C   UNL     1      56.260  44.210  20.988  1.00  0.00    -0.000 C 
BRANCH  14  15
ATOM     15  C   UNL     1      56.523  42.698  21.080  1.00  0.00    -0.000 C 
BRANCH  15  16
ATOM     16  C   UNL     1      55.225  41.874  21.102  1.00  0.00    -0.000 C 
BRANCH  16  17
ATOM     17  C   UNL     1      55.417  40.451  20.549  1.00  0.00    -0.000 C 
BRANCH  17  18
ATOM     18  C   UNL     1      55.951  39.474  21.608  1.00  0.00    -0.003 C 
ATOM     19  C   UNL     1      56.980  38.496  21.041  1.00  0.00     0.004 C 
ENDBRANCH  17  18
ENDBRANCH  16  17
ENDBRANCH  15  16
ENDBRANCH  14  15
ENDBRANCH  13  14
ENDBRANCH  12  13
ENDBRANCH   1  12
TORSDOF 14
ENDMDL
MODEL 8
REMARK VINA RESULT:    21.518     11.072     12.021
REMARK INTER + INTRA:          38.276
REMARK INTER:                  39.130
REMARK INTRA:                  -0.854
REMARK UNBOUND:                -0.853
REMARK SMILES CCCCCCCCCCCCCC[C@@H](C)C(=O)[O-]
REMARK SMILES IDX 9 1 10 2 11 3 12 4 13 5 14 6 15 7 16 8 17 9 18 10 19 11 8 12
REMARK SMILES IDX 7 13 6 14 5 15 4 16 3 17 2 18 1 19
REMARK H PARENT
REMARK Flexibility Score: inf
ROOT
ATOM      1  C   UNL     1      52.410  52.876  27.799  1.00  0.00     0.000 C 
ENDROOT
BRANCH   1   2
ATOM      2  C   UNL     1      51.469  53.350  28.922  1.00  0.00     0.000 C 
BRANCH   2   3
ATOM      3  C   UNL     1      50.508  52.276  29.467  1.00  0.00     0.000 C 
BRANCH   3   4
ATOM      4  C   UNL     1      50.095  51.245  28.403  1.00  0.00     0.000 C 
BRANCH   4   5
ATOM      5  C   UNL     1      49.179  50.147  28.969  1.00  0.00     0.001 C 
BRANCH   5   6
ATOM      6  C   UNL     1      48.519  49.302  27.862  1.00  0.00     0.009 C 
BRANCH   6   7
ATOM      7  C   UNL     1      46.990  49.135  28.016  1.00  0.00     0.032 C 
ATOM      8  C   UNL     1      46.232  49.333  26.695  1.00  0.00     0.014 C 
BRANCH   7   9
ATOM      9  C   UNL     1      46.637  47.829  28.678  1.00  0.00     0.044 C 
ATOM     10  O   UNL     1      45.517  47.665  29.233  1.00  0.00    -0.550 OA
ATOM     11  O   UNL     1      47.537  46.770  28.634  1.00  0.00    -0.550 OA
ENDBRANCH   7   9
ENDBRANCH   6   7
ENDBRANCH   5   6
ENDBRANCH   4   5
ENDBRANCH   3   4
ENDBRANCH   2   3
ENDBRANCH   1   2
BRANCH   1  12
ATOM     12  C   UNL     1      53.479  53.919  27.429  1.00  0.00     0.000 C 
BRANCH  12  13
ATOM     13  C   UNL     1      52.905  55.351  27.377  1.00  0.00    -0.000 C 
BRANCH  13  14
ATOM     14  C   UNL     1      53.128  56.060  26.030  1.00  0.00    -0.000 C 
BRANCH  14  15
ATOM     15  C   UNL     1      54.002  55.243  25.065  1.00  0.00    -0.000 C 
BRANCH  15  16
ATOM     16  C   UNL     1      54.563  56.093  23.913  1.00  0.00    -0.000 C 
BRANCH  16  17
ATOM     17  C   UNL     1      55.968  56.645  24.213  1.00  0.00    -0.000 C 
BRANCH  17  18
ATOM     18  C   UNL     1      56.727  55.795  25.244  1.00  0.00    -0.003 C 
ATOM     19  C   UNL     1      57.700  56.620  26.085  1.00  0.00     0.004 C 
ENDBRANCH  17  18
ENDBRANCH  16  17
ENDBRANCH  15  16
ENDBRANCH  14  15
ENDBRANCH  13  14
ENDBRANCH  12  13
ENDBRANCH   1  12
TORSDOF 14
ENDMDL
