MODEL 1
REMARK VINA RESULT:    -5.959      0.000      0.000
REMARK INTER + INTRA:          -7.462
REMARK INTER:                  -6.830
REMARK INTRA:                  -0.632
REMARK UNBOUND:                -0.632
REMARK SMILES C=C(C)[C@H]1CC[C@]2(C(=O)[O-])CC[C@]3(C)[C@@H](CC[C@@H]4[C@]5(C)CC[C@H](O)C(C)(C)[C@@H]5CC[C@]43C)[C@H]12
REMARK SMILES IDX 7 1 6 2 33 3 11 4 5 5 15 6 4 7 12 8 16 9 13 10 17 11 31 12
REMARK SMILES IDX 14 13 18 14 30 15 32 16 19 17 29 18 21 19 20 20 28 21 22 22
REMARK SMILES IDX 25 23 23 24 26 25 27 26 8 27 9 28 10 29 2 30 3 31 1 32 24 33
REMARK H PARENT 24 34
REMARK Flexibility Score: inf
ROOT
ATOM      1  C   UNL     1     104.962  85.381  15.882  1.00  0.00     0.014 C 
ATOM      2  C   UNL     1     104.698  85.453  14.362  1.00  0.00     0.014 C 
ATOM      3  C   UNL     1     103.532  85.359  16.502  1.00  0.00     0.012 C 
ATOM      4  C   UNL     1     105.782  84.093  16.187  1.00  0.00     0.014 C 
ATOM      5  C   UNL     1     103.368  84.747  14.115  1.00  0.00     0.009 C 
ATOM      6  C   UNL     1     103.394  84.657  17.904  1.00  0.00     0.000 C 
ATOM      7  C   UNL     1     102.551  84.861  15.410  1.00  0.00     0.018 C 
ATOM      8  C   UNL     1     105.648  83.583  17.634  1.00  0.00     0.008 C 
ATOM      9  C   UNL     1     103.759  85.718  18.993  1.00  0.00     0.005 C 
ATOM     10  C   UNL     1     104.176  83.288  18.095  1.00  0.00    -0.024 C 
ATOM     11  C   UNL     1     104.106  85.156  20.372  1.00  0.00     0.005 C 
ATOM     12  C   UNL     1     104.072  82.731  19.658  1.00  0.00    -0.024 C 
ATOM     13  C   UNL     1     103.610  82.206  17.120  1.00  0.00     0.012 C 
ATOM     14  C   UNL     1     103.395  83.809  20.592  1.00  0.00     0.002 C 
ATOM     15  C   UNL     1     103.155  81.474  19.805  1.00  0.00     0.008 C 
ATOM     16  C   UNL     1     105.490  82.301  20.168  1.00  0.00     0.012 C 
ATOM     17  C   UNL     1     103.088  83.439  22.113  1.00  0.00    -0.026 C 
ATOM     18  C   UNL     1     103.014  80.961  21.243  1.00  0.00     0.005 C 
ATOM     19  C   UNL     1     104.368  83.597  23.010  1.00  0.00     0.010 C 
ATOM     20  C   UNL     1     102.023  84.473  22.625  1.00  0.00     0.012 C 
ATOM     21  C   UNL     1     102.409  81.995  22.228  1.00  0.00     0.003 C 
ATOM     22  C   UNL     1     104.584  82.464  24.016  1.00  0.00     0.033 C 
ATOM     23  C   UNL     1     102.252  81.426  23.730  1.00  0.00    -0.006 C 
ATOM     24  C   UNL     1     103.268  82.107  24.719  1.00  0.00     0.120 C 
ATOM     25  C   UNL     1     102.415  79.875  23.809  1.00  0.00     0.014 C 
ATOM     26  C   UNL     1     100.811  81.697  24.241  1.00  0.00     0.014 C 
ENDROOT
BRANCH   1  27
ATOM     27  C   UNL     1     105.734  86.625  16.323  1.00  0.00     0.048 C 
ATOM     28  O   UNL     1     105.148  87.737  16.419  1.00  0.00    -0.550 OA
ATOM     29  O   UNL     1     107.084  86.556  16.656  1.00  0.00    -0.550 OA
ENDBRANCH   1  27
BRANCH   7  30
ATOM     30  C   UNL     1     101.337  85.781  15.252  1.00  0.00    -0.077 C 
ATOM     31  C   UNL     1     101.442  87.110  14.545  1.00  0.00     0.039 C 
ATOM     32  C   UNL     1     100.158  85.440  15.798  1.00  0.00     0.008 C 
ENDBRANCH   7  30
BRANCH  24  33
ATOM     33  O   UNL     1     103.501  81.333  25.876  1.00  0.00    -0.393 OA
ATOM     34  H   UNL     1     103.500  81.937  26.664  1.00  0.00     0.210 HD
ENDBRANCH  24  33
TORSDOF 3
ENDMDL
MODEL 2
REMARK VINA RESULT:    -5.891      1.746      3.915
REMARK INTER + INTRA:          -7.384
REMARK INTER:                  -6.700
REMARK INTRA:                  -0.684
REMARK UNBOUND:                -0.632
REMARK SMILES C=C(C)[C@H]1CC[C@]2(C(=O)[O-])CC[C@]3(C)[C@@H](CC[C@@H]4[C@]5(C)CC[C@H](O)C(C)(C)[C@@H]5CC[C@]43C)[C@H]12
REMARK SMILES IDX 7 1 6 2 33 3 11 4 5 5 15 6 4 7 12 8 16 9 13 10 17 11 31 12
REMARK SMILES IDX 14 13 18 14 30 15 32 16 19 17 29 18 21 19 20 20 28 21 22 22
REMARK SMILES IDX 25 23 23 24 26 25 27 26 8 27 9 28 10 29 2 30 3 31 1 32 24 33
REMARK H PARENT 24 34
REMARK Flexibility Score: inf
ROOT
ATOM      1  C   UNL     1     104.762  86.434  15.933  1.00  0.00     0.014 C 
ATOM      2  C   UNL     1     105.123  87.772  15.253  1.00  0.00     0.014 C 
ATOM      3  C   UNL     1     105.728  86.370  17.154  1.00  0.00     0.012 C 
ATOM      4  C   UNL     1     103.260  86.469  16.341  1.00  0.00     0.014 C 
ATOM      5  C   UNL     1     105.615  88.705  16.356  1.00  0.00     0.009 C 
ATOM      6  C   UNL     1     105.233  85.529  18.389  1.00  0.00     0.000 C 
ATOM      7  C   UNL     1     106.180  87.819  17.475  1.00  0.00     0.018 C 
ATOM      8  C   UNL     1     102.890  85.505  17.485  1.00  0.00     0.008 C 
ATOM      9  C   UNL     1     105.614  84.036  18.116  1.00  0.00     0.005 C 
ATOM     10  C   UNL     1     103.711  85.707  18.807  1.00  0.00    -0.024 C 
ATOM     11  C   UNL     1     104.867  83.001  18.957  1.00  0.00     0.005 C 
ATOM     12  C   UNL     1     103.279  84.656  20.022  1.00  0.00    -0.024 C 
ATOM     13  C   UNL     1     103.452  87.175  19.276  1.00  0.00     0.012 C 
ATOM     14  C   UNL     1     104.435  83.618  20.300  1.00  0.00     0.002 C 
ATOM     15  C   UNL     1     103.063  85.360  21.399  1.00  0.00     0.008 C 
ATOM     16  C   UNL     1     101.920  83.961  19.667  1.00  0.00     0.012 C 
ATOM     17  C   UNL     1     104.280  82.586  21.507  1.00  0.00    -0.026 C 
ATOM     18  C   UNL     1     102.697  84.409  22.544  1.00  0.00     0.005 C 
ATOM     19  C   UNL     1     103.394  81.354  21.097  1.00  0.00     0.010 C 
ATOM     20  C   UNL     1     105.719  82.046  21.829  1.00  0.00     0.012 C 
ATOM     21  C   UNL     1     103.767  83.322  22.831  1.00  0.00     0.003 C 
ATOM     22  C   UNL     1     102.379  80.921  22.157  1.00  0.00     0.033 C 
ATOM     23  C   UNL     1     103.369  82.345  24.051  1.00  0.00    -0.006 C 
ATOM     24  C   UNL     1     103.026  80.895  23.548  1.00  0.00     0.120 C 
ATOM     25  C   UNL     1     102.177  82.892  24.900  1.00  0.00     0.014 C 
ATOM     26  C   UNL     1     104.554  82.252  25.051  1.00  0.00     0.014 C 
ENDROOT
BRANCH   1  27
ATOM     27  C   UNL     1     105.026  85.283  14.961  1.00  0.00     0.048 C 
ATOM     28  O   UNL     1     106.207  84.921  14.711  1.00  0.00    -0.550 OA
ATOM     29  O   UNL     1     103.979  84.593  14.358  1.00  0.00    -0.550 OA
ENDBRANCH   1  27
BRANCH   7  30
ATOM     30  C   UNL     1     107.701  87.941  17.603  1.00  0.00    -0.077 C 
ATOM     31  C   UNL     1     108.628  86.935  16.965  1.00  0.00     0.039 C 
ATOM     32  C   UNL     1     108.238  88.926  18.341  1.00  0.00     0.008 C 
ENDBRANCH   7  30
BRANCH  24  33
ATOM     33  O   UNL     1     102.234  80.174  24.466  1.00  0.00    -0.393 OA
ATOM     34  H   UNL     1     101.525  79.695  23.963  1.00  0.00     0.210 HD
ENDBRANCH  24  33
TORSDOF 3
ENDMDL
MODEL 3
REMARK VINA RESULT:    -5.834      3.144      8.371
REMARK INTER + INTRA:          -7.318
REMARK INTER:                  -6.630
REMARK INTRA:                  -0.688
REMARK UNBOUND:                -0.632
REMARK SMILES C=C(C)[C@H]1CC[C@]2(C(=O)[O-])CC[C@]3(C)[C@@H](CC[C@@H]4[C@]5(C)CC[C@H](O)C(C)(C)[C@@H]5CC[C@]43C)[C@H]12
REMARK SMILES IDX 7 1 6 2 33 3 11 4 5 5 15 6 4 7 12 8 16 9 13 10 17 11 31 12
REMARK SMILES IDX 14 13 18 14 30 15 32 16 19 17 29 18 21 19 20 20 28 21 22 22
REMARK SMILES IDX 25 23 23 24 26 25 27 26 8 27 9 28 10 29 2 30 3 31 1 32 24 33
REMARK H PARENT 24 34
REMARK Flexibility Score: inf
ROOT
ATOM      1  C   UNL     1     103.008  83.525  18.184  1.00  0.00     0.014 C 
ATOM      2  C   UNL     1     102.459  82.329  18.992  1.00  0.00     0.014 C 
ATOM      3  C   UNL     1     104.171  84.064  19.070  1.00  0.00     0.012 C 
ATOM      4  C   UNL     1     103.485  83.012  16.793  1.00  0.00     0.014 C 
ATOM      5  C   UNL     1     103.632  81.762  19.786  1.00  0.00     0.009 C 
ATOM      6  C   UNL     1     105.329  84.815  18.315  1.00  0.00     0.000 C 
ATOM      7  C   UNL     1     104.624  82.914  20.006  1.00  0.00     0.018 C 
ATOM      8  C   UNL     1     104.535  83.911  16.111  1.00  0.00     0.008 C 
ATOM      9  C   UNL     1     104.883  86.304  18.143  1.00  0.00     0.005 C 
ATOM     10  C   UNL     1     105.833  84.164  16.957  1.00  0.00    -0.024 C 
ATOM     11  C   UNL     1     105.641  87.101  17.081  1.00  0.00     0.005 C 
ATOM     12  C   UNL     1     106.947  85.130  16.186  1.00  0.00    -0.024 C 
ATOM     13  C   UNL     1     106.467  82.763  17.235  1.00  0.00     0.012 C 
ATOM     14  C   UNL     1     107.060  86.532  16.901  1.00  0.00     0.002 C 
ATOM     15  C   UNL     1     108.399  84.559  16.239  1.00  0.00     0.008 C 
ATOM     16  C   UNL     1     106.582  85.258  14.667  1.00  0.00     0.012 C 
ATOM     17  C   UNL     1     108.156  87.576  16.397  1.00  0.00    -0.026 C 
ATOM     18  C   UNL     1     109.451  85.448  15.565  1.00  0.00     0.005 C 
ATOM     19  C   UNL     1     107.657  88.363  15.131  1.00  0.00     0.010 C 
ATOM     20  C   UNL     1     108.353  88.620  17.553  1.00  0.00     0.012 C 
ATOM     21  C   UNL     1     109.573  86.865  16.183  1.00  0.00     0.003 C 
ATOM     22  C   UNL     1     108.710  88.532  14.032  1.00  0.00     0.033 C 
ATOM     23  C   UNL     1     110.699  87.775  15.471  1.00  0.00    -0.006 C 
ATOM     24  C   UNL     1     110.060  88.944  14.635  1.00  0.00     0.120 C 
ATOM     25  C   UNL     1     111.653  86.947  14.553  1.00  0.00     0.014 C 
ATOM     26  C   UNL     1     111.628  88.393  16.550  1.00  0.00     0.014 C 
ENDROOT
BRANCH   1  27
ATOM     27  C   UNL     1     101.908  84.574  18.019  1.00  0.00     0.048 C 
ATOM     28  O   UNL     1     101.569  85.297  18.995  1.00  0.00    -0.550 OA
ATOM     29  O   UNL     1     101.281  84.777  16.793  1.00  0.00    -0.550 OA
ENDBRANCH   1  27
BRANCH   7  30
ATOM     30  C   UNL     1     104.695  83.348  21.473  1.00  0.00    -0.077 C 
ATOM     31  C   UNL     1     103.793  84.428  22.019  1.00  0.00     0.039 C 
ATOM     32  C   UNL     1     105.612  82.808  22.292  1.00  0.00     0.008 C 
ENDBRANCH   7  30
BRANCH  24  33
ATOM     33  O   UNL     1     110.930  89.442  13.643  1.00  0.00    -0.393 OA
ATOM     34  H   UNL     1     111.381  88.674  13.204  1.00  0.00     0.210 HD
ENDBRANCH  24  33
TORSDOF 3
ENDMDL
MODEL 4
REMARK VINA RESULT:    -5.712      2.050      4.473
REMARK INTER + INTRA:          -7.178
REMARK INTER:                  -6.588
REMARK INTRA:                  -0.590
REMARK UNBOUND:                -0.632
REMARK SMILES C=C(C)[C@H]1CC[C@]2(C(=O)[O-])CC[C@]3(C)[C@@H](CC[C@@H]4[C@]5(C)CC[C@H](O)C(C)(C)[C@@H]5CC[C@]43C)[C@H]12
REMARK SMILES IDX 7 1 6 2 33 3 11 4 5 5 15 6 4 7 12 8 16 9 13 10 17 11 31 12
REMARK SMILES IDX 14 13 18 14 30 15 32 16 19 17 29 18 21 19 20 20 28 21 22 22
REMARK SMILES IDX 25 23 23 24 26 25 27 26 8 27 9 28 10 29 2 30 3 31 1 32 24 33
REMARK H PARENT 24 34
REMARK Flexibility Score: inf
ROOT
ATOM      1  C   UNL     1     105.841  87.119  15.333  1.00  0.00     0.014 C 
ATOM      2  C   UNL     1     106.484  88.434  14.841  1.00  0.00     0.014 C 
ATOM      3  C   UNL     1     106.820  86.623  16.439  1.00  0.00     0.012 C 
ATOM      4  C   UNL     1     104.414  87.431  15.873  1.00  0.00     0.014 C 
ATOM      5  C   UNL     1     107.241  89.022  16.029  1.00  0.00     0.009 C 
ATOM      6  C   UNL     1     106.195  85.719  17.566  1.00  0.00     0.000 C 
ATOM      7  C   UNL     1     107.626  87.849  16.941  1.00  0.00     0.018 C 
ATOM      8  C   UNL     1     103.876  86.397  16.881  1.00  0.00     0.008 C 
ATOM      9  C   UNL     1     106.187  84.249  17.032  1.00  0.00     0.005 C 
ATOM     10  C   UNL     1     104.785  86.171  18.140  1.00  0.00    -0.024 C 
ATOM     11  C   UNL     1     105.252  83.286  17.763  1.00  0.00     0.005 C 
ATOM     12  C   UNL     1     104.169  85.055  19.209  1.00  0.00    -0.024 C 
ATOM     13  C   UNL     1     104.915  87.555  18.854  1.00  0.00     0.012 C 
ATOM     14  C   UNL     1     105.049  83.745  19.218  1.00  0.00     0.002 C 
ATOM     15  C   UNL     1     104.198  85.541  20.693  1.00  0.00     0.008 C 
ATOM     16  C   UNL     1     102.666  84.767  18.872  1.00  0.00     0.012 C 
ATOM     17  C   UNL     1     104.706  82.585  20.258  1.00  0.00    -0.026 C 
ATOM     18  C   UNL     1     103.667  84.518  21.703  1.00  0.00     0.005 C 
ATOM     19  C   UNL     1     103.528  81.682  19.741  1.00  0.00     0.010 C 
ATOM     20  C   UNL     1     105.983  81.678  20.363  1.00  0.00     0.012 C 
ATOM     21  C   UNL     1     104.452  83.180  21.722  1.00  0.00     0.003 C 
ATOM     22  C   UNL     1     102.489  81.320  20.806  1.00  0.00     0.033 C 
ATOM     23  C   UNL     1     103.887  82.126  22.805  1.00  0.00    -0.006 C 
ATOM     24  C   UNL     1     103.177  80.904  22.114  1.00  0.00     0.120 C 
ATOM     25  C   UNL     1     102.907  82.779  23.830  1.00  0.00     0.014 C 
ATOM     26  C   UNL     1     105.060  81.589  23.669  1.00  0.00     0.014 C 
ENDROOT
BRANCH   1  27
ATOM     27  C   UNL     1     105.769  86.124  14.174  1.00  0.00     0.048 C 
ATOM     28  O   UNL     1     106.801  85.500  13.807  1.00  0.00    -0.550 OA
ATOM     29  O   UNL     1     104.568  85.862  13.521  1.00  0.00    -0.550 OA
ENDBRANCH   1  27
BRANCH   7  30
ATOM     30  C   UNL     1     109.136  87.590  16.951  1.00  0.00    -0.077 C 
ATOM     31  C   UNL     1     110.127  88.707  16.732  1.00  0.00     0.039 C 
ATOM     32  C   UNL     1     109.604  86.341  17.101  1.00  0.00     0.008 C 
ENDBRANCH   7  30
BRANCH  24  33
ATOM     33  O   UNL     1     102.279  80.240  22.974  1.00  0.00    -0.393 OA
ATOM     34  H   UNL     1     102.270  80.713  23.847  1.00  0.00     0.210 HD
ENDBRANCH  24  33
TORSDOF 3
ENDMDL
MODEL 5
REMARK VINA RESULT:    -5.594     11.528     14.319
REMARK INTER + INTRA:          -7.043
REMARK INTER:                  -6.448
REMARK INTRA:                  -0.595
REMARK UNBOUND:                -0.632
REMARK SMILES C=C(C)[C@H]1CC[C@]2(C(=O)[O-])CC[C@]3(C)[C@@H](CC[C@@H]4[C@]5(C)CC[C@H](O)C(C)(C)[C@@H]5CC[C@]43C)[C@H]12
REMARK SMILES IDX 7 1 6 2 33 3 11 4 5 5 15 6 4 7 12 8 16 9 13 10 17 11 31 12
REMARK SMILES IDX 14 13 18 14 30 15 32 16 19 17 29 18 21 19 20 20 28 21 22 22
REMARK SMILES IDX 25 23 23 24 26 25 27 26 8 27 9 28 10 29 2 30 3 31 1 32 24 33
REMARK H PARENT 24 34
REMARK Flexibility Score: inf
ROOT
ATOM      1  C   UNL     1     109.623  96.604  21.554  1.00  0.00     0.014 C 
ATOM      2  C   UNL     1     108.467  96.900  22.534  1.00  0.00     0.014 C 
ATOM      3  C   UNL     1     110.167  95.225  22.034  1.00  0.00     0.012 C 
ATOM      4  C   UNL     1     109.054  96.568  20.105  1.00  0.00     0.014 C 
ATOM      5  C   UNL     1     107.903  95.550  22.966  1.00  0.00     0.009 C 
ATOM      6  C   UNL     1     110.867  94.336  20.941  1.00  0.00     0.000 C 
ATOM      7  C   UNL     1     109.039  94.526  22.837  1.00  0.00     0.018 C 
ATOM      8  C   UNL     1     109.906  95.759  19.108  1.00  0.00     0.008 C 
ATOM      9  C   UNL     1     112.359  94.798  20.852  1.00  0.00     0.005 C 
ATOM     10  C   UNL     1     110.161  94.266  19.520  1.00  0.00    -0.024 C 
ATOM     11  C   UNL     1     113.104  94.382  19.583  1.00  0.00     0.005 C 
ATOM     12  C   UNL     1     111.076  93.422  18.417  1.00  0.00    -0.024 C 
ATOM     13  C   UNL     1     108.757  93.591  19.652  1.00  0.00     0.012 C 
ATOM     14  C   UNL     1     112.499  93.086  19.012  1.00  0.00     0.002 C 
ATOM     15  C   UNL     1     110.477  92.025  18.059  1.00  0.00     0.008 C 
ATOM     16  C   UNL     1     111.161  94.220  17.072  1.00  0.00     0.012 C 
ATOM     17  C   UNL     1     113.503  92.180  18.166  1.00  0.00    -0.026 C 
ATOM     18  C   UNL     1     111.320  91.212  17.070  1.00  0.00     0.005 C 
ATOM     19  C   UNL     1     114.256  93.024  17.076  1.00  0.00     0.010 C 
ATOM     20  C   UNL     1     114.580  91.637  19.171  1.00  0.00     0.012 C 
ATOM     21  C   UNL     1     112.755  90.898  17.569  1.00  0.00     0.003 C 
ATOM     22  C   UNL     1     114.366  92.344  15.709  1.00  0.00     0.033 C 
ATOM     23  C   UNL     1     113.616  90.025  16.520  1.00  0.00    -0.006 C 
ATOM     24  C   UNL     1     114.770  90.872  15.867  1.00  0.00     0.120 C 
ATOM     25  C   UNL     1     112.738  89.395  15.393  1.00  0.00     0.014 C 
ATOM     26  C   UNL     1     114.250  88.811  17.251  1.00  0.00     0.014 C 
ENDROOT
BRANCH   1  27
ATOM     27  C   UNL     1     110.689  97.693  21.683  1.00  0.00     0.048 C 
ATOM     28  O   UNL     1     111.480  97.694  22.665  1.00  0.00    -0.550 OA
ATOM     29  O   UNL     1     110.833  98.681  20.714  1.00  0.00    -0.550 OA
ENDBRANCH   1  27
BRANCH   7  30
ATOM     30  C   UNL     1     109.521  94.018  24.199  1.00  0.00    -0.077 C 
ATOM     31  C   UNL     1     110.095  92.631  24.364  1.00  0.00     0.039 C 
ATOM     32  C   UNL     1     109.388  94.787  25.291  1.00  0.00     0.008 C 
ENDBRANCH   7  30
BRANCH  24  33
ATOM     33  O   UNL     1     115.215  90.331  14.644  1.00  0.00    -0.393 OA
ATOM     34  H   UNL     1     114.445  90.286  14.019  1.00  0.00     0.210 HD
ENDBRANCH  24  33
TORSDOF 3
ENDMDL
MODEL 6
REMARK VINA RESULT:    -5.393     11.459     13.977
REMARK INTER + INTRA:          -6.813
REMARK INTER:                  -6.204
REMARK INTRA:                  -0.609
REMARK UNBOUND:                -0.632
REMARK SMILES C=C(C)[C@H]1CC[C@]2(C(=O)[O-])CC[C@]3(C)[C@@H](CC[C@@H]4[C@]5(C)CC[C@H](O)C(C)(C)[C@@H]5CC[C@]43C)[C@H]12
REMARK SMILES IDX 7 1 6 2 33 3 11 4 5 5 15 6 4 7 12 8 16 9 13 10 17 11 31 12
REMARK SMILES IDX 14 13 18 14 30 15 32 16 19 17 29 18 21 19 20 20 28 21 22 22
REMARK SMILES IDX 25 23 23 24 26 25 27 26 8 27 9 28 10 29 2 30 3 31 1 32 24 33
REMARK H PARENT 24 34
REMARK Flexibility Score: inf
ROOT
ATOM      1  C   UNL     1     113.532  95.059  18.967  1.00  0.00     0.014 C 
ATOM      2  C   UNL     1     114.645  94.128  18.437  1.00  0.00     0.014 C 
ATOM      3  C   UNL     1     112.287  94.127  19.059  1.00  0.00     0.012 C 
ATOM      4  C   UNL     1     113.973  95.631  20.346  1.00  0.00     0.014 C 
ATOM      5  C   UNL     1     114.317  92.725  18.938  1.00  0.00     0.009 C 
ATOM      6  C   UNL     1     111.200  94.523  20.125  1.00  0.00     0.000 C 
ATOM      7  C   UNL     1     112.797  92.664  19.142  1.00  0.00     0.018 C 
ATOM      8  C   UNL     1     112.809  96.094  21.243  1.00  0.00     0.008 C 
ATOM      9  C   UNL     1     110.256  95.577  19.456  1.00  0.00     0.005 C 
ATOM     10  C   UNL     1     111.733  94.992  21.546  1.00  0.00    -0.024 C 
ATOM     11  C   UNL     1     109.408  96.408  20.419  1.00  0.00     0.005 C 
ATOM     12  C   UNL     1     110.497  95.525  22.523  1.00  0.00    -0.024 C 
ATOM     13  C   UNL     1     112.481  93.816  22.252  1.00  0.00     0.012 C 
ATOM     14  C   UNL     1     109.145  95.618  21.714  1.00  0.00     0.002 C 
ATOM     15  C   UNL     1     110.170  94.545  23.695  1.00  0.00     0.008 C 
ATOM     16  C   UNL     1     110.893  96.887  23.189  1.00  0.00     0.012 C 
ATOM     17  C   UNL     1     107.801  95.998  22.485  1.00  0.00    -0.026 C 
ATOM     18  C   UNL     1     109.011  94.996  24.590  1.00  0.00     0.005 C 
ATOM     19  C   UNL     1     107.680  97.552  22.692  1.00  0.00     0.010 C 
ATOM     20  C   UNL     1     106.609  95.550  21.566  1.00  0.00     0.012 C 
ATOM     21  C   UNL     1     107.662  95.166  23.844  1.00  0.00     0.003 C 
ATOM     22  C   UNL     1     107.194  97.972  24.081  1.00  0.00     0.033 C 
ATOM     23  C   UNL     1     106.454  95.623  24.810  1.00  0.00    -0.006 C 
ATOM     24  C   UNL     1     106.009  97.105  24.526  1.00  0.00     0.120 C 
ATOM     25  C   UNL     1     106.801  95.471  26.325  1.00  0.00     0.014 C 
ATOM     26  C   UNL     1     105.231  94.691  24.590  1.00  0.00     0.014 C 
ENDROOT
BRANCH   1  27
ATOM     27  C   UNL     1     113.299  96.192  17.967  1.00  0.00     0.048 C 
ATOM     28  O   UNL     1     113.812  97.327  18.163  1.00  0.00    -0.550 OA
ATOM     29  O   UNL     1     112.549  95.994  16.812  1.00  0.00    -0.550 OA
ENDBRANCH   1  27
BRANCH   7  30
ATOM     30  C   UNL     1     112.109  91.748  18.127  1.00  0.00    -0.077 C 
ATOM     31  C   UNL     1     110.606  91.626  18.067  1.00  0.00     0.039 C 
ATOM     32  C   UNL     1     112.844  90.985  17.301  1.00  0.00     0.008 C 
ENDBRANCH   7  30
BRANCH  24  33
ATOM     33  O   UNL     1     105.331  97.687  25.616  1.00  0.00    -0.393 OA
ATOM     34  H   UNL     1     104.633  97.054  25.929  1.00  0.00     0.210 HD
ENDBRANCH  24  33
TORSDOF 3
ENDMDL
MODEL 7
REMARK VINA RESULT:    -5.255      3.307      8.355
REMARK INTER + INTRA:          -6.655
REMARK INTER:                  -6.007
REMARK INTRA:                  -0.648
REMARK UNBOUND:                -0.632
REMARK SMILES C=C(C)[C@H]1CC[C@]2(C(=O)[O-])CC[C@]3(C)[C@@H](CC[C@@H]4[C@]5(C)CC[C@H](O)C(C)(C)[C@@H]5CC[C@]43C)[C@H]12
REMARK SMILES IDX 7 1 6 2 33 3 11 4 5 5 15 6 4 7 12 8 16 9 13 10 17 11 31 12
REMARK SMILES IDX 14 13 18 14 30 15 32 16 19 17 29 18 21 19 20 20 28 21 22 22
REMARK SMILES IDX 25 23 23 24 26 25 27 26 8 27 9 28 10 29 2 30 3 31 1 32 24 33
REMARK H PARENT 24 34
REMARK Flexibility Score: inf
ROOT
ATOM      1  C   UNL     1     103.242  83.592  18.093  1.00  0.00     0.014 C 
ATOM      2  C   UNL     1     103.120  82.096  18.454  1.00  0.00     0.014 C 
ATOM      3  C   UNL     1     104.329  84.120  19.077  1.00  0.00     0.012 C 
ATOM      4  C   UNL     1     103.659  83.714  16.597  1.00  0.00     0.014 C 
ATOM      5  C   UNL     1     104.487  81.657  18.970  1.00  0.00     0.009 C 
ATOM      6  C   UNL     1     105.156  85.368  18.594  1.00  0.00     0.000 C 
ATOM      7  C   UNL     1     105.171  82.905  19.545  1.00  0.00     0.018 C 
ATOM      8  C   UNL     1     104.353  85.041  16.238  1.00  0.00     0.008 C 
ATOM      9  C   UNL     1     104.326  86.644  18.959  1.00  0.00     0.005 C 
ATOM     10  C   UNL     1     105.638  85.362  17.081  1.00  0.00    -0.024 C 
ATOM     11  C   UNL     1     104.720  87.921  18.217  1.00  0.00     0.005 C 
ATOM     12  C   UNL     1     106.365  86.797  16.659  1.00  0.00    -0.024 C 
ATOM     13  C   UNL     1     106.637  84.185  16.841  1.00  0.00     0.012 C 
ATOM     14  C   UNL     1     106.204  87.865  17.811  1.00  0.00     0.002 C 
ATOM     15  C   UNL     1     107.910  86.673  16.470  1.00  0.00     0.008 C 
ATOM     16  C   UNL     1     105.795  87.302  15.289  1.00  0.00     0.012 C 
ATOM     17  C   UNL     1     106.927  89.280  17.667  1.00  0.00    -0.026 C 
ATOM     18  C   UNL     1     108.610  87.990  16.115  1.00  0.00     0.005 C 
ATOM     19  C   UNL     1     106.093  90.259  16.765  1.00  0.00     0.010 C 
ATOM     20  C   UNL     1     106.992  89.903  19.106  1.00  0.00     0.012 C 
ATOM     21  C   UNL     1     108.441  89.105  17.180  1.00  0.00     0.003 C 
ATOM     22  C   UNL     1     106.924  91.064  15.762  1.00  0.00     0.033 C 
ATOM     23  C   UNL     1     109.201  90.475  16.793  1.00  0.00    -0.006 C 
ATOM     24  C   UNL     1     108.187  91.621  16.431  1.00  0.00     0.120 C 
ATOM     25  C   UNL     1     110.215  90.292  15.620  1.00  0.00     0.014 C 
ATOM     26  C   UNL     1     110.068  90.945  17.993  1.00  0.00     0.014 C 
ENDROOT
BRANCH   1  27
ATOM     27  C   UNL     1     101.899  84.284  18.332  1.00  0.00     0.048 C 
ATOM     28  O   UNL     1     101.457  84.425  19.504  1.00  0.00    -0.550 OA
ATOM     29  O   UNL     1     101.153  84.797  17.275  1.00  0.00    -0.550 OA
ENDBRANCH   1  27
BRANCH   7  30
ATOM     30  C   UNL     1     105.309  82.843  21.069  1.00  0.00    -0.077 C 
ATOM     31  C   UNL     1     104.694  83.895  21.959  1.00  0.00     0.039 C 
ATOM     32  C   UNL     1     106.037  81.870  21.641  1.00  0.00     0.008 C 
ENDBRANCH   7  30
BRANCH  24  33
ATOM     33  O   UNL     1     108.773  92.637  15.648  1.00  0.00    -0.393 OA
ATOM     34  H   UNL     1     109.258  92.213  14.892  1.00  0.00     0.210 HD
ENDBRANCH  24  33
TORSDOF 3
ENDMDL
MODEL 8
REMARK VINA RESULT:    -5.255     10.248     12.859
REMARK INTER + INTRA:          -6.655
REMARK INTER:                  -5.983
REMARK INTRA:                  -0.671
REMARK UNBOUND:                -0.632
REMARK SMILES C=C(C)[C@H]1CC[C@]2(C(=O)[O-])CC[C@]3(C)[C@@H](CC[C@@H]4[C@]5(C)CC[C@H](O)C(C)(C)[C@@H]5CC[C@]43C)[C@H]12
REMARK SMILES IDX 7 1 6 2 33 3 11 4 5 5 15 6 4 7 12 8 16 9 13 10 17 11 31 12
REMARK SMILES IDX 14 13 18 14 30 15 32 16 19 17 29 18 21 19 20 20 28 21 22 22
REMARK SMILES IDX 25 23 23 24 26 25 27 26 8 27 9 28 10 29 2 30 3 31 1 32 24 33
REMARK H PARENT 24 34
REMARK Flexibility Score: inf
ROOT
ATOM      1  C   UNL     1     108.241  97.097  23.324  1.00  0.00     0.014 C 
ATOM      2  C   UNL     1     109.412  97.314  24.307  1.00  0.00     0.014 C 
ATOM      3  C   UNL     1     108.267  95.562  23.055  1.00  0.00     0.012 C 
ATOM      4  C   UNL     1     106.923  97.578  24.001  1.00  0.00     0.014 C 
ATOM      5  C   UNL     1     109.550  96.026  25.114  1.00  0.00     0.009 C 
ATOM      6  C   UNL     1     106.895  94.904  22.652  1.00  0.00     0.000 C 
ATOM      7  C   UNL     1     109.006  94.887  24.239  1.00  0.00     0.018 C 
ATOM      8  C   UNL     1     105.644  96.940  23.425  1.00  0.00     0.008 C 
ATOM      9  C   UNL     1     106.727  95.087  21.108  1.00  0.00     0.005 C 
ATOM     10  C   UNL     1     105.615  95.371  23.468  1.00  0.00    -0.024 C 
ATOM     11  C   UNL     1     105.305  94.915  20.574  1.00  0.00     0.005 C 
ATOM     12  C   UNL     1     104.216  94.718  22.848  1.00  0.00    -0.024 C 
ATOM     13  C   UNL     1     105.756  94.960  24.969  1.00  0.00     0.012 C 
ATOM     14  C   UNL     1     104.505  93.970  21.488  1.00  0.00     0.002 C 
ATOM     15  C   UNL     1     103.592  93.616  23.761  1.00  0.00     0.008 C 
ATOM     16  C   UNL     1     103.126  95.834  22.699  1.00  0.00     0.012 C 
ATOM     17  C   UNL     1     103.323  93.169  20.775  1.00  0.00    -0.026 C 
ATOM     18  C   UNL     1     102.320  92.974  23.196  1.00  0.00     0.005 C 
ATOM     19  C   UNL     1     102.398  94.131  19.946  1.00  0.00     0.010 C 
ATOM     20  C   UNL     1     103.996  92.174  19.764  1.00  0.00     0.012 C 
ATOM     21  C   UNL     1     102.520  92.270  21.827  1.00  0.00     0.003 C 
ATOM     22  C   UNL     1     100.899  93.857  20.094  1.00  0.00     0.033 C 
ATOM     23  C   UNL     1     101.174  91.586  21.261  1.00  0.00    -0.006 C 
ATOM     24  C   UNL     1     100.613  92.352  20.008  1.00  0.00     0.120 C 
ATOM     25  C   UNL     1     100.052  91.475  22.342  1.00  0.00     0.014 C 
ATOM     26  C   UNL     1     101.470  90.118  20.849  1.00  0.00     0.014 C 
ENDROOT
BRANCH   1  27
ATOM     27  C   UNL     1     108.502  97.886  22.041  1.00  0.00     0.048 C 
ATOM     28  O   UNL     1     109.341  97.468  21.197  1.00  0.00    -0.550 OA
ATOM     29  O   UNL     1     107.806  99.058  21.759  1.00  0.00    -0.550 OA
ENDBRANCH   1  27
BRANCH   7  30
ATOM     30  C   UNL     1     110.110  93.934  23.772  1.00  0.00    -0.077 C 
ATOM     31  C   UNL     1     110.533  92.750  24.606  1.00  0.00     0.039 C 
ATOM     32  C   UNL     1     110.765  94.174  22.624  1.00  0.00     0.008 C 
ENDBRANCH   7  30
BRANCH  24  33
ATOM     33  O   UNL     1      99.242  92.106  19.788  1.00  0.00    -0.393 OA
ATOM     34  H   UNL     1      98.727  92.903  20.082  1.00  0.00     0.210 HD
ENDBRANCH  24  33
TORSDOF 3
ENDMDL
MODEL 9
REMARK VINA RESULT:    -5.251      7.233     11.404
REMARK INTER + INTRA:          -6.650
REMARK INTER:                  -6.024
REMARK INTRA:                  -0.626
REMARK UNBOUND:                -0.632
REMARK SMILES C=C(C)[C@H]1CC[C@]2(C(=O)[O-])CC[C@]3(C)[C@@H](CC[C@@H]4[C@]5(C)CC[C@H](O)C(C)(C)[C@@H]5CC[C@]43C)[C@H]12
REMARK SMILES IDX 7 1 6 2 33 3 11 4 5 5 15 6 4 7 12 8 16 9 13 10 17 11 31 12
REMARK SMILES IDX 14 13 18 14 30 15 32 16 19 17 29 18 21 19 20 20 28 21 22 22
REMARK SMILES IDX 25 23 23 24 26 25 27 26 8 27 9 28 10 29 2 30 3 31 1 32 24 33
REMARK H PARENT 24 34
REMARK Flexibility Score: inf
ROOT
ATOM      1  C   UNL     1     111.213  94.217  17.434  1.00  0.00     0.014 C 
ATOM      2  C   UNL     1     111.717  95.199  18.515  1.00  0.00     0.014 C 
ATOM      3  C   UNL     1     111.978  92.897  17.752  1.00  0.00     0.012 C 
ATOM      4  C   UNL     1     109.668  94.077  17.568  1.00  0.00     0.014 C 
ATOM      5  C   UNL     1     112.065  94.360  19.741  1.00  0.00     0.009 C 
ATOM      6  C   UNL     1     111.273  91.562  17.310  1.00  0.00     0.000 C 
ATOM      7  C   UNL     1     112.423  92.954  19.236  1.00  0.00     0.018 C 
ATOM      8  C   UNL     1     109.096  92.771  16.984  1.00  0.00     0.008 C 
ATOM      9  C   UNL     1     111.642  91.316  15.809  1.00  0.00     0.005 C 
ATOM     10  C   UNL     1     109.712  91.457  17.583  1.00  0.00    -0.024 C 
ATOM     11  C   UNL     1     110.742  90.333  15.061  1.00  0.00     0.005 C 
ATOM     12  C   UNL     1     109.065  90.068  16.935  1.00  0.00    -0.024 C 
ATOM     13  C   UNL     1     109.432  91.491  19.119  1.00  0.00     0.012 C 
ATOM     14  C   UNL     1     110.130  89.318  16.043  1.00  0.00     0.002 C 
ATOM     15  C   UNL     1     108.664  89.013  18.014  1.00  0.00     0.008 C 
ATOM     16  C   UNL     1     107.754  90.407  16.146  1.00  0.00     0.012 C 
ATOM     17  C   UNL     1     109.759  87.899  15.416  1.00  0.00    -0.026 C 
ATOM     18  C   UNL     1     108.097  87.709  17.442  1.00  0.00     0.005 C 
ATOM     19  C   UNL     1     108.906  88.058  14.105  1.00  0.00     0.010 C 
ATOM     20  C   UNL     1     111.113  87.212  15.018  1.00  0.00     0.012 C 
ATOM     21  C   UNL     1     109.074  86.950  16.506  1.00  0.00     0.003 C 
ATOM     22  C   UNL     1     107.727  87.088  13.993  1.00  0.00     0.033 C 
ATOM     23  C   UNL     1     108.462  85.572  15.931  1.00  0.00    -0.006 C 
ATOM     24  C   UNL     1     108.153  85.669  14.392  1.00  0.00     0.120 C 
ATOM     25  C   UNL     1     107.173  85.120  16.688  1.00  0.00     0.014 C 
ATOM     26  C   UNL     1     109.476  84.418  16.157  1.00  0.00     0.014 C 
ENDROOT
BRANCH   1  27
ATOM     27  C   UNL     1     111.584  94.751  16.050  1.00  0.00     0.048 C 
ATOM     28  O   UNL     1     112.767  94.648  15.626  1.00  0.00    -0.550 OA
ATOM     29  O   UNL     1     110.630  95.329  15.219  1.00  0.00    -0.550 OA
ENDBRANCH   1  27
BRANCH   7  30
ATOM     30  C   UNL     1     113.910  92.634  19.413  1.00  0.00    -0.077 C 
ATOM     31  C   UNL     1     114.453  91.250  19.152  1.00  0.00     0.039 C 
ATOM     32  C   UNL     1     114.753  93.576  19.864  1.00  0.00     0.008 C 
ENDBRANCH   7  30
BRANCH  24  33
ATOM     33  O   UNL     1     107.207  84.714  13.966  1.00  0.00    -0.393 OA
ATOM     34  H   UNL     1     106.399  85.193  13.643  1.00  0.00     0.210 HD
ENDBRANCH  24  33
TORSDOF 3
ENDMDL
