MODEL 1
REMARK VINA RESULT:    -3.446      0.000      0.000
REMARK INTER + INTRA:          -7.049
REMARK INTER:                  -6.064
REMARK INTRA:                  -0.985
REMARK UNBOUND:                -0.985
REMARK SMILES CCCCCCCCCCCCCCC(=O)[O-]
REMARK SMILES IDX 9 1 10 2 11 3 12 4 13 5 14 6 15 7 16 8 17 9 8 10 7 11 6 12
REMARK SMILES IDX 5 13 4 14 3 15 2 16 1 17
REMARK H PARENT
REMARK Flexibility Score: inf
ROOT
ATOM      1  C   UNL     1      -8.676   0.392  -5.262  1.00  0.00     0.000 C 
ENDROOT
BRANCH   1   2
ATOM      2  C   UNL     1      -9.008   0.201  -6.751  1.00  0.00     0.000 C 
BRANCH   2   3
ATOM      3  C   UNL     1      -9.881   1.332  -7.314  1.00  0.00     0.000 C 
BRANCH   3   4
ATOM      4  C   UNL     1      -9.081   2.207  -8.291  1.00  0.00     0.000 C 
BRANCH   4   5
ATOM      5  C   UNL     1      -9.373   3.706  -8.118  1.00  0.00     0.006 C 
BRANCH   5   6
ATOM      6  C   UNL     1      -8.390   4.393  -7.162  1.00  0.00     0.053 C 
BRANCH   6   7
ATOM      7  C   UNL     1      -7.735   5.558  -7.834  1.00  0.00     0.041 C 
ATOM      8  O   UNL     1      -7.115   5.400  -8.918  1.00  0.00    -0.550 OA
ATOM      9  O   UNL     1      -7.853   6.831  -7.290  1.00  0.00    -0.550 OA
ENDBRANCH   6   7
ENDBRANCH   5   6
ENDBRANCH   4   5
ENDBRANCH   3   4
ENDBRANCH   2   3
ENDBRANCH   1   2
BRANCH   1  10
ATOM     10  C   UNL     1      -9.116   1.763  -4.729  1.00  0.00     0.000 C 
BRANCH  10  11
ATOM     11  C   UNL     1      -8.123   2.287  -3.681  1.00  0.00    -0.000 C 
BRANCH  11  12
ATOM     12  C   UNL     1      -6.792   1.513  -3.677  1.00  0.00    -0.000 C 
BRANCH  12  13
ATOM     13  C   UNL     1      -5.822   1.887  -2.539  1.00  0.00    -0.000 C 
BRANCH  13  14
ATOM     14  C   UNL     1      -6.441   2.712  -1.398  1.00  0.00    -0.000 C 
BRANCH  14  15
ATOM     15  C   UNL     1      -5.399   3.203  -0.382  1.00  0.00    -0.000 C 
BRANCH  15  16
ATOM     16  C   UNL     1      -5.063   2.105   0.633  1.00  0.00    -0.003 C 
ATOM     17  C   UNL     1      -5.422   2.536   2.052  1.00  0.00     0.004 C 
ENDBRANCH  15  16
ENDBRANCH  14  15
ENDBRANCH  13  14
ENDBRANCH  12  13
ENDBRANCH  11  12
ENDBRANCH  10  11
ENDBRANCH   1  10
TORSDOF 13
ENDMDL
MODEL 2
REMARK VINA RESULT:    -3.395      1.723      2.651
REMARK INTER + INTRA:          -6.959
REMARK INTER:                  -6.016
REMARK INTRA:                  -0.943
REMARK UNBOUND:                -0.985
REMARK SMILES CCCCCCCCCCCCCCC(=O)[O-]
REMARK SMILES IDX 9 1 10 2 11 3 12 4 13 5 14 6 15 7 16 8 17 9 8 10 7 11 6 12
REMARK SMILES IDX 5 13 4 14 3 15 2 16 1 17
REMARK H PARENT
REMARK Flexibility Score: inf
ROOT
ATOM      1  C   UNL     1      -9.684   3.218  -4.025  1.00  0.00     0.000 C 
ENDROOT
BRANCH   1   2
ATOM      2  C   UNL     1      -9.471   4.522  -4.810  1.00  0.00     0.000 C 
BRANCH   2   3
ATOM      3  C   UNL     1      -9.383   4.294  -6.327  1.00  0.00     0.000 C 
BRANCH   3   4
ATOM      4  C   UNL     1      -8.414   5.293  -6.976  1.00  0.00     0.000 C 
BRANCH   4   5
ATOM      5  C   UNL     1      -7.919   4.828  -8.355  1.00  0.00     0.006 C 
BRANCH   5   6
ATOM      6  C   UNL     1      -8.213   3.345  -8.619  1.00  0.00     0.053 C 
BRANCH   6   7
ATOM      7  C   UNL     1      -7.125   2.736  -9.445  1.00  0.00     0.041 C 
ATOM      8  O   UNL     1      -7.093   1.493  -9.635  1.00  0.00    -0.550 OA
ATOM      9  O   UNL     1      -6.174   3.549 -10.050  1.00  0.00    -0.550 OA
ENDBRANCH   6   7
ENDBRANCH   5   6
ENDBRANCH   4   5
ENDBRANCH   3   4
ENDBRANCH   2   3
ENDBRANCH   1   2
BRANCH   1  10
ATOM     10  C   UNL     1      -9.532   1.967  -4.902  1.00  0.00     0.000 C 
BRANCH  10  11
ATOM     11  C   UNL     1      -8.238   1.213  -4.562  1.00  0.00    -0.000 C 
BRANCH  11  12
ATOM     12  C   UNL     1      -7.476   1.837  -3.378  1.00  0.00    -0.000 C 
BRANCH  12  13
ATOM     13  C   UNL     1      -5.966   1.525  -3.335  1.00  0.00    -0.000 C 
BRANCH  13  14
ATOM     14  C   UNL     1      -5.283   1.792  -1.982  1.00  0.00    -0.000 C 
BRANCH  14  15
ATOM     15  C   UNL     1      -6.124   2.681  -1.054  1.00  0.00    -0.000 C 
BRANCH  15  16
ATOM     16  C   UNL     1      -5.243   3.359   0.002  1.00  0.00    -0.003 C 
ATOM     17  C   UNL     1      -5.276   2.595   1.322  1.00  0.00     0.004 C 
ENDBRANCH  15  16
ENDBRANCH  14  15
ENDBRANCH  13  14
ENDBRANCH  12  13
ENDBRANCH  11  12
ENDBRANCH  10  11
ENDBRANCH   1  10
TORSDOF 13
ENDMDL
MODEL 3
REMARK VINA RESULT:    -3.355     14.506     16.198
REMARK INTER + INTRA:          -6.889
REMARK INTER:                  -5.547
REMARK INTRA:                  -1.343
REMARK UNBOUND:                -0.985
REMARK SMILES CCCCCCCCCCCCCCC(=O)[O-]
REMARK SMILES IDX 9 1 10 2 11 3 12 4 13 5 14 6 15 7 16 8 17 9 8 10 7 11 6 12
REMARK SMILES IDX 5 13 4 14 3 15 2 16 1 17
REMARK H PARENT
REMARK Flexibility Score: inf
ROOT
ATOM      1  C   UNL     1       4.986   7.130  -2.960  1.00  0.00     0.000 C 
ENDROOT
BRANCH   1   2
ATOM      2  C   UNL     1       4.153   8.185  -3.706  1.00  0.00     0.000 C 
BRANCH   2   3
ATOM      3  C   UNL     1       5.019   9.145  -4.536  1.00  0.00     0.000 C 
BRANCH   3   4
ATOM      4  C   UNL     1       4.724   8.990  -6.036  1.00  0.00     0.000 C 
BRANCH   4   5
ATOM      5  C   UNL     1       6.003   8.897  -6.884  1.00  0.00     0.006 C 
BRANCH   5   6
ATOM      6  C   UNL     1       7.266   8.720  -6.031  1.00  0.00     0.053 C 
BRANCH   6   7
ATOM      7  C   UNL     1       8.478   8.640  -6.904  1.00  0.00     0.041 C 
ATOM      8  O   UNL     1       8.835   9.635  -7.587  1.00  0.00    -0.550 OA
ATOM      9  O   UNL     1       9.245   7.481  -6.924  1.00  0.00    -0.550 OA
ENDBRANCH   6   7
ENDBRANCH   5   6
ENDBRANCH   4   5
ENDBRANCH   3   4
ENDBRANCH   2   3
ENDBRANCH   1   2
BRANCH   1  10
ATOM     10  C   UNL     1       6.358   7.661  -2.519  1.00  0.00     0.000 C 
BRANCH  10  11
ATOM     11  C   UNL     1       7.483   6.729  -2.992  1.00  0.00    -0.000 C 
BRANCH  11  12
ATOM     12  C   UNL     1       8.887   7.295  -2.710  1.00  0.00    -0.000 C 
BRANCH  12  13
ATOM     13  C   UNL     1       8.909   8.689  -2.051  1.00  0.00    -0.000 C 
BRANCH  13  14
ATOM     14  C   UNL     1       9.750   8.789  -0.766  1.00  0.00    -0.000 C 
BRANCH  14  15
ATOM     15  C   UNL     1       9.166   9.778   0.254  1.00  0.00    -0.000 C 
BRANCH  15  16
ATOM     16  C   UNL     1       7.739   9.381   0.650  1.00  0.00    -0.003 C 
ATOM     17  C   UNL     1       7.564   9.392   2.165  1.00  0.00     0.004 C 
ENDBRANCH  15  16
ENDBRANCH  14  15
ENDBRANCH  13  14
ENDBRANCH  12  13
ENDBRANCH  11  12
ENDBRANCH  10  11
ENDBRANCH   1  10
TORSDOF 13
ENDMDL
MODEL 4
REMARK VINA RESULT:    -3.291     14.877     17.280
REMARK INTER + INTRA:          -6.776
REMARK INTER:                  -4.750
REMARK INTRA:                  -2.026
REMARK UNBOUND:                -0.985
REMARK SMILES CCCCCCCCCCCCCCC(=O)[O-]
REMARK SMILES IDX 9 1 10 2 11 3 12 4 13 5 14 6 15 7 16 8 17 9 8 10 7 11 6 12
REMARK SMILES IDX 5 13 4 14 3 15 2 16 1 17
REMARK H PARENT
REMARK Flexibility Score: inf
ROOT
ATOM      1  C   UNL     1       6.154   7.844  -2.305  1.00  0.00     0.000 C 
ENDROOT
BRANCH   1   2
ATOM      2  C   UNL     1       6.313   9.371  -2.228  1.00  0.00     0.000 C 
BRANCH   2   3
ATOM      3  C   UNL     1       7.755   9.802  -1.923  1.00  0.00     0.000 C 
BRANCH   3   4
ATOM      4  C   UNL     1       8.346   8.967  -0.776  1.00  0.00     0.000 C 
BRANCH   4   5
ATOM      5  C   UNL     1       9.714   8.362  -1.128  1.00  0.00     0.006 C 
BRANCH   5   6
ATOM      6  C   UNL     1       9.911   8.186  -2.639  1.00  0.00     0.053 C 
BRANCH   6   7
ATOM      7  C   UNL     1       9.622   6.774  -3.043  1.00  0.00     0.041 C 
ATOM      8  O   UNL     1       9.914   6.373  -4.199  1.00  0.00    -0.550 OA
ATOM      9  O   UNL     1       9.077   5.887  -2.124  1.00  0.00    -0.550 OA
ENDBRANCH   6   7
ENDBRANCH   5   6
ENDBRANCH   4   5
ENDBRANCH   3   4
ENDBRANCH   2   3
ENDBRANCH   1   2
BRANCH   1  10
ATOM     10  C   UNL     1       4.895   7.418  -3.075  1.00  0.00     0.000 C 
BRANCH  10  11
ATOM     11  C   UNL     1       4.160   8.641  -3.643  1.00  0.00    -0.000 C 
BRANCH  11  12
ATOM     12  C   UNL     1       4.175   8.688  -5.182  1.00  0.00    -0.000 C 
BRANCH  12  13
ATOM     13  C   UNL     1       5.162   9.701  -5.795  1.00  0.00    -0.000 C 
BRANCH  13  14
ATOM     14  C   UNL     1       6.341   9.081  -6.566  1.00  0.00    -0.000 C 
BRANCH  14  15
ATOM     15  C   UNL     1       7.504   8.672  -5.650  1.00  0.00    -0.000 C 
BRANCH  15  16
ATOM     16  C   UNL     1       8.608   9.735  -5.657  1.00  0.00    -0.003 C 
ATOM     17  C   UNL     1       9.866   9.219  -6.349  1.00  0.00     0.004 C 
ENDBRANCH  15  16
ENDBRANCH  14  15
ENDBRANCH  13  14
ENDBRANCH  12  13
ENDBRANCH  11  12
ENDBRANCH  10  11
ENDBRANCH   1  10
TORSDOF 13
ENDMDL
MODEL 5
REMARK VINA RESULT:    -3.276      1.667      2.810
REMARK INTER + INTRA:          -6.750
REMARK INTER:                  -5.981
REMARK INTRA:                  -0.769
REMARK UNBOUND:                -0.985
REMARK SMILES CCCCCCCCCCCCCCC(=O)[O-]
REMARK SMILES IDX 9 1 10 2 11 3 12 4 13 5 14 6 15 7 16 8 17 9 8 10 7 11 6 12
REMARK SMILES IDX 5 13 4 14 3 15 2 16 1 17
REMARK H PARENT
REMARK Flexibility Score: inf
ROOT
ATOM      1  C   UNL     1      -9.390   3.399  -4.482  1.00  0.00     0.000 C 
ENDROOT
BRANCH   1   2
ATOM      2  C   UNL     1      -9.220   4.321  -5.700  1.00  0.00     0.000 C 
BRANCH   2   3
ATOM      3  C   UNL     1      -9.805   5.723  -5.469  1.00  0.00     0.000 C 
BRANCH   3   4
ATOM      4  C   UNL     1      -8.687   6.759  -5.281  1.00  0.00     0.000 C 
BRANCH   4   5
ATOM      5  C   UNL     1      -8.739   7.883  -6.327  1.00  0.00     0.006 C 
BRANCH   5   6
ATOM      6  C   UNL     1      -9.094   7.371  -7.729  1.00  0.00     0.053 C 
BRANCH   6   7
ATOM      7  C   UNL     1      -7.852   7.093  -8.514  1.00  0.00     0.041 C 
ATOM      8  O   UNL     1      -7.102   8.039  -8.870  1.00  0.00    -0.550 OA
ATOM      9  O   UNL     1      -7.495   5.784  -8.810  1.00  0.00    -0.550 OA
ENDBRANCH   6   7
ENDBRANCH   5   6
ENDBRANCH   4   5
ENDBRANCH   3   4
ENDBRANCH   2   3
ENDBRANCH   1   2
BRANCH   1  10
ATOM     10  C   UNL     1      -9.461   1.915  -4.867  1.00  0.00     0.000 C 
BRANCH  10  11
ATOM     11  C   UNL     1      -8.248   1.148  -4.321  1.00  0.00    -0.000 C 
BRANCH  11  12
ATOM     12  C   UNL     1      -7.368   2.003  -3.392  1.00  0.00    -0.000 C 
BRANCH  12  13
ATOM     13  C   UNL     1      -5.913   1.516  -3.239  1.00  0.00    -0.000 C 
BRANCH  13  14
ATOM     14  C   UNL     1      -5.231   1.901  -1.914  1.00  0.00    -0.000 C 
BRANCH  14  15
ATOM     15  C   UNL     1      -6.125   2.765  -1.012  1.00  0.00    -0.000 C 
BRANCH  15  16
ATOM     16  C   UNL     1      -5.315   3.378   0.137  1.00  0.00    -0.003 C 
ATOM     17  C   UNL     1      -5.216   2.415   1.316  1.00  0.00     0.004 C 
ENDBRANCH  15  16
ENDBRANCH  14  15
ENDBRANCH  13  14
ENDBRANCH  12  13
ENDBRANCH  11  12
ENDBRANCH  10  11
ENDBRANCH   1  10
TORSDOF 13
ENDMDL
MODEL 6
REMARK VINA RESULT:    -3.182     13.645     15.636
REMARK INTER + INTRA:          -6.584
REMARK INTER:                  -5.402
REMARK INTRA:                  -1.183
REMARK UNBOUND:                -0.985
REMARK SMILES CCCCCCCCCCCCCCC(=O)[O-]
REMARK SMILES IDX 9 1 10 2 11 3 12 4 13 5 14 6 15 7 16 8 17 9 8 10 7 11 6 12
REMARK SMILES IDX 5 13 4 14 3 15 2 16 1 17
REMARK H PARENT
REMARK Flexibility Score: inf
ROOT
ATOM      1  C   UNL     1       6.940   7.167  -3.328  1.00  0.00     0.000 C 
ENDROOT
BRANCH   1   2
ATOM      2  C   UNL     1       5.584   7.379  -2.637  1.00  0.00     0.000 C 
BRANCH   2   3
ATOM      3  C   UNL     1       5.190   8.860  -2.544  1.00  0.00     0.000 C 
BRANCH   3   4
ATOM      4  C   UNL     1       5.507   9.594  -3.856  1.00  0.00     0.000 C 
BRANCH   4   5
ATOM      5  C   UNL     1       4.440   9.362  -4.938  1.00  0.00     0.006 C 
BRANCH   5   6
ATOM      6  C   UNL     1       5.047   8.987  -6.296  1.00  0.00     0.053 C 
BRANCH   6   7
ATOM      7  C   UNL     1       4.047   9.190  -7.389  1.00  0.00     0.041 C 
ATOM      8  O   UNL     1       4.427   9.500  -8.548  1.00  0.00    -0.550 OA
ATOM      9  O   UNL     1       2.695   8.987  -7.141  1.00  0.00    -0.550 OA
ENDBRANCH   6   7
ENDBRANCH   5   6
ENDBRANCH   4   5
ENDBRANCH   3   4
ENDBRANCH   2   3
ENDBRANCH   1   2
BRANCH   1  10
ATOM     10  C   UNL     1       8.109   7.105  -2.334  1.00  0.00     0.000 C 
BRANCH  10  11
ATOM     11  C   UNL     1       9.087   8.266  -2.565  1.00  0.00    -0.000 C 
BRANCH  11  12
ATOM     12  C   UNL     1       8.799   9.480  -1.663  1.00  0.00    -0.000 C 
BRANCH  12  13
ATOM     13  C   UNL     1       8.965   9.226  -0.151  1.00  0.00    -0.000 C 
BRANCH  13  14
ATOM     14  C   UNL     1       7.677   9.367   0.680  1.00  0.00    -0.000 C 
BRANCH  14  15
ATOM     15  C   UNL     1       7.952   9.680   2.158  1.00  0.00    -0.000 C 
BRANCH  15  16
ATOM     16  C   UNL     1       6.896   9.032   3.061  1.00  0.00    -0.003 C 
ATOM     17  C   UNL     1       7.491   8.638   4.410  1.00  0.00     0.004 C 
ENDBRANCH  15  16
ENDBRANCH  14  15
ENDBRANCH  13  14
ENDBRANCH  12  13
ENDBRANCH  11  12
ENDBRANCH  10  11
ENDBRANCH   1  10
TORSDOF 13
ENDMDL
MODEL 7
REMARK VINA RESULT:    -3.148     14.016     16.667
REMARK INTER + INTRA:          -6.524
REMARK INTER:                  -4.945
REMARK INTRA:                  -1.579
REMARK UNBOUND:                -0.985
REMARK SMILES CCCCCCCCCCCCCCC(=O)[O-]
REMARK SMILES IDX 9 1 10 2 11 3 12 4 13 5 14 6 15 7 16 8 17 9 8 10 7 11 6 12
REMARK SMILES IDX 5 13 4 14 3 15 2 16 1 17
REMARK H PARENT
REMARK Flexibility Score: inf
ROOT
ATOM      1  C   UNL     1       4.590   8.606  -3.024  1.00  0.00     0.000 C 
ENDROOT
BRANCH   1   2
ATOM      2  C   UNL     1       4.624   9.989  -2.353  1.00  0.00     0.000 C 
BRANCH   2   3
ATOM      3  C   UNL     1       5.764  10.125  -1.333  1.00  0.00     0.000 C 
BRANCH   3   4
ATOM      4  C   UNL     1       7.128   9.900  -2.002  1.00  0.00     0.000 C 
BRANCH   4   5
ATOM      5  C   UNL     1       7.931   8.767  -1.344  1.00  0.00     0.006 C 
BRANCH   5   6
ATOM      6  C   UNL     1       8.895   8.081  -2.321  1.00  0.00     0.053 C 
BRANCH   6   7
ATOM      7  C   UNL     1       8.496   6.656  -2.536  1.00  0.00     0.041 C 
ATOM      8  O   UNL     1       9.119   5.728  -1.958  1.00  0.00    -0.550 OA
ATOM      9  O   UNL     1       7.400   6.354  -3.336  1.00  0.00    -0.550 OA
ENDBRANCH   6   7
ENDBRANCH   5   6
ENDBRANCH   4   5
ENDBRANCH   3   4
ENDBRANCH   2   3
ENDBRANCH   1   2
BRANCH   1  10
ATOM     10  C   UNL     1       4.280   8.684  -4.526  1.00  0.00     0.000 C 
BRANCH  10  11
ATOM     11  C   UNL     1       5.284   9.597  -5.246  1.00  0.00    -0.000 C 
BRANCH  11  12
ATOM     12  C   UNL     1       6.650   8.925  -5.471  1.00  0.00    -0.000 C 
BRANCH  12  13
ATOM     13  C   UNL     1       7.213   9.050  -6.901  1.00  0.00    -0.000 C 
BRANCH  13  14
ATOM     14  C   UNL     1       6.422   9.983  -7.834  1.00  0.00    -0.000 C 
BRANCH  14  15
ATOM     15  C   UNL     1       5.724   9.232  -8.978  1.00  0.00    -0.000 C 
BRANCH  15  16
ATOM     16  C   UNL     1       4.238   9.604  -9.052  1.00  0.00    -0.003 C 
ATOM     17  C   UNL     1       3.380   8.604  -8.283  1.00  0.00     0.004 C 
ENDBRANCH  15  16
ENDBRANCH  14  15
ENDBRANCH  13  14
ENDBRANCH  12  13
ENDBRANCH  11  12
ENDBRANCH  10  11
ENDBRANCH   1  10
TORSDOF 13
ENDMDL
MODEL 8
REMARK VINA RESULT:    -3.119      3.965      7.353
REMARK INTER + INTRA:          -6.475
REMARK INTER:                  -5.350
REMARK INTRA:                  -1.125
REMARK UNBOUND:                -0.985
REMARK SMILES CCCCCCCCCCCCCCC(=O)[O-]
REMARK SMILES IDX 9 1 10 2 11 3 12 4 13 5 14 6 15 7 16 8 17 9 8 10 7 11 6 12
REMARK SMILES IDX 5 13 4 14 3 15 2 16 1 17
REMARK H PARENT
REMARK Flexibility Score: inf
ROOT
ATOM      1  C   UNL     1      -9.315   3.248  -4.069  1.00  0.00     0.000 C 
ENDROOT
BRANCH   1   2
ATOM      2  C   UNL     1      -8.624   1.966  -4.558  1.00  0.00     0.000 C 
BRANCH   2   3
ATOM      3  C   UNL     1      -7.468   1.530  -3.645  1.00  0.00     0.000 C 
BRANCH   3   4
ATOM      4  C   UNL     1      -7.070   2.662  -2.686  1.00  0.00     0.000 C 
BRANCH   4   5
ATOM      5  C   UNL     1      -5.789   2.348  -1.898  1.00  0.00     0.006 C 
BRANCH   5   6
ATOM      6  C   UNL     1      -5.758   3.029  -0.524  1.00  0.00     0.053 C 
BRANCH   6   7
ATOM      7  C   UNL     1      -5.287   2.071   0.524  1.00  0.00     0.041 C 
ATOM      8  O   UNL     1      -4.814   0.952   0.195  1.00  0.00    -0.550 OA
ATOM      9  O   UNL     1      -5.323   2.435   1.865  1.00  0.00    -0.550 OA
ENDBRANCH   6   7
ENDBRANCH   5   6
ENDBRANCH   4   5
ENDBRANCH   3   4
ENDBRANCH   2   3
ENDBRANCH   1   2
BRANCH   1  10
ATOM     10  C   UNL     1      -9.687   4.196  -5.218  1.00  0.00     0.000 C 
BRANCH  10  11
ATOM     11  C   UNL     1      -8.975   3.789  -6.517  1.00  0.00    -0.000 C 
BRANCH  11  12
ATOM     12  C   UNL     1      -8.205   4.953  -7.167  1.00  0.00    -0.000 C 
BRANCH  12  13
ATOM     13  C   UNL     1      -8.915   5.620  -8.362  1.00  0.00    -0.000 C 
BRANCH  13  14
ATOM     14  C   UNL     1      -9.177   7.129  -8.206  1.00  0.00    -0.000 C 
BRANCH  14  15
ATOM     15  C   UNL     1      -8.523   7.721  -6.949  1.00  0.00    -0.000 C 
BRANCH  15  16
ATOM     16  C   UNL     1      -9.585   8.205  -5.954  1.00  0.00    -0.003 C 
ATOM     17  C   UNL     1      -9.211   7.830  -4.523  1.00  0.00     0.004 C 
ENDBRANCH  15  16
ENDBRANCH  14  15
ENDBRANCH  13  14
ENDBRANCH  12  13
ENDBRANCH  11  12
ENDBRANCH  10  11
ENDBRANCH   1  10
TORSDOF 13
ENDMDL
MODEL 9
REMARK VINA RESULT:    -3.102      1.643      2.252
REMARK INTER + INTRA:          -6.445
REMARK INTER:                  -5.330
REMARK INTRA:                  -1.115
REMARK UNBOUND:                -0.985
REMARK SMILES CCCCCCCCCCCCCCC(=O)[O-]
REMARK SMILES IDX 9 1 10 2 11 3 12 4 13 5 14 6 15 7 16 8 17 9 8 10 7 11 6 12
REMARK SMILES IDX 5 13 4 14 3 15 2 16 1 17
REMARK H PARENT
REMARK Flexibility Score: inf
ROOT
ATOM      1  C   UNL     1      -9.043   1.720  -5.847  1.00  0.00     0.000 C 
ENDROOT
BRANCH   1   2
ATOM      2  C   UNL     1      -9.739   2.418  -7.026  1.00  0.00     0.000 C 
BRANCH   2   3
ATOM      3  C   UNL     1      -8.946   3.624  -7.553  1.00  0.00     0.000 C 
BRANCH   3   4
ATOM      4  C   UNL     1      -9.813   4.892  -7.552  1.00  0.00     0.000 C 
BRANCH   4   5
ATOM      5  C   UNL     1     -10.120   5.399  -6.134  1.00  0.00     0.006 C 
BRANCH   5   6
ATOM      6  C   UNL     1      -8.881   5.959  -5.424  1.00  0.00     0.053 C 
BRANCH   6   7
ATOM      7  C   UNL     1      -9.005   7.439  -5.246  1.00  0.00     0.041 C 
ATOM      8  O   UNL     1      -9.297   7.920  -4.121  1.00  0.00    -0.550 OA
ATOM      9  O   UNL     1      -8.748   8.291  -6.313  1.00  0.00    -0.550 OA
ENDBRANCH   6   7
ENDBRANCH   5   6
ENDBRANCH   4   5
ENDBRANCH   3   4
ENDBRANCH   2   3
ENDBRANCH   1   2
BRANCH   1  10
ATOM     10  C   UNL     1      -9.577   2.183  -4.484  1.00  0.00     0.000 C 
BRANCH  10  11
ATOM     11  C   UNL     1      -8.427   2.619  -3.564  1.00  0.00    -0.000 C 
BRANCH  11  12
ATOM     12  C   UNL     1      -7.167   1.749  -3.729  1.00  0.00    -0.000 C 
BRANCH  12  13
ATOM     13  C   UNL     1      -6.104   1.925  -2.626  1.00  0.00    -0.000 C 
BRANCH  13  14
ATOM     14  C   UNL     1      -6.549   2.767  -1.418  1.00  0.00    -0.000 C 
BRANCH  14  15
ATOM     15  C   UNL     1      -5.386   3.132  -0.483  1.00  0.00    -0.000 C 
BRANCH  15  16
ATOM     16  C   UNL     1      -5.185   2.056   0.590  1.00  0.00    -0.003 C 
ATOM     17  C   UNL     1      -5.201   2.662   1.989  1.00  0.00     0.004 C 
ENDBRANCH  15  16
ENDBRANCH  14  15
ENDBRANCH  13  14
ENDBRANCH  12  13
ENDBRANCH  11  12
ENDBRANCH  10  11
ENDBRANCH   1  10
TORSDOF 13
ENDMDL
