MODEL 1
REMARK VINA RESULT:    -5.394      0.000      0.000
REMARK INTER + INTRA:          -9.596
REMARK INTER:                  -7.285
REMARK INTRA:                  -2.311
REMARK UNBOUND:                -2.311
REMARK SMILES CC[C@H](CC[C@H](C)[C@@H]1CC[C@@H]2[C@@H]3CC(=O)C4=CC(=O)CC[C@]4(C)[C@@H]3CC[C@@]21C)C(C)C
REMARK SMILES IDX 4 1 3 2 2 3 1 4 29 5 30 6 31 7 5 8 6 9 7 10 8 11 9 12 27 13
REMARK SMILES IDX 10 14 11 15 26 16 28 17 12 18 25 19 24 20 13 21 22 22 14 23
REMARK SMILES IDX 16 24 21 25 23 26 15 27 17 28 20 29 18 30 19 31
REMARK H PARENT
REMARK Flexibility Score: inf
ROOT
ATOM      1  C   UNL     1     145.958 151.873 168.059  1.00  0.00     0.004 C 
ENDROOT
BRANCH   1   2
ATOM      2  C   UNL     1     145.616 152.360 166.621  1.00  0.00    -0.009 C 
BRANCH   2   3
ATOM      3  C   UNL     1     144.932 151.197 165.829  1.00  0.00     0.000 C 
ATOM      4  C   UNL     1     144.372 150.113 166.752  1.00  0.00     0.004 C 
ENDBRANCH   2   3
BRANCH   2   5
ATOM      5  C   UNL     1     144.721 153.650 166.626  1.00  0.00    -0.014 C 
ATOM      6  C   UNL     1     143.751 153.663 167.826  1.00  0.00     0.007 C 
ATOM      7  C   UNL     1     143.889 153.802 165.335  1.00  0.00     0.007 C 
ENDBRANCH   2   5
ENDBRANCH   1   2
BRANCH   1   8
ATOM      8  C   UNL     1     147.280 152.477 168.592  1.00  0.00     0.004 C 
BRANCH   8   9
ATOM      9  C   UNL     1     148.551 151.868 167.932  1.00  0.00    -0.011 C 
ATOM     10  C   UNL     1     149.369 151.112 168.998  1.00  0.00     0.008 C 
BRANCH   9  11
ATOM     11  C   UNL     1     149.406 152.983 167.221  1.00  0.00    -0.002 C 
ATOM     12  C   UNL     1     148.666 154.326 167.168  1.00  0.00     0.005 C 
ATOM     13  C   UNL     1     149.927 152.740 165.756  1.00  0.00    -0.026 C 
ATOM     14  C   UNL     1     149.236 155.123 166.009  1.00  0.00     0.005 C 
ATOM     15  C   UNL     1     150.146 154.187 165.205  1.00  0.00    -0.001 C 
ATOM     16  C   UNL     1     148.944 151.929 164.840  1.00  0.00     0.007 C 
ATOM     17  C   UNL     1     151.301 152.014 165.775  1.00  0.00     0.012 C 
ATOM     18  C   UNL     1     149.984 154.322 163.660  1.00  0.00     0.004 C 
ATOM     19  C   UNL     1     147.929 152.809 164.107  1.00  0.00     0.005 C 
ATOM     20  C   UNL     1     148.640 153.722 163.079  1.00  0.00     0.003 C 
ATOM     21  C   UNL     1     150.370 155.735 163.174  1.00  0.00     0.085 C 
ATOM     22  C   UNL     1     147.646 154.667 162.248  1.00  0.00    -0.000 C 
ATOM     23  C   UNL     1     149.792 156.030 161.842  1.00  0.00     0.159 C 
ATOM     24  C   UNL     1     148.345 155.912 161.713  1.00  0.00     0.005 C 
ATOM     25  C   UNL     1     146.404 155.134 163.072  1.00  0.00     0.020 C 
ATOM     26  C   UNL     1     147.147 153.857 161.016  1.00  0.00     0.017 C 
ATOM     27  O   UNL     1     150.502 156.491 160.908  1.00  0.00    -0.295 OA
ATOM     28  C   UNL     1     147.647 156.966 161.260  1.00  0.00     0.055 C 
ATOM     29  C   UNL     1     145.450 156.042 162.271  1.00  0.00     0.081 C 
ATOM     30  C   UNL     1     146.190 157.055 161.445  1.00  0.00     0.156 C 
ATOM     31  O   UNL     1     145.554 158.001 160.909  1.00  0.00    -0.295 OA
ENDBRANCH   9  11
ENDBRANCH   8   9
ENDBRANCH   1   8
TORSDOF 6
ENDMDL
MODEL 2
REMARK VINA RESULT:    -5.356      1.635      2.599
REMARK INTER + INTRA:          -9.546
REMARK INTER:                  -7.617
REMARK INTRA:                  -1.929
REMARK UNBOUND:                -2.311
REMARK SMILES CC[C@H](CC[C@H](C)[C@@H]1CC[C@@H]2[C@@H]3CC(=O)C4=CC(=O)CC[C@]4(C)[C@@H]3CC[C@@]21C)C(C)C
REMARK SMILES IDX 4 1 3 2 2 3 1 4 29 5 30 6 31 7 5 8 6 9 7 10 8 11 9 12 27 13
REMARK SMILES IDX 10 14 11 15 26 16 28 17 12 18 25 19 24 20 13 21 22 22 14 23
REMARK SMILES IDX 16 24 21 25 23 26 15 27 17 28 20 29 18 30 19 31
REMARK H PARENT
REMARK Flexibility Score: inf
ROOT
ATOM      1  C   UNL     1     145.839 153.554 166.127  1.00  0.00     0.004 C 
ENDROOT
BRANCH   1   2
ATOM      2  C   UNL     1     145.013 152.483 166.895  1.00  0.00    -0.009 C 
BRANCH   2   3
ATOM      3  C   UNL     1     145.140 151.106 166.164  1.00  0.00     0.000 C 
ATOM      4  C   UNL     1     145.335 151.263 164.655  1.00  0.00     0.004 C 
ENDBRANCH   2   3
BRANCH   2   5
ATOM      5  C   UNL     1     145.440 152.371 168.402  1.00  0.00    -0.014 C 
ATOM      6  C   UNL     1     145.808 150.921 168.781  1.00  0.00     0.007 C 
ATOM      7  C   UNL     1     144.340 152.855 169.370  1.00  0.00     0.007 C 
ENDBRANCH   2   5
ENDBRANCH   1   2
BRANCH   1   8
ATOM      8  C   UNL     1     147.244 153.771 166.738  1.00  0.00     0.004 C 
BRANCH   8   9
ATOM      9  C   UNL     1     148.336 152.842 166.132  1.00  0.00    -0.011 C 
ATOM     10  C   UNL     1     148.996 152.024 167.260  1.00  0.00     0.008 C 
BRANCH   9  11
ATOM     11  C   UNL     1     149.395 153.674 165.317  1.00  0.00    -0.002 C 
ATOM     12  C   UNL     1     149.420 155.147 165.746  1.00  0.00     0.005 C 
ATOM     13  C   UNL     1     149.312 153.703 163.746  1.00  0.00    -0.026 C 
ATOM     14  C   UNL     1     149.967 155.958 164.585  1.00  0.00     0.005 C 
ATOM     15  C   UNL     1     150.048 155.029 163.368  1.00  0.00    -0.001 C 
ATOM     16  C   UNL     1     147.852 153.682 163.170  1.00  0.00     0.007 C 
ATOM     17  C   UNL     1     150.104 152.515 163.131  1.00  0.00     0.012 C 
ATOM     18  C   UNL     1     149.559 155.684 162.039  1.00  0.00     0.004 C 
ATOM     19  C   UNL     1     147.239 155.076 163.017  1.00  0.00     0.005 C 
ATOM     20  C   UNL     1     147.994 155.890 161.938  1.00  0.00     0.003 C 
ATOM     21  C   UNL     1     150.436 156.894 161.652  1.00  0.00     0.085 C 
ATOM     22  C   UNL     1     147.403 157.360 161.697  1.00  0.00    -0.000 C 
ATOM     23  C   UNL     1     149.738 157.790 160.700  1.00  0.00     0.159 C 
ATOM     24  C   UNL     1     148.443 158.314 161.121  1.00  0.00     0.005 C 
ATOM     25  C   UNL     1     146.823 158.013 162.992  1.00  0.00     0.020 C 
ATOM     26  C   UNL     1     146.259 157.242 160.647  1.00  0.00     0.017 C 
ATOM     27  O   UNL     1     150.297 158.186 159.643  1.00  0.00    -0.295 OA
ATOM     28  C   UNL     1     148.254 159.644 161.127  1.00  0.00     0.055 C 
ATOM     29  C   UNL     1     146.255 159.427 162.758  1.00  0.00     0.081 C 
ATOM     30  C   UNL     1     147.138 160.253 161.867  1.00  0.00     0.156 C 
ATOM     31  O   UNL     1     146.925 161.490 161.758  1.00  0.00    -0.295 OA
ENDBRANCH   9  11
ENDBRANCH   8   9
ENDBRANCH   1   8
TORSDOF 6
ENDMDL
MODEL 3
REMARK VINA RESULT:    -5.289      3.174      7.135
REMARK INTER + INTRA:          -9.455
REMARK INTER:                  -7.811
REMARK INTRA:                  -1.645
REMARK UNBOUND:                -2.311
REMARK SMILES CC[C@H](CC[C@H](C)[C@@H]1CC[C@@H]2[C@@H]3CC(=O)C4=CC(=O)CC[C@]4(C)[C@@H]3CC[C@@]21C)C(C)C
REMARK SMILES IDX 4 1 3 2 2 3 1 4 29 5 30 6 31 7 5 8 6 9 7 10 8 11 9 12 27 13
REMARK SMILES IDX 10 14 11 15 26 16 28 17 12 18 25 19 24 20 13 21 22 22 14 23
REMARK SMILES IDX 16 24 21 25 23 26 15 27 17 28 20 29 18 30 19 31
REMARK H PARENT
REMARK Flexibility Score: inf
ROOT
ATOM      1  C   UNL     1     147.070 160.503 162.905  1.00  0.00     0.004 C 
ENDROOT
BRANCH   1   2
ATOM      2  C   UNL     1     145.762 160.210 163.695  1.00  0.00    -0.009 C 
BRANCH   2   3
ATOM      3  C   UNL     1     145.557 161.314 164.785  1.00  0.00     0.000 C 
ATOM      4  C   UNL     1     144.100 161.768 164.887  1.00  0.00     0.004 C 
ENDBRANCH   2   3
BRANCH   2   5
ATOM      5  C   UNL     1     144.510 160.099 162.754  1.00  0.00    -0.014 C 
ATOM      6  C   UNL     1     143.943 158.664 162.731  1.00  0.00     0.007 C 
ATOM      7  C   UNL     1     144.820 160.515 161.300  1.00  0.00     0.007 C 
ENDBRANCH   2   5
ENDBRANCH   1   2
BRANCH   1   8
ATOM      8  C   UNL     1     148.154 159.421 163.129  1.00  0.00     0.004 C 
BRANCH   8   9
ATOM      9  C   UNL     1     148.740 158.845 161.806  1.00  0.00    -0.011 C 
ATOM     10  C   UNL     1     148.373 159.778 160.635  1.00  0.00     0.008 C 
BRANCH   9  11
ATOM     11  C   UNL     1     148.238 157.373 161.562  1.00  0.00    -0.002 C 
ATOM     12  C   UNL     1     147.155 156.962 162.568  1.00  0.00     0.005 C 
ATOM     13  C   UNL     1     149.277 156.191 161.566  1.00  0.00    -0.026 C 
ATOM     14  C   UNL     1     147.165 155.447 162.667  1.00  0.00     0.005 C 
ATOM     15  C   UNL     1     148.403 154.943 161.915  1.00  0.00    -0.001 C 
ATOM     16  C   UNL     1     150.453 156.362 162.590  1.00  0.00     0.007 C 
ATOM     17  C   UNL     1     149.879 155.983 160.149  1.00  0.00     0.012 C 
ATOM     18  C   UNL     1     149.170 153.803 162.655  1.00  0.00     0.004 C 
ATOM     19  C   UNL     1     150.135 155.808 163.981  1.00  0.00     0.005 C 
ATOM     20  C   UNL     1     149.978 154.269 163.933  1.00  0.00     0.003 C 
ATOM     21  C   UNL     1     148.289 152.547 162.821  1.00  0.00     0.085 C 
ATOM     22  C   UNL     1     149.663 153.600 165.355  1.00  0.00    -0.000 C 
ATOM     23  C   UNL     1     148.798 151.663 163.896  1.00  0.00     0.159 C 
ATOM     24  C   UNL     1     148.952 152.258 165.218  1.00  0.00     0.005 C 
ATOM     25  C   UNL     1     148.795 154.506 166.286  1.00  0.00     0.020 C 
ATOM     26  C   UNL     1     151.024 153.326 166.059  1.00  0.00     0.017 C 
ATOM     27  O   UNL     1     148.959 150.428 163.706  1.00  0.00    -0.295 OA
ATOM     28  C   UNL     1     148.335 151.682 166.263  1.00  0.00     0.055 C 
ATOM     29  C   UNL     1     148.494 153.861 167.653  1.00  0.00     0.081 C 
ATOM     30  C   UNL     1     148.139 152.407 167.529  1.00  0.00     0.156 C 
ATOM     31  O   UNL     1     147.660 151.799 168.522  1.00  0.00    -0.295 OA
ENDBRANCH   9  11
ENDBRANCH   8   9
ENDBRANCH   1   8
TORSDOF 6
ENDMDL
MODEL 4
REMARK VINA RESULT:    -5.122      4.222      6.456
REMARK INTER + INTRA:          -9.229
REMARK INTER:                  -6.646
REMARK INTRA:                  -2.583
REMARK UNBOUND:                -2.311
REMARK SMILES CC[C@H](CC[C@H](C)[C@@H]1CC[C@@H]2[C@@H]3CC(=O)C4=CC(=O)CC[C@]4(C)[C@@H]3CC[C@@]21C)C(C)C
REMARK SMILES IDX 4 1 3 2 2 3 1 4 29 5 30 6 31 7 5 8 6 9 7 10 8 11 9 12 27 13
REMARK SMILES IDX 10 14 11 15 26 16 28 17 12 18 25 19 24 20 13 21 22 22 14 23
REMARK SMILES IDX 16 24 21 25 23 26 15 27 17 28 20 29 18 30 19 31
REMARK H PARENT
REMARK Flexibility Score: inf
ROOT
ATOM      1  C   UNL     1     146.277 148.962 159.952  1.00  0.00     0.004 C 
ENDROOT
BRANCH   1   2
ATOM      2  C   UNL     1     145.773 149.657 161.249  1.00  0.00    -0.009 C 
BRANCH   2   3
ATOM      3  C   UNL     1     144.821 150.839 160.869  1.00  0.00     0.000 C 
ATOM      4  C   UNL     1     145.357 152.193 161.336  1.00  0.00     0.004 C 
ENDBRANCH   2   3
BRANCH   2   5
ATOM      5  C   UNL     1     145.069 148.651 162.228  1.00  0.00    -0.014 C 
ATOM      6  C   UNL     1     143.561 148.947 162.359  1.00  0.00     0.007 C 
ATOM      7  C   UNL     1     145.686 148.667 163.643  1.00  0.00     0.007 C 
ENDBRANCH   2   5
ENDBRANCH   1   2
BRANCH   1   8
ATOM      8  C   UNL     1     147.180 147.740 160.246  1.00  0.00     0.004 C 
BRANCH   8   9
ATOM      9  C   UNL     1     148.659 147.938 159.801  1.00  0.00    -0.011 C 
ATOM     10  C   UNL     1     149.075 146.776 158.877  1.00  0.00     0.008 C 
BRANCH   9  11
ATOM     11  C   UNL     1     149.610 148.063 161.049  1.00  0.00    -0.002 C 
ATOM     12  C   UNL     1     148.864 147.816 162.367  1.00  0.00     0.005 C 
ATOM     13  C   UNL     1     150.418 149.394 161.275  1.00  0.00    -0.026 C 
ATOM     14  C   UNL     1     149.633 148.515 163.473  1.00  0.00     0.005 C 
ATOM     15  C   UNL     1     150.707 149.386 162.811  1.00  0.00    -0.001 C 
ATOM     16  C   UNL     1     149.656 150.699 160.849  1.00  0.00     0.007 C 
ATOM     17  C   UNL     1     151.778 149.346 160.524  1.00  0.00     0.012 C 
ATOM     18  C   UNL     1     150.852 150.803 163.449  1.00  0.00     0.004 C 
ATOM     19  C   UNL     1     148.786 151.286 161.962  1.00  0.00     0.005 C 
ATOM     20  C   UNL     1     149.665 151.798 163.129  1.00  0.00     0.003 C 
ATOM     21  C   UNL     1     151.293 150.713 164.925  1.00  0.00     0.085 C 
ATOM     22  C   UNL     1     148.834 152.452 164.334  1.00  0.00    -0.000 C 
ATOM     23  C   UNL     1     150.984 151.961 165.662  1.00  0.00     0.159 C 
ATOM     24  C   UNL     1     149.594 152.402 165.655  1.00  0.00     0.005 C 
ATOM     25  C   UNL     1     147.442 151.779 164.560  1.00  0.00     0.020 C 
ATOM     26  C   UNL     1     148.608 153.954 163.992  1.00  0.00     0.017 C 
ATOM     27  O   UNL     1     151.854 152.535 166.371  1.00  0.00    -0.295 OA
ATOM     28  C   UNL     1     148.976 152.612 166.828  1.00  0.00     0.055 C 
ATOM     29  C   UNL     1     146.644 152.409 165.720  1.00  0.00     0.081 C 
ATOM     30  C   UNL     1     147.509 152.696 166.914  1.00  0.00     0.156 C 
ATOM     31  O   UNL     1     146.970 153.006 168.009  1.00  0.00    -0.295 OA
ENDBRANCH   9  11
ENDBRANCH   8   9
ENDBRANCH   1   8
TORSDOF 6
ENDMDL
MODEL 5
REMARK VINA RESULT:    -5.064      3.211      6.079
REMARK INTER + INTRA:          -9.151
REMARK INTER:                  -7.966
REMARK INTRA:                  -1.186
REMARK UNBOUND:                -2.311
REMARK SMILES CC[C@H](CC[C@H](C)[C@@H]1CC[C@@H]2[C@@H]3CC(=O)C4=CC(=O)CC[C@]4(C)[C@@H]3CC[C@@]21C)C(C)C
REMARK SMILES IDX 4 1 3 2 2 3 1 4 29 5 30 6 31 7 5 8 6 9 7 10 8 11 9 12 27 13
REMARK SMILES IDX 10 14 11 15 26 16 28 17 12 18 25 19 24 20 13 21 22 22 14 23
REMARK SMILES IDX 16 24 21 25 23 26 15 27 17 28 20 29 18 30 19 31
REMARK H PARENT
REMARK Flexibility Score: inf
ROOT
ATOM      1  C   UNL     1     148.579 154.222 165.826  1.00  0.00     0.004 C 
ENDROOT
BRANCH   1   2
ATOM      2  C   UNL     1     149.523 153.412 166.760  1.00  0.00    -0.009 C 
BRANCH   2   3
ATOM      3  C   UNL     1     148.710 152.267 167.451  1.00  0.00     0.000 C 
ATOM      4  C   UNL     1     147.403 152.769 168.066  1.00  0.00     0.004 C 
ENDBRANCH   2   3
BRANCH   2   5
ATOM      5  C   UNL     1     150.772 152.844 165.997  1.00  0.00    -0.014 C 
ATOM      6  C   UNL     1     150.494 151.442 165.416  1.00  0.00     0.007 C 
ATOM      7  C   UNL     1     152.025 152.751 166.893  1.00  0.00     0.007 C 
ENDBRANCH   2   5
ENDBRANCH   1   2
BRANCH   1   8
ATOM      8  C   UNL     1     149.348 155.218 164.925  1.00  0.00     0.004 C 
BRANCH   8   9
ATOM      9  C   UNL     1     148.919 155.162 163.429  1.00  0.00    -0.011 C 
ATOM     10  C   UNL     1     149.580 153.945 162.752  1.00  0.00     0.008 C 
BRANCH   9  11
ATOM     11  C   UNL     1     149.274 156.507 162.691  1.00  0.00    -0.002 C 
ATOM     12  C   UNL     1     149.317 157.698 163.657  1.00  0.00     0.005 C 
ATOM     13  C   UNL     1     148.382 156.985 161.486  1.00  0.00    -0.026 C 
ATOM     14  C   UNL     1     149.063 158.958 162.851  1.00  0.00     0.005 C 
ATOM     15  C   UNL     1     148.626 158.528 161.445  1.00  0.00    -0.001 C 
ATOM     16  C   UNL     1     146.855 156.656 161.634  1.00  0.00     0.007 C 
ATOM     17  C   UNL     1     148.893 156.378 160.149  1.00  0.00     0.012 C 
ATOM     18  C   UNL     1     147.433 159.357 160.875  1.00  0.00     0.004 C 
ATOM     19  C   UNL     1     146.068 157.742 162.372  1.00  0.00     0.005 C 
ATOM     20  C   UNL     1     146.033 159.049 161.544  1.00  0.00     0.003 C 
ATOM     21  C   UNL     1     147.806 160.846 160.718  1.00  0.00     0.085 C 
ATOM     22  C   UNL     1     145.208 160.238 162.235  1.00  0.00    -0.000 C 
ATOM     23  C   UNL     1     146.599 161.703 160.640  1.00  0.00     0.159 C 
ATOM     24  C   UNL     1     145.655 161.611 161.747  1.00  0.00     0.005 C 
ATOM     25  C   UNL     1     145.304 160.231 163.794  1.00  0.00     0.020 C 
ATOM     26  C   UNL     1     143.714 160.072 161.830  1.00  0.00     0.017 C 
ATOM     27  O   UNL     1     146.467 162.566 159.731  1.00  0.00    -0.295 OA
ATOM     28  C   UNL     1     145.318 162.732 162.405  1.00  0.00     0.055 C 
ATOM     29  C   UNL     1     144.510 161.374 164.457  1.00  0.00     0.081 C 
ATOM     30  C   UNL     1     144.678 162.678 163.730  1.00  0.00     0.156 C 
ATOM     31  O   UNL     1     144.273 163.743 164.266  1.00  0.00    -0.295 OA
ENDBRANCH   9  11
ENDBRANCH   8   9
ENDBRANCH   1   8
TORSDOF 6
ENDMDL
MODEL 6
REMARK VINA RESULT:    -5.039      2.313      4.378
REMARK INTER + INTRA:          -9.117
REMARK INTER:                  -7.869
REMARK INTRA:                  -1.249
REMARK UNBOUND:                -2.311
REMARK SMILES CC[C@H](CC[C@H](C)[C@@H]1CC[C@@H]2[C@@H]3CC(=O)C4=CC(=O)CC[C@]4(C)[C@@H]3CC[C@@]21C)C(C)C
REMARK SMILES IDX 4 1 3 2 2 3 1 4 29 5 30 6 31 7 5 8 6 9 7 10 8 11 9 12 27 13
REMARK SMILES IDX 10 14 11 15 26 16 28 17 12 18 25 19 24 20 13 21 22 22 14 23
REMARK SMILES IDX 16 24 21 25 23 26 15 27 17 28 20 29 18 30 19 31
REMARK H PARENT
REMARK Flexibility Score: inf
ROOT
ATOM      1  C   UNL     1     147.469 152.663 166.268  1.00  0.00     0.004 C 
ENDROOT
BRANCH   1   2
ATOM      2  C   UNL     1     147.859 152.590 167.772  1.00  0.00    -0.009 C 
BRANCH   2   3
ATOM      3  C   UNL     1     146.595 152.229 168.620  1.00  0.00     0.000 C 
ATOM      4  C   UNL     1     145.297 152.390 167.828  1.00  0.00     0.004 C 
ENDBRANCH   2   3
BRANCH   2   5
ATOM      5  C   UNL     1     149.030 151.576 168.035  1.00  0.00    -0.014 C 
ATOM      6  C   UNL     1     148.870 150.863 169.393  1.00  0.00     0.007 C 
ATOM      7  C   UNL     1     150.418 152.251 168.008  1.00  0.00     0.007 C 
ENDBRANCH   2   5
ENDBRANCH   1   2
BRANCH   1   8
ATOM      8  C   UNL     1     148.140 153.850 165.537  1.00  0.00     0.004 C 
BRANCH   8   9
ATOM      9  C   UNL     1     148.797 153.455 164.182  1.00  0.00    -0.011 C 
ATOM     10  C   UNL     1     149.731 152.248 164.400  1.00  0.00     0.008 C 
BRANCH   9  11
ATOM     11  C   UNL     1     149.559 154.678 163.548  1.00  0.00    -0.002 C 
ATOM     12  C   UNL     1     149.433 155.942 164.409  1.00  0.00     0.005 C 
ATOM     13  C   UNL     1     149.202 155.137 162.085  1.00  0.00    -0.026 C 
ATOM     14  C   UNL     1     149.639 157.142 163.503  1.00  0.00     0.005 C 
ATOM     15  C   UNL     1     149.651 156.634 162.056  1.00  0.00    -0.001 C 
ATOM     16  C   UNL     1     147.685 154.993 161.709  1.00  0.00     0.007 C 
ATOM     17  C   UNL     1     150.049 154.355 161.042  1.00  0.00     0.012 C 
ATOM     18  C   UNL     1     148.845 157.531 161.066  1.00  0.00     0.004 C 
ATOM     19  C   UNL     1     146.849 156.222 162.073  1.00  0.00     0.005 C 
ATOM     20  C   UNL     1     147.273 157.442 161.220  1.00  0.00     0.003 C 
ATOM     21  C   UNL     1     149.446 158.949 160.975  1.00  0.00     0.085 C 
ATOM     22  C   UNL     1     146.431 158.773 161.521  1.00  0.00    -0.000 C 
ATOM     23  C   UNL     1     148.465 159.923 160.439  1.00  0.00     0.159 C 
ATOM     24  C   UNL     1     147.198 160.038 161.153  1.00  0.00     0.005 C 
ATOM     25  C   UNL     1     145.991 158.901 163.015  1.00  0.00     0.020 C 
ATOM     26  C   UNL     1     145.155 158.735 160.631  1.00  0.00     0.017 C 
ATOM     27  O   UNL     1     148.766 160.706 159.500  1.00  0.00    -0.295 OA
ATOM     28  C   UNL     1     146.812 161.246 161.595  1.00  0.00     0.055 C 
ATOM     29  C   UNL     1     145.182 160.181 163.302  1.00  0.00     0.081 C 
ATOM     30  C   UNL     1     145.760 161.385 162.616  1.00  0.00     0.156 C 
ATOM     31  O   UNL     1     145.345 162.533 162.924  1.00  0.00    -0.295 OA
ENDBRANCH   9  11
ENDBRANCH   8   9
ENDBRANCH   1   8
TORSDOF 6
ENDMDL
MODEL 7
REMARK VINA RESULT:    -4.951      2.078      3.461
REMARK INTER + INTRA:          -8.999
REMARK INTER:                  -7.434
REMARK INTRA:                  -1.565
REMARK UNBOUND:                -2.311
REMARK SMILES CC[C@H](CC[C@H](C)[C@@H]1CC[C@@H]2[C@@H]3CC(=O)C4=CC(=O)CC[C@]4(C)[C@@H]3CC[C@@]21C)C(C)C
REMARK SMILES IDX 4 1 3 2 2 3 1 4 29 5 30 6 31 7 5 8 6 9 7 10 8 11 9 12 27 13
REMARK SMILES IDX 10 14 11 15 26 16 28 17 12 18 25 19 24 20 13 21 22 22 14 23
REMARK SMILES IDX 16 24 21 25 23 26 15 27 17 28 20 29 18 30 19 31
REMARK H PARENT
REMARK Flexibility Score: inf
ROOT
ATOM      1  C   UNL     1     146.902 153.095 166.848  1.00  0.00     0.004 C 
ENDROOT
BRANCH   1   2
ATOM      2  C   UNL     1     145.445 153.636 166.780  1.00  0.00    -0.009 C 
BRANCH   2   3
ATOM      3  C   UNL     1     144.980 153.687 165.287  1.00  0.00     0.000 C 
ATOM      4  C   UNL     1     145.016 152.312 164.618  1.00  0.00     0.004 C 
ENDBRANCH   2   3
BRANCH   2   5
ATOM      5  C   UNL     1     144.455 152.790 167.657  1.00  0.00    -0.014 C 
ATOM      6  C   UNL     1     143.398 153.682 168.341  1.00  0.00     0.007 C 
ATOM      7  C   UNL     1     145.176 151.976 168.752  1.00  0.00     0.007 C 
ENDBRANCH   2   5
ENDBRANCH   1   2
BRANCH   1   8
ATOM      8  C   UNL     1     147.917 154.036 166.156  1.00  0.00     0.004 C 
BRANCH   8   9
ATOM      9  C   UNL     1     148.748 153.339 165.038  1.00  0.00    -0.011 C 
ATOM     10  C   UNL     1     149.646 152.256 165.668  1.00  0.00     0.008 C 
BRANCH   9  11
ATOM     11  C   UNL     1     149.586 154.391 164.220  1.00  0.00    -0.002 C 
ATOM     12  C   UNL     1     149.556 155.780 164.872  1.00  0.00     0.005 C 
ATOM     13  C   UNL     1     149.246 154.639 162.704  1.00  0.00    -0.026 C 
ATOM     14  C   UNL     1     149.835 156.807 163.789  1.00  0.00     0.005 C 
ATOM     15  C   UNL     1     149.796 156.079 162.440  1.00  0.00    -0.001 C 
ATOM     16  C   UNL     1     147.719 154.544 162.354  1.00  0.00     0.007 C 
ATOM     17  C   UNL     1     150.025 153.647 161.796  1.00  0.00     0.012 C 
ATOM     18  C   UNL     1     149.044 156.864 161.321  1.00  0.00     0.004 C 
ATOM     19  C   UNL     1     146.973 155.870 162.520  1.00  0.00     0.005 C 
ATOM     20  C   UNL     1     147.471 156.910 161.487  1.00  0.00     0.003 C 
ATOM     21  C   UNL     1     149.740 158.205 161.009  1.00  0.00     0.085 C 
ATOM     22  C   UNL     1     146.726 158.327 161.575  1.00  0.00    -0.000 C 
ATOM     23  C   UNL     1     148.822 159.148 160.327  1.00  0.00     0.159 C 
ATOM     24  C   UNL     1     147.574 159.462 161.013  1.00  0.00     0.005 C 
ATOM     25  C   UNL     1     146.312 158.717 163.030  1.00  0.00     0.020 C 
ATOM     26  C   UNL     1     145.441 158.239 160.701  1.00  0.00     0.017 C 
ATOM     27  O   UNL     1     149.167 159.752 159.277  1.00  0.00    -0.295 OA
ATOM     28  C   UNL     1     147.277 160.748 161.261  1.00  0.00     0.055 C 
ATOM     29  C   UNL     1     145.595 160.080 163.113  1.00  0.00     0.081 C 
ATOM     30  C   UNL     1     146.248 161.118 162.246  1.00  0.00     0.156 C 
ATOM     31  O   UNL     1     145.917 162.326 162.370  1.00  0.00    -0.295 OA
ENDBRANCH   9  11
ENDBRANCH   8   9
ENDBRANCH   1   8
TORSDOF 6
ENDMDL
MODEL 8
REMARK VINA RESULT:    -4.897      3.178      7.251
REMARK INTER + INTRA:          -8.925
REMARK INTER:                  -6.793
REMARK INTRA:                  -2.133
REMARK UNBOUND:                -2.311
REMARK SMILES CC[C@H](CC[C@H](C)[C@@H]1CC[C@@H]2[C@@H]3CC(=O)C4=CC(=O)CC[C@]4(C)[C@@H]3CC[C@@]21C)C(C)C
REMARK SMILES IDX 4 1 3 2 2 3 1 4 29 5 30 6 31 7 5 8 6 9 7 10 8 11 9 12 27 13
REMARK SMILES IDX 10 14 11 15 26 16 28 17 12 18 25 19 24 20 13 21 22 22 14 23
REMARK SMILES IDX 16 24 21 25 23 26 15 27 17 28 20 29 18 30 19 31
REMARK H PARENT
REMARK Flexibility Score: inf
ROOT
ATOM      1  C   UNL     1     145.890 157.955 162.587  1.00  0.00     0.004 C 
ENDROOT
BRANCH   1   2
ATOM      2  C   UNL     1     146.186 159.317 161.896  1.00  0.00    -0.009 C 
BRANCH   2   3
ATOM      3  C   UNL     1     145.165 160.388 162.403  1.00  0.00     0.000 C 
ATOM      4  C   UNL     1     145.708 161.813 162.284  1.00  0.00     0.004 C 
ENDBRANCH   2   3
BRANCH   2   5
ATOM      5  C   UNL     1     147.666 159.789 162.120  1.00  0.00    -0.014 C 
ATOM      6  C   UNL     1     148.551 159.486 160.894  1.00  0.00     0.007 C 
ATOM      7  C   UNL     1     148.319 159.134 163.356  1.00  0.00     0.007 C 
ENDBRANCH   2   5
ENDBRANCH   1   2
BRANCH   1   8
ATOM      8  C   UNL     1     145.342 156.895 161.601  1.00  0.00     0.004 C 
BRANCH   8   9
ATOM      9  C   UNL     1     146.325 156.557 160.442  1.00  0.00    -0.011 C 
ATOM     10  C   UNL     1     145.634 156.829 159.090  1.00  0.00     0.008 C 
BRANCH   9  11
ATOM     11  C   UNL     1     146.834 155.072 160.550  1.00  0.00    -0.002 C 
ATOM     12  C   UNL     1     146.128 154.304 161.675  1.00  0.00     0.005 C 
ATOM     13  C   UNL     1     148.369 154.795 160.760  1.00  0.00    -0.026 C 
ATOM     14  C   UNL     1     147.039 153.166 162.102  1.00  0.00     0.005 C 
ATOM     15  C   UNL     1     148.394 153.376 161.417  1.00  0.00    -0.001 C 
ATOM     16  C   UNL     1     149.104 155.849 161.662  1.00  0.00     0.007 C 
ATOM     17  C   UNL     1     149.105 154.711 159.394  1.00  0.00     0.012 C 
ATOM     18  C   UNL     1     149.619 153.116 162.348  1.00  0.00     0.004 C 
ATOM     19  C   UNL     1     149.054 155.513 163.154  1.00  0.00     0.005 C 
ATOM     20  C   UNL     1     149.860 154.225 163.451  1.00  0.00     0.003 C 
ATOM     21  C   UNL     1     149.659 151.651 162.829  1.00  0.00     0.085 C 
ATOM     22  C   UNL     1     149.879 153.809 164.999  1.00  0.00    -0.000 C 
ATOM     23  C   UNL     1     150.495 151.499 164.044  1.00  0.00     0.159 C 
ATOM     24  C   UNL     1     150.134 152.319 165.195  1.00  0.00     0.005 C 
ATOM     25  C   UNL     1     148.558 154.169 165.752  1.00  0.00     0.020 C 
ATOM     26  C   UNL     1     151.058 154.569 165.677  1.00  0.00     0.017 C 
ATOM     27  O   UNL     1     151.383 150.609 164.121  1.00  0.00    -0.295 OA
ATOM     28  C   UNL     1     149.893 151.715 166.370  1.00  0.00     0.055 C 
ATOM     29  C   UNL     1     148.579 153.769 167.241  1.00  0.00     0.081 C 
ATOM     30  C   UNL     1     149.184 152.411 167.455  1.00  0.00     0.156 C 
ATOM     31  O   UNL     1     149.076 151.856 168.580  1.00  0.00    -0.295 OA
ENDBRANCH   9  11
ENDBRANCH   8   9
ENDBRANCH   1   8
TORSDOF 6
ENDMDL
MODEL 9
REMARK VINA RESULT:    -4.787      3.237      6.538
REMARK INTER + INTRA:          -8.777
REMARK INTER:                  -6.309
REMARK INTRA:                  -2.467
REMARK UNBOUND:                -2.311
REMARK SMILES CC[C@H](CC[C@H](C)[C@@H]1CC[C@@H]2[C@@H]3CC(=O)C4=CC(=O)CC[C@]4(C)[C@@H]3CC[C@@]21C)C(C)C
REMARK SMILES IDX 4 1 3 2 2 3 1 4 29 5 30 6 31 7 5 8 6 9 7 10 8 11 9 12 27 13
REMARK SMILES IDX 10 14 11 15 26 16 28 17 12 18 25 19 24 20 13 21 22 22 14 23
REMARK SMILES IDX 16 24 21 25 23 26 15 27 17 28 20 29 18 30 19 31
REMARK H PARENT
REMARK Flexibility Score: inf
ROOT
ATOM      1  C   UNL     1     146.756 148.088 160.899  1.00  0.00     0.004 C 
ENDROOT
BRANCH   1   2
ATOM      2  C   UNL     1     147.299 148.524 162.291  1.00  0.00    -0.009 C 
BRANCH   2   3
ATOM      3  C   UNL     1     146.231 148.202 163.388  1.00  0.00     0.000 C 
ATOM      4  C   UNL     1     144.861 148.798 163.061  1.00  0.00     0.004 C 
ENDBRANCH   2   3
BRANCH   2   5
ATOM      5  C   UNL     1     148.680 147.856 162.626  1.00  0.00    -0.014 C 
ATOM      6  C   UNL     1     149.759 148.911 162.944  1.00  0.00     0.007 C 
ATOM      7  C   UNL     1     149.204 146.965 161.480  1.00  0.00     0.007 C 
ENDBRANCH   2   5
ENDBRANCH   1   2
BRANCH   1   8
ATOM      8  C   UNL     1     146.937 149.184 159.822  1.00  0.00     0.004 C 
BRANCH   8   9
ATOM      9  C   UNL     1     146.029 150.429 160.042  1.00  0.00    -0.011 C 
ATOM     10  C   UNL     1     144.979 150.503 158.916  1.00  0.00     0.008 C 
BRANCH   9  11
ATOM     11  C   UNL     1     146.890 151.745 160.128  1.00  0.00    -0.002 C 
ATOM     12  C   UNL     1     148.366 151.447 160.422  1.00  0.00     0.005 C 
ATOM     13  C   UNL     1     146.483 152.870 161.151  1.00  0.00    -0.026 C 
ATOM     14  C   UNL     1     148.969 152.684 161.064  1.00  0.00     0.005 C 
ATOM     15  C   UNL     1     147.819 153.646 161.385  1.00  0.00    -0.001 C 
ATOM     16  C   UNL     1     145.892 152.337 162.504  1.00  0.00     0.007 C 
ATOM     17  C   UNL     1     145.458 153.848 160.513  1.00  0.00     0.012 C 
ATOM     18  C   UNL     1     147.936 154.324 162.786  1.00  0.00     0.004 C 
ATOM     19  C   UNL     1     146.960 152.053 163.563  1.00  0.00     0.005 C 
ATOM     20  C   UNL     1     147.646 153.366 164.012  1.00  0.00     0.003 C 
ATOM     21  C   UNL     1     149.202 155.200 162.884  1.00  0.00     0.085 C 
ATOM     22  C   UNL     1     148.767 153.164 165.140  1.00  0.00    -0.000 C 
ATOM     23  C   UNL     1     149.578 155.457 164.294  1.00  0.00     0.159 C 
ATOM     24  C   UNL     1     149.797 154.289 165.139  1.00  0.00     0.005 C 
ATOM     25  C   UNL     1     149.539 151.812 165.008  1.00  0.00     0.020 C 
ATOM     26  C   UNL     1     148.055 153.196 166.523  1.00  0.00     0.017 C 
ATOM     27  O   UNL     1     149.829 156.622 164.703  1.00  0.00    -0.295 OA
ATOM     28  C   UNL     1     150.969 154.167 165.784  1.00  0.00     0.055 C 
ATOM     29  C   UNL     1     150.617 151.620 166.094  1.00  0.00     0.081 C 
ATOM     30  C   UNL     1     151.401 152.876 166.345  1.00  0.00     0.156 C 
ATOM     31  O   UNL     1     152.450 152.824 167.039  1.00  0.00    -0.295 OA
ENDBRANCH   9  11
ENDBRANCH   8   9
ENDBRANCH   1   8
TORSDOF 6
ENDMDL
