MODEL 1
REMARK VINA RESULT:    23.053      0.000      0.000
REMARK INTER + INTRA:          51.636
REMARK INTER:                  52.702
REMARK INTRA:                  -1.066
REMARK UNBOUND:                -1.066
REMARK SMILES CCCCCCCCCCCCCCCCCCCCCCCC(=O)[O-]
REMARK SMILES IDX 13 1 14 2 15 3 16 4 17 5 18 6 19 7 20 8 21 9 22 10 23 11
REMARK SMILES IDX 24 12 25 13 26 14 12 15 11 16 10 17 9 18 8 19 7 20 6 21 5 22
REMARK SMILES IDX 4 23 3 24 2 25 1 26
REMARK H PARENT
REMARK Flexibility Score: inf
ROOT
ATOM      1  C   UNL     1     -16.751 -14.030 -20.761  1.00  0.00     0.000 C 
ENDROOT
BRANCH   1   2
ATOM      2  C   UNL     1     -16.294 -13.899 -22.225  1.00  0.00     0.000 C 
BRANCH   2   3
ATOM      3  C   UNL     1     -15.565 -12.578 -22.508  1.00  0.00     0.000 C 
BRANCH   3   4
ATOM      4  C   UNL     1     -14.705 -12.687 -23.773  1.00  0.00     0.000 C 
BRANCH   4   5
ATOM      5  C   UNL     1     -14.328 -11.294 -24.302  1.00  0.00     0.000 C 
BRANCH   5   6
ATOM      6  C   UNL     1     -13.807 -10.360 -23.199  1.00  0.00     0.000 C 
BRANCH   6   7
ATOM      7  C   UNL     1     -14.342  -8.924 -23.338  1.00  0.00     0.000 C 
BRANCH   7   8
ATOM      8  C   UNL     1     -13.585  -7.925 -22.447  1.00  0.00     0.000 C 
BRANCH   8   9
ATOM      9  C   UNL     1     -12.159  -8.395 -22.112  1.00  0.00     0.000 C 
BRANCH   9  10
ATOM     10  C   UNL     1     -12.004  -8.825 -20.642  1.00  0.00     0.006 C 
BRANCH  10  11
ATOM     11  C   UNL     1     -12.770  -7.943 -19.643  1.00  0.00     0.053 C 
BRANCH  11  12
ATOM     12  C   UNL     1     -12.673  -8.462 -18.241  1.00  0.00     0.041 C 
ATOM     13  O   UNL     1     -12.332  -7.694 -17.303  1.00  0.00    -0.550 OA
ATOM     14  O   UNL     1     -13.002  -9.782 -17.964  1.00  0.00    -0.550 OA
ENDBRANCH  11  12
ENDBRANCH  10  11
ENDBRANCH   9  10
ENDBRANCH   8   9
ENDBRANCH   7   8
ENDBRANCH   6   7
ENDBRANCH   5   6
ENDBRANCH   4   5
ENDBRANCH   3   4
ENDBRANCH   2   3
ENDBRANCH   1   2
BRANCH   1  15
ATOM     15  C   UNL     1     -16.234 -15.283 -20.027  1.00  0.00     0.000 C 
BRANCH  15  16
ATOM     16  C   UNL     1     -17.213 -15.893 -19.005  1.00  0.00     0.000 C 
BRANCH  16  17
ATOM     17  C   UNL     1     -17.058 -15.374 -17.562  1.00  0.00     0.000 C 
BRANCH  17  18
ATOM     18  C   UNL     1     -16.858 -16.467 -16.498  1.00  0.00    -0.000 C 
BRANCH  18  19
ATOM     19  C   UNL     1     -18.006 -16.518 -15.475  1.00  0.00    -0.000 C 
BRANCH  19  20
ATOM     20  C   UNL     1     -19.384 -16.638 -16.145  1.00  0.00    -0.000 C 
BRANCH  20  21
ATOM     21  C   UNL     1     -19.979 -18.048 -16.019  1.00  0.00    -0.000 C 
BRANCH  21  22
ATOM     22  C   UNL     1     -21.376 -17.998 -15.382  1.00  0.00    -0.000 C 
BRANCH  22  23
ATOM     23  C   UNL     1     -21.935 -16.569 -15.293  1.00  0.00    -0.000 C 
BRANCH  23  24
ATOM     24  C   UNL     1     -22.391 -16.201 -13.871  1.00  0.00    -0.000 C 
BRANCH  24  25
ATOM     25  C   UNL     1     -23.552 -15.194 -13.866  1.00  0.00    -0.003 C 
ATOM     26  C   UNL     1     -23.873 -14.671 -12.466  1.00  0.00     0.004 C 
ENDBRANCH  24  25
ENDBRANCH  23  24
ENDBRANCH  22  23
ENDBRANCH  21  22
ENDBRANCH  20  21
ENDBRANCH  19  20
ENDBRANCH  18  19
ENDBRANCH  17  18
ENDBRANCH  16  17
ENDBRANCH  15  16
ENDBRANCH   1  15
TORSDOF 22
ENDMDL
MODEL 2
REMARK VINA RESULT:    23.250      3.721     11.583
REMARK INTER + INTRA:          52.085
REMARK INTER:                  53.087
REMARK INTRA:                  -1.002
REMARK UNBOUND:                -1.066
REMARK SMILES CCCCCCCCCCCCCCCCCCCCCCCC(=O)[O-]
REMARK SMILES IDX 13 1 14 2 15 3 16 4 17 5 18 6 19 7 20 8 21 9 22 10 23 11
REMARK SMILES IDX 24 12 25 13 26 14 12 15 11 16 10 17 9 18 8 19 7 20 6 21 5 22
REMARK SMILES IDX 4 23 3 24 2 25 1 26
REMARK H PARENT
REMARK Flexibility Score: inf
ROOT
ATOM      1  C   UNL     1     -16.887 -14.439 -20.543  1.00  0.00     0.000 C 
ENDROOT
BRANCH   1   2
ATOM      2  C   UNL     1     -16.534 -15.605 -19.602  1.00  0.00     0.000 C 
BRANCH   2   3
ATOM      3  C   UNL     1     -16.815 -15.289 -18.127  1.00  0.00     0.000 C 
BRANCH   3   4
ATOM      4  C   UNL     1     -17.815 -16.289 -17.533  1.00  0.00     0.000 C 
BRANCH   4   5
ATOM      5  C   UNL     1     -17.593 -16.456 -16.022  1.00  0.00     0.000 C 
BRANCH   5   6
ATOM      6  C   UNL     1     -18.859 -16.915 -15.281  1.00  0.00     0.000 C 
BRANCH   6   7
ATOM      7  C   UNL     1     -19.788 -17.762 -16.167  1.00  0.00     0.000 C 
BRANCH   7   8
ATOM      8  C   UNL     1     -21.055 -18.218 -15.423  1.00  0.00     0.000 C 
BRANCH   8   9
ATOM      9  C   UNL     1     -22.176 -17.165 -15.464  1.00  0.00     0.000 C 
BRANCH   9  10
ATOM     10  C   UNL     1     -22.162 -16.234 -14.239  1.00  0.00     0.006 C 
BRANCH  10  11
ATOM     11  C   UNL     1     -23.358 -15.271 -14.166  1.00  0.00     0.053 C 
BRANCH  11  12
ATOM     12  C   UNL     1     -23.644 -14.830 -12.764  1.00  0.00     0.041 C 
ATOM     13  O   UNL     1     -24.818 -14.532 -12.419  1.00  0.00    -0.550 OA
ATOM     14  O   UNL     1     -22.622 -14.794 -11.824  1.00  0.00    -0.550 OA
ENDBRANCH  11  12
ENDBRANCH  10  11
ENDBRANCH   9  10
ENDBRANCH   8   9
ENDBRANCH   7   8
ENDBRANCH   6   7
ENDBRANCH   5   6
ENDBRANCH   4   5
ENDBRANCH   3   4
ENDBRANCH   2   3
ENDBRANCH   1   2
BRANCH   1  15
ATOM     15  C   UNL     1     -16.109 -14.418 -21.874  1.00  0.00     0.000 C 
BRANCH  15  16
ATOM     16  C   UNL     1     -16.254 -13.122 -22.696  1.00  0.00     0.000 C 
BRANCH  16  17
ATOM     17  C   UNL     1     -15.009 -12.214 -22.709  1.00  0.00     0.000 C 
BRANCH  17  18
ATOM     18  C   UNL     1     -14.262 -12.160 -24.054  1.00  0.00    -0.000 C 
BRANCH  18  19
ATOM     19  C   UNL     1     -13.865 -10.729 -24.456  1.00  0.00    -0.000 C 
BRANCH  19  20
ATOM     20  C   UNL     1     -13.907  -9.753 -23.269  1.00  0.00    -0.000 C 
BRANCH  20  21
ATOM     21  C   UNL     1     -14.682  -8.468 -23.591  1.00  0.00    -0.000 C 
BRANCH  21  22
ATOM     22  C   UNL     1     -14.321  -7.348 -22.604  1.00  0.00    -0.000 C 
BRANCH  22  23
ATOM     23  C   UNL     1     -13.062  -7.667 -21.782  1.00  0.00    -0.000 C 
BRANCH  23  24
ATOM     24  C   UNL     1     -13.297  -7.535 -20.268  1.00  0.00    -0.000 C 
BRANCH  24  25
ATOM     25  C   UNL     1     -12.386  -8.462 -19.448  1.00  0.00    -0.003 C 
ATOM     26  C   UNL     1     -12.799  -8.546 -17.979  1.00  0.00     0.004 C 
ENDBRANCH  24  25
ENDBRANCH  23  24
ENDBRANCH  22  23
ENDBRANCH  21  22
ENDBRANCH  20  21
ENDBRANCH  19  20
ENDBRANCH  18  19
ENDBRANCH  17  18
ENDBRANCH  16  17
ENDBRANCH  15  16
ENDBRANCH   1  15
TORSDOF 22
ENDMDL
MODEL 3
REMARK VINA RESULT:    23.263      0.780      1.173
REMARK INTER + INTRA:          52.117
REMARK INTER:                  53.055
REMARK INTRA:                  -0.939
REMARK UNBOUND:                -1.066
REMARK SMILES CCCCCCCCCCCCCCCCCCCCCCCC(=O)[O-]
REMARK SMILES IDX 13 1 14 2 15 3 16 4 17 5 18 6 19 7 20 8 21 9 22 10 23 11
REMARK SMILES IDX 24 12 25 13 26 14 12 15 11 16 10 17 9 18 8 19 7 20 6 21 5 22
REMARK SMILES IDX 4 23 3 24 2 25 1 26
REMARK H PARENT
REMARK Flexibility Score: inf
ROOT
ATOM      1  C   UNL     1     -17.070 -14.609 -20.662  1.00  0.00     0.000 C 
ENDROOT
BRANCH   1   2
ATOM      2  C   UNL     1     -16.031 -13.795 -21.455  1.00  0.00     0.000 C 
BRANCH   2   3
ATOM      3  C   UNL     1     -16.472 -13.510 -22.897  1.00  0.00     0.000 C 
BRANCH   3   4
ATOM      4  C   UNL     1     -15.350 -12.825 -23.688  1.00  0.00     0.000 C 
BRANCH   4   5
ATOM      5  C   UNL     1     -14.636 -11.771 -22.828  1.00  0.00     0.000 C 
BRANCH   5   6
ATOM      6  C   UNL     1     -13.837 -10.761 -23.667  1.00  0.00     0.000 C 
BRANCH   6   7
ATOM      7  C   UNL     1     -14.278  -9.308 -23.421  1.00  0.00     0.000 C 
BRANCH   7   8
ATOM      8  C   UNL     1     -13.286  -8.532 -22.539  1.00  0.00     0.000 C 
BRANCH   8   9
ATOM      9  C   UNL     1     -13.925  -7.304 -21.869  1.00  0.00     0.000 C 
BRANCH   9  10
ATOM     10  C   UNL     1     -13.455  -7.106 -20.417  1.00  0.00     0.006 C 
BRANCH  10  11
ATOM     11  C   UNL     1     -12.469  -8.177 -19.922  1.00  0.00     0.053 C 
BRANCH  11  12
ATOM     12  C   UNL     1     -12.615  -8.445 -18.456  1.00  0.00     0.041 C 
ATOM     13  O   UNL     1     -13.365  -9.371 -18.052  1.00  0.00    -0.550 OA
ATOM     14  O   UNL     1     -11.885  -7.701 -17.537  1.00  0.00    -0.550 OA
ENDBRANCH  11  12
ENDBRANCH  10  11
ENDBRANCH   9  10
ENDBRANCH   8   9
ENDBRANCH   7   8
ENDBRANCH   6   7
ENDBRANCH   5   6
ENDBRANCH   4   5
ENDBRANCH   3   4
ENDBRANCH   2   3
ENDBRANCH   1   2
BRANCH   1  15
ATOM     15  C   UNL     1     -16.510 -15.361 -19.438  1.00  0.00     0.000 C 
BRANCH  15  16
ATOM     16  C   UNL     1     -17.467 -15.455 -18.233  1.00  0.00     0.000 C 
BRANCH  16  17
ATOM     17  C   UNL     1     -16.793 -15.789 -16.888  1.00  0.00     0.000 C 
BRANCH  17  18
ATOM     18  C   UNL     1     -17.750 -15.857 -15.684  1.00  0.00    -0.000 C 
BRANCH  18  19
ATOM     19  C   UNL     1     -18.441 -17.224 -15.550  1.00  0.00    -0.000 C 
BRANCH  19  20
ATOM     20  C   UNL     1     -19.754 -17.298 -16.347  1.00  0.00    -0.000 C 
BRANCH  20  21
ATOM     21  C   UNL     1     -20.695 -18.395 -15.829  1.00  0.00    -0.000 C 
BRANCH  21  22
ATOM     22  C   UNL     1     -21.820 -17.793 -14.974  1.00  0.00    -0.000 C 
BRANCH  22  23
ATOM     23  C   UNL     1     -21.814 -16.256 -14.986  1.00  0.00    -0.000 C 
BRANCH  23  24
ATOM     24  C   UNL     1     -23.207 -15.659 -14.718  1.00  0.00    -0.000 C 
BRANCH  24  25
ATOM     25  C   UNL     1     -23.225 -14.736 -13.490  1.00  0.00    -0.003 C 
ATOM     26  C   UNL     1     -24.400 -15.022 -12.554  1.00  0.00     0.004 C 
ENDBRANCH  24  25
ENDBRANCH  23  24
ENDBRANCH  22  23
ENDBRANCH  21  22
ENDBRANCH  20  21
ENDBRANCH  19  20
ENDBRANCH  18  19
ENDBRANCH  17  18
ENDBRANCH  16  17
ENDBRANCH  15  16
ENDBRANCH   1  15
TORSDOF 22
ENDMDL
MODEL 4
REMARK VINA RESULT:    23.297      3.793     11.439
REMARK INTER + INTRA:          52.194
REMARK INTER:                  53.336
REMARK INTRA:                  -1.142
REMARK UNBOUND:                -1.066
REMARK SMILES CCCCCCCCCCCCCCCCCCCCCCCC(=O)[O-]
REMARK SMILES IDX 13 1 14 2 15 3 16 4 17 5 18 6 19 7 20 8 21 9 22 10 23 11
REMARK SMILES IDX 24 12 25 13 26 14 12 15 11 16 10 17 9 18 8 19 7 20 6 21 5 22
REMARK SMILES IDX 4 23 3 24 2 25 1 26
REMARK H PARENT
REMARK Flexibility Score: inf
ROOT
ATOM      1  C   UNL     1     -16.001 -14.465 -20.196  1.00  0.00     0.000 C 
ENDROOT
BRANCH   1   2
ATOM      2  C   UNL     1     -16.276 -15.896 -19.699  1.00  0.00     0.000 C 
BRANCH   2   3
ATOM      3  C   UNL     1     -17.349 -15.951 -18.603  1.00  0.00     0.000 C 
BRANCH   3   4
ATOM      4  C   UNL     1     -16.776 -15.502 -17.252  1.00  0.00     0.000 C 
BRANCH   4   5
ATOM      5  C   UNL     1     -17.383 -16.318 -16.100  1.00  0.00     0.000 C 
BRANCH   5   6
ATOM      6  C   UNL     1     -18.915 -16.413 -16.180  1.00  0.00     0.000 C 
BRANCH   6   7
ATOM      7  C   UNL     1     -19.423 -17.862 -16.088  1.00  0.00     0.000 C 
BRANCH   7   8
ATOM      8  C   UNL     1     -20.958 -17.949 -16.105  1.00  0.00     0.000 C 
BRANCH   8   9
ATOM      9  C   UNL     1     -21.575 -17.782 -14.705  1.00  0.00     0.000 C 
BRANCH   9  10
ATOM     10  C   UNL     1     -22.245 -16.410 -14.510  1.00  0.00     0.006 C 
BRANCH  10  11
ATOM     11  C   UNL     1     -22.933 -16.233 -13.147  1.00  0.00     0.053 C 
BRANCH  11  12
ATOM     12  C   UNL     1     -23.938 -15.122 -13.161  1.00  0.00     0.041 C 
ATOM     13  O   UNL     1     -23.784 -14.118 -12.418  1.00  0.00    -0.550 OA
ATOM     14  O   UNL     1     -25.020 -15.175 -14.030  1.00  0.00    -0.550 OA
ENDBRANCH  11  12
ENDBRANCH  10  11
ENDBRANCH   9  10
ENDBRANCH   8   9
ENDBRANCH   7   8
ENDBRANCH   6   7
ENDBRANCH   5   6
ENDBRANCH   4   5
ENDBRANCH   3   4
ENDBRANCH   2   3
ENDBRANCH   1   2
BRANCH   1  15
ATOM     15  C   UNL     1     -16.856 -14.018 -21.398  1.00  0.00     0.000 C 
BRANCH  15  16
ATOM     16  C   UNL     1     -16.058 -13.590 -22.646  1.00  0.00     0.000 C 
BRANCH  16  17
ATOM     17  C   UNL     1     -15.338 -12.232 -22.525  1.00  0.00     0.000 C 
BRANCH  17  18
ATOM     18  C   UNL     1     -14.337 -11.928 -23.654  1.00  0.00    -0.000 C 
BRANCH  18  19
ATOM     19  C   UNL     1     -13.652 -10.561 -23.490  1.00  0.00    -0.000 C 
BRANCH  19  20
ATOM     20  C   UNL     1     -14.642  -9.391 -23.615  1.00  0.00    -0.000 C 
BRANCH  20  21
ATOM     21  C   UNL     1     -14.158  -8.130 -22.884  1.00  0.00    -0.000 C 
BRANCH  21  22
ATOM     22  C   UNL     1     -12.910  -8.431 -22.041  1.00  0.00    -0.000 C 
BRANCH  22  23
ATOM     23  C   UNL     1     -12.993  -7.836 -20.627  1.00  0.00    -0.000 C 
BRANCH  23  24
ATOM     24  C   UNL     1     -12.108  -8.589 -19.617  1.00  0.00    -0.000 C 
BRANCH  24  25
ATOM     25  C   UNL     1     -12.726  -8.633 -18.211  1.00  0.00    -0.003 C 
ATOM     26  C   UNL     1     -14.056  -7.883 -18.128  1.00  0.00     0.004 C 
ENDBRANCH  24  25
ENDBRANCH  23  24
ENDBRANCH  22  23
ENDBRANCH  21  22
ENDBRANCH  20  21
ENDBRANCH  19  20
ENDBRANCH  18  19
ENDBRANCH  17  18
ENDBRANCH  16  17
ENDBRANCH  15  16
ENDBRANCH   1  15
TORSDOF 22
ENDMDL
MODEL 5
REMARK VINA RESULT:    23.969      0.948      1.795
REMARK INTER + INTRA:          53.730
REMARK INTER:                  53.921
REMARK INTRA:                  -0.191
REMARK UNBOUND:                -1.066
REMARK SMILES CCCCCCCCCCCCCCCCCCCCCCCC(=O)[O-]
REMARK SMILES IDX 13 1 14 2 15 3 16 4 17 5 18 6 19 7 20 8 21 9 22 10 23 11
REMARK SMILES IDX 24 12 25 13 26 14 12 15 11 16 10 17 9 18 8 19 7 20 6 21 5 22
REMARK SMILES IDX 4 23 3 24 2 25 1 26
REMARK H PARENT
REMARK Flexibility Score: inf
ROOT
ATOM      1  C   UNL     1     -16.566 -13.575 -22.121  1.00  0.00     0.000 C 
ENDROOT
BRANCH   1   2
ATOM      2  C   UNL     1     -15.835 -13.079 -23.382  1.00  0.00     0.000 C 
BRANCH   2   3
ATOM      3  C   UNL     1     -14.602 -12.224 -23.059  1.00  0.00     0.000 C 
BRANCH   3   4
ATOM      4  C   UNL     1     -13.948 -11.698 -24.343  1.00  0.00     0.000 C 
BRANCH   4   5
ATOM      5  C   UNL     1     -13.884 -10.163 -24.338  1.00  0.00     0.000 C 
BRANCH   5   6
ATOM      6  C   UNL     1     -14.688  -9.538 -23.186  1.00  0.00     0.000 C 
BRANCH   6   7
ATOM      7  C   UNL     1     -14.543  -8.007 -23.127  1.00  0.00     0.000 C 
BRANCH   7   8
ATOM      8  C   UNL     1     -13.374  -7.562 -22.232  1.00  0.00     0.000 C 
BRANCH   8   9
ATOM      9  C   UNL     1     -12.317  -8.665 -22.046  1.00  0.00     0.000 C 
BRANCH   9  10
ATOM     10  C   UNL     1     -11.988  -8.929 -20.567  1.00  0.00     0.006 C 
BRANCH  10  11
ATOM     11  C   UNL     1     -12.624  -7.927 -19.590  1.00  0.00     0.053 C 
BRANCH  11  12
ATOM     12  C   UNL     1     -13.007  -8.568 -18.292  1.00  0.00     0.041 C 
ATOM     13  O   UNL     1     -12.675  -9.759 -18.050  1.00  0.00    -0.550 OA
ATOM     14  O   UNL     1     -13.691  -7.837 -17.330  1.00  0.00    -0.550 OA
ENDBRANCH  11  12
ENDBRANCH  10  11
ENDBRANCH   9  10
ENDBRANCH   8   9
ENDBRANCH   7   8
ENDBRANCH   6   7
ENDBRANCH   5   6
ENDBRANCH   4   5
ENDBRANCH   3   4
ENDBRANCH   2   3
ENDBRANCH   1   2
BRANCH   1  15
ATOM     15  C   UNL     1     -15.787 -14.605 -21.279  1.00  0.00     0.000 C 
BRANCH  15  16
ATOM     16  C   UNL     1     -16.217 -14.702 -19.802  1.00  0.00     0.000 C 
BRANCH  16  17
ATOM     17  C   UNL     1     -16.766 -16.076 -19.371  1.00  0.00     0.000 C 
BRANCH  17  18
ATOM     18  C   UNL     1     -17.633 -16.057 -18.099  1.00  0.00    -0.000 C 
BRANCH  18  19
ATOM     19  C   UNL     1     -16.846 -15.631 -16.849  1.00  0.00    -0.000 C 
BRANCH  19  20
ATOM     20  C   UNL     1     -16.866 -16.705 -15.749  1.00  0.00    -0.000 C 
BRANCH  20  21
ATOM     21  C   UNL     1     -18.247 -16.846 -15.091  1.00  0.00    -0.000 C 
BRANCH  21  22
ATOM     22  C   UNL     1     -19.352 -16.942 -16.152  1.00  0.00    -0.000 C 
BRANCH  22  23
ATOM     23  C   UNL     1     -20.163 -18.244 -16.047  1.00  0.00    -0.000 C 
BRANCH  23  24
ATOM     24  C   UNL     1     -21.563 -18.021 -15.449  1.00  0.00    -0.000 C 
BRANCH  24  25
ATOM     25  C   UNL     1     -21.648 -16.732 -14.617  1.00  0.00    -0.003 C 
ATOM     26  C   UNL     1     -22.891 -15.902 -14.941  1.00  0.00     0.004 C 
ENDBRANCH  24  25
ENDBRANCH  23  24
ENDBRANCH  22  23
ENDBRANCH  21  22
ENDBRANCH  20  21
ENDBRANCH  19  20
ENDBRANCH  18  19
ENDBRANCH  17  18
ENDBRANCH  16  17
ENDBRANCH  15  16
ENDBRANCH   1  15
TORSDOF 22
ENDMDL
MODEL 6
REMARK VINA RESULT:    24.082      3.714     10.471
REMARK INTER + INTRA:          53.987
REMARK INTER:                  53.688
REMARK INTRA:                   0.300
REMARK UNBOUND:                -1.066
REMARK SMILES CCCCCCCCCCCCCCCCCCCCCCCC(=O)[O-]
REMARK SMILES IDX 13 1 14 2 15 3 16 4 17 5 18 6 19 7 20 8 21 9 22 10 23 11
REMARK SMILES IDX 24 12 25 13 26 14 12 15 11 16 10 17 9 18 8 19 7 20 6 21 5 22
REMARK SMILES IDX 4 23 3 24 2 25 1 26
REMARK H PARENT
REMARK Flexibility Score: inf
ROOT
ATOM      1  C   UNL     1     -16.569 -13.292 -22.262  1.00  0.00     0.000 C 
ENDROOT
BRANCH   1   2
ATOM      2  C   UNL     1     -15.974 -14.116 -21.105  1.00  0.00     0.000 C 
BRANCH   2   3
ATOM      3  C   UNL     1     -17.042 -14.863 -20.294  1.00  0.00     0.000 C 
BRANCH   3   4
ATOM      4  C   UNL     1     -16.403 -15.666 -19.153  1.00  0.00     0.000 C 
BRANCH   4   5
ATOM      5  C   UNL     1     -17.470 -16.161 -18.166  1.00  0.00     0.000 C 
BRANCH   5   6
ATOM      6  C   UNL     1     -17.294 -15.575 -16.756  1.00  0.00     0.000 C 
BRANCH   6   7
ATOM      7  C   UNL     1     -17.721 -16.555 -15.650  1.00  0.00     0.000 C 
BRANCH   7   8
ATOM      8  C   UNL     1     -16.522 -17.263 -14.996  1.00  0.00     0.000 C 
BRANCH   8   9
ATOM      9  C   UNL     1     -16.361 -16.901 -13.510  1.00  0.00     0.000 C 
BRANCH   9  10
ATOM     10  C   UNL     1     -15.517 -15.632 -13.294  1.00  0.00     0.006 C 
BRANCH  10  11
ATOM     11  C   UNL     1     -14.997 -15.457 -11.858  1.00  0.00     0.053 C 
BRANCH  11  12
ATOM     12  C   UNL     1     -16.110 -15.328 -10.865  1.00  0.00     0.041 C 
ATOM     13  O   UNL     1     -16.192 -16.127  -9.896  1.00  0.00    -0.550 OA
ATOM     14  O   UNL     1     -17.033 -14.296 -10.986  1.00  0.00    -0.550 OA
ENDBRANCH  11  12
ENDBRANCH  10  11
ENDBRANCH   9  10
ENDBRANCH   8   9
ENDBRANCH   7   8
ENDBRANCH   6   7
ENDBRANCH   5   6
ENDBRANCH   4   5
ENDBRANCH   3   4
ENDBRANCH   2   3
ENDBRANCH   1   2
BRANCH   1  15
ATOM     15  C   UNL     1     -15.713 -13.260 -23.544  1.00  0.00     0.000 C 
BRANCH  15  16
ATOM     16  C   UNL     1     -14.360 -12.532 -23.409  1.00  0.00     0.000 C 
BRANCH  16  17
ATOM     17  C   UNL     1     -14.243 -11.219 -24.209  1.00  0.00     0.000 C 
BRANCH  17  18
ATOM     18  C   UNL     1     -13.831  -9.991 -23.378  1.00  0.00    -0.000 C 
BRANCH  18  19
ATOM     19  C   UNL     1     -14.505  -8.695 -23.859  1.00  0.00    -0.000 C 
BRANCH  19  20
ATOM     20  C   UNL     1     -14.855  -7.750 -22.698  1.00  0.00    -0.000 C 
BRANCH  20  21
ATOM     21  C   UNL     1     -13.628  -7.378 -21.853  1.00  0.00    -0.000 C 
BRANCH  21  22
ATOM     22  C   UNL     1     -12.546  -8.464 -21.951  1.00  0.00    -0.000 C 
BRANCH  22  23
ATOM     23  C   UNL     1     -12.092  -8.973 -20.573  1.00  0.00    -0.000 C 
BRANCH  23  24
ATOM     24  C   UNL     1     -12.374  -7.962 -19.448  1.00  0.00    -0.000 C 
BRANCH  24  25
ATOM     25  C   UNL     1     -12.760  -8.645 -18.127  1.00  0.00    -0.003 C 
ATOM     26  C   UNL     1     -14.180  -8.299 -17.677  1.00  0.00     0.004 C 
ENDBRANCH  24  25
ENDBRANCH  23  24
ENDBRANCH  22  23
ENDBRANCH  21  22
ENDBRANCH  20  21
ENDBRANCH  19  20
ENDBRANCH  18  19
ENDBRANCH  17  18
ENDBRANCH  16  17
ENDBRANCH  15  16
ENDBRANCH   1  15
TORSDOF 22
ENDMDL
MODEL 7
REMARK VINA RESULT:    24.524      1.128      2.897
REMARK INTER + INTRA:          54.999
REMARK INTER:                  55.358
REMARK INTRA:                  -0.360
REMARK UNBOUND:                -1.066
REMARK SMILES CCCCCCCCCCCCCCCCCCCCCCCC(=O)[O-]
REMARK SMILES IDX 13 1 14 2 15 3 16 4 17 5 18 6 19 7 20 8 21 9 22 10 23 11
REMARK SMILES IDX 24 12 25 13 26 14 12 15 11 16 10 17 9 18 8 19 7 20 6 21 5 22
REMARK SMILES IDX 4 23 3 24 2 25 1 26
REMARK H PARENT
REMARK Flexibility Score: inf
ROOT
ATOM      1  C   UNL     1     -17.284 -15.944 -18.277  1.00  0.00     0.000 C 
ENDROOT
BRANCH   1   2
ATOM      2  C   UNL     1     -16.254 -15.465 -19.316  1.00  0.00     0.000 C 
BRANCH   2   3
ATOM      3  C   UNL     1     -16.901 -14.772 -20.523  1.00  0.00     0.000 C 
BRANCH   3   4
ATOM      4  C   UNL     1     -15.833 -14.238 -21.487  1.00  0.00     0.000 C 
BRANCH   4   5
ATOM      5  C   UNL     1     -16.440 -13.229 -22.473  1.00  0.00     0.000 C 
BRANCH   5   6
ATOM      6  C   UNL     1     -15.414 -12.697 -23.487  1.00  0.00     0.000 C 
BRANCH   6   7
ATOM      7  C   UNL     1     -14.319 -11.841 -22.826  1.00  0.00     0.000 C 
BRANCH   7   8
ATOM      8  C   UNL     1     -13.879 -10.663 -23.712  1.00  0.00     0.000 C 
BRANCH   8   9
ATOM      9  C   UNL     1     -14.504  -9.328 -23.273  1.00  0.00     0.000 C 
BRANCH   9  10
ATOM     10  C   UNL     1     -13.450  -8.257 -22.942  1.00  0.00     0.006 C 
BRANCH  10  11
ATOM     11  C   UNL     1     -12.508  -8.636 -21.787  1.00  0.00     0.053 C 
BRANCH  11  12
ATOM     12  C   UNL     1     -12.929  -8.020 -20.489  1.00  0.00     0.041 C 
ATOM     13  O   UNL     1     -13.717  -7.038 -20.479  1.00  0.00    -0.550 OA
ATOM     14  O   UNL     1     -12.487  -8.559 -19.288  1.00  0.00    -0.550 OA
ENDBRANCH  11  12
ENDBRANCH  10  11
ENDBRANCH   9  10
ENDBRANCH   8   9
ENDBRANCH   7   8
ENDBRANCH   6   7
ENDBRANCH   5   6
ENDBRANCH   4   5
ENDBRANCH   3   4
ENDBRANCH   2   3
ENDBRANCH   1   2
BRANCH   1  15
ATOM     15  C   UNL     1     -16.931 -15.618 -16.813  1.00  0.00     0.000 C 
BRANCH  15  16
ATOM     16  C   UNL     1     -18.116 -15.663 -15.828  1.00  0.00     0.000 C 
BRANCH  16  17
ATOM     17  C   UNL     1     -18.656 -17.073 -15.520  1.00  0.00     0.000 C 
BRANCH  17  18
ATOM     18  C   UNL     1     -19.564 -17.671 -16.609  1.00  0.00    -0.000 C 
BRANCH  18  19
ATOM     19  C   UNL     1     -20.717 -18.507 -16.029  1.00  0.00    -0.000 C 
BRANCH  19  20
ATOM     20  C   UNL     1     -21.439 -17.790 -14.876  1.00  0.00    -0.000 C 
BRANCH  20  21
ATOM     21  C   UNL     1     -22.035 -16.441 -15.303  1.00  0.00    -0.000 C 
BRANCH  21  22
ATOM     22  C   UNL     1     -22.479 -15.626 -14.080  1.00  0.00    -0.000 C 
BRANCH  22  23
ATOM     23  C   UNL     1     -24.002 -15.429 -14.021  1.00  0.00    -0.000 C 
BRANCH  23  24
ATOM     24  C   UNL     1     -24.501 -15.106 -12.601  1.00  0.00    -0.000 C 
BRANCH  24  25
ATOM     25  C   UNL     1     -23.621 -14.066 -11.891  1.00  0.00    -0.003 C 
ATOM     26  C   UNL     1     -22.386 -14.687 -11.236  1.00  0.00     0.004 C 
ENDBRANCH  24  25
ENDBRANCH  23  24
ENDBRANCH  22  23
ENDBRANCH  21  22
ENDBRANCH  20  21
ENDBRANCH  19  20
ENDBRANCH  18  19
ENDBRANCH  17  18
ENDBRANCH  16  17
ENDBRANCH  15  16
ENDBRANCH   1  15
TORSDOF 22
ENDMDL
MODEL 8
REMARK VINA RESULT:    24.565      3.920     10.411
REMARK INTER + INTRA:          55.092
REMARK INTER:                  55.554
REMARK INTRA:                  -0.462
REMARK UNBOUND:                -1.066
REMARK SMILES CCCCCCCCCCCCCCCCCCCCCCCC(=O)[O-]
REMARK SMILES IDX 13 1 14 2 15 3 16 4 17 5 18 6 19 7 20 8 21 9 22 10 23 11
REMARK SMILES IDX 24 12 25 13 26 14 12 15 11 16 10 17 9 18 8 19 7 20 6 21 5 22
REMARK SMILES IDX 4 23 3 24 2 25 1 26
REMARK H PARENT
REMARK Flexibility Score: inf
ROOT
ATOM      1  C   UNL     1     -14.594 -12.208 -22.894  1.00  0.00     0.000 C 
ENDROOT
BRANCH   1   2
ATOM      2  C   UNL     1     -15.643 -13.276 -23.254  1.00  0.00     0.000 C 
BRANCH   2   3
ATOM      3  C   UNL     1     -16.596 -13.592 -22.092  1.00  0.00     0.000 C 
BRANCH   3   4
ATOM      4  C   UNL     1     -15.814 -14.001 -20.837  1.00  0.00     0.000 C 
BRANCH   4   5
ATOM      5  C   UNL     1     -16.312 -15.349 -20.295  1.00  0.00     0.000 C 
BRANCH   5   6
ATOM      6  C   UNL     1     -17.452 -15.196 -19.275  1.00  0.00     0.000 C 
BRANCH   6   7
ATOM      7  C   UNL     1     -17.398 -16.259 -18.164  1.00  0.00     0.000 C 
BRANCH   7   8
ATOM      8  C   UNL     1     -16.785 -15.718 -16.862  1.00  0.00     0.000 C 
BRANCH   8   9
ATOM      9  C   UNL     1     -16.844 -16.738 -15.712  1.00  0.00     0.000 C 
BRANCH   9  10
ATOM     10  C   UNL     1     -18.200 -16.737 -14.984  1.00  0.00     0.006 C 
BRANCH  10  11
ATOM     11  C   UNL     1     -19.412 -16.550 -15.911  1.00  0.00     0.053 C 
BRANCH  11  12
ATOM     12  C   UNL     1     -20.333 -17.731 -15.881  1.00  0.00     0.041 C 
ATOM     13  O   UNL     1     -21.364 -17.714 -15.157  1.00  0.00    -0.550 OA
ATOM     14  O   UNL     1     -20.078 -18.833 -16.687  1.00  0.00    -0.550 OA
ENDBRANCH  11  12
ENDBRANCH  10  11
ENDBRANCH   9  10
ENDBRANCH   8   9
ENDBRANCH   7   8
ENDBRANCH   6   7
ENDBRANCH   5   6
ENDBRANCH   4   5
ENDBRANCH   3   4
ENDBRANCH   2   3
ENDBRANCH   1   2
BRANCH   1  15
ATOM     15  C   UNL     1     -14.222 -11.250 -24.043  1.00  0.00     0.000 C 
BRANCH  15  16
ATOM     16  C   UNL     1     -13.922  -9.800 -23.614  1.00  0.00     0.000 C 
BRANCH  16  17
ATOM     17  C   UNL     1     -15.029  -8.779 -23.945  1.00  0.00     0.000 C 
BRANCH  17  18
ATOM     18  C   UNL     1     -14.753  -7.345 -23.458  1.00  0.00    -0.000 C 
BRANCH  18  19
ATOM     19  C   UNL     1     -14.849  -7.208 -21.929  1.00  0.00    -0.000 C 
BRANCH  19  20
ATOM     20  C   UNL     1     -13.468  -7.090 -21.263  1.00  0.00    -0.000 C 
BRANCH  20  21
ATOM     21  C   UNL     1     -12.550  -8.274 -21.599  1.00  0.00    -0.000 C 
BRANCH  21  22
ATOM     22  C   UNL     1     -12.091  -8.991 -20.321  1.00  0.00    -0.000 C 
BRANCH  22  23
ATOM     23  C   UNL     1     -12.264  -8.126 -19.062  1.00  0.00    -0.000 C 
BRANCH  23  24
ATOM     24  C   UNL     1     -12.599  -8.961 -17.814  1.00  0.00    -0.000 C 
BRANCH  24  25
ATOM     25  C   UNL     1     -14.094  -8.921 -17.463  1.00  0.00    -0.003 C 
ATOM     26  C   UNL     1     -14.745  -7.580 -17.805  1.00  0.00     0.004 C 
ENDBRANCH  24  25
ENDBRANCH  23  24
ENDBRANCH  22  23
ENDBRANCH  21  22
ENDBRANCH  20  21
ENDBRANCH  19  20
ENDBRANCH  18  19
ENDBRANCH  17  18
ENDBRANCH  16  17
ENDBRANCH  15  16
ENDBRANCH   1  15
TORSDOF 22
ENDMDL
MODEL 9
REMARK VINA RESULT:    25.099      5.709     10.459
REMARK INTER + INTRA:          56.313
REMARK INTER:                  54.057
REMARK INTRA:                   2.256
REMARK UNBOUND:                -1.066
REMARK SMILES CCCCCCCCCCCCCCCCCCCCCCCC(=O)[O-]
REMARK SMILES IDX 13 1 14 2 15 3 16 4 17 5 18 6 19 7 20 8 21 9 22 10 23 11
REMARK SMILES IDX 24 12 25 13 26 14 12 15 11 16 10 17 9 18 8 19 7 20 6 21 5 22
REMARK SMILES IDX 4 23 3 24 2 25 1 26
REMARK H PARENT
REMARK Flexibility Score: inf
ROOT
ATOM      1  C   UNL     1     -14.263 -11.811 -23.785  1.00  0.00     0.000 C 
ENDROOT
BRANCH   1   2
ATOM      2  C   UNL     1     -15.251 -11.828 -22.605  1.00  0.00     0.000 C 
BRANCH   2   3
ATOM      3  C   UNL     1     -15.893 -13.204 -22.384  1.00  0.00     0.000 C 
BRANCH   3   4
ATOM      4  C   UNL     1     -16.464 -13.760 -23.695  1.00  0.00     0.000 C 
BRANCH   4   5
ATOM      5  C   UNL     1     -17.992 -13.604 -23.739  1.00  0.00     0.000 C 
BRANCH   5   6
ATOM      6  C   UNL     1     -18.481 -12.897 -25.012  1.00  0.00     0.000 C 
BRANCH   6   7
ATOM      7  C   UNL     1     -19.769 -12.088 -24.781  1.00  0.00     0.000 C 
BRANCH   7   8
ATOM      8  C   UNL     1     -20.907 -12.946 -24.202  1.00  0.00     0.000 C 
BRANCH   8   9
ATOM      9  C   UNL     1     -21.280 -14.127 -25.114  1.00  0.00     0.000 C 
BRANCH   9  10
ATOM     10  C   UNL     1     -22.049 -15.234 -24.370  1.00  0.00     0.006 C 
BRANCH  10  11
ATOM     11  C   UNL     1     -22.980 -14.718 -23.261  1.00  0.00     0.053 C 
BRANCH  11  12
ATOM     12  C   UNL     1     -22.384 -14.889 -21.898  1.00  0.00     0.041 C 
ATOM     13  O   UNL     1     -21.675 -13.977 -21.396  1.00  0.00    -0.550 OA
ATOM     14  O   UNL     1     -22.649 -16.037 -21.162  1.00  0.00    -0.550 OA
ENDBRANCH  11  12
ENDBRANCH  10  11
ENDBRANCH   9  10
ENDBRANCH   8   9
ENDBRANCH   7   8
ENDBRANCH   6   7
ENDBRANCH   5   6
ENDBRANCH   4   5
ENDBRANCH   3   4
ENDBRANCH   2   3
ENDBRANCH   1   2
BRANCH   1  15
ATOM     15  C   UNL     1     -13.956 -10.412 -24.357  1.00  0.00     0.000 C 
BRANCH  15  16
ATOM     16  C   UNL     1     -14.257  -9.237 -23.405  1.00  0.00     0.000 C 
BRANCH  16  17
ATOM     17  C   UNL     1     -15.362  -8.275 -23.885  1.00  0.00     0.000 C 
BRANCH  17  18
ATOM     18  C   UNL     1     -14.856  -6.926 -24.425  1.00  0.00    -0.000 C 
BRANCH  18  19
ATOM     19  C   UNL     1     -13.737  -6.321 -23.561  1.00  0.00    -0.000 C 
BRANCH  19  20
ATOM     20  C   UNL     1     -13.894  -6.667 -22.071  1.00  0.00    -0.000 C 
BRANCH  20  21
ATOM     21  C   UNL     1     -13.441  -8.099 -21.749  1.00  0.00    -0.000 C 
BRANCH  21  22
ATOM     22  C   UNL     1     -12.323  -8.096 -20.696  1.00  0.00    -0.000 C 
BRANCH  22  23
ATOM     23  C   UNL     1     -12.800  -7.582 -19.328  1.00  0.00    -0.000 C 
BRANCH  23  24
ATOM     24  C   UNL     1     -12.350  -8.487 -18.168  1.00  0.00    -0.000 C 
BRANCH  24  25
ATOM     25  C   UNL     1     -13.514  -9.281 -17.556  1.00  0.00    -0.003 C 
ATOM     26  C   UNL     1     -14.776  -8.435 -17.380  1.00  0.00     0.004 C 
ENDBRANCH  24  25
ENDBRANCH  23  24
ENDBRANCH  22  23
ENDBRANCH  21  22
ENDBRANCH  20  21
ENDBRANCH  19  20
ENDBRANCH  18  19
ENDBRANCH  17  18
ENDBRANCH  16  17
ENDBRANCH  15  16
ENDBRANCH   1  15
TORSDOF 22
ENDMDL
