MODEL 1
REMARK VINA RESULT:    -7.129      0.000      0.000
REMARK INTER + INTRA:          -8.773
REMARK INTER:                  -8.588
REMARK INTRA:                  -0.185
REMARK UNBOUND:                -0.185
REMARK SMILES O=c1c(O)c(-c2ccc(O)c(O)c2)oc2cc(O)cc(O)c12
REMARK SMILES IDX 5 1 3 2 2 3 1 4 22 5 20 6 19 7 17 8 16 9 15 10 14 11 6 12
REMARK SMILES IDX 7 13 8 14 9 15 13 16 11 17 10 18 12 20 4 22 21 24 18 26
REMARK H PARENT 10 19 12 21 4 23 21 25 18 27
REMARK Flexibility Score: inf
ROOT
ATOM      1  C   UNL     1      31.211 -92.246  37.259  1.00  0.00     0.180 A 
ATOM      2  C   UNL     1      29.976 -92.838  36.932  1.00  0.00     0.208 A 
ATOM      3  C   UNL     1      29.834 -94.228  37.065  1.00  0.00     0.238 A 
ATOM      4  O   UNL     1      28.736 -94.771  36.764  1.00  0.00    -0.285 OA
ATOM      5  C   UNL     1      30.916 -94.997  37.541  1.00  0.00     0.111 A 
ATOM      6  C   UNL     1      30.853 -96.401  37.708  1.00  0.00     0.134 A 
ATOM      7  C   UNL     1      31.971 -97.094  38.196  1.00  0.00     0.093 A 
ATOM      8  C   UNL     1      33.147 -96.413  38.520  1.00  0.00     0.123 A 
ATOM      9  C   UNL     1      33.215 -95.025  38.357  1.00  0.00     0.094 A 
ATOM     10  C   UNL     1      32.112 -94.316  37.870  1.00  0.00     0.146 A 
ATOM     11  O   UNL     1      32.205 -93.000  37.720  1.00  0.00    -0.452 OA
ENDROOT
BRANCH   1  12
ATOM     12  C   UNL     1      31.445 -90.789  37.127  1.00  0.00     0.025 A 
ATOM     13  C   UNL     1      32.325 -90.317  36.141  1.00  0.00     0.016 A 
ATOM     14  C   UNL     1      32.545 -88.947  35.984  1.00  0.00     0.051 A 
ATOM     15  C   UNL     1      31.877 -88.027  36.803  1.00  0.00     0.157 A 
ATOM     16  C   UNL     1      30.761 -89.862  37.934  1.00  0.00     0.062 A 
ATOM     17  C   UNL     1      30.979 -88.487  37.779  1.00  0.00     0.158 A 
BRANCH  15  18
ATOM     18  O   UNL     1      32.101 -86.660  36.647  1.00  0.00    -0.504 OA
ATOM     19  H   UNL     1      31.594 -86.113  35.960  1.00  0.00     0.293 HD
ENDBRANCH  15  18
BRANCH  17  20
ATOM     20  O   UNL     1      30.288 -87.596  38.601  1.00  0.00    -0.504 OA
ATOM     21  H   UNL     1      29.660 -87.912  39.329  1.00  0.00     0.293 HD
ENDBRANCH  17  20
ENDBRANCH   1  12
BRANCH   2  22
ATOM     22  O   UNL     1      28.904 -92.048  36.510  1.00  0.00    -0.502 OA
ATOM     23  H   UNL     1      28.067 -91.926  37.067  1.00  0.00     0.293 HD
ENDBRANCH   2  22
BRANCH   6  24
ATOM     24  O   UNL     1      29.693 -97.111  37.395  1.00  0.00    -0.507 OA
ATOM     25  H   UNL     1      28.888 -96.660  36.976  1.00  0.00     0.293 HD
ENDBRANCH   6  24
BRANCH   8  26
ATOM     26  O   UNL     1      34.242 -97.125  39.004  1.00  0.00    -0.508 OA
ATOM     27  H   UNL     1      34.577 -97.001  39.952  1.00  0.00     0.293 HD
ENDBRANCH   8  26
TORSDOF 6
ENDMDL
MODEL 2
REMARK VINA RESULT:    -5.742      1.234      2.968
REMARK INTER + INTRA:          -7.101
REMARK INTER:                  -7.047
REMARK INTRA:                  -0.055
REMARK UNBOUND:                -0.185
REMARK SMILES O=c1c(O)c(-c2ccc(O)c(O)c2)oc2cc(O)cc(O)c12
REMARK SMILES IDX 5 1 3 2 2 3 1 4 22 5 20 6 19 7 17 8 16 9 15 10 14 11 6 12
REMARK SMILES IDX 7 13 8 14 9 15 13 16 11 17 10 18 12 20 4 22 21 24 18 26
REMARK H PARENT 10 19 12 21 4 23 21 25 18 27
REMARK Flexibility Score: inf
ROOT
ATOM      1  C   UNL     1      31.340 -92.091  37.166  1.00  0.00     0.180 A 
ATOM      2  C   UNL     1      32.399 -92.957  37.499  1.00  0.00     0.208 A 
ATOM      3  C   UNL     1      32.131 -94.324  37.665  1.00  0.00     0.238 A 
ATOM      4  O   UNL     1      33.070 -95.108  37.973  1.00  0.00    -0.285 OA
ATOM      5  C   UNL     1      30.819 -94.806  37.476  1.00  0.00     0.111 A 
ATOM      6  C   UNL     1      30.467 -96.169  37.619  1.00  0.00     0.134 A 
ATOM      7  C   UNL     1      29.139 -96.570  37.405  1.00  0.00     0.093 A 
ATOM      8  C   UNL     1      28.161 -95.639  37.050  1.00  0.00     0.123 A 
ATOM      9  C   UNL     1      28.504 -94.289  36.907  1.00  0.00     0.094 A 
ATOM     10  C   UNL     1      29.820 -93.869  37.118  1.00  0.00     0.146 A 
ATOM     11  O   UNL     1      30.118 -92.582  36.981  1.00  0.00    -0.452 OA
ENDROOT
BRANCH   1  12
ATOM     12  C   UNL     1      31.538 -90.633  36.993  1.00  0.00     0.025 A 
ATOM     13  C   UNL     1      32.462 -90.170  36.044  1.00  0.00     0.016 A 
ATOM     14  C   UNL     1      32.650 -88.799  35.849  1.00  0.00     0.051 A 
ATOM     15  C   UNL     1      31.907 -87.872  36.591  1.00  0.00     0.157 A 
ATOM     16  C   UNL     1      30.779 -89.700  37.722  1.00  0.00     0.062 A 
ATOM     17  C   UNL     1      30.964 -88.326  37.528  1.00  0.00     0.158 A 
BRANCH  15  18
ATOM     18  O   UNL     1      32.098 -86.505  36.396  1.00  0.00    -0.504 OA
ATOM     19  H   UNL     1      31.398 -85.825  36.672  1.00  0.00     0.293 HD
ENDBRANCH  15  18
BRANCH  17  20
ATOM     20  O   UNL     1      30.198 -87.428  38.272  1.00  0.00    -0.504 OA
ATOM     21  H   UNL     1      30.320 -86.425  38.197  1.00  0.00     0.293 HD
ENDBRANCH  17  20
ENDBRANCH   1  12
BRANCH   2  22
ATOM     22  O   UNL     1      33.700 -92.463  37.632  1.00  0.00    -0.502 OA
ATOM     23  H   UNL     1      34.510 -93.069  37.664  1.00  0.00     0.293 HD
ENDBRANCH   2  22
BRANCH   6  24
ATOM     24  O   UNL     1      31.420 -97.125  37.971  1.00  0.00    -0.507 OA
ATOM     25  H   UNL     1      31.723 -97.840  37.320  1.00  0.00     0.293 HD
ENDBRANCH   6  24
BRANCH   8  26
ATOM     26  O   UNL     1      26.850 -96.064  36.842  1.00  0.00    -0.508 OA
ATOM     27  H   UNL     1      26.132 -95.926  37.543  1.00  0.00     0.293 HD
ENDBRANCH   8  26
TORSDOF 6
ENDMDL
MODEL 3
REMARK VINA RESULT:    -5.617      9.391     10.833
REMARK INTER + INTRA:          -6.951
REMARK INTER:                  -6.814
REMARK INTRA:                  -0.137
REMARK UNBOUND:                -0.185
REMARK SMILES O=c1c(O)c(-c2ccc(O)c(O)c2)oc2cc(O)cc(O)c12
REMARK SMILES IDX 5 1 3 2 2 3 1 4 22 5 20 6 19 7 17 8 16 9 15 10 14 11 6 12
REMARK SMILES IDX 7 13 8 14 9 15 13 16 11 17 10 18 12 20 4 22 21 24 18 26
REMARK H PARENT 10 19 12 21 4 23 21 25 18 27
REMARK Flexibility Score: inf
ROOT
ATOM      1  C   UNL     1      36.525 -95.394  29.695  1.00  0.00     0.180 A 
ATOM      2  C   UNL     1      37.620 -95.722  28.874  1.00  0.00     0.208 A 
ATOM      3  C   UNL     1      38.910 -95.710  29.426  1.00  0.00     0.238 A 
ATOM      4  O   UNL     1      39.900 -95.991  28.696  1.00  0.00    -0.285 OA
ATOM      5  C   UNL     1      39.082 -95.393  30.789  1.00  0.00     0.111 A 
ATOM      6  C   UNL     1      40.348 -95.363  31.423  1.00  0.00     0.134 A 
ATOM      7  C   UNL     1      40.434 -95.047  32.787  1.00  0.00     0.093 A 
ATOM      8  C   UNL     1      39.285 -94.762  33.528  1.00  0.00     0.123 A 
ATOM      9  C   UNL     1      38.032 -94.790  32.906  1.00  0.00     0.094 A 
ATOM     10  C   UNL     1      37.924 -95.100  31.547  1.00  0.00     0.146 A 
ATOM     11  O   UNL     1      36.723 -95.115  30.981  1.00  0.00    -0.452 OA
ENDROOT
BRANCH   1  12
ATOM     12  C   UNL     1      35.136 -95.365  29.182  1.00  0.00     0.025 A 
ATOM     13  C   UNL     1      34.797 -94.471  28.156  1.00  0.00     0.016 A 
ATOM     14  C   UNL     1      33.498 -94.442  27.642  1.00  0.00     0.051 A 
ATOM     15  C   UNL     1      32.522 -95.317  28.138  1.00  0.00     0.157 A 
ATOM     16  C   UNL     1      34.159 -96.257  29.664  1.00  0.00     0.062 A 
ATOM     17  C   UNL     1      32.857 -96.230  29.150  1.00  0.00     0.158 A 
BRANCH  15  18
ATOM     18  O   UNL     1      31.227 -95.284  27.626  1.00  0.00    -0.504 OA
ATOM     19  H   UNL     1      30.962 -95.828  26.812  1.00  0.00     0.293 HD
ENDBRANCH  15  18
BRANCH  17  20
ATOM     20  O   UNL     1      31.913 -97.124  29.655  1.00  0.00    -0.504 OA
ATOM     21  H   UNL     1      31.499 -97.009  30.572  1.00  0.00     0.293 HD
ENDBRANCH  17  20
ENDBRANCH   1  12
BRANCH   2  22
ATOM     22  O   UNL     1      37.418 -96.081  27.538  1.00  0.00    -0.502 OA
ATOM     23  H   UNL     1      37.247 -95.396  26.812  1.00  0.00     0.293 HD
ENDBRANCH   2  22
BRANCH   6  24
ATOM     24  O   UNL     1      41.515 -95.644  30.712  1.00  0.00    -0.507 OA
ATOM     25  H   UNL     1      41.588 -95.469  29.717  1.00  0.00     0.293 HD
ENDBRANCH   6  24
BRANCH   8  26
ATOM     26  O   UNL     1      39.399 -94.452  34.881  1.00  0.00    -0.508 OA
ATOM     27  H   UNL     1      40.076 -94.916  35.475  1.00  0.00     0.293 HD
ENDBRANCH   8  26
TORSDOF 6
ENDMDL
MODEL 4
REMARK VINA RESULT:    -5.566      9.417     11.086
REMARK INTER + INTRA:          -6.890
REMARK INTER:                  -6.706
REMARK INTRA:                  -0.184
REMARK UNBOUND:                -0.185
REMARK SMILES O=c1c(O)c(-c2ccc(O)c(O)c2)oc2cc(O)cc(O)c12
REMARK SMILES IDX 5 1 3 2 2 3 1 4 22 5 20 6 19 7 17 8 16 9 15 10 14 11 6 12
REMARK SMILES IDX 7 13 8 14 9 15 13 16 11 17 10 18 12 20 4 22 21 24 18 26
REMARK H PARENT 10 19 12 21 4 23 21 25 18 27
REMARK Flexibility Score: inf
ROOT
ATOM      1  C   UNL     1      37.709 -95.534  30.593  1.00  0.00     0.180 A 
ATOM      2  C   UNL     1      38.330 -96.208  29.524  1.00  0.00     0.208 A 
ATOM      3  C   UNL     1      37.632 -96.349  28.315  1.00  0.00     0.238 A 
ATOM      4  O   UNL     1      38.174 -96.961  27.354  1.00  0.00    -0.285 OA
ATOM      5  C   UNL     1      36.340 -95.800  28.187  1.00  0.00     0.111 A 
ATOM      6  C   UNL     1      35.572 -95.895  27.002  1.00  0.00     0.134 A 
ATOM      7  C   UNL     1      34.297 -95.313  26.951  1.00  0.00     0.093 A 
ATOM      8  C   UNL     1      33.776 -94.639  28.058  1.00  0.00     0.123 A 
ATOM      9  C   UNL     1      34.530 -94.542  29.232  1.00  0.00     0.094 A 
ATOM     10  C   UNL     1      35.803 -95.117  29.304  1.00  0.00     0.146 A 
ATOM     11  O   UNL     1      36.495 -95.015  30.432  1.00  0.00    -0.452 OA
ENDROOT
BRANCH   1  12
ATOM     12  C   UNL     1      38.372 -95.361  31.906  1.00  0.00     0.025 A 
ATOM     13  C   UNL     1      39.490 -94.519  32.010  1.00  0.00     0.016 A 
ATOM     14  C   UNL     1      40.118 -94.324  33.242  1.00  0.00     0.051 A 
ATOM     15  C   UNL     1      39.629 -94.957  34.392  1.00  0.00     0.157 A 
ATOM     16  C   UNL     1      37.871 -95.978  33.067  1.00  0.00     0.062 A 
ATOM     17  C   UNL     1      38.497 -95.783  34.304  1.00  0.00     0.158 A 
BRANCH  15  18
ATOM     18  O   UNL     1      40.259 -94.762  35.620  1.00  0.00    -0.504 OA
ATOM     19  H   UNL     1      39.902 -95.179  36.473  1.00  0.00     0.293 HD
ENDBRANCH  15  18
BRANCH  17  20
ATOM     20  O   UNL     1      37.977 -96.416  35.433  1.00  0.00    -0.504 OA
ATOM     21  H   UNL     1      38.536 -97.032  36.010  1.00  0.00     0.293 HD
ENDBRANCH  17  20
ENDBRANCH   1  12
BRANCH   2  22
ATOM     22  O   UNL     1      39.631 -96.700  29.660  1.00  0.00    -0.502 OA
ATOM     23  H   UNL     1      39.940 -97.551  29.205  1.00  0.00     0.293 HD
ENDBRANCH   2  22
BRANCH   6  24
ATOM     24  O   UNL     1      36.064 -96.560  25.878  1.00  0.00    -0.507 OA
ATOM     25  H   UNL     1      36.887 -97.149  25.924  1.00  0.00     0.293 HD
ENDBRANCH   6  24
BRANCH   8  26
ATOM     26  O   UNL     1      32.507 -94.069  27.981  1.00  0.00    -0.508 OA
ATOM     27  H   UNL     1      32.032 -93.952  27.093  1.00  0.00     0.293 HD
ENDBRANCH   8  26
TORSDOF 6
ENDMDL
MODEL 5
REMARK VINA RESULT:    -5.449      9.060     11.298
REMARK INTER + INTRA:          -6.749
REMARK INTER:                  -6.572
REMARK INTRA:                  -0.177
REMARK UNBOUND:                -0.185
REMARK SMILES O=c1c(O)c(-c2ccc(O)c(O)c2)oc2cc(O)cc(O)c12
REMARK SMILES IDX 5 1 3 2 2 3 1 4 22 5 20 6 19 7 17 8 16 9 15 10 14 11 6 12
REMARK SMILES IDX 7 13 8 14 9 15 13 16 11 17 10 18 12 20 4 22 21 24 18 26
REMARK H PARENT 10 19 12 21 4 23 21 25 18 27
REMARK Flexibility Score: inf
ROOT
ATOM      1  C   UNL     1      40.660 -95.644  35.626  1.00  0.00     0.180 A 
ATOM      2  C   UNL     1      41.839 -95.707  34.858  1.00  0.00     0.208 A 
ATOM      3  C   UNL     1      41.745 -95.617  33.461  1.00  0.00     0.238 A 
ATOM      4  O   UNL     1      42.793 -95.684  32.763  1.00  0.00    -0.285 OA
ATOM      5  C   UNL     1      40.482 -95.446  32.857  1.00  0.00     0.111 A 
ATOM      6  C   UNL     1      40.301 -95.342  31.457  1.00  0.00     0.134 A 
ATOM      7  C   UNL     1      39.012 -95.163  30.934  1.00  0.00     0.093 A 
ATOM      8  C   UNL     1      37.903 -95.084  31.780  1.00  0.00     0.123 A 
ATOM      9  C   UNL     1      38.076 -95.186  33.165  1.00  0.00     0.094 A 
ATOM     10  C   UNL     1      39.353 -95.367  33.706  1.00  0.00     0.146 A 
ATOM     11  O   UNL     1      39.488 -95.466  35.023  1.00  0.00    -0.452 OA
ENDROOT
BRANCH   1  12
ATOM     12  C   UNL     1      40.675 -95.750  37.103  1.00  0.00     0.025 A 
ATOM     13  C   UNL     1      41.080 -96.951  37.705  1.00  0.00     0.016 A 
ATOM     14  C   UNL     1      41.122 -97.067  39.097  1.00  0.00     0.051 A 
ATOM     15  C   UNL     1      40.774 -95.978  39.907  1.00  0.00     0.157 A 
ATOM     16  C   UNL     1      40.346 -94.652  37.919  1.00  0.00     0.062 A 
ATOM     17  C   UNL     1      40.389 -94.765  39.314  1.00  0.00     0.158 A 
BRANCH  15  18
ATOM     18  O   UNL     1      40.814 -96.097  41.295  1.00  0.00    -0.504 OA
ATOM     19  H   UNL     1      40.227 -95.529  41.895  1.00  0.00     0.293 HD
ENDBRANCH  15  18
BRANCH  17  20
ATOM     20  O   UNL     1      40.050 -93.658  40.093  1.00  0.00    -0.504 OA
ATOM     21  H   UNL     1      39.538 -93.748  40.962  1.00  0.00     0.293 HD
ENDBRANCH  17  20
ENDBRANCH   1  12
BRANCH   2  22
ATOM     22  O   UNL     1      43.083 -95.828  35.484  1.00  0.00    -0.502 OA
ATOM     23  H   UNL     1      43.327 -95.300  36.313  1.00  0.00     0.293 HD
ENDBRANCH   2  22
BRANCH   6  24
ATOM     24  O   UNL     1      41.388 -95.415  30.584  1.00  0.00    -0.507 OA
ATOM     25  H   UNL     1      42.340 -95.290  30.907  1.00  0.00     0.293 HD
ENDBRANCH   6  24
BRANCH   8  26
ATOM     26  O   UNL     1      36.634 -94.905  31.235  1.00  0.00    -0.508 OA
ATOM     27  H   UNL     1      35.798 -94.997  31.799  1.00  0.00     0.293 HD
ENDBRANCH   8  26
TORSDOF 6
ENDMDL
MODEL 6
REMARK VINA RESULT:    -5.386     15.443     16.999
REMARK INTER + INTRA:          -6.673
REMARK INTER:                  -6.586
REMARK INTRA:                  -0.087
REMARK UNBOUND:                -0.185
REMARK SMILES O=c1c(O)c(-c2ccc(O)c(O)c2)oc2cc(O)cc(O)c12
REMARK SMILES IDX 5 1 3 2 2 3 1 4 22 5 20 6 19 7 17 8 16 9 15 10 14 11 6 12
REMARK SMILES IDX 7 13 8 14 9 15 13 16 11 17 10 18 12 20 4 22 21 24 18 26
REMARK H PARENT 10 19 12 21 4 23 21 25 18 27
REMARK Flexibility Score: inf
ROOT
ATOM      1  C   UNL     1      38.701 -78.383  37.841  1.00  0.00     0.180 A 
ATOM      2  C   UNL     1      39.069 -79.140  38.970  1.00  0.00     0.208 A 
ATOM      3  C   UNL     1      40.422 -79.464  39.157  1.00  0.00     0.238 A 
ATOM      4  O   UNL     1      40.762 -80.150  40.159  1.00  0.00    -0.285 OA
ATOM      5  C   UNL     1      41.383 -79.011  38.229  1.00  0.00     0.111 A 
ATOM      6  C   UNL     1      42.765 -79.290  38.348  1.00  0.00     0.134 A 
ATOM      7  C   UNL     1      43.660 -78.795  37.388  1.00  0.00     0.093 A 
ATOM      8  C   UNL     1      43.201 -78.028  36.314  1.00  0.00     0.123 A 
ATOM      9  C   UNL     1      41.835 -77.749  36.192  1.00  0.00     0.094 A 
ATOM     10  C   UNL     1      40.928 -78.235  37.138  1.00  0.00     0.146 A 
ATOM     11  O   UNL     1      39.636 -77.959  36.995  1.00  0.00    -0.452 OA
ENDROOT
BRANCH   1  12
ATOM     12  C   UNL     1      37.293 -78.016  37.563  1.00  0.00     0.025 A 
ATOM     13  C   UNL     1      36.581 -77.250  38.498  1.00  0.00     0.016 A 
ATOM     14  C   UNL     1      35.259 -76.875  38.247  1.00  0.00     0.051 A 
ATOM     15  C   UNL     1      34.634 -77.250  37.050  1.00  0.00     0.157 A 
ATOM     16  C   UNL     1      36.669 -78.373  36.353  1.00  0.00     0.062 A 
ATOM     17  C   UNL     1      35.345 -77.998  36.098  1.00  0.00     0.158 A 
BRANCH  15  18
ATOM     18  O   UNL     1      33.314 -76.876  36.804  1.00  0.00    -0.504 OA
ATOM     19  H   UNL     1      32.598 -76.950  37.518  1.00  0.00     0.293 HD
ENDBRANCH  15  18
BRANCH  17  20
ATOM     20  O   UNL     1      34.755 -78.373  34.891  1.00  0.00    -0.504 OA
ATOM     21  H   UNL     1      35.270 -78.374  34.018  1.00  0.00     0.293 HD
ENDBRANCH  17  20
ENDBRANCH   1  12
BRANCH   2  22
ATOM     22  O   UNL     1      38.105 -79.534  39.900  1.00  0.00    -0.502 OA
ATOM     23  H   UNL     1      38.162 -79.284  40.880  1.00  0.00     0.293 HD
ENDBRANCH   2  22
BRANCH   6  24
ATOM     24  O   UNL     1      43.256 -80.052  39.409  1.00  0.00    -0.507 OA
ATOM     25  H   UNL     1      44.158 -79.862  39.830  1.00  0.00     0.293 HD
ENDBRANCH   6  24
BRANCH   8  26
ATOM     26  O   UNL     1      44.110 -77.548  35.374  1.00  0.00    -0.508 OA
ATOM     27  H   UNL     1      44.194 -76.558  35.177  1.00  0.00     0.293 HD
ENDBRANCH   8  26
TORSDOF 6
ENDMDL
MODEL 7
REMARK VINA RESULT:    -5.320     15.095     16.731
REMARK INTER + INTRA:          -6.594
REMARK INTER:                  -6.427
REMARK INTRA:                  -0.167
REMARK UNBOUND:                -0.185
REMARK SMILES O=c1c(O)c(-c2ccc(O)c(O)c2)oc2cc(O)cc(O)c12
REMARK SMILES IDX 5 1 3 2 2 3 1 4 22 5 20 6 19 7 17 8 16 9 15 10 14 11 6 12
REMARK SMILES IDX 7 13 8 14 9 15 13 16 11 17 10 18 12 20 4 22 21 24 18 26
REMARK H PARENT 10 19 12 21 4 23 21 25 18 27
REMARK Flexibility Score: inf
ROOT
ATOM      1  C   UNL     1      37.636 -77.932  37.257  1.00  0.00     0.180 A 
ATOM      2  C   UNL     1      38.214 -77.792  35.981  1.00  0.00     0.208 A 
ATOM      3  C   UNL     1      37.375 -77.752  34.857  1.00  0.00     0.238 A 
ATOM      4  O   UNL     1      37.883 -77.639  33.708  1.00  0.00    -0.285 OA
ATOM      5  C   UNL     1      35.977 -77.830  35.027  1.00  0.00     0.111 A 
ATOM      6  C   UNL     1      35.063 -77.793  33.947  1.00  0.00     0.134 A 
ATOM      7  C   UNL     1      33.685 -77.866  34.199  1.00  0.00     0.093 A 
ATOM      8  C   UNL     1      33.205 -77.976  35.506  1.00  0.00     0.123 A 
ATOM      9  C   UNL     1      34.104 -78.014  36.578  1.00  0.00     0.094 A 
ATOM     10  C   UNL     1      35.481 -77.944  36.346  1.00  0.00     0.146 A 
ATOM     11  O   UNL     1      36.313 -77.987  37.381  1.00  0.00    -0.452 OA
ENDROOT
BRANCH   1  12
ATOM     12  C   UNL     1      38.455 -78.001  38.489  1.00  0.00     0.025 A 
ATOM     13  C   UNL     1      39.186 -76.875  38.898  1.00  0.00     0.016 A 
ATOM     14  C   UNL     1      39.948 -76.911  40.068  1.00  0.00     0.051 A 
ATOM     15  C   UNL     1      39.979 -78.070  40.855  1.00  0.00     0.157 A 
ATOM     16  C   UNL     1      38.471 -79.156  39.293  1.00  0.00     0.062 A 
ATOM     17  C   UNL     1      39.233 -79.194  40.467  1.00  0.00     0.158 A 
BRANCH  15  18
ATOM     18  O   UNL     1      40.742 -78.104  42.021  1.00  0.00    -0.504 OA
ATOM     19  H   UNL     1      41.543 -77.496  42.150  1.00  0.00     0.293 HD
ENDBRANCH  15  18
BRANCH  17  20
ATOM     20  O   UNL     1      39.231 -80.358  41.237  1.00  0.00    -0.504 OA
ATOM     21  H   UNL     1      40.087 -80.790  41.561  1.00  0.00     0.293 HD
ENDBRANCH  17  20
ENDBRANCH   1  12
BRANCH   2  22
ATOM     22  O   UNL     1      39.599 -77.667  35.843  1.00  0.00    -0.502 OA
ATOM     23  H   UNL     1      40.024 -77.042  35.169  1.00  0.00     0.293 HD
ENDBRANCH   2  22
BRANCH   6  24
ATOM     24  O   UNL     1      35.511 -77.682  32.629  1.00  0.00    -0.507 OA
ATOM     25  H   UNL     1      36.150 -76.950  32.343  1.00  0.00     0.293 HD
ENDBRANCH   6  24
BRANCH   8  26
ATOM     26  O   UNL     1      31.831 -78.047  35.730  1.00  0.00    -0.508 OA
ATOM     27  H   UNL     1      31.435 -78.715  36.380  1.00  0.00     0.293 HD
ENDBRANCH   8  26
TORSDOF 6
ENDMDL
MODEL 8
REMARK VINA RESULT:    -5.231     15.761     17.763
REMARK INTER + INTRA:          -6.486
REMARK INTER:                  -6.242
REMARK INTRA:                  -0.244
REMARK UNBOUND:                -0.185
REMARK SMILES O=c1c(O)c(-c2ccc(O)c(O)c2)oc2cc(O)cc(O)c12
REMARK SMILES IDX 5 1 3 2 2 3 1 4 22 5 20 6 19 7 17 8 16 9 15 10 14 11 6 12
REMARK SMILES IDX 7 13 8 14 9 15 13 16 11 17 10 18 12 20 4 22 21 24 18 26
REMARK H PARENT 10 19 12 21 4 23 21 25 18 27
REMARK Flexibility Score: inf
ROOT
ATOM      1  C   UNL     1      39.085 -77.754  36.064  1.00  0.00     0.180 A 
ATOM      2  C   UNL     1      37.753 -77.619  35.628  1.00  0.00     0.208 A 
ATOM      3  C   UNL     1      37.503 -77.420  34.262  1.00  0.00     0.238 A 
ATOM      4  O   UNL     1      36.315 -77.287  33.861  1.00  0.00    -0.285 OA
ATOM      5  C   UNL     1      38.582 -77.381  33.354  1.00  0.00     0.111 A 
ATOM      6  C   UNL     1      38.415 -77.189  31.962  1.00  0.00     0.134 A 
ATOM      7  C   UNL     1      39.539 -77.171  31.123  1.00  0.00     0.093 A 
ATOM      8  C   UNL     1      40.823 -77.342  31.646  1.00  0.00     0.123 A 
ATOM      9  C   UNL     1      40.993 -77.531  33.022  1.00  0.00     0.094 A 
ATOM     10  C   UNL     1      39.886 -77.550  33.875  1.00  0.00     0.146 A 
ATOM     11  O   UNL     1      40.077 -77.727  35.177  1.00  0.00    -0.452 OA
ENDROOT
BRANCH   1  12
ATOM     12  C   UNL     1      39.432 -77.947  37.491  1.00  0.00     0.025 A 
ATOM     13  C   UNL     1      39.969 -76.876  38.222  1.00  0.00     0.016 A 
ATOM     14  C   UNL     1      40.283 -77.029  39.575  1.00  0.00     0.051 A 
ATOM     15  C   UNL     1      40.052 -78.252  40.220  1.00  0.00     0.157 A 
ATOM     16  C   UNL     1      39.181 -79.166  38.147  1.00  0.00     0.062 A 
ATOM     17  C   UNL     1      39.494 -79.322  39.502  1.00  0.00     0.158 A 
BRANCH  15  18
ATOM     18  O   UNL     1      40.368 -78.402  41.569  1.00  0.00    -0.504 OA
ATOM     19  H   UNL     1      40.302 -77.628  42.220  1.00  0.00     0.293 HD
ENDBRANCH  15  18
BRANCH  17  20
ATOM     20  O   UNL     1      39.237 -80.547  40.119  1.00  0.00    -0.504 OA
ATOM     21  H   UNL     1      38.303 -80.933  40.181  1.00  0.00     0.293 HD
ENDBRANCH  17  20
ENDBRANCH   1  12
BRANCH   2  22
ATOM     22  O   UNL     1      36.699 -77.711  36.541  1.00  0.00    -0.502 OA
ATOM     23  H   UNL     1      36.572 -78.515  37.144  1.00  0.00     0.293 HD
ENDBRANCH   2  22
BRANCH   6  24
ATOM     24  O   UNL     1      37.146 -77.017  31.406  1.00  0.00    -0.507 OA
ATOM     25  H   UNL     1      37.011 -76.544  30.521  1.00  0.00     0.293 HD
ENDBRANCH   6  24
BRANCH   8  26
ATOM     26  O   UNL     1      41.922 -77.320  30.791  1.00  0.00    -0.508 OA
ATOM     27  H   UNL     1      42.215 -76.469  30.326  1.00  0.00     0.293 HD
ENDBRANCH   8  26
TORSDOF 6
ENDMDL
MODEL 9
REMARK VINA RESULT:    -5.196      8.032     10.708
REMARK INTER + INTRA:          -6.444
REMARK INTER:                  -6.243
REMARK INTRA:                  -0.201
REMARK UNBOUND:                -0.185
REMARK SMILES O=c1c(O)c(-c2ccc(O)c(O)c2)oc2cc(O)cc(O)c12
REMARK SMILES IDX 5 1 3 2 2 3 1 4 22 5 20 6 19 7 17 8 16 9 15 10 14 11 6 12
REMARK SMILES IDX 7 13 8 14 9 15 13 16 11 17 10 18 12 20 4 22 21 24 18 26
REMARK H PARENT 10 19 12 21 4 23 21 25 18 27
REMARK Flexibility Score: inf
ROOT
ATOM      1  C   UNL     1      40.158 -95.531  35.125  1.00  0.00     0.180 A 
ATOM      2  C   UNL     1      41.229 -95.152  35.957  1.00  0.00     0.208 A 
ATOM      3  C   UNL     1      41.064 -95.220  37.349  1.00  0.00     0.238 A 
ATOM      4  O   UNL     1      42.013 -94.873  38.104  1.00  0.00    -0.285 OA
ATOM      5  C   UNL     1      39.844 -95.683  37.885  1.00  0.00     0.111 A 
ATOM      6  C   UNL     1      39.600 -95.785  39.275  1.00  0.00     0.134 A 
ATOM      7  C   UNL     1      38.362 -96.264  39.730  1.00  0.00     0.093 A 
ATOM      8  C   UNL     1      37.368 -96.643  38.825  1.00  0.00     0.123 A 
ATOM      9  C   UNL     1      37.604 -96.543  37.449  1.00  0.00     0.094 A 
ATOM     10  C   UNL     1      38.831 -96.066  36.976  1.00  0.00     0.146 A 
ATOM     11  O   UNL     1      39.027 -95.977  35.666  1.00  0.00    -0.452 OA
ENDROOT
BRANCH   1  12
ATOM     12  C   UNL     1      40.247 -95.470  33.648  1.00  0.00     0.025 A 
ATOM     13  C   UNL     1      39.512 -94.498  32.951  1.00  0.00     0.016 A 
ATOM     14  C   UNL     1      39.597 -94.408  31.560  1.00  0.00     0.051 A 
ATOM     15  C   UNL     1      40.430 -95.280  30.846  1.00  0.00     0.157 A 
ATOM     16  C   UNL     1      41.098 -96.329  32.930  1.00  0.00     0.062 A 
ATOM     17  C   UNL     1      41.187 -96.240  31.536  1.00  0.00     0.158 A 
BRANCH  15  18
ATOM     18  O   UNL     1      40.512 -95.189  29.457  1.00  0.00    -0.504 OA
ATOM     19  H   UNL     1      40.824 -95.970  28.891  1.00  0.00     0.293 HD
ENDBRANCH  15  18
BRANCH  17  20
ATOM     20  O   UNL     1      42.037 -97.112  30.855  1.00  0.00    -0.504 OA
ATOM     21  H   UNL     1      41.969 -97.260  29.856  1.00  0.00     0.293 HD
ENDBRANCH  17  20
ENDBRANCH   1  12
BRANCH   2  22
ATOM     22  O   UNL     1      42.444 -94.744  35.401  1.00  0.00    -0.502 OA
ATOM     23  H   UNL     1      43.050 -94.070  35.853  1.00  0.00     0.293 HD
ENDBRANCH   2  22
BRANCH   6  24
ATOM     24  O   UNL     1      40.572 -95.417  40.206  1.00  0.00    -0.507 OA
ATOM     25  H   UNL     1      41.492 -95.842  40.213  1.00  0.00     0.293 HD
ENDBRANCH   6  24
BRANCH   8  26
ATOM     26  O   UNL     1      36.147 -97.116  39.302  1.00  0.00    -0.508 OA
ATOM     27  H   UNL     1      35.960 -97.188  40.295  1.00  0.00     0.293 HD
ENDBRANCH   8  26
TORSDOF 6
ENDMDL
