MODEL 1
REMARK VINA RESULT:     0.753      0.000      0.000
REMARK INTER + INTRA:           0.814
REMARK INTER:                   0.930
REMARK INTRA:                  -0.115
REMARK UNBOUND:                -0.115
REMARK SMILES CCCCCC(=O)[O-]
REMARK SMILES IDX 4 1 5 2 6 3 7 4 8 5 3 6 2 7 1 8
REMARK H PARENT
REMARK Flexibility Score: inf
ROOT
ATOM      1  C   UNL     1     -36.441  16.156  17.361  1.00  0.00     0.006 C 
ENDROOT
BRANCH   1   2
ATOM      2  C   UNL     1     -37.544  17.143  17.756  1.00  0.00     0.053 C 
BRANCH   2   3
ATOM      3  C   UNL     1     -38.782  16.410  18.162  1.00  0.00     0.041 C 
ATOM      4  O   UNL     1     -38.714  15.450  18.975  1.00  0.00    -0.550 OA
ATOM      5  O   UNL     1     -40.021  16.819  17.684  1.00  0.00    -0.550 OA
ENDBRANCH   2   3
ENDBRANCH   1   2
BRANCH   1   6
ATOM      6  C   UNL     1     -35.116  16.888  17.099  1.00  0.00     0.000 C 
BRANCH   6   7
ATOM      7  C   UNL     1     -35.143  18.347  17.582  1.00  0.00    -0.003 C 
ATOM      8  C   UNL     1     -33.932  18.709  18.440  1.00  0.00     0.004 C 
ENDBRANCH   6   7
ENDBRANCH   1   6
TORSDOF 4
ENDMDL
MODEL 2
REMARK VINA RESULT:     0.847      2.668      4.364
REMARK INTER + INTRA:           0.930
REMARK INTER:                   0.842
REMARK INTRA:                   0.088
REMARK UNBOUND:                -0.115
REMARK SMILES CCCCCC(=O)[O-]
REMARK SMILES IDX 4 1 5 2 6 3 7 4 8 5 3 6 2 7 1 8
REMARK H PARENT
REMARK Flexibility Score: inf
ROOT
ATOM      1  C   UNL     1     -37.485  16.275  17.476  1.00  0.00     0.006 C 
ENDROOT
BRANCH   1   2
ATOM      2  C   UNL     1     -36.789  17.584  17.861  1.00  0.00     0.053 C 
BRANCH   2   3
ATOM      3  C   UNL     1     -35.343  17.541  17.483  1.00  0.00     0.041 C 
ATOM      4  O   UNL     1     -34.922  16.664  16.682  1.00  0.00    -0.550 OA
ATOM      5  O   UNL     1     -34.466  18.500  17.975  1.00  0.00    -0.550 OA
ENDBRANCH   2   3
ENDBRANCH   1   2
BRANCH   1   6
ATOM      6  C   UNL     1     -38.499  15.855  18.551  1.00  0.00     0.000 C 
BRANCH   6   7
ATOM      7  C   UNL     1     -39.875  16.510  18.351  1.00  0.00    -0.003 C 
ATOM      8  C   UNL     1     -39.999  17.227  17.008  1.00  0.00     0.004 C 
ENDBRANCH   6   7
ENDBRANCH   1   6
TORSDOF 4
ENDMDL
MODEL 3
REMARK VINA RESULT:     1.553      2.620      4.272
REMARK INTER + INTRA:           1.801
REMARK INTER:                   1.957
REMARK INTRA:                  -0.156
REMARK UNBOUND:                -0.115
REMARK SMILES CCCCCC(=O)[O-]
REMARK SMILES IDX 4 1 5 2 6 3 7 4 8 5 3 6 2 7 1 8
REMARK H PARENT
REMARK Flexibility Score: inf
ROOT
ATOM      1  C   UNL     1     -37.061  16.444  17.068  1.00  0.00     0.006 C 
ENDROOT
BRANCH   1   2
ATOM      2  C   UNL     1     -35.584  16.616  17.431  1.00  0.00     0.053 C 
BRANCH   2   3
ATOM      3  C   UNL     1     -35.303  18.029  17.831  1.00  0.00     0.041 C 
ATOM      4  O   UNL     1     -36.227  18.886  17.826  1.00  0.00    -0.550 OA
ATOM      5  O   UNL     1     -34.032  18.392  18.260  1.00  0.00    -0.550 OA
ENDBRANCH   2   3
ENDBRANCH   1   2
BRANCH   1   6
ATOM      6  C   UNL     1     -37.849  15.841  18.241  1.00  0.00     0.000 C 
BRANCH   6   7
ATOM      7  C   UNL     1     -39.253  16.449  18.384  1.00  0.00    -0.003 C 
ATOM      8  C   UNL     1     -39.709  17.187  17.126  1.00  0.00     0.004 C 
ENDBRANCH   6   7
ENDBRANCH   1   6
TORSDOF 4
ENDMDL
MODEL 4
REMARK VINA RESULT:     2.033      0.867      1.694
REMARK INTER + INTRA:           2.393
REMARK INTER:                   2.192
REMARK INTRA:                   0.201
REMARK UNBOUND:                -0.115
REMARK SMILES CCCCCC(=O)[O-]
REMARK SMILES IDX 4 1 5 2 6 3 7 4 8 5 3 6 2 7 1 8
REMARK H PARENT
REMARK Flexibility Score: inf
ROOT
ATOM      1  C   UNL     1     -36.865  17.718  17.734  1.00  0.00     0.006 C 
ENDROOT
BRANCH   1   2
ATOM      2  C   UNL     1     -37.339  16.262  17.752  1.00  0.00     0.053 C 
BRANCH   2   3
ATOM      3  C   UNL     1     -38.743  16.173  18.258  1.00  0.00     0.041 C 
ATOM      4  O   UNL     1     -39.016  15.441  19.246  1.00  0.00    -0.550 OA
ATOM      5  O   UNL     1     -39.744  16.939  17.673  1.00  0.00    -0.550 OA
ENDBRANCH   2   3
ENDBRANCH   1   2
BRANCH   1   6
ATOM      6  C   UNL     1     -35.331  17.796  17.745  1.00  0.00     0.000 C 
BRANCH   6   7
ATOM      7  C   UNL     1     -34.673  16.580  17.074  1.00  0.00    -0.003 C 
ATOM      8  C   UNL     1     -34.974  16.494  15.579  1.00  0.00     0.004 C 
ENDBRANCH   6   7
ENDBRANCH   1   6
TORSDOF 4
ENDMDL
MODEL 5
REMARK VINA RESULT:     2.128      3.410      4.182
REMARK INTER + INTRA:           2.510
REMARK INTER:                   2.568
REMARK INTRA:                  -0.058
REMARK UNBOUND:                -0.115
REMARK SMILES CCCCCC(=O)[O-]
REMARK SMILES IDX 4 1 5 2 6 3 7 4 8 5 3 6 2 7 1 8
REMARK H PARENT
REMARK Flexibility Score: inf
ROOT
ATOM      1  C   UNL     1     -34.340  15.079  17.731  1.00  0.00     0.006 C 
ENDROOT
BRANCH   1   2
ATOM      2  C   UNL     1     -34.938  16.113  16.773  1.00  0.00     0.053 C 
BRANCH   2   3
ATOM      3  C   UNL     1     -35.636  17.193  17.535  1.00  0.00     0.041 C 
ATOM      4  O   UNL     1     -34.994  18.198  17.942  1.00  0.00    -0.550 OA
ATOM      5  O   UNL     1     -37.005  17.118  17.754  1.00  0.00    -0.550 OA
ENDBRANCH   2   3
ENDBRANCH   1   2
BRANCH   1   6
ATOM      6  C   UNL     1     -33.921  13.807  16.977  1.00  0.00     0.000 C 
BRANCH   6   7
ATOM      7  C   UNL     1     -32.724  13.101  17.631  1.00  0.00    -0.003 C 
ATOM      8  C   UNL     1     -33.030  12.599  19.041  1.00  0.00     0.004 C 
ENDBRANCH   6   7
ENDBRANCH   1   6
TORSDOF 4
ENDMDL
MODEL 6
REMARK VINA RESULT:     2.745      4.096      5.073
REMARK INTER + INTRA:           3.272
REMARK INTER:                   3.322
REMARK INTRA:                  -0.050
REMARK UNBOUND:                -0.115
REMARK SMILES CCCCCC(=O)[O-]
REMARK SMILES IDX 4 1 5 2 6 3 7 4 8 5 3 6 2 7 1 8
REMARK H PARENT
REMARK Flexibility Score: inf
ROOT
ATOM      1  C   UNL     1     -34.378  15.122  17.761  1.00  0.00     0.006 C 
ENDROOT
BRANCH   1   2
ATOM      2  C   UNL     1     -34.011  13.843  17.002  1.00  0.00     0.053 C 
BRANCH   2   3
ATOM      3  C   UNL     1     -32.854  13.158  17.657  1.00  0.00     0.041 C 
ATOM      4  O   UNL     1     -31.747  13.073  17.062  1.00  0.00    -0.550 OA
ATOM      5  O   UNL     1     -32.982  12.657  18.946  1.00  0.00    -0.550 OA
ENDBRANCH   2   3
ENDBRANCH   1   2
BRANCH   1   6
ATOM      6  C   UNL     1     -35.128  16.105  16.850  1.00  0.00     0.000 C 
BRANCH   6   7
ATOM      7  C   UNL     1     -35.866  17.197  17.640  1.00  0.00    -0.003 C 
ATOM      8  C   UNL     1     -35.024  18.456  17.837  1.00  0.00     0.004 C 
ENDBRANCH   6   7
ENDBRANCH   1   6
TORSDOF 4
ENDMDL
