MODEL 1
REMARK VINA RESULT:    -5.126      0.000      0.000
REMARK INTER + INTRA:          -5.977
REMARK INTER:                  -5.875
REMARK INTRA:                  -0.103
REMARK UNBOUND:                -0.103
REMARK SMILES COc1cc(C(=O)[O-])ccc1O
REMARK SMILES IDX 5 1 9 2 4 3 10 4 3 5 11 6 6 7 7 8 8 9 2 10 1 11 12 12
REMARK H PARENT 12 13
REMARK Flexibility Score: inf
ROOT
ATOM      1  C   UNL     1      22.393  30.109  29.747  1.00  0.00     0.001 A 
ATOM      2  C   UNL     1      21.343  29.175  29.765  1.00  0.00     0.014 A 
ATOM      3  C   UNL     1      22.086  31.481  29.760  1.00  0.00     0.060 A 
ATOM      4  C   UNL     1      20.016  29.604  29.796  1.00  0.00     0.051 A 
ATOM      5  C   UNL     1      20.747  31.921  29.793  1.00  0.00     0.161 A 
ATOM      6  C   UNL     1      19.712  30.968  29.810  1.00  0.00     0.157 A 
ENDROOT
BRANCH   1   7
ATOM      7  C   UNL     1      23.802  29.657  29.713  1.00  0.00     0.072 C 
ATOM      8  O   UNL     1      24.109  28.489  30.071  1.00  0.00    -0.545 OA
ATOM      9  O   UNL     1      24.808  30.516  29.285  1.00  0.00    -0.545 OA
ENDBRANCH   1   7
BRANCH   5  10
ATOM     10  O   UNL     1      20.411  33.284  29.807  1.00  0.00    -0.493 OA
ATOM     11  C   UNL     1      20.489  34.124  30.953  1.00  0.00     0.278 C 
ENDBRANCH   5  10
BRANCH   6  12
ATOM     12  O   UNL     1      18.373  31.359  29.842  1.00  0.00    -0.504 OA
ATOM     13  H   UNL     1      17.634  30.729  30.128  1.00  0.00     0.293 HD
ENDBRANCH   6  12
TORSDOF 3
ENDMDL
MODEL 2
REMARK VINA RESULT:    -4.913      1.110      2.814
REMARK INTER + INTRA:          -5.734
REMARK INTER:                  -5.640
REMARK INTRA:                  -0.094
REMARK UNBOUND:                -0.103
REMARK SMILES COc1cc(C(=O)[O-])ccc1O
REMARK SMILES IDX 5 1 9 2 4 3 10 4 3 5 11 6 6 7 7 8 8 9 2 10 1 11 12 12
REMARK H PARENT 12 13
REMARK Flexibility Score: inf
ROOT
ATOM      1  C   UNL     1      22.947  30.448  29.598  1.00  0.00     0.001 A 
ATOM      2  C   UNL     1      22.739  31.821  29.381  1.00  0.00     0.014 A 
ATOM      3  C   UNL     1      21.839  29.621  29.852  1.00  0.00     0.060 A 
ATOM      4  C   UNL     1      21.450  32.354  29.417  1.00  0.00     0.051 A 
ATOM      5  C   UNL     1      20.534  30.154  29.888  1.00  0.00     0.161 A 
ATOM      6  C   UNL     1      20.349  31.531  29.669  1.00  0.00     0.157 A 
ENDROOT
BRANCH   1   7
ATOM      7  C   UNL     1      24.313  29.879  29.562  1.00  0.00     0.072 C 
ATOM      8  O   UNL     1      25.311  30.621  29.357  1.00  0.00    -0.545 OA
ATOM      9  O   UNL     1      24.516  28.517  29.754  1.00  0.00    -0.545 OA
ENDBRANCH   1   7
BRANCH   5  10
ATOM     10  O   UNL     1      19.409  29.352  30.139  1.00  0.00    -0.493 OA
ATOM     11  C   UNL     1      19.034  28.220  29.362  1.00  0.00     0.278 C 
ENDBRANCH   5  10
BRANCH   6  12
ATOM     12  O   UNL     1      19.075  32.101  29.696  1.00  0.00    -0.504 OA
ATOM     13  H   UNL     1      18.647  32.505  28.873  1.00  0.00     0.293 HD
ENDBRANCH   6  12
TORSDOF 3
ENDMDL
MODEL 3
REMARK VINA RESULT:    -4.831      2.082      3.780
REMARK INTER + INTRA:          -5.640
REMARK INTER:                  -5.546
REMARK INTRA:                  -0.094
REMARK UNBOUND:                -0.103
REMARK SMILES COc1cc(C(=O)[O-])ccc1O
REMARK SMILES IDX 5 1 9 2 4 3 10 4 3 5 11 6 6 7 7 8 8 9 2 10 1 11 12 12
REMARK H PARENT 12 13
REMARK Flexibility Score: inf
ROOT
ATOM      1  C   UNL     1      19.600  29.499  29.481  1.00  0.00     0.001 A 
ATOM      2  C   UNL     1      20.949  29.249  29.784  1.00  0.00     0.014 A 
ATOM      3  C   UNL     1      19.183  30.824  29.265  1.00  0.00     0.060 A 
ATOM      4  C   UNL     1      21.860  30.301  29.870  1.00  0.00     0.051 A 
ATOM      5  C   UNL     1      20.099  31.892  29.350  1.00  0.00     0.161 A 
ATOM      6  C   UNL     1      21.445  31.619  29.655  1.00  0.00     0.157 A 
ENDROOT
BRANCH   1   7
ATOM      7  C   UNL     1      18.630  28.384  29.390  1.00  0.00     0.072 C 
ATOM      8  O   UNL     1      17.875  28.111  30.361  1.00  0.00    -0.545 OA
ATOM      9  O   UNL     1      18.537  27.623  28.230  1.00  0.00    -0.545 OA
ENDBRANCH   1   7
BRANCH   5  10
ATOM     10  O   UNL     1      19.711  33.225  29.139  1.00  0.00    -0.493 OA
ATOM     11  C   UNL     1      19.354  33.773  27.875  1.00  0.00     0.278 C 
ENDBRANCH   5  10
BRANCH   6  12
ATOM     12  O   UNL     1      22.386  32.645  29.749  1.00  0.00    -0.504 OA
ATOM     13  H   UNL     1      23.281  32.516  30.203  1.00  0.00     0.293 HD
ENDBRANCH   6  12
TORSDOF 3
ENDMDL
MODEL 4
REMARK VINA RESULT:    -4.808      1.869      4.404
REMARK INTER + INTRA:          -5.613
REMARK INTER:                  -5.518
REMARK INTRA:                  -0.095
REMARK UNBOUND:                -0.103
REMARK SMILES COc1cc(C(=O)[O-])ccc1O
REMARK SMILES IDX 5 1 9 2 4 3 10 4 3 5 11 6 6 7 7 8 8 9 2 10 1 11 12 12
REMARK H PARENT 12 13
REMARK Flexibility Score: inf
ROOT
ATOM      1  C   UNL     1      19.732  29.542  29.196  1.00  0.00     0.001 A 
ATOM      2  C   UNL     1      19.480  30.847  28.740  1.00  0.00     0.014 A 
ATOM      3  C   UNL     1      20.986  29.244  29.757  1.00  0.00     0.060 A 
ATOM      4  C   UNL     1      20.462  31.833  28.844  1.00  0.00     0.051 A 
ATOM      5  C   UNL     1      21.982  30.237  29.865  1.00  0.00     0.161 A 
ATOM      6  C   UNL     1      21.709  31.537  29.402  1.00  0.00     0.157 A 
ENDROOT
BRANCH   1   7
ATOM      7  C   UNL     1      18.693  28.493  29.088  1.00  0.00     0.072 C 
ATOM      8  O   UNL     1      18.535  27.856  28.013  1.00  0.00    -0.545 OA
ATOM      9  O   UNL     1      17.875  28.196  30.172  1.00  0.00    -0.545 OA
ENDBRANCH   1   7
BRANCH   5  10
ATOM     10  O   UNL     1      23.243  29.968  30.421  1.00  0.00    -0.493 OA
ATOM     11  C   UNL     1      24.285  29.261  29.758  1.00  0.00     0.278 C 
ENDBRANCH   5  10
BRANCH   6  12
ATOM     12  O   UNL     1      22.665  32.549  29.489  1.00  0.00    -0.504 OA
ATOM     13  H   UNL     1      22.412  33.529  29.516  1.00  0.00     0.293 HD
ENDBRANCH   6  12
TORSDOF 3
ENDMDL
MODEL 5
REMARK VINA RESULT:    -4.706     13.180     15.521
REMARK INTER + INTRA:          -5.496
REMARK INTER:                  -5.416
REMARK INTRA:                  -0.081
REMARK UNBOUND:                -0.103
REMARK SMILES COc1cc(C(=O)[O-])ccc1O
REMARK SMILES IDX 5 1 9 2 4 3 10 4 3 5 11 6 6 7 7 8 8 9 2 10 1 11 12 12
REMARK H PARENT 12 13
REMARK Flexibility Score: inf
ROOT
ATOM      1  C   UNL     1      26.710  16.694  27.998  1.00  0.00     0.001 A 
ATOM      2  C   UNL     1      26.011  17.913  28.006  1.00  0.00     0.014 A 
ATOM      3  C   UNL     1      28.116  16.713  27.962  1.00  0.00     0.060 A 
ATOM      4  C   UNL     1      26.703  19.124  27.980  1.00  0.00     0.051 A 
ATOM      5  C   UNL     1      28.820  17.934  27.936  1.00  0.00     0.161 A 
ATOM      6  C   UNL     1      28.100  19.143  27.945  1.00  0.00     0.157 A 
ENDROOT
BRANCH   1   7
ATOM      7  C   UNL     1      25.979  15.407  28.025  1.00  0.00     0.072 C 
ATOM      8  O   UNL     1      24.720  15.386  28.076  1.00  0.00    -0.545 OA
ATOM      9  O   UNL     1      26.671  14.202  27.994  1.00  0.00    -0.545 OA
ENDBRANCH   1   7
BRANCH   5  10
ATOM     10  O   UNL     1      30.223  17.983  27.901  1.00  0.00    -0.493 OA
ATOM     11  C   UNL     1      31.073  16.842  27.938  1.00  0.00     0.278 C 
ENDBRANCH   5  10
BRANCH   6  12
ATOM     12  O   UNL     1      28.757  20.373  27.920  1.00  0.00    -0.504 OA
ATOM     13  H   UNL     1      28.404  21.162  27.392  1.00  0.00     0.293 HD
ENDBRANCH   6  12
TORSDOF 3
ENDMDL
MODEL 6
REMARK VINA RESULT:    -4.063     14.695     16.931
REMARK INTER + INTRA:          -4.759
REMARK INTER:                  -4.679
REMARK INTRA:                  -0.081
REMARK UNBOUND:                -0.103
REMARK SMILES COc1cc(C(=O)[O-])ccc1O
REMARK SMILES IDX 5 1 9 2 4 3 10 4 3 5 11 6 6 7 7 8 8 9 2 10 1 11 12 12
REMARK H PARENT 12 13
REMARK Flexibility Score: inf
ROOT
ATOM      1  C   UNL     1      27.986  16.811  28.092  1.00  0.00     0.001 A 
ATOM      2  C   UNL     1      28.357  18.158  27.941  1.00  0.00     0.014 A 
ATOM      3  C   UNL     1      28.991  15.831  28.177  1.00  0.00     0.060 A 
ATOM      4  C   UNL     1      29.703  18.517  27.875  1.00  0.00     0.051 A 
ATOM      5  C   UNL     1      30.353  16.188  28.112  1.00  0.00     0.161 A 
ATOM      6  C   UNL     1      30.702  17.542  27.960  1.00  0.00     0.157 A 
ENDROOT
BRANCH   1   7
ATOM      7  C   UNL     1      26.558  16.427  28.162  1.00  0.00     0.072 C 
ATOM      8  O   UNL     1      26.226  15.224  28.339  1.00  0.00    -0.545 OA
ATOM      9  O   UNL     1      25.562  17.388  28.032  1.00  0.00    -0.545 OA
ENDBRANCH   1   7
BRANCH   5  10
ATOM     10  O   UNL     1      31.378  15.231  28.194  1.00  0.00    -0.493 OA
ATOM     11  C   UNL     1      31.190  13.878  28.594  1.00  0.00     0.278 C 
ENDBRANCH   5  10
BRANCH   6  12
ATOM     12  O   UNL     1      32.038  17.940  27.891  1.00  0.00    -0.504 OA
ATOM     13  H   UNL     1      32.730  17.622  28.557  1.00  0.00     0.293 HD
ENDBRANCH   6  12
TORSDOF 3
ENDMDL
MODEL 7
REMARK VINA RESULT:    -3.836     10.183     11.504
REMARK INTER + INTRA:          -4.500
REMARK INTER:                  -4.403
REMARK INTRA:                  -0.097
REMARK UNBOUND:                -0.103
REMARK SMILES COc1cc(C(=O)[O-])ccc1O
REMARK SMILES IDX 5 1 9 2 4 3 10 4 3 5 11 6 6 7 7 8 8 9 2 10 1 11 12 12
REMARK H PARENT 12 13
REMARK Flexibility Score: inf
ROOT
ATOM      1  C   UNL     1      30.958  26.251  32.211  1.00  0.00     0.001 A 
ATOM      2  C   UNL     1      31.323  24.994  32.723  1.00  0.00     0.014 A 
ATOM      3  C   UNL     1      30.807  26.406  30.822  1.00  0.00     0.060 A 
ATOM      4  C   UNL     1      31.532  23.916  31.863  1.00  0.00     0.051 A 
ATOM      5  C   UNL     1      31.017  25.320  29.948  1.00  0.00     0.161 A 
ATOM      6  C   UNL     1      31.382  24.070  30.481  1.00  0.00     0.157 A 
ENDROOT
BRANCH   1   7
ATOM      7  C   UNL     1      30.735  27.398  33.121  1.00  0.00     0.072 C 
ATOM      8  O   UNL     1      29.789  27.381  33.954  1.00  0.00    -0.545 OA
ATOM      9  O   UNL     1      31.567  28.510  33.071  1.00  0.00    -0.545 OA
ENDBRANCH   1   7
BRANCH   5  10
ATOM     10  O   UNL     1      30.874  25.446  28.557  1.00  0.00    -0.493 OA
ATOM     11  C   UNL     1      29.626  25.513  27.875  1.00  0.00     0.278 C 
ENDBRANCH   5  10
BRANCH   6  12
ATOM     12  O   UNL     1      31.600  22.969  29.653  1.00  0.00    -0.504 OA
ATOM     13  H   UNL     1      31.059  22.811  28.813  1.00  0.00     0.293 HD
ENDBRANCH   6  12
TORSDOF 3
ENDMDL
MODEL 8
REMARK VINA RESULT:    -3.829      9.307     10.984
REMARK INTER + INTRA:          -4.491
REMARK INTER:                  -4.404
REMARK INTRA:                  -0.087
REMARK UNBOUND:                -0.103
REMARK SMILES COc1cc(C(=O)[O-])ccc1O
REMARK SMILES IDX 5 1 9 2 4 3 10 4 3 5 11 6 6 7 7 8 8 9 2 10 1 11 12 12
REMARK H PARENT 12 13
REMARK Flexibility Score: inf
ROOT
ATOM      1  C   UNL     1      31.385  28.022  32.304  1.00  0.00     0.001 A 
ATOM      2  C   UNL     1      32.389  28.904  32.740  1.00  0.00     0.014 A 
ATOM      3  C   UNL     1      30.974  28.068  30.960  1.00  0.00     0.060 A 
ATOM      4  C   UNL     1      32.968  29.810  31.852  1.00  0.00     0.051 A 
ATOM      5  C   UNL     1      31.556  28.982  30.058  1.00  0.00     0.161 A 
ATOM      6  C   UNL     1      32.559  29.855  30.516  1.00  0.00     0.157 A 
ENDROOT
BRANCH   1   7
ATOM      7  C   UNL     1      30.769  27.059  33.244  1.00  0.00     0.072 C 
ATOM      8  O   UNL     1      29.701  27.347  33.847  1.00  0.00    -0.545 OA
ATOM      9  O   UNL     1      31.359  25.822  33.474  1.00  0.00    -0.545 OA
ENDBRANCH   1   7
BRANCH   5  10
ATOM     10  O   UNL     1      31.164  29.049  28.711  1.00  0.00    -0.493 OA
ATOM     11  C   UNL     1      29.840  29.325  28.267  1.00  0.00     0.278 C 
ENDBRANCH   5  10
BRANCH   6  12
ATOM     12  O   UNL     1      33.161  30.775  29.658  1.00  0.00    -0.504 OA
ATOM     13  H   UNL     1      33.053  31.775  29.777  1.00  0.00     0.293 HD
ENDBRANCH   6  12
TORSDOF 3
ENDMDL
