MODEL 1
REMARK VINA RESULT:    -6.578      0.000      0.000
REMARK INTER + INTRA:          -8.120
REMARK INTER:                  -8.117
REMARK INTRA:                  -0.003
REMARK UNBOUND:                -0.003
REMARK SMILES COc1cc(-c2oc3cc(O)cc(O)c3c(=O)c2O)ccc1O
REMARK SMILES IDX 6 1 18 2 16 3 17 4 15 5 13 6 12 7 10 8 9 9 8 10 7 11 5 12
REMARK SMILES IDX 3 13 22 14 4 15 21 16 20 17 2 18 1 19 23 20 19 22 14 24
REMARK SMILES IDX 11 26
REMARK H PARENT 23 21 19 23 14 25 11 27
REMARK Flexibility Score: inf
ROOT
ATOM      1  C   UNL     1      15.450  15.168  11.844  1.00  0.00     0.180 A 
ATOM      2  C   UNL     1      15.815  15.592  10.555  1.00  0.00     0.208 A 
ATOM      3  C   UNL     1      14.853  16.217   9.745  1.00  0.00     0.238 A 
ATOM      4  O   UNL     1      15.171  16.545   8.572  1.00  0.00    -0.285 OA
ATOM      5  C   UNL     1      13.543  16.425  10.240  1.00  0.00     0.111 A 
ATOM      6  C   UNL     1      12.500  17.084   9.522  1.00  0.00     0.134 A 
ATOM      7  C   UNL     1      11.208  17.118  10.059  1.00  0.00     0.093 A 
ATOM      8  C   UNL     1      10.934  16.576  11.314  1.00  0.00     0.123 A 
ATOM      9  C   UNL     1      11.959  15.982  12.051  1.00  0.00     0.094 A 
ATOM     10  C   UNL     1      13.252  15.901  11.527  1.00  0.00     0.146 A 
ATOM     11  O   UNL     1      14.196  15.319  12.255  1.00  0.00    -0.452 OA
ENDROOT
BRANCH   1  12
ATOM     12  C   UNL     1      16.416  14.525  12.764  1.00  0.00     0.025 A 
ATOM     13  C   UNL     1      17.439  14.293  14.973  1.00  0.00     0.161 A 
ATOM     14  C   UNL     1      18.224  13.237  14.491  1.00  0.00     0.157 A 
ATOM     15  C   UNL     1      16.529  14.930  14.106  1.00  0.00     0.062 A 
ATOM     16  C   UNL     1      18.097  12.817  13.160  1.00  0.00     0.051 A 
ATOM     17  C   UNL     1      17.194  13.452  12.306  1.00  0.00     0.016 A 
BRANCH  13  18
ATOM     18  O   UNL     1      17.587  14.677  16.316  1.00  0.00    -0.493 OA
ATOM     19  C   UNL     1      16.560  15.270  17.103  1.00  0.00     0.278 C 
ENDBRANCH  13  18
BRANCH  14  20
ATOM     20  O   UNL     1      19.128  12.605  15.342  1.00  0.00    -0.504 OA
ATOM     21  H   UNL     1      18.897  12.408  16.310  1.00  0.00     0.293 HD
ENDBRANCH  14  20
ENDBRANCH   1  12
BRANCH   2  22
ATOM     22  O   UNL     1      17.107  15.356  10.076  1.00  0.00    -0.502 OA
ATOM     23  H   UNL     1      17.891  15.953  10.309  1.00  0.00     0.293 HD
ENDBRANCH   2  22
BRANCH   6  24
ATOM     24  O   UNL     1      12.687  17.739   8.302  1.00  0.00    -0.507 OA
ATOM     25  H   UNL     1      13.053  18.673   8.201  1.00  0.00     0.293 HD
ENDBRANCH   6  24
BRANCH   8  26
ATOM     26  O   UNL     1       9.639  16.642  11.824  1.00  0.00    -0.508 OA
ATOM     27  H   UNL     1       9.460  16.610  12.821  1.00  0.00     0.293 HD
ENDBRANCH   8  26
TORSDOF 6
ENDMDL
MODEL 2
REMARK VINA RESULT:    -6.522      1.695      6.846
REMARK INTER + INTRA:          -8.051
REMARK INTER:                  -7.726
REMARK INTRA:                  -0.324
REMARK UNBOUND:                -0.003
REMARK SMILES COc1cc(-c2oc3cc(O)cc(O)c3c(=O)c2O)ccc1O
REMARK SMILES IDX 6 1 18 2 16 3 17 4 15 5 13 6 12 7 10 8 9 9 8 10 7 11 5 12
REMARK SMILES IDX 3 13 22 14 4 15 21 16 20 17 2 18 1 19 23 20 19 22 14 24
REMARK SMILES IDX 11 26
REMARK H PARENT 23 21 19 23 14 25 11 27
REMARK Flexibility Score: inf
ROOT
ATOM      1  C   UNL     1      15.972  15.493  11.815  1.00  0.00     0.180 A 
ATOM      2  C   UNL     1      17.044  14.604  11.618  1.00  0.00     0.208 A 
ATOM      3  C   UNL     1      17.709  14.081  12.739  1.00  0.00     0.238 A 
ATOM      4  O   UNL     1      18.702  13.329  12.556  1.00  0.00    -0.285 OA
ATOM      5  C   UNL     1      17.284  14.438  14.041  1.00  0.00     0.111 A 
ATOM      6  C   UNL     1      17.858  13.936  15.247  1.00  0.00     0.134 A 
ATOM      7  C   UNL     1      17.444  14.458  16.479  1.00  0.00     0.093 A 
ATOM      8  C   UNL     1      16.433  15.415  16.552  1.00  0.00     0.123 A 
ATOM      9  C   UNL     1      15.822  15.870  15.382  1.00  0.00     0.094 A 
ATOM     10  C   UNL     1      16.239  15.394  14.136  1.00  0.00     0.146 A 
ATOM     11  O   UNL     1      15.640  15.860  13.047  1.00  0.00    -0.452 OA
ENDROOT
BRANCH   1  12
ATOM     12  C   UNL     1      15.208  16.066  10.684  1.00  0.00     0.025 A 
ATOM     13  C   UNL     1      13.188  16.192   9.311  1.00  0.00     0.161 A 
ATOM     14  C   UNL     1      13.771  17.223   8.561  1.00  0.00     0.157 A 
ATOM     15  C   UNL     1      13.909  15.620  10.378  1.00  0.00     0.062 A 
ATOM     16  C   UNL     1      15.055  17.684   8.879  1.00  0.00     0.051 A 
ATOM     17  C   UNL     1      15.765  17.115   9.937  1.00  0.00     0.016 A 
BRANCH  13  18
ATOM     18  O   UNL     1      11.895  15.765   8.969  1.00  0.00    -0.493 OA
ATOM     19  C   UNL     1      11.436  14.421   9.069  1.00  0.00     0.278 C 
ENDBRANCH  13  18
BRANCH  14  20
ATOM     20  O   UNL     1      13.063  17.790   7.503  1.00  0.00    -0.504 OA
ATOM     21  H   UNL     1      12.054  17.718   7.439  1.00  0.00     0.293 HD
ENDBRANCH  14  20
ENDBRANCH   1  12
BRANCH   2  22
ATOM     22  O   UNL     1      17.462  14.283  10.324  1.00  0.00    -0.502 OA
ATOM     23  H   UNL     1      17.646  13.331  10.032  1.00  0.00     0.293 HD
ENDBRANCH   2  22
BRANCH   6  24
ATOM     24  O   UNL     1      18.811  12.914  15.292  1.00  0.00    -0.507 OA
ATOM     25  H   UNL     1      18.633  11.977  15.620  1.00  0.00     0.293 HD
ENDBRANCH   6  24
BRANCH   8  26
ATOM     26  O   UNL     1      16.035  15.901  17.796  1.00  0.00    -0.508 OA
ATOM     27  H   UNL     1      15.277  16.568  17.887  1.00  0.00     0.293 HD
ENDBRANCH   8  26
TORSDOF 6
ENDMDL
MODEL 3
REMARK VINA RESULT:    -6.421      0.889      2.145
REMARK INTER + INTRA:          -7.925
REMARK INTER:                  -7.766
REMARK INTRA:                  -0.159
REMARK UNBOUND:                -0.003
REMARK SMILES COc1cc(-c2oc3cc(O)cc(O)c3c(=O)c2O)ccc1O
REMARK SMILES IDX 6 1 18 2 16 3 17 4 15 5 13 6 12 7 10 8 9 9 8 10 7 11 5 12
REMARK SMILES IDX 3 13 22 14 4 15 21 16 20 17 2 18 1 19 23 20 19 22 14 24
REMARK SMILES IDX 11 26
REMARK H PARENT 23 21 19 23 14 25 11 27
REMARK Flexibility Score: inf
ROOT
ATOM      1  C   UNL     1      15.451  15.050  11.704  1.00  0.00     0.180 A 
ATOM      2  C   UNL     1      15.791  15.499  10.415  1.00  0.00     0.208 A 
ATOM      3  C   UNL     1      14.821  16.162   9.647  1.00  0.00     0.238 A 
ATOM      4  O   UNL     1      15.114  16.512   8.474  1.00  0.00    -0.285 OA
ATOM      5  C   UNL     1      13.529  16.382  10.181  1.00  0.00     0.111 A 
ATOM      6  C   UNL     1      12.481  17.078   9.507  1.00  0.00     0.134 A 
ATOM      7  C   UNL     1      11.203  17.124  10.079  1.00  0.00     0.093 A 
ATOM      8  C   UNL     1      10.952  16.557  11.327  1.00  0.00     0.123 A 
ATOM      9  C   UNL     1      11.984  15.925  12.022  1.00  0.00     0.094 A 
ATOM     10  C   UNL     1      13.261  15.832  11.462  1.00  0.00     0.146 A 
ATOM     11  O   UNL     1      14.212  15.214  12.151  1.00  0.00    -0.452 OA
ENDROOT
BRANCH   1  12
ATOM     12  C   UNL     1      16.428  14.366  12.582  1.00  0.00     0.025 A 
ATOM     13  C   UNL     1      17.991  12.540  13.030  1.00  0.00     0.161 A 
ATOM     14  C   UNL     1      18.318  13.131  14.258  1.00  0.00     0.157 A 
ATOM     15  C   UNL     1      17.049  13.166  12.191  1.00  0.00     0.062 A 
ATOM     16  C   UNL     1      17.718  14.338  14.640  1.00  0.00     0.051 A 
ATOM     17  C   UNL     1      16.785  14.955  13.804  1.00  0.00     0.016 A 
BRANCH  13  18
ATOM     18  O   UNL     1      18.622  11.336  12.679  1.00  0.00    -0.493 OA
ATOM     19  C   UNL     1      18.330  10.585  11.505  1.00  0.00     0.278 C 
ENDBRANCH  13  18
BRANCH  14  20
ATOM     20  O   UNL     1      19.247  12.514  15.094  1.00  0.00    -0.504 OA
ATOM     21  H   UNL     1      19.456  11.525  15.018  1.00  0.00     0.293 HD
ENDBRANCH  14  20
ENDBRANCH   1  12
BRANCH   2  22
ATOM     22  O   UNL     1      17.066  15.250   9.898  1.00  0.00    -0.502 OA
ATOM     23  H   UNL     1      17.905  15.317  10.460  1.00  0.00     0.293 HD
ENDBRANCH   2  22
BRANCH   6  24
ATOM     24  O   UNL     1      12.648  17.759   8.298  1.00  0.00    -0.507 OA
ATOM     25  H   UNL     1      12.731  17.316   7.396  1.00  0.00     0.293 HD
ENDBRANCH   6  24
BRANCH   8  26
ATOM     26  O   UNL     1       9.672  16.634  11.872  1.00  0.00    -0.508 OA
ATOM     27  H   UNL     1       9.009  15.873  11.780  1.00  0.00     0.293 HD
ENDBRANCH   8  26
TORSDOF 6
ENDMDL
MODEL 4
REMARK VINA RESULT:    -6.420      2.262      3.526
REMARK INTER + INTRA:          -7.924
REMARK INTER:                  -7.752
REMARK INTRA:                  -0.172
REMARK UNBOUND:                -0.003
REMARK SMILES COc1cc(-c2oc3cc(O)cc(O)c3c(=O)c2O)ccc1O
REMARK SMILES IDX 6 1 18 2 16 3 17 4 15 5 13 6 12 7 10 8 9 9 8 10 7 11 5 12
REMARK SMILES IDX 3 13 22 14 4 15 21 16 20 17 2 18 1 19 23 20 19 22 14 24
REMARK SMILES IDX 11 26
REMARK H PARENT 23 21 19 23 14 25 11 27
REMARK Flexibility Score: inf
ROOT
ATOM      1  C   UNL     1      16.389  16.325  12.051  1.00  0.00     0.180 A 
ATOM      2  C   UNL     1      17.636  16.513  11.430  1.00  0.00     0.208 A 
ATOM      3  C   UNL     1      17.676  16.823  10.061  1.00  0.00     0.238 A 
ATOM      4  O   UNL     1      18.796  16.936   9.498  1.00  0.00    -0.285 OA
ATOM      5  C   UNL     1      16.469  16.957   9.334  1.00  0.00     0.111 A 
ATOM      6  C   UNL     1      16.389  17.308   7.953  1.00  0.00     0.134 A 
ATOM      7  C   UNL     1      15.148  17.285   7.305  1.00  0.00     0.093 A 
ATOM      8  C   UNL     1      13.978  16.987   8.001  1.00  0.00     0.123 A 
ATOM      9  C   UNL     1      14.036  16.700   9.365  1.00  0.00     0.094 A 
ATOM     10  C   UNL     1      15.264  16.681  10.032  1.00  0.00     0.146 A 
ATOM     11  O   UNL     1      15.278  16.393  11.327  1.00  0.00    -0.452 OA
ENDROOT
BRANCH   1  12
ATOM     12  C   UNL     1      16.267  16.021  13.495  1.00  0.00     0.025 A 
ATOM     13  C   UNL     1      16.733  14.600  15.430  1.00  0.00     0.161 A 
ATOM     14  C   UNL     1      16.058  15.512  16.253  1.00  0.00     0.157 A 
ATOM     15  C   UNL     1      16.841  14.863  14.050  1.00  0.00     0.062 A 
ATOM     16  C   UNL     1      15.504  16.676  15.706  1.00  0.00     0.051 A 
ATOM     17  C   UNL     1      15.614  16.933  14.338  1.00  0.00     0.016 A 
BRANCH  13  18
ATOM     18  O   UNL     1      17.284  13.450  16.018  1.00  0.00    -0.493 OA
ATOM     19  C   UNL     1      18.191  12.567  15.366  1.00  0.00     0.278 C 
ENDBRANCH  13  18
BRANCH  14  20
ATOM     20  O   UNL     1      15.944  15.255  17.618  1.00  0.00    -0.504 OA
ATOM     21  H   UNL     1      16.329  14.414  18.034  1.00  0.00     0.293 HD
ENDBRANCH  14  20
ENDBRANCH   1  12
BRANCH   2  22
ATOM     22  O   UNL     1      18.817  16.353  12.161  1.00  0.00    -0.502 OA
ATOM     23  H   UNL     1      18.829  16.301  13.172  1.00  0.00     0.293 HD
ENDBRANCH   2  22
BRANCH   6  24
ATOM     24  O   UNL     1      17.486  17.711   7.186  1.00  0.00    -0.507 OA
ATOM     25  H   UNL     1      17.446  18.382   6.434  1.00  0.00     0.293 HD
ENDBRANCH   6  24
BRANCH   8  26
ATOM     26  O   UNL     1      12.758  16.989   7.327  1.00  0.00    -0.508 OA
ATOM     27  H   UNL     1      12.702  16.805   6.332  1.00  0.00     0.293 HD
ENDBRANCH   8  26
TORSDOF 6
ENDMDL
MODEL 5
REMARK VINA RESULT:    -6.355      3.986      9.140
REMARK INTER + INTRA:          -7.845
REMARK INTER:                  -7.503
REMARK INTRA:                  -0.342
REMARK UNBOUND:                -0.003
REMARK SMILES COc1cc(-c2oc3cc(O)cc(O)c3c(=O)c2O)ccc1O
REMARK SMILES IDX 6 1 18 2 16 3 17 4 15 5 13 6 12 7 10 8 9 9 8 10 7 11 5 12
REMARK SMILES IDX 3 13 22 14 4 15 21 16 20 17 2 18 1 19 23 20 19 22 14 24
REMARK SMILES IDX 11 26
REMARK H PARENT 23 21 19 23 14 25 11 27
REMARK Flexibility Score: inf
ROOT
ATOM      1  C   UNL     1      17.124  13.547  17.513  1.00  0.00     0.180 A 
ATOM      2  C   UNL     1      18.013  13.887  18.547  1.00  0.00     0.208 A 
ATOM      3  C   UNL     1      18.263  12.953  19.565  1.00  0.00     0.238 A 
ATOM      4  O   UNL     1      19.017  13.283  20.518  1.00  0.00    -0.285 OA
ATOM      5  C   UNL     1      17.636  11.684  19.527  1.00  0.00     0.111 A 
ATOM      6  C   UNL     1      17.848  10.646  20.483  1.00  0.00     0.134 A 
ATOM      7  C   UNL     1      17.075   9.480  20.418  1.00  0.00     0.093 A 
ATOM      8  C   UNL     1      16.147   9.287  19.398  1.00  0.00     0.123 A 
ATOM      9  C   UNL     1      15.972  10.270  18.423  1.00  0.00     0.094 A 
ATOM     10  C   UNL     1      16.703  11.460  18.481  1.00  0.00     0.146 A 
ATOM     11  O   UNL     1      16.501  12.375  17.540  1.00  0.00    -0.452 OA
ENDROOT
BRANCH   1  12
ATOM     12  C   UNL     1      16.829  14.470  16.393  1.00  0.00     0.025 A 
ATOM     13  C   UNL     1      17.096  15.161  14.062  1.00  0.00     0.161 A 
ATOM     14  C   UNL     1      16.198  16.215  14.280  1.00  0.00     0.157 A 
ATOM     15  C   UNL     1      17.403  14.285  15.122  1.00  0.00     0.062 A 
ATOM     16  C   UNL     1      15.608  16.387  15.538  1.00  0.00     0.051 A 
ATOM     17  C   UNL     1      15.916  15.517  16.585  1.00  0.00     0.016 A 
BRANCH  13  18
ATOM     18  O   UNL     1      17.657  15.014  12.784  1.00  0.00    -0.493 OA
ATOM     19  C   UNL     1      18.554  13.974  12.411  1.00  0.00     0.278 C 
ENDBRANCH  13  18
BRANCH  14  20
ATOM     20  O   UNL     1      15.892  17.086  13.236  1.00  0.00    -0.504 OA
ATOM     21  H   UNL     1      15.667  16.746  12.308  1.00  0.00     0.293 HD
ENDBRANCH  14  20
ENDBRANCH   1  12
BRANCH   2  22
ATOM     22  O   UNL     1      18.604  15.153  18.579  1.00  0.00    -0.502 OA
ATOM     23  H   UNL     1      19.302  15.445  17.906  1.00  0.00     0.293 HD
ENDBRANCH   2  22
BRANCH   6  24
ATOM     24  O   UNL     1      18.816  10.698  21.489  1.00  0.00    -0.507 OA
ATOM     25  H   UNL     1      19.176   9.896  21.983  1.00  0.00     0.293 HD
ENDBRANCH   6  24
BRANCH   8  26
ATOM     26  O   UNL     1      15.406   8.107  19.356  1.00  0.00    -0.508 OA
ATOM     27  H   UNL     1      15.263   7.542  20.185  1.00  0.00     0.293 HD
ENDBRANCH   8  26
TORSDOF 6
ENDMDL
MODEL 6
REMARK VINA RESULT:    -6.274      1.366      2.417
REMARK INTER + INTRA:          -7.744
REMARK INTER:                  -7.477
REMARK INTRA:                  -0.267
REMARK UNBOUND:                -0.003
REMARK SMILES COc1cc(-c2oc3cc(O)cc(O)c3c(=O)c2O)ccc1O
REMARK SMILES IDX 6 1 18 2 16 3 17 4 15 5 13 6 12 7 10 8 9 9 8 10 7 11 5 12
REMARK SMILES IDX 3 13 22 14 4 15 21 16 20 17 2 18 1 19 23 20 19 22 14 24
REMARK SMILES IDX 11 26
REMARK H PARENT 23 21 19 23 14 25 11 27
REMARK Flexibility Score: inf
ROOT
ATOM      1  C   UNL     1      15.670  15.641  13.440  1.00  0.00     0.180 A 
ATOM      2  C   UNL     1      16.469  16.105  12.380  1.00  0.00     0.208 A 
ATOM      3  C   UNL     1      15.846  16.592  11.220  1.00  0.00     0.238 A 
ATOM      4  O   UNL     1      16.567  16.955  10.254  1.00  0.00    -0.285 OA
ATOM      5  C   UNL     1      14.433  16.625  11.140  1.00  0.00     0.111 A 
ATOM      6  C   UNL     1      13.696  17.134  10.029  1.00  0.00     0.134 A 
ATOM      7  C   UNL     1      12.302  16.997  10.004  1.00  0.00     0.093 A 
ATOM      8  C   UNL     1      11.615  16.429  11.075  1.00  0.00     0.123 A 
ATOM      9  C   UNL     1      12.321  15.980  12.192  1.00  0.00     0.094 A 
ATOM     10  C   UNL     1      13.715  16.071  12.231  1.00  0.00     0.146 A 
ATOM     11  O   UNL     1      14.349  15.623  13.308  1.00  0.00    -0.452 OA
ENDROOT
BRANCH   1  12
ATOM     12  C   UNL     1      16.254  15.137  14.704  1.00  0.00     0.025 A 
ATOM     13  C   UNL     1      17.538  13.473  15.954  1.00  0.00     0.161 A 
ATOM     14  C   UNL     1      17.395  14.245  17.115  1.00  0.00     0.157 A 
ATOM     15  C   UNL     1      16.971  13.927  14.747  1.00  0.00     0.062 A 
ATOM     16  C   UNL     1      16.701  15.461  17.069  1.00  0.00     0.051 A 
ATOM     17  C   UNL     1      16.141  15.907  15.871  1.00  0.00     0.016 A 
BRANCH  13  18
ATOM     18  O   UNL     1      18.250  12.266  16.038  1.00  0.00    -0.493 OA
ATOM     19  C   UNL     1      19.062  11.734  14.997  1.00  0.00     0.278 C 
ENDBRANCH  13  18
BRANCH  14  20
ATOM     20  O   UNL     1      17.950  13.799  18.313  1.00  0.00    -0.504 OA
ATOM     21  H   UNL     1      18.865  13.363  18.344  1.00  0.00     0.293 HD
ENDBRANCH  14  20
ENDBRANCH   1  12
BRANCH   2  22
ATOM     22  O   UNL     1      17.863  16.043  12.471  1.00  0.00    -0.502 OA
ATOM     23  H   UNL     1      18.344  15.301  12.964  1.00  0.00     0.293 HD
ENDBRANCH   2  22
BRANCH   6  24
ATOM     24  O   UNL     1      14.277  17.803   8.948  1.00  0.00    -0.507 OA
ATOM     25  H   UNL     1      14.819  17.361   8.222  1.00  0.00     0.293 HD
ENDBRANCH   6  24
BRANCH   8  26
ATOM     26  O   UNL     1      10.227  16.322  11.022  1.00  0.00    -0.508 OA
ATOM     27  H   UNL     1       9.641  17.124  10.817  1.00  0.00     0.293 HD
ENDBRANCH   8  26
TORSDOF 6
ENDMDL
MODEL 7
REMARK VINA RESULT:    -6.269      2.344      7.373
REMARK INTER + INTRA:          -7.738
REMARK INTER:                  -7.354
REMARK INTRA:                  -0.383
REMARK UNBOUND:                -0.003
REMARK SMILES COc1cc(-c2oc3cc(O)cc(O)c3c(=O)c2O)ccc1O
REMARK SMILES IDX 6 1 18 2 16 3 17 4 15 5 13 6 12 7 10 8 9 9 8 10 7 11 5 12
REMARK SMILES IDX 3 13 22 14 4 15 21 16 20 17 2 18 1 19 23 20 19 22 14 24
REMARK SMILES IDX 11 26
REMARK H PARENT 23 21 19 23 14 25 11 27
REMARK Flexibility Score: inf
ROOT
ATOM      1  C   UNL     1      13.860  13.907  11.883  1.00  0.00     0.180 A 
ATOM      2  C   UNL     1      13.564  12.560  11.613  1.00  0.00     0.208 A 
ATOM      3  C   UNL     1      14.332  11.558  12.229  1.00  0.00     0.238 A 
ATOM      4  O   UNL     1      14.098  10.355  11.941  1.00  0.00    -0.285 OA
ATOM      5  C   UNL     1      15.373  11.914  13.119  1.00  0.00     0.111 A 
ATOM      6  C   UNL     1      16.188  10.982  13.829  1.00  0.00     0.134 A 
ATOM      7  C   UNL     1      17.273  11.447  14.582  1.00  0.00     0.093 A 
ATOM      8  C   UNL     1      17.534  12.810  14.702  1.00  0.00     0.123 A 
ATOM      9  C   UNL     1      16.709  13.735  14.061  1.00  0.00     0.094 A 
ATOM     10  C   UNL     1      15.640  13.300  13.273  1.00  0.00     0.146 A 
ATOM     11  O   UNL     1      14.885  14.211  12.671  1.00  0.00    -0.452 OA
ENDROOT
BRANCH   1  12
ATOM     12  C   UNL     1      13.079  15.018  11.292  1.00  0.00     0.025 A 
ATOM     13  C   UNL     1      12.616  16.570   9.460  1.00  0.00     0.161 A 
ATOM     14  C   UNL     1      11.534  17.091  10.184  1.00  0.00     0.157 A 
ATOM     15  C   UNL     1      13.382  15.527  10.016  1.00  0.00     0.062 A 
ATOM     16  C   UNL     1      11.217  16.570  11.445  1.00  0.00     0.051 A 
ATOM     17  C   UNL     1      11.979  15.537  11.992  1.00  0.00     0.016 A 
BRANCH  13  18
ATOM     18  O   UNL     1      12.895  17.111   8.195  1.00  0.00    -0.493 OA
ATOM     19  C   UNL     1      14.204  17.365   7.697  1.00  0.00     0.278 C 
ENDBRANCH  13  18
BRANCH  14  20
ATOM     20  O   UNL     1      10.775  18.125   9.640  1.00  0.00    -0.504 OA
ATOM     21  H   UNL     1       9.766  18.061   9.568  1.00  0.00     0.293 HD
ENDBRANCH  14  20
ENDBRANCH   1  12
BRANCH   2  22
ATOM     22  O   UNL     1      12.546  12.229  10.714  1.00  0.00    -0.502 OA
ATOM     23  H   UNL     1      12.684  12.231   9.711  1.00  0.00     0.293 HD
ENDBRANCH   2  22
BRANCH   6  24
ATOM     24  O   UNL     1      15.958   9.604  13.850  1.00  0.00    -0.507 OA
ATOM     25  H   UNL     1      16.332   8.948  13.181  1.00  0.00     0.293 HD
ENDBRANCH   6  24
BRANCH   8  26
ATOM     26  O   UNL     1      18.614  13.237  15.473  1.00  0.00    -0.508 OA
ATOM     27  H   UNL     1      18.633  14.160  15.894  1.00  0.00     0.293 HD
ENDBRANCH   8  26
TORSDOF 6
ENDMDL
MODEL 8
REMARK VINA RESULT:    -6.193      3.366      4.986
REMARK INTER + INTRA:          -7.644
REMARK INTER:                  -7.245
REMARK INTRA:                  -0.399
REMARK UNBOUND:                -0.003
REMARK SMILES COc1cc(-c2oc3cc(O)cc(O)c3c(=O)c2O)ccc1O
REMARK SMILES IDX 6 1 18 2 16 3 17 4 15 5 13 6 12 7 10 8 9 9 8 10 7 11 5 12
REMARK SMILES IDX 3 13 22 14 4 15 21 16 20 17 2 18 1 19 23 20 19 22 14 24
REMARK SMILES IDX 11 26
REMARK H PARENT 23 21 19 23 14 25 11 27
REMARK Flexibility Score: inf
ROOT
ATOM      1  C   UNL     1      13.858  13.852  11.084  1.00  0.00     0.180 A 
ATOM      2  C   UNL     1      12.643  14.538  10.910  1.00  0.00     0.208 A 
ATOM      3  C   UNL     1      12.599  15.632  10.031  1.00  0.00     0.238 A 
ATOM      4  O   UNL     1      11.522  16.276   9.921  1.00  0.00    -0.285 OA
ATOM      5  C   UNL     1      13.764  16.017   9.325  1.00  0.00     0.111 A 
ATOM      6  C   UNL     1      13.823  17.084   8.380  1.00  0.00     0.134 A 
ATOM      7  C   UNL     1      15.059  17.459   7.838  1.00  0.00     0.093 A 
ATOM      8  C   UNL     1      16.225  16.766   8.158  1.00  0.00     0.123 A 
ATOM      9  C   UNL     1      16.170  15.683   9.036  1.00  0.00     0.094 A 
ATOM     10  C   UNL     1      14.957  15.307   9.620  1.00  0.00     0.146 A 
ATOM     11  O   UNL     1      14.949  14.278  10.458  1.00  0.00    -0.452 OA
ENDROOT
BRANCH   1  12
ATOM     12  C   UNL     1      13.977  12.674  11.974  1.00  0.00     0.025 A 
ATOM     13  C   UNL     1      13.849  10.263  12.361  1.00  0.00     0.161 A 
ATOM     14  C   UNL     1      14.270  10.461  13.683  1.00  0.00     0.157 A 
ATOM     15  C   UNL     1      13.711  11.375  11.507  1.00  0.00     0.062 A 
ATOM     16  C   UNL     1      14.557  11.752  14.144  1.00  0.00     0.051 A 
ATOM     17  C   UNL     1      14.419  12.850  13.294  1.00  0.00     0.016 A 
BRANCH  13  18
ATOM     18  O   UNL     1      13.581   8.953  11.934  1.00  0.00    -0.493 OA
ATOM     19  C   UNL     1      12.539   8.595  11.033  1.00  0.00     0.278 C 
ENDBRANCH  13  18
BRANCH  14  20
ATOM     20  O   UNL     1      14.405   9.366  14.535  1.00  0.00    -0.504 OA
ATOM     21  H   UNL     1      13.626   9.023  15.086  1.00  0.00     0.293 HD
ENDBRANCH  14  20
ENDBRANCH   1  12
BRANCH   2  22
ATOM     22  O   UNL     1      11.510  14.156  11.634  1.00  0.00    -0.502 OA
ATOM     23  H   UNL     1      10.809  14.820  11.937  1.00  0.00     0.293 HD
ENDBRANCH   2  22
BRANCH   6  24
ATOM     24  O   UNL     1      12.703  17.784   7.922  1.00  0.00    -0.507 OA
ATOM     25  H   UNL     1      11.878  17.355   7.531  1.00  0.00     0.293 HD
ENDBRANCH   6  24
BRANCH   8  26
ATOM     26  O   UNL     1      17.435  17.158   7.588  1.00  0.00    -0.508 OA
ATOM     27  H   UNL     1      17.914  18.000   7.887  1.00  0.00     0.293 HD
ENDBRANCH   8  26
TORSDOF 6
ENDMDL
MODEL 9
REMARK VINA RESULT:    -6.171      3.159      4.396
REMARK INTER + INTRA:          -7.617
REMARK INTER:                  -7.270
REMARK INTRA:                  -0.347
REMARK UNBOUND:                -0.003
REMARK SMILES COc1cc(-c2oc3cc(O)cc(O)c3c(=O)c2O)ccc1O
REMARK SMILES IDX 6 1 18 2 16 3 17 4 15 5 13 6 12 7 10 8 9 9 8 10 7 11 5 12
REMARK SMILES IDX 3 13 22 14 4 15 21 16 20 17 2 18 1 19 23 20 19 22 14 24
REMARK SMILES IDX 11 26
REMARK H PARENT 23 21 19 23 14 25 11 27
REMARK Flexibility Score: inf
ROOT
ATOM      1  C   UNL     1      13.837  13.704  11.017  1.00  0.00     0.180 A 
ATOM      2  C   UNL     1      12.627  14.414  10.939  1.00  0.00     0.208 A 
ATOM      3  C   UNL     1      12.558  15.555  10.122  1.00  0.00     0.238 A 
ATOM      4  O   UNL     1      11.488  16.218  10.099  1.00  0.00    -0.285 OA
ATOM      5  C   UNL     1      13.695  15.961   9.382  1.00  0.00     0.111 A 
ATOM      6  C   UNL     1      13.726  17.077   8.493  1.00  0.00     0.134 A 
ATOM      7  C   UNL     1      14.941  17.464   7.913  1.00  0.00     0.093 A 
ATOM      8  C   UNL     1      16.109  16.738   8.139  1.00  0.00     0.123 A 
ATOM      9  C   UNL     1      16.079  15.610   8.960  1.00  0.00     0.094 A 
ATOM     10  C   UNL     1      14.889  15.221   9.581  1.00  0.00     0.146 A 
ATOM     11  O   UNL     1      14.904  14.148  10.363  1.00  0.00    -0.452 OA
ENDROOT
BRANCH   1  12
ATOM     12  C   UNL     1      13.979  12.479  11.837  1.00  0.00     0.025 A 
ATOM     13  C   UNL     1      14.417  11.371  13.972  1.00  0.00     0.161 A 
ATOM     14  C   UNL     1      14.182  10.128  13.368  1.00  0.00     0.157 A 
ATOM     15  C   UNL     1      14.306  12.546  13.203  1.00  0.00     0.062 A 
ATOM     16  C   UNL     1      13.834  10.060  12.013  1.00  0.00     0.051 A 
ATOM     17  C   UNL     1      13.726  11.227  11.255  1.00  0.00     0.016 A 
BRANCH  13  18
ATOM     18  O   UNL     1      14.752  11.398  15.335  1.00  0.00    -0.493 OA
ATOM     19  C   UNL     1      13.806  11.419  16.399  1.00  0.00     0.278 C 
ENDBRANCH  13  18
BRANCH  14  20
ATOM     20  O   UNL     1      14.293   8.962  14.123  1.00  0.00    -0.504 OA
ATOM     21  H   UNL     1      13.490   8.373  14.311  1.00  0.00     0.293 HD
ENDBRANCH  14  20
ENDBRANCH   1  12
BRANCH   2  22
ATOM     22  O   UNL     1      11.523  14.010  11.695  1.00  0.00    -0.502 OA
ATOM     23  H   UNL     1      11.292  13.035  11.843  1.00  0.00     0.293 HD
ENDBRANCH   2  22
BRANCH   6  24
ATOM     24  O   UNL     1      12.597  17.815   8.127  1.00  0.00    -0.507 OA
ATOM     25  H   UNL     1      11.653  17.600   8.410  1.00  0.00     0.293 HD
ENDBRANCH   6  24
BRANCH   8  26
ATOM     26  O   UNL     1      17.297  17.143   7.533  1.00  0.00    -0.508 OA
ATOM     27  H   UNL     1      18.183  16.704   7.757  1.00  0.00     0.293 HD
ENDBRANCH   8  26
TORSDOF 6
ENDMDL
