MODEL 1
REMARK VINA RESULT:    -2.816      0.000      0.000
REMARK INTER + INTRA:          -3.364
REMARK INTER:                  -3.310
REMARK INTRA:                  -0.055
REMARK UNBOUND:                -0.055
REMARK SMILES CCCCC(=O)[O-]
REMARK SMILES IDX 4 1 5 2 6 3 7 4 3 5 2 6 1 7
REMARK H PARENT
REMARK Flexibility Score: inf
ROOT
ATOM      1  C   UNL     1     -18.043  22.359  42.483  1.00  0.00     0.053 C 
ENDROOT
BRANCH   1   2
ATOM      2  C   UNL     1     -17.750  23.823  42.374  1.00  0.00     0.041 C 
ATOM      3  O   UNL     1     -16.581  24.250  42.563  1.00  0.00    -0.550 OA
ATOM      4  O   UNL     1     -18.757  24.708  42.013  1.00  0.00    -0.550 OA
ENDBRANCH   1   2
BRANCH   1   5
ATOM      5  C   UNL     1     -17.038  21.680  43.417  1.00  0.00     0.006 C 
BRANCH   5   6
ATOM      6  C   UNL     1     -17.737  20.674  44.339  1.00  0.00    -0.003 C 
ATOM      7  C   UNL     1     -18.840  21.344  45.153  1.00  0.00     0.004 C 
ENDBRANCH   5   6
ENDBRANCH   1   5
TORSDOF 3
ENDMDL
MODEL 2
REMARK VINA RESULT:    -2.811      0.088      1.226
REMARK INTER + INTRA:          -3.358
REMARK INTER:                  -3.309
REMARK INTRA:                  -0.049
REMARK UNBOUND:                -0.055
REMARK SMILES CCCCC(=O)[O-]
REMARK SMILES IDX 4 1 5 2 6 3 7 4 3 5 2 6 1 7
REMARK H PARENT
REMARK Flexibility Score: inf
ROOT
ATOM      1  C   UNL     1     -18.026  22.357  42.495  1.00  0.00     0.053 C 
ENDROOT
BRANCH   1   2
ATOM      2  C   UNL     1     -17.749  23.822  42.371  1.00  0.00     0.041 C 
ATOM      3  O   UNL     1     -18.680  24.622  42.089  1.00  0.00    -0.550 OA
ATOM      4  O   UNL     1     -16.472  24.311  42.615  1.00  0.00    -0.550 OA
ENDBRANCH   1   2
BRANCH   1   5
ATOM      5  C   UNL     1     -17.033  21.704  43.460  1.00  0.00     0.006 C 
BRANCH   5   6
ATOM      6  C   UNL     1     -17.721  20.636  44.318  1.00  0.00    -0.003 C 
ATOM      7  C   UNL     1     -18.854  21.237  45.144  1.00  0.00     0.004 C 
ENDBRANCH   5   6
ENDBRANCH   1   5
TORSDOF 3
ENDMDL
MODEL 3
REMARK VINA RESULT:    -2.741     15.024     15.562
REMARK INTER + INTRA:          -3.277
REMARK INTER:                  -3.253
REMARK INTRA:                  -0.023
REMARK UNBOUND:                -0.055
REMARK SMILES CCCCC(=O)[O-]
REMARK SMILES IDX 4 1 5 2 6 3 7 4 3 5 2 6 1 7
REMARK H PARENT
REMARK Flexibility Score: inf
ROOT
ATOM      1  C   UNL     1      -8.006  19.416  32.644  1.00  0.00     0.053 C 
ENDROOT
BRANCH   1   2
ATOM      2  C   UNL     1      -8.462  18.034  32.299  1.00  0.00     0.041 C 
ATOM      3  O   UNL     1      -8.974  17.798  31.173  1.00  0.00    -0.550 OA
ATOM      4  O   UNL     1      -8.277  16.994  33.202  1.00  0.00    -0.550 OA
ENDBRANCH   1   2
BRANCH   1   5
ATOM      5  C   UNL     1      -8.258  20.371  31.475  1.00  0.00     0.006 C 
BRANCH   5   6
ATOM      6  C   UNL     1      -8.191  21.833  31.934  1.00  0.00    -0.003 C 
ATOM      7  C   UNL     1      -8.157  22.785  30.743  1.00  0.00     0.004 C 
ENDBRANCH   5   6
ENDBRANCH   1   5
TORSDOF 3
ENDMDL
MODEL 4
REMARK VINA RESULT:    -2.694      1.735      2.508
REMARK INTER + INTRA:          -3.221
REMARK INTER:                  -3.184
REMARK INTRA:                  -0.037
REMARK UNBOUND:                -0.055
REMARK SMILES CCCCC(=O)[O-]
REMARK SMILES IDX 4 1 5 2 6 3 7 4 3 5 2 6 1 7
REMARK H PARENT
REMARK Flexibility Score: inf
ROOT
ATOM      1  C   UNL     1     -17.586  20.698  44.343  1.00  0.00     0.053 C 
ENDROOT
BRANCH   1   2
ATOM      2  C   UNL     1     -17.066  21.671  43.333  1.00  0.00     0.041 C 
ATOM      3  O   UNL     1     -15.827  21.872  43.226  1.00  0.00    -0.550 OA
ATOM      4  O   UNL     1     -17.945  22.319  42.474  1.00  0.00    -0.550 OA
ENDBRANCH   1   2
BRANCH   1   5
ATOM      5  C   UNL     1     -18.757  21.307  45.119  1.00  0.00     0.006 C 
BRANCH   5   6
ATOM      6  C   UNL     1     -19.475  20.241  45.957  1.00  0.00    -0.003 C 
ATOM      7  C   UNL     1     -18.719  18.916  45.930  1.00  0.00     0.004 C 
ENDBRANCH   5   6
ENDBRANCH   1   5
TORSDOF 3
ENDMDL
MODEL 5
REMARK VINA RESULT:    -2.670      1.668      2.438
REMARK INTER + INTRA:          -3.193
REMARK INTER:                  -3.138
REMARK INTRA:                  -0.055
REMARK UNBOUND:                -0.055
REMARK SMILES CCCCC(=O)[O-]
REMARK SMILES IDX 4 1 5 2 6 3 7 4 3 5 2 6 1 7
REMARK H PARENT
REMARK Flexibility Score: inf
ROOT
ATOM      1  C   UNL     1     -17.534  21.647  43.310  1.00  0.00     0.053 C 
ENDROOT
BRANCH   1   2
ATOM      2  C   UNL     1     -16.154  22.227  43.315  1.00  0.00     0.041 C 
ATOM      3  O   UNL     1     -15.984  23.459  43.117  1.00  0.00    -0.550 OA
ATOM      4  O   UNL     1     -15.060  21.416  43.588  1.00  0.00    -0.550 OA
ENDBRANCH   1   2
BRANCH   1   5
ATOM      5  C   UNL     1     -17.666  20.570  44.390  1.00  0.00     0.006 C 
BRANCH   5   6
ATOM      6  C   UNL     1     -18.929  20.788  45.232  1.00  0.00    -0.003 C 
ATOM      7  C   UNL     1     -19.355  22.253  45.218  1.00  0.00     0.004 C 
ENDBRANCH   5   6
ENDBRANCH   1   5
TORSDOF 3
ENDMDL
MODEL 6
REMARK VINA RESULT:    -2.658      2.509      3.765
REMARK INTER + INTRA:          -3.179
REMARK INTER:                  -3.136
REMARK INTRA:                  -0.043
REMARK UNBOUND:                -0.055
REMARK SMILES CCCCC(=O)[O-]
REMARK SMILES IDX 4 1 5 2 6 3 7 4 3 5 2 6 1 7
REMARK H PARENT
REMARK Flexibility Score: inf
ROOT
ATOM      1  C   UNL     1     -18.248  22.165  43.920  1.00  0.00     0.053 C 
ENDROOT
BRANCH   1   2
ATOM      2  C   UNL     1     -17.390  20.969  44.192  1.00  0.00     0.041 C 
ATOM      3  O   UNL     1     -16.151  21.017  43.977  1.00  0.00    -0.550 OA
ATOM      4  O   UNL     1     -17.952  19.819  44.731  1.00  0.00    -0.550 OA
ENDBRANCH   1   2
BRANCH   1   5
ATOM      5  C   UNL     1     -18.060  22.642  42.478  1.00  0.00     0.006 C 
BRANCH   5   6
ATOM      6  C   UNL     1     -17.719  24.136  42.433  1.00  0.00    -0.003 C 
ATOM      7  C   UNL     1     -18.952  24.974  42.111  1.00  0.00     0.004 C 
ENDBRANCH   5   6
ENDBRANCH   1   5
TORSDOF 3
ENDMDL
MODEL 7
REMARK VINA RESULT:    -2.636      1.288      1.651
REMARK INTER + INTRA:          -3.154
REMARK INTER:                  -3.088
REMARK INTRA:                  -0.066
REMARK UNBOUND:                -0.055
REMARK SMILES CCCCC(=O)[O-]
REMARK SMILES IDX 4 1 5 2 6 3 7 4 3 5 2 6 1 7
REMARK H PARENT
REMARK Flexibility Score: inf
ROOT
ATOM      1  C   UNL     1     -17.623  23.638  42.359  1.00  0.00     0.053 C 
ENDROOT
BRANCH   1   2
ATOM      2  C   UNL     1     -18.791  24.520  42.666  1.00  0.00     0.041 C 
ATOM      3  O   UNL     1     -19.433  24.371  43.739  1.00  0.00    -0.550 OA
ATOM      4  O   UNL     1     -19.141  25.540  41.790  1.00  0.00    -0.550 OA
ENDBRANCH   1   2
BRANCH   1   5
ATOM      5  C   UNL     1     -17.999  22.166  42.548  1.00  0.00     0.006 C 
BRANCH   5   6
ATOM      6  C   UNL     1     -17.113  21.504  43.610  1.00  0.00    -0.003 C 
ATOM      7  C   UNL     1     -17.939  20.647  44.563  1.00  0.00     0.004 C 
ENDBRANCH   5   6
ENDBRANCH   1   5
TORSDOF 3
ENDMDL
MODEL 8
REMARK VINA RESULT:    -2.567      2.301      3.554
REMARK INTER + INTRA:          -3.072
REMARK INTER:                  -3.014
REMARK INTRA:                  -0.058
REMARK UNBOUND:                -0.055
REMARK SMILES CCCCC(=O)[O-]
REMARK SMILES IDX 4 1 5 2 6 3 7 4 3 5 2 6 1 7
REMARK H PARENT
REMARK Flexibility Score: inf
ROOT
ATOM      1  C   UNL     1     -17.231  21.120  43.917  1.00  0.00     0.053 C 
ENDROOT
BRANCH   1   2
ATOM      2  C   UNL     1     -15.745  21.231  44.054  1.00  0.00     0.041 C 
ATOM      3  O   UNL     1     -15.145  20.610  44.971  1.00  0.00    -0.550 OA
ATOM      4  O   UNL     1     -15.017  21.981  43.140  1.00  0.00    -0.550 OA
ENDBRANCH   1   2
BRANCH   1   5
ATOM      5  C   UNL     1     -17.731  22.003  42.771  1.00  0.00     0.006 C 
BRANCH   5   6
ATOM      6  C   UNL     1     -18.449  23.247  43.309  1.00  0.00    -0.003 C 
ATOM      7  C   UNL     1     -18.386  24.397  42.309  1.00  0.00     0.004 C 
ENDBRANCH   5   6
ENDBRANCH   1   5
TORSDOF 3
ENDMDL
MODEL 9
REMARK VINA RESULT:    -2.344      2.657      3.656
REMARK INTER + INTRA:          -2.810
REMARK INTER:                  -2.769
REMARK INTRA:                  -0.041
REMARK UNBOUND:                -0.055
REMARK SMILES CCCCC(=O)[O-]
REMARK SMILES IDX 4 1 5 2 6 3 7 4 3 5 2 6 1 7
REMARK H PARENT
REMARK Flexibility Score: inf
ROOT
ATOM      1  C   UNL     1     -15.295  22.676  43.542  1.00  0.00     0.053 C 
ENDROOT
BRANCH   1   2
ATOM      2  C   UNL     1     -13.925  22.374  43.022  1.00  0.00     0.041 C 
ATOM      3  O   UNL     1     -13.473  22.999  42.027  1.00  0.00    -0.550 OA
ATOM      4  O   UNL     1     -13.128  21.436  43.666  1.00  0.00    -0.550 OA
ENDBRANCH   1   2
BRANCH   1   5
ATOM      5  C   UNL     1     -16.049  21.380  43.851  1.00  0.00     0.006 C 
BRANCH   5   6
ATOM      6  C   UNL     1     -17.565  21.598  43.786  1.00  0.00    -0.003 C 
ATOM      7  C   UNL     1     -17.944  22.502  42.618  1.00  0.00     0.004 C 
ENDBRANCH   5   6
ENDBRANCH   1   5
TORSDOF 3
ENDMDL
