MODEL 1
REMARK VINA RESULT:    -5.875      0.000      0.000
REMARK INTER + INTRA:          -8.602
REMARK INTER:                  -7.935
REMARK INTRA:                  -0.667
REMARK UNBOUND:                -0.667
REMARK SMILES CC(=O)CCC=C(C)CCC=C(C)C
REMARK SMILES IDX 7 1 6 2 8 3 9 4 10 5 11 6 13 7 12 8 14 9 5 10 4 11 2 12 3 13
REMARK SMILES IDX 1 14
REMARK H PARENT
REMARK Flexibility Score: inf
ROOT
ATOM      1  C   UNL     1      49.069   2.456  16.468  1.00  0.00    -0.077 C 
ATOM      2  C   UNL     1      48.055   1.811  17.085  1.00  0.00    -0.028 C 
ATOM      3  C   UNL     1      50.259   2.973  17.241  1.00  0.00     0.039 C 
ENDROOT
BRANCH   1   4
ATOM      4  C   UNL     1      49.011   2.668  14.969  1.00  0.00     0.034 C 
BRANCH   4   5
ATOM      5  C   UNL     1      49.865   3.865  14.525  1.00  0.00     0.032 C 
BRANCH   5   6
ATOM      6  C   UNL     1      51.023   3.435  13.657  1.00  0.00    -0.028 C 
ATOM      7  C   UNL     1      51.629   5.778  13.009  1.00  0.00     0.039 C 
ATOM      8  C   UNL     1      51.805   4.278  12.946  1.00  0.00    -0.080 C 
ATOM      9  C   UNL     1      52.893   3.694  12.084  1.00  0.00     0.039 C 
ENDBRANCH   5   6
ENDBRANCH   4   5
ENDBRANCH   1   4
BRANCH   2  10
ATOM     10  C   UNL     1      48.022   1.562  18.573  1.00  0.00     0.035 C 
BRANCH  10  11
ATOM     11  C   UNL     1      46.847   2.292  19.233  1.00  0.00     0.079 C 
BRANCH  11  12
ATOM     12  C   UNL     1      47.076   3.781  19.234  1.00  0.00     0.130 C 
ATOM     13  O   UNL     1      46.287   4.510  18.652  1.00  0.00    -0.300 OA
ATOM     14  C   UNL     1      48.247   4.391  19.944  1.00  0.00     0.087 C 
ENDBRANCH  11  12
ENDBRANCH  10  11
ENDBRANCH   2  10
TORSDOF 6
ENDMDL
MODEL 2
REMARK VINA RESULT:    -5.749      2.725      4.742
REMARK INTER + INTRA:          -8.432
REMARK INTER:                  -7.077
REMARK INTRA:                  -1.355
REMARK UNBOUND:                -0.667
REMARK SMILES CC(=O)CCC=C(C)CCC=C(C)C
REMARK SMILES IDX 7 1 6 2 8 3 9 4 10 5 11 6 13 7 12 8 14 9 5 10 4 11 2 12 3 13
REMARK SMILES IDX 1 14
REMARK H PARENT
REMARK Flexibility Score: inf
ROOT
ATOM      1  C   UNL     1      50.337   2.547  18.023  1.00  0.00    -0.077 C 
ATOM      2  C   UNL     1      49.625   1.780  18.877  1.00  0.00    -0.028 C 
ATOM      3  C   UNL     1      49.773   2.969  16.687  1.00  0.00     0.039 C 
ENDROOT
BRANCH   1   4
ATOM      4  C   UNL     1      51.731   2.995  18.413  1.00  0.00     0.034 C 
BRANCH   4   5
ATOM      5  C   UNL     1      51.711   3.955  19.611  1.00  0.00     0.032 C 
BRANCH   5   6
ATOM      6  C   UNL     1      50.946   5.220  19.302  1.00  0.00    -0.028 C 
ATOM      7  C   UNL     1      49.150   4.747  20.982  1.00  0.00     0.039 C 
ATOM      8  C   UNL     1      49.780   5.574  19.887  1.00  0.00    -0.080 C 
ATOM      9  C   UNL     1      49.108   6.845  19.436  1.00  0.00     0.039 C 
ENDBRANCH   5   6
ENDBRANCH   4   5
ENDBRANCH   1   4
BRANCH   2  10
ATOM     10  C   UNL     1      48.235   1.281  18.571  1.00  0.00     0.035 C 
BRANCH  10  11
ATOM     11  C   UNL     1      47.177   2.074  19.346  1.00  0.00     0.079 C 
BRANCH  11  12
ATOM     12  C   UNL     1      46.495   3.073  18.448  1.00  0.00     0.130 C 
ATOM     13  O   UNL     1      46.304   4.211  18.851  1.00  0.00    -0.300 OA
ATOM     14  C   UNL     1      46.053   2.706  17.063  1.00  0.00     0.087 C 
ENDBRANCH  11  12
ENDBRANCH  10  11
ENDBRANCH   2  10
TORSDOF 6
ENDMDL
MODEL 3
REMARK VINA RESULT:    -5.699      2.565      4.425
REMARK INTER + INTRA:          -8.364
REMARK INTER:                  -7.413
REMARK INTRA:                  -0.951
REMARK UNBOUND:                -0.667
REMARK SMILES CC(=O)CCC=C(C)CCC=C(C)C
REMARK SMILES IDX 7 1 6 2 8 3 9 4 10 5 11 6 13 7 12 8 14 9 5 10 4 11 2 12 3 13
REMARK SMILES IDX 1 14
REMARK H PARENT
REMARK Flexibility Score: inf
ROOT
ATOM      1  C   UNL     1      47.321   3.087  19.245  1.00  0.00    -0.077 C 
ATOM      2  C   UNL     1      48.170   3.992  19.777  1.00  0.00    -0.028 C 
ATOM      3  C   UNL     1      46.041   3.512  18.564  1.00  0.00     0.039 C 
ENDROOT
BRANCH   1   4
ATOM      4  C   UNL     1      47.657   1.611  19.333  1.00  0.00     0.034 C 
BRANCH   4   5
ATOM      5  C   UNL     1      48.873   1.248  18.468  1.00  0.00     0.032 C 
BRANCH   5   6
ATOM      6  C   UNL     1      48.623   1.529  17.005  1.00  0.00    -0.028 C 
ATOM      7  C   UNL     1      50.302   3.385  16.899  1.00  0.00     0.039 C 
ATOM      8  C   UNL     1      49.234   2.504  16.295  1.00  0.00    -0.080 C 
ATOM      9  C   UNL     1      48.841   2.695  14.853  1.00  0.00     0.039 C 
ENDBRANCH   5   6
ENDBRANCH   4   5
ENDBRANCH   1   4
BRANCH   2  10
ATOM     10  C   UNL     1      47.915   5.479  19.744  1.00  0.00     0.035 C 
BRANCH  10  11
ATOM     11  C   UNL     1      49.184   6.268  20.081  1.00  0.00     0.079 C 
BRANCH  11  12
ATOM     12  C   UNL     1      49.493   7.271  19.000  1.00  0.00     0.130 C 
ATOM     13  O   UNL     1      49.881   6.878  17.910  1.00  0.00    -0.300 OA
ATOM     14  C   UNL     1      49.324   8.743  19.228  1.00  0.00     0.087 C 
ENDBRANCH  11  12
ENDBRANCH  10  11
ENDBRANCH   2  10
TORSDOF 6
ENDMDL
MODEL 4
REMARK VINA RESULT:    -5.616      1.507      2.572
REMARK INTER + INTRA:          -8.252
REMARK INTER:                  -7.140
REMARK INTRA:                  -1.112
REMARK UNBOUND:                -0.667
REMARK SMILES CC(=O)CCC=C(C)CCC=C(C)C
REMARK SMILES IDX 7 1 6 2 8 3 9 4 10 5 11 6 13 7 12 8 14 9 5 10 4 11 2 12 3 13
REMARK SMILES IDX 1 14
REMARK H PARENT
REMARK Flexibility Score: inf
ROOT
ATOM      1  C   UNL     1      50.223   3.482  18.581  1.00  0.00    -0.077 C 
ATOM      2  C   UNL     1      49.903   2.267  18.087  1.00  0.00    -0.028 C 
ATOM      3  C   UNL     1      49.441   4.103  19.714  1.00  0.00     0.039 C 
ENDROOT
BRANCH   1   4
ATOM      4  C   UNL     1      51.392   4.241  17.985  1.00  0.00     0.034 C 
BRANCH   4   5
ATOM      5  C   UNL     1      50.980   5.053  16.749  1.00  0.00     0.032 C 
BRANCH   5   6
ATOM      6  C   UNL     1      51.663   4.553  15.498  1.00  0.00    -0.028 C 
ATOM      7  C   UNL     1      49.592   3.472  14.593  1.00  0.00     0.039 C 
ATOM      8  C   UNL     1      51.061   3.817  14.536  1.00  0.00    -0.080 C 
ATOM      9  C   UNL     1      51.889   3.348  13.369  1.00  0.00     0.039 C 
ENDBRANCH   5   6
ENDBRANCH   4   5
ENDBRANCH   1   4
BRANCH   2  10
ATOM     10  C   UNL     1      48.753   1.443  18.610  1.00  0.00     0.035 C 
BRANCH  10  11
ATOM     11  C   UNL     1      47.658   1.280  17.550  1.00  0.00     0.079 C 
BRANCH  11  12
ATOM     12  C   UNL     1      46.758   2.488  17.522  1.00  0.00     0.130 C 
ATOM     13  O   UNL     1      46.625   3.114  16.481  1.00  0.00    -0.300 OA
ATOM     14  C   UNL     1      46.011   2.934  18.743  1.00  0.00     0.087 C 
ENDBRANCH  11  12
ENDBRANCH  10  11
ENDBRANCH   2  10
TORSDOF 6
ENDMDL
MODEL 5
REMARK VINA RESULT:    -5.510      2.812      6.857
REMARK INTER + INTRA:          -8.109
REMARK INTER:                  -7.532
REMARK INTRA:                  -0.577
REMARK UNBOUND:                -0.667
REMARK SMILES CC(=O)CCC=C(C)CCC=C(C)C
REMARK SMILES IDX 7 1 6 2 8 3 9 4 10 5 11 6 13 7 12 8 14 9 5 10 4 11 2 12 3 13
REMARK SMILES IDX 1 14
REMARK H PARENT
REMARK Flexibility Score: inf
ROOT
ATOM      1  C   UNL     1      49.850   3.460  15.148  1.00  0.00    -0.077 C 
ATOM      2  C   UNL     1      49.979   4.289  14.091  1.00  0.00    -0.028 C 
ATOM      3  C   UNL     1      50.601   3.703  16.436  1.00  0.00     0.039 C 
ENDROOT
BRANCH   1   4
ATOM      4  C   UNL     1      48.933   2.257  15.042  1.00  0.00     0.034 C 
BRANCH   4   5
ATOM      5  C   UNL     1      48.557   1.700  16.422  1.00  0.00     0.032 C 
BRANCH   5   6
ATOM      6  C   UNL     1      47.318   2.364  16.975  1.00  0.00    -0.028 C 
ATOM      7  C   UNL     1      47.942   1.927  19.362  1.00  0.00     0.039 C 
ATOM      8  C   UNL     1      47.013   2.447  18.290  1.00  0.00    -0.080 C 
ATOM      9  C   UNL     1      45.712   3.096  18.684  1.00  0.00     0.039 C 
ENDBRANCH   5   6
ENDBRANCH   4   5
ENDBRANCH   1   4
BRANCH   2  10
ATOM     10  C   UNL     1      50.873   5.504  14.101  1.00  0.00     0.035 C 
BRANCH  10  11
ATOM     11  C   UNL     1      52.228   5.203  13.453  1.00  0.00     0.079 C 
BRANCH  11  12
ATOM     12  C   UNL     1      52.164   5.407  11.962  1.00  0.00     0.130 C 
ATOM     13  O   UNL     1      52.086   4.435  11.225  1.00  0.00    -0.300 OA
ATOM     14  C   UNL     1      52.185   6.780  11.359  1.00  0.00     0.087 C 
ENDBRANCH  11  12
ENDBRANCH  10  11
ENDBRANCH   2  10
TORSDOF 6
ENDMDL
MODEL 6
REMARK VINA RESULT:    -5.368      1.082      1.772
REMARK INTER + INTRA:          -7.918
REMARK INTER:                  -7.679
REMARK INTRA:                  -0.239
REMARK UNBOUND:                -0.667
REMARK SMILES CC(=O)CCC=C(C)CCC=C(C)C
REMARK SMILES IDX 7 1 6 2 8 3 9 4 10 5 11 6 13 7 12 8 14 9 5 10 4 11 2 12 3 13
REMARK SMILES IDX 1 14
REMARK H PARENT
REMARK Flexibility Score: inf
ROOT
ATOM      1  C   UNL     1      50.193   2.881  17.401  1.00  0.00    -0.077 C 
ATOM      2  C   UNL     1      49.014   2.253  17.200  1.00  0.00    -0.028 C 
ATOM      3  C   UNL     1      50.973   2.700  18.681  1.00  0.00     0.039 C 
ENDROOT
BRANCH   1   4
ATOM      4  C   UNL     1      50.745   3.787  16.319  1.00  0.00     0.034 C 
BRANCH   4   5
ATOM      5  C   UNL     1      50.133   3.479  14.945  1.00  0.00     0.032 C 
BRANCH   5   6
ATOM      6  C   UNL     1      50.541   4.499  13.909  1.00  0.00    -0.028 C 
ATOM      7  C   UNL     1      52.439   3.114  13.043  1.00  0.00     0.039 C 
ATOM      8  C   UNL     1      51.592   4.364  13.069  1.00  0.00    -0.080 C 
ATOM      9  C   UNL     1      51.904   5.493  12.123  1.00  0.00     0.039 C 
ENDBRANCH   5   6
ENDBRANCH   4   5
ENDBRANCH   1   4
BRANCH   2  10
ATOM     10  C   UNL     1      48.382   1.340  18.223  1.00  0.00     0.035 C 
BRANCH  10  11
ATOM     11  C   UNL     1      47.521   2.128  19.215  1.00  0.00     0.079 C 
BRANCH  11  12
ATOM     12  C   UNL     1      46.619   3.094  18.491  1.00  0.00     0.130 C 
ATOM     13  O   UNL     1      46.480   4.227  18.926  1.00  0.00    -0.300 OA
ATOM     14  C   UNL     1      45.895   2.699  17.239  1.00  0.00     0.087 C 
ENDBRANCH  11  12
ENDBRANCH  10  11
ENDBRANCH   2  10
TORSDOF 6
ENDMDL
MODEL 7
REMARK VINA RESULT:    -5.302      2.172      3.630
REMARK INTER + INTRA:          -7.828
REMARK INTER:                  -6.907
REMARK INTRA:                  -0.921
REMARK UNBOUND:                -0.667
REMARK SMILES CC(=O)CCC=C(C)CCC=C(C)C
REMARK SMILES IDX 7 1 6 2 8 3 9 4 10 5 11 6 13 7 12 8 14 9 5 10 4 11 2 12 3 13
REMARK SMILES IDX 1 14
REMARK H PARENT
REMARK Flexibility Score: inf
ROOT
ATOM      1  C   UNL     1      47.163   2.608  18.369  1.00  0.00    -0.077 C 
ATOM      2  C   UNL     1      48.251   3.054  19.033  1.00  0.00    -0.028 C 
ATOM      3  C   UNL     1      45.785   3.152  18.660  1.00  0.00     0.039 C 
ENDROOT
BRANCH   1   4
ATOM      4  C   UNL     1      47.327   1.538  17.308  1.00  0.00     0.034 C 
BRANCH   4   5
ATOM      5  C   UNL     1      48.766   1.475  16.776  1.00  0.00     0.032 C 
BRANCH   5   6
ATOM      6  C   UNL     1      48.939   2.309  15.528  1.00  0.00    -0.028 C 
ATOM      7  C   UNL     1      50.744   3.732  16.524  1.00  0.00     0.039 C 
ATOM      8  C   UNL     1      49.800   3.344  15.410  1.00  0.00    -0.080 C 
ATOM      9  C   UNL     1      49.822   4.114  14.116  1.00  0.00     0.039 C 
ENDBRANCH   5   6
ENDBRANCH   4   5
ENDBRANCH   1   4
BRANCH   2  10
ATOM     10  C   UNL     1      48.183   4.109  20.109  1.00  0.00     0.035 C 
BRANCH  10  11
ATOM     11  C   UNL     1      49.128   5.277  19.803  1.00  0.00     0.079 C 
BRANCH  11  12
ATOM     12  C   UNL     1      50.395   5.164  20.610  1.00  0.00     0.130 C 
ATOM     13  O   UNL     1      51.470   5.101  20.033  1.00  0.00    -0.300 OA
ATOM     14  C   UNL     1      50.368   5.137  22.109  1.00  0.00     0.087 C 
ENDBRANCH  11  12
ENDBRANCH  10  11
ENDBRANCH   2  10
TORSDOF 6
ENDMDL
MODEL 8
REMARK VINA RESULT:    -5.247      3.058      4.895
REMARK INTER + INTRA:          -7.754
REMARK INTER:                  -7.079
REMARK INTRA:                  -0.676
REMARK UNBOUND:                -0.667
REMARK SMILES CC(=O)CCC=C(C)CCC=C(C)C
REMARK SMILES IDX 7 1 6 2 8 3 9 4 10 5 11 6 13 7 12 8 14 9 5 10 4 11 2 12 3 13
REMARK SMILES IDX 1 14
REMARK H PARENT
REMARK Flexibility Score: inf
ROOT
ATOM      1  C   UNL     1      50.217   2.616  17.636  1.00  0.00    -0.077 C 
ATOM      2  C   UNL     1      49.653   1.960  18.672  1.00  0.00    -0.028 C 
ATOM      3  C   UNL     1      49.496   2.777  16.319  1.00  0.00     0.039 C 
ENDROOT
BRANCH   1   4
ATOM      4  C   UNL     1      51.606   3.203  17.796  1.00  0.00     0.034 C 
BRANCH   4   5
ATOM      5  C   UNL     1      52.117   3.079  19.238  1.00  0.00     0.032 C 
BRANCH   5   6
ATOM      6  C   UNL     1      53.273   2.112  19.341  1.00  0.00    -0.028 C 
ATOM      7  C   UNL     1      54.220   3.196  21.392  1.00  0.00     0.039 C 
ATOM      8  C   UNL     1      54.241   2.169  20.283  1.00  0.00    -0.080 C 
ATOM      9  C   UNL     1      55.359   1.162  20.225  1.00  0.00     0.039 C 
ENDBRANCH   5   6
ENDBRANCH   4   5
ENDBRANCH   1   4
BRANCH   2  10
ATOM     10  C   UNL     1      48.280   1.337  18.603  1.00  0.00     0.035 C 
BRANCH  10  11
ATOM     11  C   UNL     1      47.259   2.151  19.403  1.00  0.00     0.079 C 
BRANCH  11  12
ATOM     12  C   UNL     1      46.507   3.097  18.504  1.00  0.00     0.130 C 
ATOM     13  O   UNL     1      46.315   4.247  18.868  1.00  0.00    -0.300 OA
ATOM     14  C   UNL     1      45.995   2.661  17.164  1.00  0.00     0.087 C 
ENDBRANCH  11  12
ENDBRANCH  10  11
ENDBRANCH   2  10
TORSDOF 6
ENDMDL
MODEL 9
REMARK VINA RESULT:    -5.228      2.422      6.413
REMARK INTER + INTRA:          -7.729
REMARK INTER:                  -7.056
REMARK INTRA:                  -0.673
REMARK UNBOUND:                -0.667
REMARK SMILES CC(=O)CCC=C(C)CCC=C(C)C
REMARK SMILES IDX 7 1 6 2 8 3 9 4 10 5 11 6 13 7 12 8 14 9 5 10 4 11 2 12 3 13
REMARK SMILES IDX 1 14
REMARK H PARENT
REMARK Flexibility Score: inf
ROOT
ATOM      1  C   UNL     1      50.214   3.582  14.809  1.00  0.00    -0.077 C 
ATOM      2  C   UNL     1      50.830   3.928  13.658  1.00  0.00    -0.028 C 
ATOM      3  C   UNL     1      50.847   3.852  16.153  1.00  0.00     0.039 C 
ENDROOT
BRANCH   1   4
ATOM      4  C   UNL     1      48.858   2.907  14.751  1.00  0.00     0.034 C 
BRANCH   4   5
ATOM      5  C   UNL     1      48.654   1.930  15.918  1.00  0.00     0.032 C 
BRANCH   5   6
ATOM      6  C   UNL     1      47.592   2.416  16.876  1.00  0.00    -0.028 C 
ATOM      7  C   UNL     1      48.523   1.145  18.823  1.00  0.00     0.039 C 
ATOM      8  C   UNL     1      47.502   2.049  18.174  1.00  0.00    -0.080 C 
ATOM      9  C   UNL     1      46.354   2.580  18.992  1.00  0.00     0.039 C 
ENDBRANCH   5   6
ENDBRANCH   4   5
ENDBRANCH   1   4
BRANCH   2  10
ATOM     10  C   UNL     1      52.182   4.595  13.616  1.00  0.00     0.035 C 
BRANCH  10  11
ATOM     11  C   UNL     1      52.052   6.097  13.342  1.00  0.00     0.079 C 
BRANCH  11  12
ATOM     12  C   UNL     1      52.595   6.900  14.496  1.00  0.00     0.130 C 
ATOM     13  O   UNL     1      52.077   7.970  14.779  1.00  0.00    -0.300 OA
ATOM     14  C   UNL     1      53.752   6.410  15.314  1.00  0.00     0.087 C 
ENDBRANCH  11  12
ENDBRANCH  10  11
ENDBRANCH   2  10
TORSDOF 6
ENDMDL
