MODEL 1
REMARK VINA RESULT:    -3.318      0.000      0.000
REMARK INTER + INTRA:         -12.412
REMARK INTER:                  -8.750
REMARK INTRA:                  -3.662
REMARK UNBOUND:                -3.662
REMARK SMILES CCCCCCCCCCCCCCCCCCCCCCCCCCCCCC(=O)[O-]
REMARK SMILES IDX 16 1 17 2 18 3 19 4 20 5 21 6 22 7 23 8 24 9 25 10 26 11
REMARK SMILES IDX 27 12 28 13 29 14 30 15 31 16 32 17 15 18 14 19 13 20 12 21
REMARK SMILES IDX 11 22 10 23 9 24 8 25 7 26 6 27 5 28 4 29 3 30 2 31 1 32
REMARK H PARENT
REMARK Flexibility Score: inf
ROOT
ATOM      1  C   UNL     1     -15.788  10.772   4.187  1.00  0.00     0.000 C 
ENDROOT
BRANCH   1   2
ATOM      2  C   UNL     1     -15.346   9.324   3.879  1.00  0.00     0.000 C 
BRANCH   2   3
ATOM      3  C   UNL     1     -13.919   9.213   3.305  1.00  0.00     0.000 C 
BRANCH   3   4
ATOM      4  C   UNL     1     -12.833   8.962   4.367  1.00  0.00     0.000 C 
BRANCH   4   5
ATOM      5  C   UNL     1     -12.291  10.262   5.005  1.00  0.00     0.000 C 
BRANCH   5   6
ATOM      6  C   UNL     1     -12.862  10.512   6.413  1.00  0.00     0.000 C 
BRANCH   6   7
ATOM      7  C   UNL     1     -13.389   9.240   7.112  1.00  0.00     0.000 C 
BRANCH   7   8
ATOM      8  C   UNL     1     -14.501   9.503   8.143  1.00  0.00     0.000 C 
BRANCH   8   9
ATOM      9  C   UNL     1     -15.904   9.286   7.550  1.00  0.00     0.000 C 
BRANCH   9  10
ATOM     10  C   UNL     1     -16.817  10.516   7.705  1.00  0.00     0.000 C 
BRANCH  10  11
ATOM     11  C   UNL     1     -18.265  10.205   8.143  1.00  0.00     0.000 C 
BRANCH  11  12
ATOM     12  C   UNL     1     -18.394   9.324   9.399  1.00  0.00     0.000 C 
BRANCH  12  13
ATOM     13  C   UNL     1     -18.513  10.145  10.690  1.00  0.00     0.006 C 
BRANCH  13  14
ATOM     14  C   UNL     1     -17.176  10.190  11.436  1.00  0.00     0.053 C 
BRANCH  14  15
ATOM     15  C   UNL     1     -17.148  11.334  12.399  1.00  0.00     0.041 C 
ATOM     16  O   UNL     1     -18.132  12.115  12.485  1.00  0.00    -0.550 OA
ATOM     17  O   UNL     1     -16.053  11.510  13.238  1.00  0.00    -0.550 OA
ENDBRANCH  14  15
ENDBRANCH  13  14
ENDBRANCH  12  13
ENDBRANCH  11  12
ENDBRANCH  10  11
ENDBRANCH   9  10
ENDBRANCH   8   9
ENDBRANCH   7   8
ENDBRANCH   6   7
ENDBRANCH   5   6
ENDBRANCH   4   5
ENDBRANCH   3   4
ENDBRANCH   2   3
ENDBRANCH   1   2
BRANCH   1  18
ATOM     18  C   UNL     1     -17.287  11.026   3.969  1.00  0.00     0.000 C 
BRANCH  18  19
ATOM     19  C   UNL     1     -18.059   9.750   3.588  1.00  0.00     0.000 C 
BRANCH  19  20
ATOM     20  C   UNL     1     -18.703   9.858   2.197  1.00  0.00     0.000 C 
BRANCH  20  21
ATOM     21  C   UNL     1     -17.641   9.975   1.089  1.00  0.00     0.000 C 
BRANCH  21  22
ATOM     22  C   UNL     1     -18.178  10.667  -0.172  1.00  0.00     0.000 C 
BRANCH  22  23
ATOM     23  C   UNL     1     -17.669   9.997  -1.460  1.00  0.00     0.000 C 
BRANCH  23  24
ATOM     24  C   UNL     1     -16.223  10.390  -1.814  1.00  0.00    -0.000 C 
BRANCH  24  25
ATOM     25  C   UNL     1     -16.066  11.756  -2.509  1.00  0.00    -0.000 C 
BRANCH  25  26
ATOM     26  C   UNL     1     -16.688  11.798  -3.916  1.00  0.00    -0.000 C 
BRANCH  26  27
ATOM     27  C   UNL     1     -17.425  13.120  -4.198  1.00  0.00    -0.000 C 
BRANCH  27  28
ATOM     28  C   UNL     1     -18.899  13.148  -3.751  1.00  0.00    -0.000 C 
BRANCH  28  29
ATOM     29  C   UNL     1     -19.205  14.251  -2.717  1.00  0.00    -0.000 C 
BRANCH  29  30
ATOM     30  C   UNL     1     -19.455  13.677  -1.313  1.00  0.00    -0.000 C 
BRANCH  30  31
ATOM     31  C   UNL     1     -18.663  14.451  -0.253  1.00  0.00    -0.003 C 
ATOM     32  C   UNL     1     -19.034  13.997   1.155  1.00  0.00     0.004 C 
ENDBRANCH  30  31
ENDBRANCH  29  30
ENDBRANCH  28  29
ENDBRANCH  27  28
ENDBRANCH  26  27
ENDBRANCH  25  26
ENDBRANCH  24  25
ENDBRANCH  23  24
ENDBRANCH  22  23
ENDBRANCH  21  22
ENDBRANCH  20  21
ENDBRANCH  19  20
ENDBRANCH  18  19
ENDBRANCH   1  18
TORSDOF 28
ENDMDL
MODEL 2
REMARK VINA RESULT:    -3.161      1.055      2.910
REMARK INTER + INTRA:         -11.998
REMARK INTER:                  -8.974
REMARK INTRA:                  -3.025
REMARK UNBOUND:                -3.662
REMARK SMILES CCCCCCCCCCCCCCCCCCCCCCCCCCCCCC(=O)[O-]
REMARK SMILES IDX 16 1 17 2 18 3 19 4 20 5 21 6 22 7 23 8 24 9 25 10 26 11
REMARK SMILES IDX 27 12 28 13 29 14 30 15 31 16 32 17 15 18 14 19 13 20 12 21
REMARK SMILES IDX 11 22 10 23 9 24 8 25 7 26 6 27 5 28 4 29 3 30 2 31 1 32
REMARK H PARENT
REMARK Flexibility Score: inf
ROOT
ATOM      1  C   UNL     1     -16.478  10.744   3.976  1.00  0.00     0.000 C 
ENDROOT
BRANCH   1   2
ATOM      2  C   UNL     1     -16.087   9.272   3.713  1.00  0.00     0.000 C 
BRANCH   2   3
ATOM      3  C   UNL     1     -14.663   9.093   3.150  1.00  0.00     0.000 C 
BRANCH   3   4
ATOM      4  C   UNL     1     -13.583   8.884   4.229  1.00  0.00     0.000 C 
BRANCH   4   5
ATOM      5  C   UNL     1     -12.845  10.187   4.613  1.00  0.00     0.000 C 
BRANCH   5   6
ATOM      6  C   UNL     1     -12.626  10.316   6.132  1.00  0.00     0.000 C 
BRANCH   6   7
ATOM      7  C   UNL     1     -13.679   9.576   6.984  1.00  0.00     0.000 C 
BRANCH   7   8
ATOM      8  C   UNL     1     -14.950  10.397   7.267  1.00  0.00     0.000 C 
BRANCH   8   9
ATOM      9  C   UNL     1     -16.113   9.516   7.755  1.00  0.00     0.000 C 
BRANCH   9  10
ATOM     10  C   UNL     1     -17.494  10.082   7.376  1.00  0.00     0.000 C 
BRANCH  10  11
ATOM     11  C   UNL     1     -18.682   9.492   8.168  1.00  0.00     0.000 C 
BRANCH  11  12
ATOM     12  C   UNL     1     -18.370   9.104   9.624  1.00  0.00     0.000 C 
BRANCH  12  13
ATOM     13  C   UNL     1     -18.942  10.102  10.640  1.00  0.00     0.006 C 
BRANCH  13  14
ATOM     14  C   UNL     1     -17.868  11.091  11.102  1.00  0.00     0.053 C 
BRANCH  14  15
ATOM     15  C   UNL     1     -18.283  11.768  12.369  1.00  0.00     0.041 C 
ATOM     16  O   UNL     1     -17.886  12.935  12.623  1.00  0.00    -0.550 OA
ATOM     17  O   UNL     1     -19.149  11.127  13.249  1.00  0.00    -0.550 OA
ENDBRANCH  14  15
ENDBRANCH  13  14
ENDBRANCH  12  13
ENDBRANCH  11  12
ENDBRANCH  10  11
ENDBRANCH   9  10
ENDBRANCH   8   9
ENDBRANCH   7   8
ENDBRANCH   6   7
ENDBRANCH   5   6
ENDBRANCH   4   5
ENDBRANCH   3   4
ENDBRANCH   2   3
ENDBRANCH   1   2
BRANCH   1  18
ATOM     18  C   UNL     1     -17.875  11.119   3.460  1.00  0.00     0.000 C 
BRANCH  18  19
ATOM     19  C   UNL     1     -18.137  10.618   2.029  1.00  0.00     0.000 C 
BRANCH  19  20
ATOM     20  C   UNL     1     -19.018  11.589   1.228  1.00  0.00     0.000 C 
BRANCH  20  21
ATOM     21  C   UNL     1     -18.955  13.016   1.802  1.00  0.00     0.000 C 
BRANCH  21  22
ATOM     22  C   UNL     1     -19.612  14.053   0.880  1.00  0.00     0.000 C 
BRANCH  22  23
ATOM     23  C   UNL     1     -18.627  14.598  -0.168  1.00  0.00     0.000 C 
BRANCH  23  24
ATOM     24  C   UNL     1     -19.221  15.731  -1.025  1.00  0.00    -0.000 C 
BRANCH  24  25
ATOM     25  C   UNL     1     -19.761  15.301  -2.401  1.00  0.00    -0.000 C 
BRANCH  25  26
ATOM     26  C   UNL     1     -19.442  13.836  -2.749  1.00  0.00    -0.000 C 
BRANCH  26  27
ATOM     27  C   UNL     1     -18.562  13.703  -4.005  1.00  0.00    -0.000 C 
BRANCH  27  28
ATOM     28  C   UNL     1     -17.463  12.627  -3.916  1.00  0.00    -0.000 C 
BRANCH  28  29
ATOM     29  C   UNL     1     -17.507  11.811  -2.609  1.00  0.00    -0.000 C 
BRANCH  29  30
ATOM     30  C   UNL     1     -16.102  11.426  -2.117  1.00  0.00    -0.000 C 
BRANCH  30  31
ATOM     31  C   UNL     1     -15.110  11.356  -3.283  1.00  0.00    -0.003 C 
ATOM     32  C   UNL     1     -13.819  10.657  -2.869  1.00  0.00     0.004 C 
ENDBRANCH  30  31
ENDBRANCH  29  30
ENDBRANCH  28  29
ENDBRANCH  27  28
ENDBRANCH  26  27
ENDBRANCH  25  26
ENDBRANCH  24  25
ENDBRANCH  23  24
ENDBRANCH  22  23
ENDBRANCH  21  22
ENDBRANCH  20  21
ENDBRANCH  19  20
ENDBRANCH  18  19
ENDBRANCH   1  18
TORSDOF 28
ENDMDL
MODEL 3
REMARK VINA RESULT:    -3.133      1.589      4.356
REMARK INTER + INTRA:         -11.922
REMARK INTER:                  -8.816
REMARK INTRA:                  -3.107
REMARK UNBOUND:                -3.662
REMARK SMILES CCCCCCCCCCCCCCCCCCCCCCCCCCCCCC(=O)[O-]
REMARK SMILES IDX 16 1 17 2 18 3 19 4 20 5 21 6 22 7 23 8 24 9 25 10 26 11
REMARK SMILES IDX 27 12 28 13 29 14 30 15 31 16 32 17 15 18 14 19 13 20 12 21
REMARK SMILES IDX 11 22 10 23 9 24 8 25 7 26 6 27 5 28 4 29 3 30 2 31 1 32
REMARK H PARENT
REMARK Flexibility Score: inf
ROOT
ATOM      1  C   UNL     1     -12.572   9.817   5.551  1.00  0.00     0.000 C 
ENDROOT
BRANCH   1   2
ATOM      2  C   UNL     1     -13.362  10.196   6.824  1.00  0.00     0.000 C 
BRANCH   2   3
ATOM      3  C   UNL     1     -13.740   8.991   7.709  1.00  0.00     0.000 C 
BRANCH   3   4
ATOM      4  C   UNL     1     -15.119   9.116   8.384  1.00  0.00     0.000 C 
BRANCH   4   5
ATOM      5  C   UNL     1     -16.298   8.966   7.396  1.00  0.00     0.000 C 
BRANCH   5   6
ATOM      6  C   UNL     1     -17.233  10.190   7.402  1.00  0.00     0.000 C 
BRANCH   6   7
ATOM      7  C   UNL     1     -18.724   9.840   7.591  1.00  0.00     0.000 C 
BRANCH   7   8
ATOM      8  C   UNL     1     -19.317  10.315   8.930  1.00  0.00     0.000 C 
BRANCH   8   9
ATOM      9  C   UNL     1     -19.025   9.331  10.075  1.00  0.00     0.000 C 
BRANCH   9  10
ATOM     10  C   UNL     1     -17.785   9.722  10.901  1.00  0.00     0.000 C 
BRANCH  10  11
ATOM     11  C   UNL     1     -17.833  11.135  11.524  1.00  0.00     0.000 C 
BRANCH  11  12
ATOM     12  C   UNL     1     -17.927  11.169  13.061  1.00  0.00     0.000 C 
BRANCH  12  13
ATOM     13  C   UNL     1     -16.705  10.543  13.745  1.00  0.00     0.006 C 
BRANCH  13  14
ATOM     14  C   UNL     1     -15.429  11.320  13.405  1.00  0.00     0.053 C 
BRANCH  14  15
ATOM     15  C   UNL     1     -14.351  10.390  12.949  1.00  0.00     0.041 C 
ATOM     16  O   UNL     1     -14.196  10.153  11.722  1.00  0.00    -0.550 OA
ATOM     17  O   UNL     1     -13.484   9.821  13.875  1.00  0.00    -0.550 OA
ENDBRANCH  14  15
ENDBRANCH  13  14
ENDBRANCH  12  13
ENDBRANCH  11  12
ENDBRANCH  10  11
ENDBRANCH   9  10
ENDBRANCH   8   9
ENDBRANCH   7   8
ENDBRANCH   6   7
ENDBRANCH   5   6
ENDBRANCH   4   5
ENDBRANCH   3   4
ENDBRANCH   2   3
ENDBRANCH   1   2
BRANCH   1  18
ATOM     18  C   UNL     1     -13.337  10.076   4.244  1.00  0.00     0.000 C 
BRANCH  18  19
ATOM     19  C   UNL     1     -14.426   9.023   3.972  1.00  0.00     0.000 C 
BRANCH  19  20
ATOM     20  C   UNL     1     -15.810   9.661   3.775  1.00  0.00     0.000 C 
BRANCH  20  21
ATOM     21  C   UNL     1     -15.864  11.087   4.352  1.00  0.00     0.000 C 
BRANCH  21  22
ATOM     22  C   UNL     1     -17.126  11.850   3.923  1.00  0.00     0.000 C 
BRANCH  22  23
ATOM     23  C   UNL     1     -18.083  10.967   3.104  1.00  0.00     0.000 C 
BRANCH  23  24
ATOM     24  C   UNL     1     -18.996  11.776   2.164  1.00  0.00    -0.000 C 
BRANCH  24  25
ATOM     25  C   UNL     1     -19.416  11.051   0.872  1.00  0.00    -0.000 C 
BRANCH  25  26
ATOM     26  C   UNL     1     -18.343  11.103  -0.231  1.00  0.00    -0.000 C 
BRANCH  26  27
ATOM     27  C   UNL     1     -18.314  12.455  -0.966  1.00  0.00    -0.000 C 
BRANCH  27  28
ATOM     28  C   UNL     1     -17.671  12.418  -2.366  1.00  0.00    -0.000 C 
BRANCH  28  29
ATOM     29  C   UNL     1     -16.923  11.103  -2.663  1.00  0.00    -0.000 C 
BRANCH  29  30
ATOM     30  C   UNL     1     -15.403  11.245  -2.482  1.00  0.00    -0.000 C 
BRANCH  30  31
ATOM     31  C   UNL     1     -14.676  11.148  -3.827  1.00  0.00    -0.003 C 
ATOM     32  C   UNL     1     -13.316  10.474  -3.674  1.00  0.00     0.004 C 
ENDBRANCH  30  31
ENDBRANCH  29  30
ENDBRANCH  28  29
ENDBRANCH  27  28
ENDBRANCH  26  27
ENDBRANCH  25  26
ENDBRANCH  24  25
ENDBRANCH  23  24
ENDBRANCH  22  23
ENDBRANCH  21  22
ENDBRANCH  20  21
ENDBRANCH  19  20
ENDBRANCH  18  19
ENDBRANCH   1  18
TORSDOF 28
ENDMDL
MODEL 4
REMARK VINA RESULT:    -2.921      3.867     11.875
REMARK INTER + INTRA:         -11.363
REMARK INTER:                  -8.061
REMARK INTRA:                  -3.302
REMARK UNBOUND:                -3.662
REMARK SMILES CCCCCCCCCCCCCCCCCCCCCCCCCCCCCC(=O)[O-]
REMARK SMILES IDX 16 1 17 2 18 3 19 4 20 5 21 6 22 7 23 8 24 9 25 10 26 11
REMARK SMILES IDX 27 12 28 13 29 14 30 15 31 16 32 17 15 18 14 19 13 20 12 21
REMARK SMILES IDX 11 22 10 23 9 24 8 25 7 26 6 27 5 28 4 29 3 30 2 31 1 32
REMARK H PARENT
REMARK Flexibility Score: inf
ROOT
ATOM      1  C   UNL     1     -16.440  11.091   6.507  1.00  0.00     0.000 C 
ENDROOT
BRANCH   1   2
ATOM      2  C   UNL     1     -15.086  11.395   5.827  1.00  0.00     0.000 C 
BRANCH   2   3
ATOM      3  C   UNL     1     -14.738  10.437   4.669  1.00  0.00     0.000 C 
BRANCH   3   4
ATOM      4  C   UNL     1     -15.791   9.340   4.424  1.00  0.00     0.000 C 
BRANCH   4   5
ATOM      5  C   UNL     1     -16.617   9.565   3.137  1.00  0.00     0.000 C 
BRANCH   5   6
ATOM      6  C   UNL     1     -18.032  10.097   3.429  1.00  0.00     0.000 C 
BRANCH   6   7
ATOM      7  C   UNL     1     -18.215  11.598   3.118  1.00  0.00     0.000 C 
BRANCH   7   8
ATOM      8  C   UNL     1     -19.339  11.901   2.111  1.00  0.00     0.000 C 
BRANCH   8   9
ATOM      9  C   UNL     1     -19.797  10.640   1.357  1.00  0.00     0.000 C 
BRANCH   9  10
ATOM     10  C   UNL     1     -19.124  10.488  -0.020  1.00  0.00     0.000 C 
BRANCH  10  11
ATOM     11  C   UNL     1     -18.556  11.794  -0.619  1.00  0.00     0.000 C 
BRANCH  11  12
ATOM     12  C   UNL     1     -19.265  12.293  -1.891  1.00  0.00     0.000 C 
BRANCH  12  13
ATOM     13  C   UNL     1     -18.644  13.581  -2.450  1.00  0.00     0.006 C 
BRANCH  13  14
ATOM     14  C   UNL     1     -19.558  14.783  -2.201  1.00  0.00     0.053 C 
BRANCH  14  15
ATOM     15  C   UNL     1     -19.090  15.565  -1.015  1.00  0.00     0.041 C 
ATOM     16  O   UNL     1     -18.798  14.974   0.058  1.00  0.00    -0.550 OA
ATOM     17  O   UNL     1     -18.931  16.943  -1.108  1.00  0.00    -0.550 OA
ENDBRANCH  14  15
ENDBRANCH  13  14
ENDBRANCH  12  13
ENDBRANCH  11  12
ENDBRANCH  10  11
ENDBRANCH   9  10
ENDBRANCH   8   9
ENDBRANCH   7   8
ENDBRANCH   6   7
ENDBRANCH   5   6
ENDBRANCH   4   5
ENDBRANCH   3   4
ENDBRANCH   2   3
ENDBRANCH   1   2
BRANCH   1  18
ATOM     18  C   UNL     1     -16.309  10.518   7.927  1.00  0.00     0.000 C 
BRANCH  18  19
ATOM     19  C   UNL     1     -17.649  10.014   8.492  1.00  0.00     0.000 C 
BRANCH  19  20
ATOM     20  C   UNL     1     -17.742  10.205  10.014  1.00  0.00     0.000 C 
BRANCH  20  21
ATOM     21  C   UNL     1     -19.090   9.706  10.566  1.00  0.00     0.000 C 
BRANCH  21  22
ATOM     22  C   UNL     1     -19.891  10.817  11.260  1.00  0.00     0.000 C 
BRANCH  22  23
ATOM     23  C   UNL     1     -18.981  11.943  11.783  1.00  0.00     0.000 C 
BRANCH  23  24
ATOM     24  C   UNL     1     -19.242  12.294  13.259  1.00  0.00    -0.000 C 
BRANCH  24  25
ATOM     25  C   UNL     1     -19.949  11.200  14.079  1.00  0.00    -0.000 C 
BRANCH  25  26
ATOM     26  C   UNL     1     -18.993  10.408  14.990  1.00  0.00    -0.000 C 
BRANCH  26  27
ATOM     27  C   UNL     1     -18.528   9.086  14.354  1.00  0.00    -0.000 C 
BRANCH  27  28
ATOM     28  C   UNL     1     -17.195   9.169  13.586  1.00  0.00    -0.000 C 
BRANCH  28  29
ATOM     29  C   UNL     1     -16.220  10.217  14.160  1.00  0.00    -0.000 C 
BRANCH  29  30
ATOM     30  C   UNL     1     -15.624  11.117  13.065  1.00  0.00    -0.000 C 
BRANCH  30  31
ATOM     31  C   UNL     1     -14.203  10.673  12.701  1.00  0.00    -0.003 C 
ATOM     32  C   UNL     1     -14.209   9.727  11.505  1.00  0.00     0.004 C 
ENDBRANCH  30  31
ENDBRANCH  29  30
ENDBRANCH  28  29
ENDBRANCH  27  28
ENDBRANCH  26  27
ENDBRANCH  25  26
ENDBRANCH  24  25
ENDBRANCH  23  24
ENDBRANCH  22  23
ENDBRANCH  21  22
ENDBRANCH  20  21
ENDBRANCH  19  20
ENDBRANCH  18  19
ENDBRANCH   1  18
TORSDOF 28
ENDMDL
MODEL 5
REMARK VINA RESULT:    -2.918      1.696      4.380
REMARK INTER + INTRA:         -11.357
REMARK INTER:                  -8.141
REMARK INTRA:                  -3.216
REMARK UNBOUND:                -3.662
REMARK SMILES CCCCCCCCCCCCCCCCCCCCCCCCCCCCCC(=O)[O-]
REMARK SMILES IDX 16 1 17 2 18 3 19 4 20 5 21 6 22 7 23 8 24 9 25 10 26 11
REMARK SMILES IDX 27 12 28 13 29 14 30 15 31 16 32 17 15 18 14 19 13 20 12 21
REMARK SMILES IDX 11 22 10 23 9 24 8 25 7 26 6 27 5 28 4 29 3 30 2 31 1 32
REMARK H PARENT
REMARK Flexibility Score: inf
ROOT
ATOM      1  C   UNL     1     -15.289  11.385   5.664  1.00  0.00     0.000 C 
ENDROOT
BRANCH   1   2
ATOM      2  C   UNL     1     -16.381  11.153   6.733  1.00  0.00     0.000 C 
BRANCH   2   3
ATOM      3  C   UNL     1     -15.995  10.117   7.807  1.00  0.00     0.000 C 
BRANCH   3   4
ATOM      4  C   UNL     1     -17.188   9.317   8.366  1.00  0.00     0.000 C 
BRANCH   4   5
ATOM      5  C   UNL     1     -18.534   9.688   7.703  1.00  0.00     0.000 C 
BRANCH   5   6
ATOM      6  C   UNL     1     -19.493  10.403   8.674  1.00  0.00     0.000 C 
BRANCH   6   7
ATOM      7  C   UNL     1     -18.951  10.530  10.113  1.00  0.00     0.000 C 
BRANCH   7   8
ATOM      8  C   UNL     1     -19.719  11.534  10.990  1.00  0.00     0.000 C 
BRANCH   8   9
ATOM      9  C   UNL     1     -18.823  12.170  12.067  1.00  0.00     0.000 C 
BRANCH   9  10
ATOM     10  C   UNL     1     -19.395  12.021  13.489  1.00  0.00     0.000 C 
BRANCH  10  11
ATOM     11  C   UNL     1     -19.570  10.565  13.974  1.00  0.00     0.000 C 
BRANCH  11  12
ATOM     12  C   UNL     1     -18.377   9.989  14.758  1.00  0.00     0.000 C 
BRANCH  12  13
ATOM     13  C   UNL     1     -17.213   9.576  13.848  1.00  0.00     0.006 C 
BRANCH  13  14
ATOM     14  C   UNL     1     -15.975  10.435  14.119  1.00  0.00     0.053 C 
BRANCH  14  15
ATOM     15  C   UNL     1     -15.202  10.659  12.858  1.00  0.00     0.041 C 
ATOM     16  O   UNL     1     -14.055  11.177  12.901  1.00  0.00    -0.550 OA
ATOM     17  O   UNL     1     -15.728  10.250  11.638  1.00  0.00    -0.550 OA
ENDBRANCH  14  15
ENDBRANCH  13  14
ENDBRANCH  12  13
ENDBRANCH  11  12
ENDBRANCH  10  11
ENDBRANCH   9  10
ENDBRANCH   8   9
ENDBRANCH   7   8
ENDBRANCH   6   7
ENDBRANCH   5   6
ENDBRANCH   4   5
ENDBRANCH   3   4
ENDBRANCH   2   3
ENDBRANCH   1   2
BRANCH   1  18
ATOM     18  C   UNL     1     -15.398  10.451   4.449  1.00  0.00     0.000 C 
BRANCH  18  19
ATOM     19  C   UNL     1     -16.808   9.858   4.278  1.00  0.00     0.000 C 
BRANCH  19  20
ATOM     20  C   UNL     1     -17.447  10.264   2.940  1.00  0.00     0.000 C 
BRANCH  20  21
ATOM     21  C   UNL     1     -18.189  11.607   3.052  1.00  0.00     0.000 C 
BRANCH  21  22
ATOM     22  C   UNL     1     -19.065  11.901   1.825  1.00  0.00     0.000 C 
BRANCH  22  23
ATOM     23  C   UNL     1     -18.548  11.188   0.563  1.00  0.00     0.000 C 
BRANCH  23  24
ATOM     24  C   UNL     1     -19.021  11.853  -0.743  1.00  0.00    -0.000 C 
BRANCH  24  25
ATOM     25  C   UNL     1     -18.501  13.283  -0.977  1.00  0.00    -0.000 C 
BRANCH  25  26
ATOM     26  C   UNL     1     -18.917  13.866  -2.339  1.00  0.00    -0.000 C 
BRANCH  26  27
ATOM     27  C   UNL     1     -18.669  12.890  -3.503  1.00  0.00    -0.000 C 
BRANCH  27  28
ATOM     28  C   UNL     1     -17.312  13.058  -4.212  1.00  0.00    -0.000 C 
BRANCH  28  29
ATOM     29  C   UNL     1     -16.431  11.794  -4.160  1.00  0.00    -0.000 C 
BRANCH  29  30
ATOM     30  C   UNL     1     -15.506  11.780  -2.932  1.00  0.00    -0.000 C 
BRANCH  30  31
ATOM     31  C   UNL     1     -15.761  10.544  -2.063  1.00  0.00    -0.003 C 
ATOM     32  C   UNL     1     -16.804   9.629  -2.697  1.00  0.00     0.004 C 
ENDBRANCH  30  31
ENDBRANCH  29  30
ENDBRANCH  28  29
ENDBRANCH  27  28
ENDBRANCH  26  27
ENDBRANCH  25  26
ENDBRANCH  24  25
ENDBRANCH  23  24
ENDBRANCH  22  23
ENDBRANCH  21  22
ENDBRANCH  20  21
ENDBRANCH  19  20
ENDBRANCH  18  19
ENDBRANCH   1  18
TORSDOF 28
ENDMDL
MODEL 6
REMARK VINA RESULT:    -2.917      1.616      5.174
REMARK INTER + INTRA:         -11.353
REMARK INTER:                  -8.265
REMARK INTRA:                  -3.088
REMARK UNBOUND:                -3.662
REMARK SMILES CCCCCCCCCCCCCCCCCCCCCCCCCCCCCC(=O)[O-]
REMARK SMILES IDX 16 1 17 2 18 3 19 4 20 5 21 6 22 7 23 8 24 9 25 10 26 11
REMARK SMILES IDX 27 12 28 13 29 14 30 15 31 16 32 17 15 18 14 19 13 20 12 21
REMARK SMILES IDX 11 22 10 23 9 24 8 25 7 26 6 27 5 28 4 29 3 30 2 31 1 32
REMARK H PARENT
REMARK Flexibility Score: inf
ROOT
ATOM      1  C   UNL     1     -18.672  14.063   0.183  1.00  0.00     0.000 C 
ENDROOT
BRANCH   1   2
ATOM      2  C   UNL     1     -19.847  13.797   1.151  1.00  0.00     0.000 C 
BRANCH   2   3
ATOM      3  C   UNL     1     -19.957  12.330   1.614  1.00  0.00     0.000 C 
BRANCH   3   4
ATOM      4  C   UNL     1     -18.881  11.911   2.634  1.00  0.00     0.000 C 
BRANCH   4   5
ATOM      5  C   UNL     1     -18.319  10.494   2.380  1.00  0.00     0.000 C 
BRANCH   5   6
ATOM      6  C   UNL     1     -17.160  10.139   3.329  1.00  0.00     0.000 C 
BRANCH   6   7
ATOM      7  C   UNL     1     -16.694  11.312   4.218  1.00  0.00     0.000 C 
BRANCH   7   8
ATOM      8  C   UNL     1     -15.309  11.107   4.857  1.00  0.00     0.000 C 
BRANCH   8   9
ATOM      9  C   UNL     1     -15.275  11.563   6.326  1.00  0.00     0.000 C 
BRANCH   9  10
ATOM     10  C   UNL     1     -16.498  11.085   7.131  1.00  0.00     0.000 C 
BRANCH  10  11
ATOM     11  C   UNL     1     -16.517   9.576   7.458  1.00  0.00     0.000 C 
BRANCH  11  12
ATOM     12  C   UNL     1     -17.366   9.182   8.681  1.00  0.00     0.000 C 
BRANCH  12  13
ATOM     13  C   UNL     1     -17.732  10.384   9.562  1.00  0.00     0.006 C 
BRANCH  13  14
ATOM     14  C   UNL     1     -17.061  10.281  10.934  1.00  0.00     0.053 C 
BRANCH  14  15
ATOM     15  C   UNL     1     -17.817  11.075  11.952  1.00  0.00     0.041 C 
ATOM     16  O   UNL     1     -17.198  11.739  12.825  1.00  0.00    -0.550 OA
ATOM     17  O   UNL     1     -19.206  11.119  11.907  1.00  0.00    -0.550 OA
ENDBRANCH  14  15
ENDBRANCH  13  14
ENDBRANCH  12  13
ENDBRANCH  11  12
ENDBRANCH  10  11
ENDBRANCH   9  10
ENDBRANCH   8   9
ENDBRANCH   7   8
ENDBRANCH   6   7
ENDBRANCH   5   6
ENDBRANCH   4   5
ENDBRANCH   3   4
ENDBRANCH   2   3
ENDBRANCH   1   2
BRANCH   1  18
ATOM     18  C   UNL     1     -18.771  15.402  -0.564  1.00  0.00     0.000 C 
BRANCH  18  19
ATOM     19  C   UNL     1     -20.122  15.588  -1.278  1.00  0.00     0.000 C 
BRANCH  19  20
ATOM     20  C   UNL     1     -19.985  15.496  -2.806  1.00  0.00     0.000 C 
BRANCH  20  21
ATOM     21  C   UNL     1     -19.843  14.038  -3.276  1.00  0.00     0.000 C 
BRANCH  21  22
ATOM     22  C   UNL     1     -18.420  13.705  -3.748  1.00  0.00     0.000 C 
BRANCH  22  23
ATOM     23  C   UNL     1     -18.355  12.349  -4.473  1.00  0.00     0.000 C 
BRANCH  23  24
ATOM     24  C   UNL     1     -17.601  11.272  -3.672  1.00  0.00    -0.000 C 
BRANCH  24  25
ATOM     25  C   UNL     1     -17.301  11.633  -2.206  1.00  0.00    -0.000 C 
BRANCH  25  26
ATOM     26  C   UNL     1     -17.960  10.676  -1.196  1.00  0.00    -0.000 C 
BRANCH  26  27
ATOM     27  C   UNL     1     -17.288   9.291  -1.167  1.00  0.00    -0.000 C 
BRANCH  27  28
ATOM     28  C   UNL     1     -15.791   9.304  -0.806  1.00  0.00    -0.000 C 
BRANCH  28  29
ATOM     29  C   UNL     1     -14.868   8.992  -2.001  1.00  0.00    -0.000 C 
BRANCH  29  30
ATOM     30  C   UNL     1     -13.803  10.081  -2.213  1.00  0.00    -0.000 C 
BRANCH  30  31
ATOM     31  C   UNL     1     -13.975  10.762  -3.575  1.00  0.00    -0.003 C 
ATOM     32  C   UNL     1     -12.899  10.312  -4.558  1.00  0.00     0.004 C 
ENDBRANCH  30  31
ENDBRANCH  29  30
ENDBRANCH  28  29
ENDBRANCH  27  28
ENDBRANCH  26  27
ENDBRANCH  25  26
ENDBRANCH  24  25
ENDBRANCH  23  24
ENDBRANCH  22  23
ENDBRANCH  21  22
ENDBRANCH  20  21
ENDBRANCH  19  20
ENDBRANCH  18  19
ENDBRANCH   1  18
TORSDOF 28
ENDMDL
MODEL 7
REMARK VINA RESULT:    -2.843      4.686     12.132
REMARK INTER + INTRA:         -11.159
REMARK INTER:                  -7.408
REMARK INTRA:                  -3.751
REMARK UNBOUND:                -3.662
REMARK SMILES CCCCCCCCCCCCCCCCCCCCCCCCCCCCCC(=O)[O-]
REMARK SMILES IDX 16 1 17 2 18 3 19 4 20 5 21 6 22 7 23 8 24 9 25 10 26 11
REMARK SMILES IDX 27 12 28 13 29 14 30 15 31 16 32 17 15 18 14 19 13 20 12 21
REMARK SMILES IDX 11 22 10 23 9 24 8 25 7 26 6 27 5 28 4 29 3 30 2 31 1 32
REMARK H PARENT
REMARK Flexibility Score: inf
ROOT
ATOM      1  C   UNL     1     -16.546  11.116   6.282  1.00  0.00     0.000 C 
ENDROOT
BRANCH   1   2
ATOM      2  C   UNL     1     -15.218  11.350   5.526  1.00  0.00     0.000 C 
BRANCH   2   3
ATOM      3  C   UNL     1     -15.003  10.400   4.331  1.00  0.00     0.000 C 
BRANCH   3   4
ATOM      4  C   UNL     1     -16.173   9.430   4.081  1.00  0.00     0.000 C 
BRANCH   4   5
ATOM      5  C   UNL     1     -16.954   9.736   2.783  1.00  0.00     0.000 C 
BRANCH   5   6
ATOM      6  C   UNL     1     -18.311  10.411   3.056  1.00  0.00     0.000 C 
BRANCH   6   7
ATOM      7  C   UNL     1     -18.280  11.950   2.951  1.00  0.00     0.000 C 
BRANCH   7   8
ATOM      8  C   UNL     1     -19.267  12.532   1.925  1.00  0.00     0.000 C 
BRANCH   8   9
ATOM      9  C   UNL     1     -19.541  11.557   0.766  1.00  0.00     0.000 C 
BRANCH   9  10
ATOM     10  C   UNL     1     -18.499  11.659  -0.363  1.00  0.00     0.000 C 
BRANCH  10  11
ATOM     11  C   UNL     1     -18.117  10.317  -1.024  1.00  0.00     0.000 C 
BRANCH  11  12
ATOM     12  C   UNL     1     -16.650   9.889  -0.834  1.00  0.00     0.000 C 
BRANCH  12  13
ATOM     13  C   UNL     1     -15.858   9.885  -2.149  1.00  0.00     0.006 C 
BRANCH  13  14
ATOM     14  C   UNL     1     -15.434  11.305  -2.537  1.00  0.00     0.053 C 
BRANCH  14  15
ATOM     15  C   UNL     1     -15.974  11.666  -3.884  1.00  0.00     0.041 C 
ATOM     16  O   UNL     1     -16.988  11.076  -4.339  1.00  0.00    -0.550 OA
ATOM     17  O   UNL     1     -15.385  12.691  -4.617  1.00  0.00    -0.550 OA
ENDBRANCH  14  15
ENDBRANCH  13  14
ENDBRANCH  12  13
ENDBRANCH  11  12
ENDBRANCH  10  11
ENDBRANCH   9  10
ENDBRANCH   8   9
ENDBRANCH   7   8
ENDBRANCH   6   7
ENDBRANCH   5   6
ENDBRANCH   4   5
ENDBRANCH   3   4
ENDBRANCH   2   3
ENDBRANCH   1   2
BRANCH   1  18
ATOM     18  C   UNL     1     -16.362  10.622   7.725  1.00  0.00     0.000 C 
BRANCH  18  19
ATOM     19  C   UNL     1     -17.660  10.066   8.335  1.00  0.00     0.000 C 
BRANCH  19  20
ATOM     20  C   UNL     1     -17.705  10.243   9.861  1.00  0.00     0.000 C 
BRANCH  20  21
ATOM     21  C   UNL     1     -19.014   9.696  10.457  1.00  0.00     0.000 C 
BRANCH  21  22
ATOM     22  C   UNL     1     -19.824  10.774  11.192  1.00  0.00     0.000 C 
BRANCH  22  23
ATOM     23  C   UNL     1     -18.934  11.930  11.682  1.00  0.00     0.000 C 
BRANCH  23  24
ATOM     24  C   UNL     1     -19.145  12.266  13.170  1.00  0.00    -0.000 C 
BRANCH  24  25
ATOM     25  C   UNL     1     -19.874  11.185  13.990  1.00  0.00    -0.000 C 
BRANCH  25  26
ATOM     26  C   UNL     1     -18.930  10.357  14.880  1.00  0.00    -0.000 C 
BRANCH  26  27
ATOM     27  C   UNL     1     -18.558   9.003  14.250  1.00  0.00    -0.000 C 
BRANCH  27  28
ATOM     28  C   UNL     1     -17.202   8.977  13.521  1.00  0.00    -0.000 C 
BRANCH  28  29
ATOM     29  C   UNL     1     -16.233  10.083  13.987  1.00  0.00    -0.000 C 
BRANCH  29  30
ATOM     30  C   UNL     1     -15.588  10.827  12.806  1.00  0.00    -0.000 C 
BRANCH  30  31
ATOM     31  C   UNL     1     -14.232  10.212  12.443  1.00  0.00    -0.003 C 
ATOM     32  C   UNL     1     -14.280   9.538  11.075  1.00  0.00     0.004 C 
ENDBRANCH  30  31
ENDBRANCH  29  30
ENDBRANCH  28  29
ENDBRANCH  27  28
ENDBRANCH  26  27
ENDBRANCH  25  26
ENDBRANCH  24  25
ENDBRANCH  23  24
ENDBRANCH  22  23
ENDBRANCH  21  22
ENDBRANCH  20  21
ENDBRANCH  19  20
ENDBRANCH  18  19
ENDBRANCH   1  18
TORSDOF 28
ENDMDL
MODEL 8
REMARK VINA RESULT:    -2.840      4.131     11.663
REMARK INTER + INTRA:         -11.151
REMARK INTER:                  -7.967
REMARK INTRA:                  -3.183
REMARK UNBOUND:                -3.662
REMARK SMILES CCCCCCCCCCCCCCCCCCCCCCCCCCCCCC(=O)[O-]
REMARK SMILES IDX 16 1 17 2 18 3 19 4 20 5 21 6 22 7 23 8 24 9 25 10 26 11
REMARK SMILES IDX 27 12 28 13 29 14 30 15 31 16 32 17 15 18 14 19 13 20 12 21
REMARK SMILES IDX 11 22 10 23 9 24 8 25 7 26 6 27 5 28 4 29 3 30 2 31 1 32
REMARK H PARENT
REMARK Flexibility Score: inf
ROOT
ATOM      1  C   UNL     1     -14.882  11.124   5.312  1.00  0.00     0.000 C 
ENDROOT
BRANCH   1   2
ATOM      2  C   UNL     1     -15.845  10.548   4.250  1.00  0.00     0.000 C 
BRANCH   2   3
ATOM      3  C   UNL     1     -17.107  11.403   4.018  1.00  0.00     0.000 C 
BRANCH   3   4
ATOM      4  C   UNL     1     -17.946  10.968   2.802  1.00  0.00     0.000 C 
BRANCH   4   5
ATOM      5  C   UNL     1     -19.386  11.531   2.822  1.00  0.00     0.000 C 
BRANCH   5   6
ATOM      6  C   UNL     1     -19.735  12.305   1.537  1.00  0.00     0.000 C 
BRANCH   6   7
ATOM      7  C   UNL     1     -19.016  13.664   1.407  1.00  0.00     0.000 C 
BRANCH   7   8
ATOM      8  C   UNL     1     -18.693  14.070  -0.042  1.00  0.00     0.000 C 
BRANCH   8   9
ATOM      9  C   UNL     1     -18.946  12.923  -1.035  1.00  0.00     0.000 C 
BRANCH   9  10
ATOM     10  C   UNL     1     -17.685  12.523  -1.824  1.00  0.00     0.000 C 
BRANCH  10  11
ATOM     11  C   UNL     1     -17.460  11.002  -1.970  1.00  0.00     0.000 C 
BRANCH  11  12
ATOM     12  C   UNL     1     -17.552  10.198  -0.661  1.00  0.00     0.000 C 
BRANCH  12  13
ATOM     13  C   UNL     1     -16.384   9.218  -0.483  1.00  0.00     0.006 C 
BRANCH  13  14
ATOM     14  C   UNL     1     -15.612   9.043  -1.794  1.00  0.00     0.053 C 
BRANCH  14  15
ATOM     15  C   UNL     1     -14.178   9.428  -1.617  1.00  0.00     0.041 C 
ATOM     16  O   UNL     1     -13.523   8.998  -0.631  1.00  0.00    -0.550 OA
ATOM     17  O   UNL     1     -13.549  10.225  -2.567  1.00  0.00    -0.550 OA
ENDBRANCH  14  15
ENDBRANCH  13  14
ENDBRANCH  12  13
ENDBRANCH  11  12
ENDBRANCH  10  11
ENDBRANCH   9  10
ENDBRANCH   8   9
ENDBRANCH   7   8
ENDBRANCH   6   7
ENDBRANCH   5   6
ENDBRANCH   4   5
ENDBRANCH   3   4
ENDBRANCH   2   3
ENDBRANCH   1   2
BRANCH   1  18
ATOM     18  C   UNL     1     -15.112  10.571   6.727  1.00  0.00     0.000 C 
BRANCH  18  19
ATOM     19  C   UNL     1     -15.572   9.103   6.725  1.00  0.00     0.000 C 
BRANCH  19  20
ATOM     20  C   UNL     1     -17.017   8.949   7.224  1.00  0.00     0.000 C 
BRANCH  20  21
ATOM     21  C   UNL     1     -17.577  10.280   7.755  1.00  0.00     0.000 C 
BRANCH  21  22
ATOM     22  C   UNL     1     -18.909  10.105   8.499  1.00  0.00     0.000 C 
BRANCH  22  23
ATOM     23  C   UNL     1     -18.723   9.415   9.861  1.00  0.00     0.000 C 
BRANCH  23  24
ATOM     24  C   UNL     1     -17.565  10.008  10.685  1.00  0.00    -0.000 C 
BRANCH  24  25
ATOM     25  C   UNL     1     -17.937  11.210  11.571  1.00  0.00    -0.000 C 
BRANCH  25  26
ATOM     26  C   UNL     1     -18.817  10.830  12.776  1.00  0.00    -0.000 C 
BRANCH  26  27
ATOM     27  C   UNL     1     -18.282   9.604  13.537  1.00  0.00    -0.000 C 
BRANCH  27  28
ATOM     28  C   UNL     1     -17.209   9.917  14.597  1.00  0.00    -0.000 C 
BRANCH  28  29
ATOM     29  C   UNL     1     -15.805   9.403  14.220  1.00  0.00    -0.000 C 
BRANCH  29  30
ATOM     30  C   UNL     1     -14.711  10.449  14.488  1.00  0.00    -0.000 C 
BRANCH  30  31
ATOM     31  C   UNL     1     -14.205  11.065  13.179  1.00  0.00    -0.003 C 
ATOM     32  C   UNL     1     -14.199  10.037  12.051  1.00  0.00     0.004 C 
ENDBRANCH  30  31
ENDBRANCH  29  30
ENDBRANCH  28  29
ENDBRANCH  27  28
ENDBRANCH  26  27
ENDBRANCH  25  26
ENDBRANCH  24  25
ENDBRANCH  23  24
ENDBRANCH  22  23
ENDBRANCH  21  22
ENDBRANCH  20  21
ENDBRANCH  19  20
ENDBRANCH  18  19
ENDBRANCH   1  18
TORSDOF 28
ENDMDL
MODEL 9
REMARK VINA RESULT:    -2.837      1.592      3.385
REMARK INTER + INTRA:         -11.144
REMARK INTER:                  -8.546
REMARK INTRA:                  -2.598
REMARK UNBOUND:                -3.662
REMARK SMILES CCCCCCCCCCCCCCCCCCCCCCCCCCCCCC(=O)[O-]
REMARK SMILES IDX 16 1 17 2 18 3 19 4 20 5 21 6 22 7 23 8 24 9 25 10 26 11
REMARK SMILES IDX 27 12 28 13 29 14 30 15 31 16 32 17 15 18 14 19 13 20 12 21
REMARK SMILES IDX 11 22 10 23 9 24 8 25 7 26 6 27 5 28 4 29 3 30 2 31 1 32
REMARK H PARENT
REMARK Flexibility Score: inf
ROOT
ATOM      1  C   UNL     1     -17.392  11.382   3.752  1.00  0.00     0.000 C 
ENDROOT
BRANCH   1   2
ATOM      2  C   UNL     1     -16.797  10.005   4.126  1.00  0.00     0.000 C 
BRANCH   2   3
ATOM      3  C   UNL     1     -15.773   9.468   3.106  1.00  0.00     0.000 C 
BRANCH   3   4
ATOM      4  C   UNL     1     -14.453   8.986   3.737  1.00  0.00     0.000 C 
BRANCH   4   5
ATOM      5  C   UNL     1     -13.581  10.140   4.282  1.00  0.00     0.000 C 
BRANCH   5   6
ATOM      6  C   UNL     1     -12.577   9.668   5.350  1.00  0.00     0.000 C 
BRANCH   6   7
ATOM      7  C   UNL     1     -13.217   9.360   6.720  1.00  0.00     0.000 C 
BRANCH   7   8
ATOM      8  C   UNL     1     -14.358  10.316   7.112  1.00  0.00     0.000 C 
BRANCH   8   9
ATOM      9  C   UNL     1     -15.676   9.567   7.379  1.00  0.00     0.000 C 
BRANCH   9  10
ATOM     10  C   UNL     1     -16.647  10.362   8.271  1.00  0.00     0.000 C 
BRANCH  10  11
ATOM     11  C   UNL     1     -16.938   9.728   9.649  1.00  0.00     0.000 C 
BRANCH  11  12
ATOM     12  C   UNL     1     -15.711   9.563  10.565  1.00  0.00     0.000 C 
BRANCH  12  13
ATOM     13  C   UNL     1     -16.069   9.638  12.055  1.00  0.00     0.006 C 
BRANCH  13  14
ATOM     14  C   UNL     1     -15.276  10.747  12.753  1.00  0.00     0.053 C 
BRANCH  14  15
ATOM     15  C   UNL     1     -14.064  10.186  13.426  1.00  0.00     0.041 C 
ATOM     16  O   UNL     1     -13.562  10.773  14.420  1.00  0.00    -0.550 OA
ATOM     17  O   UNL     1     -13.515   8.988  12.983  1.00  0.00    -0.550 OA
ENDBRANCH  14  15
ENDBRANCH  13  14
ENDBRANCH  12  13
ENDBRANCH  11  12
ENDBRANCH  10  11
ENDBRANCH   9  10
ENDBRANCH   8   9
ENDBRANCH   7   8
ENDBRANCH   6   7
ENDBRANCH   5   6
ENDBRANCH   4   5
ENDBRANCH   3   4
ENDBRANCH   2   3
ENDBRANCH   1   2
BRANCH   1  18
ATOM     18  C   UNL     1     -18.755  11.300   3.046  1.00  0.00     0.000 C 
BRANCH  18  19
ATOM     19  C   UNL     1     -18.628  11.030   1.536  1.00  0.00     0.000 C 
BRANCH  19  20
ATOM     20  C   UNL     1     -19.477  12.002   0.702  1.00  0.00     0.000 C 
BRANCH  20  21
ATOM     21  C   UNL     1     -19.339  13.450   1.204  1.00  0.00     0.000 C 
BRANCH  21  22
ATOM     22  C   UNL     1     -19.980  14.469   0.251  1.00  0.00     0.000 C 
BRANCH  22  23
ATOM     23  C   UNL     1     -18.986  14.971  -0.811  1.00  0.00     0.000 C 
BRANCH  23  24
ATOM     24  C   UNL     1     -19.654  15.289  -2.161  1.00  0.00    -0.000 C 
BRANCH  24  25
ATOM     25  C   UNL     1     -19.352  14.292  -3.295  1.00  0.00    -0.000 C 
BRANCH  25  26
ATOM     26  C   UNL     1     -19.805  12.856  -2.979  1.00  0.00    -0.000 C 
BRANCH  26  27
ATOM     27  C   UNL     1     -18.653  11.838  -3.064  1.00  0.00    -0.000 C 
BRANCH  27  28
ATOM     28  C   UNL     1     -17.587  12.154  -4.130  1.00  0.00    -0.000 C 
BRANCH  28  29
ATOM     29  C   UNL     1     -16.149  12.177  -3.573  1.00  0.00    -0.000 C 
BRANCH  29  30
ATOM     30  C   UNL     1     -16.032  11.425  -2.237  1.00  0.00    -0.000 C 
BRANCH  30  31
ATOM     31  C   UNL     1     -15.360  10.061  -2.430  1.00  0.00    -0.003 C 
ATOM     32  C   UNL     1     -13.841  10.177  -2.353  1.00  0.00     0.004 C 
ENDBRANCH  30  31
ENDBRANCH  29  30
ENDBRANCH  28  29
ENDBRANCH  27  28
ENDBRANCH  26  27
ENDBRANCH  25  26
ENDBRANCH  24  25
ENDBRANCH  23  24
ENDBRANCH  22  23
ENDBRANCH  21  22
ENDBRANCH  20  21
ENDBRANCH  19  20
ENDBRANCH  18  19
ENDBRANCH   1  18
TORSDOF 28
ENDMDL
