MODEL 1
REMARK VINA RESULT:    -6.632      0.000      0.000
REMARK INTER + INTRA:          -6.826
REMARK INTER:                  -6.826
REMARK INTRA:                   0.000
REMARK UNBOUND:                 0.000
REMARK SMILES O=c1ccc2ccc(O)cc2o1
REMARK SMILES IDX 6 1 7 2 8 3 10 4 11 5 5 6 4 7 3 8 2 9 1 10 12 11 9 12
REMARK H PARENT 9 13
REMARK Flexibility Score: inf
ROOT
ATOM      1  C   UNL     1      41.771  59.814  48.210  1.00  0.00     0.016 A 
ATOM      2  C   UNL     1      41.950  61.046  48.848  1.00  0.00     0.047 A 
ATOM      3  C   UNL     1      43.187  61.372  49.423  1.00  0.00     0.119 A 
ATOM      4  C   UNL     1      44.248  60.462  49.359  1.00  0.00     0.094 A 
ATOM      5  C   UNL     1      44.079  59.227  48.723  1.00  0.00     0.142 A 
ATOM      6  C   UNL     1      42.833  58.901  48.145  1.00  0.00     0.018 A 
ATOM      7  C   UNL     1      42.693  57.659  47.517  1.00  0.00     0.019 A 
ATOM      8  C   UNL     1      43.780  56.786  47.480  1.00  0.00     0.094 A 
ATOM      9  C   UNL     1      44.984  57.177  48.073  1.00  0.00     0.336 A 
ATOM     10  O   UNL     1      45.977  56.402  48.050  1.00  0.00    -0.246 OA
ATOM     11  O   UNL     1      45.091  58.364  48.665  1.00  0.00    -0.423 OA
ENDROOT
BRANCH   3  12
ATOM     12  O   UNL     1      43.372  62.598  50.059  1.00  0.00    -0.508 OA
ATOM     13  H   UNL     1      42.720  62.936  50.757  1.00  0.00     0.293 HD
ENDBRANCH   3  12
TORSDOF 1
ENDMDL
MODEL 2
REMARK VINA RESULT:    -6.601      1.296      4.133
REMARK INTER + INTRA:          -6.794
REMARK INTER:                  -6.794
REMARK INTRA:                   0.000
REMARK UNBOUND:                 0.000
REMARK SMILES O=c1ccc2ccc(O)cc2o1
REMARK SMILES IDX 6 1 7 2 8 3 10 4 11 5 5 6 4 7 3 8 2 9 1 10 12 11 9 12
REMARK H PARENT 9 13
REMARK Flexibility Score: inf
ROOT
ATOM      1  C   UNL     1      44.025  57.138  47.462  1.00  0.00     0.016 A 
ATOM      2  C   UNL     1      45.268  56.737  47.963  1.00  0.00     0.047 A 
ATOM      3  C   UNL     1      45.923  57.509  48.934  1.00  0.00     0.119 A 
ATOM      4  C   UNL     1      45.330  58.686  49.406  1.00  0.00     0.094 A 
ATOM      5  C   UNL     1      44.087  59.095  48.912  1.00  0.00     0.142 A 
ATOM      6  C   UNL     1      43.430  58.317  47.933  1.00  0.00     0.018 A 
ATOM      7  C   UNL     1      42.189  58.751  47.457  1.00  0.00     0.019 A 
ATOM      8  C   UNL     1      41.640  59.931  47.958  1.00  0.00     0.094 A 
ATOM      9  C   UNL     1      42.347  60.651  48.927  1.00  0.00     0.336 A 
ATOM     10  O   UNL     1      41.868  61.718  49.391  1.00  0.00    -0.246 OA
ATOM     11  O   UNL     1      43.527  60.215  49.362  1.00  0.00    -0.423 OA
ENDROOT
BRANCH   3  12
ATOM     12  O   UNL     1      47.161  57.114  49.437  1.00  0.00    -0.508 OA
ATOM     13  H   UNL     1      47.265  56.269  49.986  1.00  0.00     0.293 HD
ENDBRANCH   3  12
TORSDOF 1
ENDMDL
MODEL 3
REMARK VINA RESULT:    -6.594      2.390      3.506
REMARK INTER + INTRA:          -6.787
REMARK INTER:                  -6.787
REMARK INTRA:                   0.000
REMARK UNBOUND:                 0.000
REMARK SMILES O=c1ccc2ccc(O)cc2o1
REMARK SMILES IDX 6 1 7 2 8 3 10 4 11 5 5 6 4 7 3 8 2 9 1 10 12 11 9 12
REMARK H PARENT 9 13
REMARK Flexibility Score: inf
ROOT
ATOM      1  C   UNL     1      42.010  57.245  46.446  1.00  0.00     0.016 A 
ATOM      2  C   UNL     1      40.638  57.325  46.705  1.00  0.00     0.047 A 
ATOM      3  C   UNL     1      40.177  57.774  47.952  1.00  0.00     0.119 A 
ATOM      4  C   UNL     1      41.095  58.143  48.943  1.00  0.00     0.094 A 
ATOM      5  C   UNL     1      42.470  58.067  48.693  1.00  0.00     0.142 A 
ATOM      6  C   UNL     1      42.931  57.614  47.437  1.00  0.00     0.018 A 
ATOM      7  C   UNL     1      44.309  57.547  47.217  1.00  0.00     0.019 A 
ATOM      8  C   UNL     1      45.183  57.927  48.236  1.00  0.00     0.094 A 
ATOM      9  C   UNL     1      44.655  58.365  49.455  1.00  0.00     0.336 A 
ATOM     10  O   UNL     1      45.428  58.711  50.387  1.00  0.00    -0.246 OA
ATOM     11  O   UNL     1      43.338  58.418  49.638  1.00  0.00    -0.423 OA
ENDROOT
BRANCH   3  12
ATOM     12  O   UNL     1      38.812  57.857  48.215  1.00  0.00    -0.508 OA
ATOM     13  H   UNL     1      38.421  58.621  48.752  1.00  0.00     0.293 HD
ENDBRANCH   3  12
TORSDOF 1
ENDMDL
MODEL 4
REMARK VINA RESULT:    -6.576      2.252      2.955
REMARK INTER + INTRA:          -6.768
REMARK INTER:                  -6.768
REMARK INTRA:                   0.000
REMARK UNBOUND:                 0.000
REMARK SMILES O=c1ccc2ccc(O)cc2o1
REMARK SMILES IDX 6 1 7 2 8 3 10 4 11 5 5 6 4 7 3 8 2 9 1 10 12 11 9 12
REMARK H PARENT 9 13
REMARK Flexibility Score: inf
ROOT
ATOM      1  C   UNL     1      44.760  59.050  48.587  1.00  0.00     0.016 A 
ATOM      2  C   UNL     1      44.513  60.043  49.540  1.00  0.00     0.047 A 
ATOM      3  C   UNL     1      43.274  60.699  49.574  1.00  0.00     0.119 A 
ATOM      4  C   UNL     1      42.279  60.358  48.651  1.00  0.00     0.094 A 
ATOM      5  C   UNL     1      42.516  59.366  47.694  1.00  0.00     0.142 A 
ATOM      6  C   UNL     1      43.765  58.707  47.661  1.00  0.00     0.018 A 
ATOM      7  C   UNL     1      43.973  57.721  46.693  1.00  0.00     0.019 A 
ATOM      8  C   UNL     1      42.950  57.417  45.795  1.00  0.00     0.094 A 
ATOM      9  C   UNL     1      41.739  58.110  45.887  1.00  0.00     0.336 A 
ATOM     10  O   UNL     1      40.804  57.851  45.085  1.00  0.00    -0.246 OA
ATOM     11  O   UNL     1      41.567  59.045  46.818  1.00  0.00    -0.423 OA
ENDROOT
BRANCH   3  12
ATOM     12  O   UNL     1      43.022  61.689  50.522  1.00  0.00    -0.508 OA
ATOM     13  H   UNL     1      43.770  62.110  51.060  1.00  0.00     0.293 HD
ENDBRANCH   3  12
TORSDOF 1
ENDMDL
MODEL 5
REMARK VINA RESULT:    -6.570      2.282      3.799
REMARK INTER + INTRA:          -6.762
REMARK INTER:                  -6.762
REMARK INTRA:                   0.000
REMARK UNBOUND:                 0.000
REMARK SMILES O=c1ccc2ccc(O)cc2o1
REMARK SMILES IDX 6 1 7 2 8 3 10 4 11 5 5 6 4 7 3 8 2 9 1 10 12 11 9 12
REMARK H PARENT 9 13
REMARK Flexibility Score: inf
ROOT
ATOM      1  C   UNL     1      43.603  59.421  49.349  1.00  0.00     0.016 A 
ATOM      2  C   UNL     1      44.970  59.128  49.298  1.00  0.00     0.047 A 
ATOM      3  C   UNL     1      45.424  57.984  48.624  1.00  0.00     0.119 A 
ATOM      4  C   UNL     1      44.505  57.132  47.999  1.00  0.00     0.094 A 
ATOM      5  C   UNL     1      43.137  57.418  48.044  1.00  0.00     0.142 A 
ATOM      6  C   UNL     1      42.682  58.570  48.723  1.00  0.00     0.018 A 
ATOM      7  C   UNL     1      41.309  58.829  48.753  1.00  0.00     0.019 A 
ATOM      8  C   UNL     1      40.434  57.950  48.115  1.00  0.00     0.094 A 
ATOM      9  C   UNL     1      40.955  56.829  47.461  1.00  0.00     0.336 A 
ATOM     10  O   UNL     1      40.182  56.023  46.880  1.00  0.00    -0.246 OA
ATOM     11  O   UNL     1      42.267  56.605  47.449  1.00  0.00    -0.423 OA
ENDROOT
BRANCH   3  12
ATOM     12  O   UNL     1      46.784  57.687  48.569  1.00  0.00    -0.508 OA
ATOM     13  H   UNL     1      47.266  57.265  49.354  1.00  0.00     0.293 HD
ENDBRANCH   3  12
TORSDOF 1
ENDMDL
MODEL 6
REMARK VINA RESULT:    -6.536      2.154      4.255
REMARK INTER + INTRA:          -6.727
REMARK INTER:                  -6.727
REMARK INTRA:                   0.000
REMARK UNBOUND:                 0.000
REMARK SMILES O=c1ccc2ccc(O)cc2o1
REMARK SMILES IDX 6 1 7 2 8 3 10 4 11 5 5 6 4 7 3 8 2 9 1 10 12 11 9 12
REMARK H PARENT 9 13
REMARK Flexibility Score: inf
ROOT
ATOM      1  C   UNL     1      40.946  57.984  47.189  1.00  0.00     0.016 A 
ATOM      2  C   UNL     1      41.168  57.217  46.041  1.00  0.00     0.047 A 
ATOM      3  C   UNL     1      42.417  57.242  45.404  1.00  0.00     0.119 A 
ATOM      4  C   UNL     1      43.447  58.037  45.919  1.00  0.00     0.094 A 
ATOM      5  C   UNL     1      43.235  58.807  47.067  1.00  0.00     0.142 A 
ATOM      6  C   UNL     1      41.976  58.781  47.707  1.00  0.00     0.018 A 
ATOM      7  C   UNL     1      41.793  59.562  48.851  1.00  0.00     0.019 A 
ATOM      8  C   UNL     1      42.850  60.338  49.326  1.00  0.00     0.094 A 
ATOM      9  C   UNL     1      44.070  60.314  48.641  1.00  0.00     0.336 A 
ATOM     10  O   UNL     1      45.036  61.008  49.053  1.00  0.00    -0.246 OA
ATOM     11  O   UNL     1      44.217  59.563  47.553  1.00  0.00    -0.423 OA
ENDROOT
BRANCH   3  12
ATOM     12  O   UNL     1      42.645  56.479  44.260  1.00  0.00    -0.508 OA
ATOM     13  H   UNL     1      43.463  56.623  43.680  1.00  0.00     0.293 HD
ENDBRANCH   3  12
TORSDOF 1
ENDMDL
MODEL 7
REMARK VINA RESULT:    -6.501      3.189      4.070
REMARK INTER + INTRA:          -6.691
REMARK INTER:                  -6.691
REMARK INTRA:                   0.000
REMARK UNBOUND:                 0.000
REMARK SMILES O=c1ccc2ccc(O)cc2o1
REMARK SMILES IDX 6 1 7 2 8 3 10 4 11 5 5 6 4 7 3 8 2 9 1 10 12 11 9 12
REMARK H PARENT 9 13
REMARK Flexibility Score: inf
ROOT
ATOM      1  C   UNL     1      41.704  58.643  49.078  1.00  0.00     0.016 A 
ATOM      2  C   UNL     1      40.428  58.138  49.348  1.00  0.00     0.047 A 
ATOM      3  C   UNL     1      39.762  57.348  48.398  1.00  0.00     0.119 A 
ATOM      4  C   UNL     1      40.378  57.063  47.174  1.00  0.00     0.094 A 
ATOM      5  C   UNL     1      41.655  57.563  46.894  1.00  0.00     0.142 A 
ATOM      6  C   UNL     1      42.322  58.358  47.852  1.00  0.00     0.018 A 
ATOM      7  C   UNL     1      43.596  58.845  47.544  1.00  0.00     0.019 A 
ATOM      8  C   UNL     1      44.167  58.533  46.311  1.00  0.00     0.094 A 
ATOM      9  C   UNL     1      43.447  57.740  45.411  1.00  0.00     0.336 A 
ATOM     10  O   UNL     1      43.946  57.448  44.293  1.00  0.00    -0.246 OA
ATOM     11  O   UNL     1      42.236  57.290  45.729  1.00  0.00    -0.423 OA
ENDROOT
BRANCH   3  12
ATOM     12  O   UNL     1      38.491  56.843  48.663  1.00  0.00    -0.508 OA
ATOM     13  H   UNL     1      37.655  57.328  48.362  1.00  0.00     0.293 HD
ENDBRANCH   3  12
TORSDOF 1
ENDMDL
MODEL 8
REMARK VINA RESULT:    -6.449      3.185      5.010
REMARK INTER + INTRA:          -6.637
REMARK INTER:                  -6.637
REMARK INTRA:                   0.000
REMARK UNBOUND:                 0.000
REMARK SMILES O=c1ccc2ccc(O)cc2o1
REMARK SMILES IDX 6 1 7 2 8 3 10 4 11 5 5 6 4 7 3 8 2 9 1 10 12 11 9 12
REMARK H PARENT 9 13
REMARK Flexibility Score: inf
ROOT
ATOM      1  C   UNL     1      44.011  58.182  46.481  1.00  0.00     0.016 A 
ATOM      2  C   UNL     1      43.873  57.776  45.149  1.00  0.00     0.047 A 
ATOM      3  C   UNL     1      42.630  57.340  44.667  1.00  0.00     0.119 A 
ATOM      4  C   UNL     1      41.521  57.311  45.521  1.00  0.00     0.094 A 
ATOM      5  C   UNL     1      41.649  57.715  46.854  1.00  0.00     0.142 A 
ATOM      6  C   UNL     1      42.902  58.153  47.338  1.00  0.00     0.018 A 
ATOM      7  C   UNL     1      42.999  58.550  48.675  1.00  0.00     0.019 A 
ATOM      8  C   UNL     1      41.866  58.503  49.486  1.00  0.00     0.094 A 
ATOM      9  C   UNL     1      40.658  58.058  48.939  1.00  0.00     0.336 A 
ATOM     10  O   UNL     1      39.624  58.008  49.656  1.00  0.00    -0.246 OA
ATOM     11  O   UNL     1      40.593  57.686  47.663  1.00  0.00    -0.423 OA
ENDROOT
BRANCH   3  12
ATOM     12  O   UNL     1      42.486  56.935  43.341  1.00  0.00    -0.508 OA
ATOM     13  H   UNL     1      42.784  57.524  42.572  1.00  0.00     0.293 HD
ENDBRANCH   3  12
TORSDOF 1
ENDMDL
MODEL 9
REMARK VINA RESULT:    -6.227      2.050      3.796
REMARK INTER + INTRA:          -6.409
REMARK INTER:                  -6.409
REMARK INTRA:                   0.000
REMARK UNBOUND:                 0.000
REMARK SMILES O=c1ccc2ccc(O)cc2o1
REMARK SMILES IDX 6 1 7 2 8 3 10 4 11 5 5 6 4 7 3 8 2 9 1 10 12 11 9 12
REMARK H PARENT 9 13
REMARK Flexibility Score: inf
ROOT
ATOM      1  C   UNL     1      42.320  59.457  46.574  1.00  0.00     0.016 A 
ATOM      2  C   UNL     1      41.534  58.385  46.140  1.00  0.00     0.047 A 
ATOM      3  C   UNL     1      41.605  57.145  46.793  1.00  0.00     0.119 A 
ATOM      4  C   UNL     1      42.466  56.980  47.884  1.00  0.00     0.094 A 
ATOM      5  C   UNL     1      43.256  58.047  48.326  1.00  0.00     0.142 A 
ATOM      6  C   UNL     1      43.183  59.293  47.667  1.00  0.00     0.018 A 
ATOM      7  C   UNL     1      43.985  60.341  48.130  1.00  0.00     0.019 A 
ATOM      8  C   UNL     1      44.826  60.126  49.221  1.00  0.00     0.094 A 
ATOM      9  C   UNL     1      44.846  58.865  49.825  1.00  0.00     0.336 A 
ATOM     10  O   UNL     1      45.599  58.651  50.811  1.00  0.00    -0.246 OA
ATOM     11  O   UNL     1      44.073  57.885  49.364  1.00  0.00    -0.423 OA
ENDROOT
BRANCH   3  12
ATOM     12  O   UNL     1      40.824  56.073  46.365  1.00  0.00    -0.508 OA
ATOM     13  H   UNL     1      41.227  55.161  46.187  1.00  0.00     0.293 HD
ENDBRANCH   3  12
TORSDOF 1
ENDMDL
