MODEL 1
REMARK VINA RESULT:    -4.447      0.000      0.000
REMARK INTER + INTRA:         -13.448
REMARK INTER:                 -10.166
REMARK INTRA:                  -3.282
REMARK UNBOUND:                -3.282
REMARK SMILES CCCCCCCCCCCCCCCCCCCCCCCC(=O)[O-]
REMARK SMILES IDX 13 1 14 2 15 3 16 4 17 5 18 6 19 7 20 8 21 9 22 10 23 11
REMARK SMILES IDX 24 12 25 13 26 14 12 15 11 16 10 17 9 18 8 19 7 20 6 21 5 22
REMARK SMILES IDX 4 23 3 24 2 25 1 26
REMARK H PARENT
REMARK Flexibility Score: inf
ROOT
ATOM      1  C   UNL     1      12.433   4.681  40.958  1.00  0.00     0.000 C 
ENDROOT
BRANCH   1   2
ATOM      2  C   UNL     1      13.911   5.106  40.839  1.00  0.00     0.000 C 
BRANCH   2   3
ATOM      3  C   UNL     1      14.699   5.110  42.161  1.00  0.00     0.000 C 
BRANCH   3   4
ATOM      4  C   UNL     1      16.041   4.354  42.115  1.00  0.00     0.000 C 
BRANCH   4   5
ATOM      5  C   UNL     1      16.672   4.299  40.705  1.00  0.00     0.000 C 
BRANCH   5   6
ATOM      6  C   UNL     1      17.136   2.883  40.323  1.00  0.00     0.000 C 
BRANCH   6   7
ATOM      7  C   UNL     1      16.450   1.793  41.174  1.00  0.00     0.000 C 
BRANCH   7   8
ATOM      8  C   UNL     1      15.419   0.953  40.396  1.00  0.00     0.000 C 
BRANCH   8   9
ATOM      9  C   UNL     1      14.986  -0.349  41.090  1.00  0.00     0.000 C 
BRANCH   9  10
ATOM     10  C   UNL     1      14.303  -1.338  40.130  1.00  0.00     0.006 C 
BRANCH  10  11
ATOM     11  C   UNL     1      14.071  -2.708  40.778  1.00  0.00     0.053 C 
BRANCH  11  12
ATOM     12  C   UNL     1      13.560  -3.713  39.791  1.00  0.00     0.041 C 
ATOM     13  O   UNL     1      12.323  -3.832  39.591  1.00  0.00    -0.550 OA
ATOM     14  O   UNL     1      14.451  -4.538  39.115  1.00  0.00    -0.550 OA
ENDBRANCH  11  12
ENDBRANCH  10  11
ENDBRANCH   9  10
ENDBRANCH   8   9
ENDBRANCH   7   8
ENDBRANCH   6   7
ENDBRANCH   5   6
ENDBRANCH   4   5
ENDBRANCH   3   4
ENDBRANCH   2   3
ENDBRANCH   1   2
BRANCH   1  15
ATOM     15  C   UNL     1      12.192   3.365  41.719  1.00  0.00     0.000 C 
BRANCH  15  16
ATOM     16  C   UNL     1      10.763   3.241  42.267  1.00  0.00     0.000 C 
BRANCH  16  17
ATOM     17  C   UNL     1       9.746   3.845  41.287  1.00  0.00     0.000 C 
BRANCH  17  18
ATOM     18  C   UNL     1       8.633   2.857  40.893  1.00  0.00    -0.000 C 
BRANCH  18  19
ATOM     19  C   UNL     1       8.610   2.468  39.403  1.00  0.00    -0.000 C 
BRANCH  19  20
ATOM     20  C   UNL     1      10.004   2.512  38.754  1.00  0.00    -0.000 C 
BRANCH  20  21
ATOM     21  C   UNL     1      10.616   1.114  38.580  1.00  0.00    -0.000 C 
BRANCH  21  22
ATOM     22  C   UNL     1       9.896   0.048  39.426  1.00  0.00    -0.000 C 
BRANCH  22  23
ATOM     23  C   UNL     1      10.870  -0.820  40.241  1.00  0.00    -0.000 C 
BRANCH  23  24
ATOM     24  C   UNL     1      11.011  -0.424  41.726  1.00  0.00    -0.000 C 
BRANCH  24  25
ATOM     25  C   UNL     1       9.682  -0.279  42.488  1.00  0.00    -0.003 C 
ATOM     26  C   UNL     1       8.807  -1.529  42.405  1.00  0.00     0.004 C 
ENDBRANCH  24  25
ENDBRANCH  23  24
ENDBRANCH  22  23
ENDBRANCH  21  22
ENDBRANCH  20  21
ENDBRANCH  19  20
ENDBRANCH  18  19
ENDBRANCH  17  18
ENDBRANCH  16  17
ENDBRANCH  15  16
ENDBRANCH   1  15
TORSDOF 22
ENDMDL
MODEL 2
REMARK VINA RESULT:    -4.387      4.255      6.601
REMARK INTER + INTRA:         -13.311
REMARK INTER:                 -10.357
REMARK INTRA:                  -2.954
REMARK UNBOUND:                -3.282
REMARK SMILES CCCCCCCCCCCCCCCCCCCCCCCC(=O)[O-]
REMARK SMILES IDX 13 1 14 2 15 3 16 4 17 5 18 6 19 7 20 8 21 9 22 10 23 11
REMARK SMILES IDX 24 12 25 13 26 14 12 15 11 16 10 17 9 18 8 19 7 20 6 21 5 22
REMARK SMILES IDX 4 23 3 24 2 25 1 26
REMARK H PARENT
REMARK Flexibility Score: inf
ROOT
ATOM      1  C   UNL     1      12.758  -0.651  39.930  1.00  0.00     0.000 C 
ENDROOT
BRANCH   1   2
ATOM      2  C   UNL     1      14.215  -1.157  39.982  1.00  0.00     0.000 C 
BRANCH   2   3
ATOM      3  C   UNL     1      15.108  -0.473  41.033  1.00  0.00     0.000 C 
BRANCH   3   4
ATOM      4  C   UNL     1      15.329   1.034  40.809  1.00  0.00     0.000 C 
BRANCH   4   5
ATOM      5  C   UNL     1      16.818   1.433  40.702  1.00  0.00     0.000 C 
BRANCH   5   6
ATOM      6  C   UNL     1      17.005   2.909  40.310  1.00  0.00     0.000 C 
BRANCH   6   7
ATOM      7  C   UNL     1      17.844   3.687  41.347  1.00  0.00     0.000 C 
BRANCH   7   8
ATOM      8  C   UNL     1      17.231   5.042  41.752  1.00  0.00     0.000 C 
BRANCH   8   9
ATOM      9  C   UNL     1      16.301   5.673  40.701  1.00  0.00     0.000 C 
BRANCH   9  10
ATOM     10  C   UNL     1      16.612   7.158  40.445  1.00  0.00     0.006 C 
BRANCH  10  11
ATOM     11  C   UNL     1      17.604   7.725  41.468  1.00  0.00     0.053 C 
BRANCH  11  12
ATOM     12  C   UNL     1      16.926   8.612  42.469  1.00  0.00     0.041 C 
ATOM     13  O   UNL     1      17.013   9.863  42.370  1.00  0.00    -0.550 OA
ATOM     14  O   UNL     1      16.223   8.051  43.529  1.00  0.00    -0.550 OA
ENDBRANCH  11  12
ENDBRANCH  10  11
ENDBRANCH   9  10
ENDBRANCH   8   9
ENDBRANCH   7   8
ENDBRANCH   6   7
ENDBRANCH   5   6
ENDBRANCH   4   5
ENDBRANCH   3   4
ENDBRANCH   2   3
ENDBRANCH   1   2
BRANCH   1  15
ATOM     15  C   UNL     1      12.031  -0.616  41.287  1.00  0.00     0.000 C 
BRANCH  15  16
ATOM     16  C   UNL     1      11.336   0.725  41.561  1.00  0.00     0.000 C 
BRANCH  16  17
ATOM     17  C   UNL     1      10.016   0.515  42.316  1.00  0.00     0.000 C 
BRANCH  17  18
ATOM     18  C   UNL     1       8.867   1.385  41.773  1.00  0.00    -0.000 C 
BRANCH  18  19
ATOM     19  C   UNL     1       7.489   0.697  41.752  1.00  0.00    -0.000 C 
BRANCH  19  20
ATOM     20  C   UNL     1       7.576  -0.823  41.971  1.00  0.00    -0.000 C 
BRANCH  20  21
ATOM     21  C   UNL     1       7.484  -1.611  40.656  1.00  0.00    -0.000 C 
BRANCH  21  22
ATOM     22  C   UNL     1       8.795  -2.340  40.314  1.00  0.00    -0.000 C 
BRANCH  22  23
ATOM     23  C   UNL     1       9.419  -1.854  38.994  1.00  0.00    -0.000 C 
BRANCH  23  24
ATOM     24  C   UNL     1       8.886  -0.499  38.483  1.00  0.00    -0.000 C 
BRANCH  24  25
ATOM     25  C   UNL     1       9.969   0.489  38.014  1.00  0.00    -0.003 C 
ATOM     26  C   UNL     1       9.593   1.948  38.263  1.00  0.00     0.004 C 
ENDBRANCH  24  25
ENDBRANCH  23  24
ENDBRANCH  22  23
ENDBRANCH  21  22
ENDBRANCH  20  21
ENDBRANCH  19  20
ENDBRANCH  18  19
ENDBRANCH  17  18
ENDBRANCH  16  17
ENDBRANCH  15  16
ENDBRANCH   1  15
TORSDOF 22
ENDMDL
MODEL 3
REMARK VINA RESULT:    -4.362      3.308      5.629
REMARK INTER + INTRA:         -13.254
REMARK INTER:                  -9.923
REMARK INTRA:                  -3.332
REMARK UNBOUND:                -3.282
REMARK SMILES CCCCCCCCCCCCCCCCCCCCCCCC(=O)[O-]
REMARK SMILES IDX 13 1 14 2 15 3 16 4 17 5 18 6 19 7 20 8 21 9 22 10 23 11
REMARK SMILES IDX 24 12 25 13 26 14 12 15 11 16 10 17 9 18 8 19 7 20 6 21 5 22
REMARK SMILES IDX 4 23 3 24 2 25 1 26
REMARK H PARENT
REMARK Flexibility Score: inf
ROOT
ATOM      1  C   UNL     1      12.905  -0.271  40.107  1.00  0.00     0.000 C 
ENDROOT
BRANCH   1   2
ATOM      2  C   UNL     1      14.362  -0.779  40.101  1.00  0.00     0.000 C 
BRANCH   2   3
ATOM      3  C   UNL     1      15.304  -0.072  41.091  1.00  0.00     0.000 C 
BRANCH   3   4
ATOM      4  C   UNL     1      15.715   1.355  40.683  1.00  0.00     0.000 C 
BRANCH   4   5
ATOM      5  C   UNL     1      17.244   1.552  40.573  1.00  0.00     0.000 C 
BRANCH   5   6
ATOM      6  C   UNL     1      17.699   2.929  41.088  1.00  0.00     0.000 C 
BRANCH   6   7
ATOM      7  C   UNL     1      16.674   3.560  42.055  1.00  0.00     0.000 C 
BRANCH   7   8
ATOM      8  C   UNL     1      16.326   5.024  41.724  1.00  0.00     0.000 C 
BRANCH   8   9
ATOM      9  C   UNL     1      15.047   5.214  40.890  1.00  0.00     0.000 C 
BRANCH   9  10
ATOM     10  C   UNL     1      13.787   4.696  41.604  1.00  0.00     0.006 C 
BRANCH  10  11
ATOM     11  C   UNL     1      12.564   4.682  40.680  1.00  0.00     0.053 C 
BRANCH  11  12
ATOM     12  C   UNL     1      12.169   6.065  40.258  1.00  0.00     0.041 C 
ATOM     13  O   UNL     1      11.974   6.326  39.042  1.00  0.00    -0.550 OA
ATOM     14  O   UNL     1      12.046   7.072  41.207  1.00  0.00    -0.550 OA
ENDBRANCH  11  12
ENDBRANCH  10  11
ENDBRANCH   9  10
ENDBRANCH   8   9
ENDBRANCH   7   8
ENDBRANCH   6   7
ENDBRANCH   5   6
ENDBRANCH   4   5
ENDBRANCH   3   4
ENDBRANCH   2   3
ENDBRANCH   1   2
BRANCH   1  15
ATOM     15  C   UNL     1      12.312  -0.010  41.504  1.00  0.00     0.000 C 
BRANCH  15  16
ATOM     16  C   UNL     1      11.479   1.279  41.570  1.00  0.00     0.000 C 
BRANCH  16  17
ATOM     17  C   UNL     1      10.084   1.003  42.150  1.00  0.00     0.000 C 
BRANCH  17  18
ATOM     18  C   UNL     1       9.795  -0.499  42.331  1.00  0.00    -0.000 C 
BRANCH  18  19
ATOM     19  C   UNL     1       8.826  -1.101  41.296  1.00  0.00    -0.000 C 
BRANCH  19  20
ATOM     20  C   UNL     1       9.527  -2.036  40.296  1.00  0.00    -0.000 C 
BRANCH  20  21
ATOM     21  C   UNL     1       9.394  -1.550  38.845  1.00  0.00    -0.000 C 
BRANCH  21  22
ATOM     22  C   UNL     1       8.994  -0.066  38.757  1.00  0.00    -0.000 C 
BRANCH  22  23
ATOM     23  C   UNL     1      10.040   0.788  38.020  1.00  0.00    -0.000 C 
BRANCH  23  24
ATOM     24  C   UNL     1      10.064   2.278  38.422  1.00  0.00    -0.000 C 
BRANCH  24  25
ATOM     25  C   UNL     1      10.402   3.253  37.280  1.00  0.00    -0.003 C 
ATOM     26  C   UNL     1      10.694   2.545  35.958  1.00  0.00     0.004 C 
ENDBRANCH  24  25
ENDBRANCH  23  24
ENDBRANCH  22  23
ENDBRANCH  21  22
ENDBRANCH  20  21
ENDBRANCH  19  20
ENDBRANCH  18  19
ENDBRANCH  17  18
ENDBRANCH  16  17
ENDBRANCH  15  16
ENDBRANCH   1  15
TORSDOF 22
ENDMDL
MODEL 4
REMARK VINA RESULT:    -4.334      4.848      7.885
REMARK INTER + INTRA:         -13.191
REMARK INTER:                 -10.085
REMARK INTRA:                  -3.106
REMARK UNBOUND:                -3.282
REMARK SMILES CCCCCCCCCCCCCCCCCCCCCCCC(=O)[O-]
REMARK SMILES IDX 13 1 14 2 15 3 16 4 17 5 18 6 19 7 20 8 21 9 22 10 23 11
REMARK SMILES IDX 24 12 25 13 26 14 12 15 11 16 10 17 9 18 8 19 7 20 6 21 5 22
REMARK SMILES IDX 4 23 3 24 2 25 1 26
REMARK H PARENT
REMARK Flexibility Score: inf
ROOT
ATOM      1  C   UNL     1      12.450   6.614  44.425  1.00  0.00     0.000 C 
ENDROOT
BRANCH   1   2
ATOM      2  C   UNL     1      12.613   6.421  45.947  1.00  0.00     0.000 C 
BRANCH   2   3
ATOM      3  C   UNL     1      12.766   4.961  46.409  1.00  0.00     0.000 C 
BRANCH   3   4
ATOM      4  C   UNL     1      13.999   4.689  47.292  1.00  0.00     0.000 C 
BRANCH   4   5
ATOM      5  C   UNL     1      15.087   5.782  47.189  1.00  0.00     0.000 C 
BRANCH   5   6
ATOM      6  C   UNL     1      16.277   5.348  46.316  1.00  0.00     0.000 C 
BRANCH   6   7
ATOM      7  C   UNL     1      16.070   5.701  44.827  1.00  0.00     0.000 C 
BRANCH   7   8
ATOM      8  C   UNL     1      16.621   7.084  44.433  1.00  0.00     0.000 C 
BRANCH   8   9
ATOM      9  C   UNL     1      17.880   7.052  43.549  1.00  0.00     0.000 C 
BRANCH   9  10
ATOM     10  C   UNL     1      18.315   8.452  43.082  1.00  0.00     0.006 C 
BRANCH  10  11
ATOM     11  C   UNL     1      17.124   9.404  42.920  1.00  0.00     0.053 C 
BRANCH  11  12
ATOM     12  C   UNL     1      16.352   9.122  41.666  1.00  0.00     0.041 C 
ATOM     13  O   UNL     1      15.105   8.960  41.712  1.00  0.00    -0.550 OA
ATOM     14  O   UNL     1      17.018   9.007  40.452  1.00  0.00    -0.550 OA
ENDBRANCH  11  12
ENDBRANCH  10  11
ENDBRANCH   9  10
ENDBRANCH   8   9
ENDBRANCH   7   8
ENDBRANCH   6   7
ENDBRANCH   5   6
ENDBRANCH   4   5
ENDBRANCH   3   4
ENDBRANCH   2   3
ENDBRANCH   1   2
BRANCH   1  15
ATOM     15  C   UNL     1      12.975   5.452  43.561  1.00  0.00     0.000 C 
BRANCH  15  16
ATOM     16  C   UNL     1      13.420   5.900  42.162  1.00  0.00     0.000 C 
BRANCH  16  17
ATOM     17  C   UNL     1      14.405   4.893  41.550  1.00  0.00     0.000 C 
BRANCH  17  18
ATOM     18  C   UNL     1      15.540   5.568  40.758  1.00  0.00    -0.000 C 
BRANCH  18  19
ATOM     19  C   UNL     1      16.922   4.906  40.915  1.00  0.00    -0.000 C 
BRANCH  19  20
ATOM     20  C   UNL     1      16.897   3.689  41.856  1.00  0.00    -0.000 C 
BRANCH  20  21
ATOM     21  C   UNL     1      17.864   2.583  41.410  1.00  0.00    -0.000 C 
BRANCH  21  22
ATOM     22  C   UNL     1      17.171   1.503  40.560  1.00  0.00    -0.000 C 
BRANCH  22  23
ATOM     23  C   UNL     1      15.673   1.363  40.884  1.00  0.00    -0.000 C 
BRANCH  23  24
ATOM     24  C   UNL     1      15.182  -0.087  41.080  1.00  0.00    -0.000 C 
BRANCH  24  25
ATOM     25  C   UNL     1      14.243  -0.609  39.979  1.00  0.00    -0.003 C 
ATOM     26  C   UNL     1      12.769  -0.335  40.273  1.00  0.00     0.004 C 
ENDBRANCH  24  25
ENDBRANCH  23  24
ENDBRANCH  22  23
ENDBRANCH  21  22
ENDBRANCH  20  21
ENDBRANCH  19  20
ENDBRANCH  18  19
ENDBRANCH  17  18
ENDBRANCH  16  17
ENDBRANCH  15  16
ENDBRANCH   1  15
TORSDOF 22
ENDMDL
MODEL 5
REMARK VINA RESULT:    -4.334      6.731      9.075
REMARK INTER + INTRA:         -13.190
REMARK INTER:                  -9.911
REMARK INTRA:                  -3.279
REMARK UNBOUND:                -3.282
REMARK SMILES CCCCCCCCCCCCCCCCCCCCCCCC(=O)[O-]
REMARK SMILES IDX 13 1 14 2 15 3 16 4 17 5 18 6 19 7 20 8 21 9 22 10 23 11
REMARK SMILES IDX 24 12 25 13 26 14 12 15 11 16 10 17 9 18 8 19 7 20 6 21 5 22
REMARK SMILES IDX 4 23 3 24 2 25 1 26
REMARK H PARENT
REMARK Flexibility Score: inf
ROOT
ATOM      1  C   UNL     1      15.364  10.675  42.253  1.00  0.00     0.000 C 
ENDROOT
BRANCH   1   2
ATOM      2  C   UNL     1      14.940  10.041  43.595  1.00  0.00     0.000 C 
BRANCH   2   3
ATOM      3  C   UNL     1      13.860   8.949  43.490  1.00  0.00     0.000 C 
BRANCH   3   4
ATOM      4  C   UNL     1      14.190   7.642  44.235  1.00  0.00     0.000 C 
BRANCH   4   5
ATOM      5  C   UNL     1      15.584   7.643  44.900  1.00  0.00     0.000 C 
BRANCH   5   6
ATOM      6  C   UNL     1      16.360   6.340  44.644  1.00  0.00     0.000 C 
BRANCH   6   7
ATOM      7  C   UNL     1      15.696   5.120  45.319  1.00  0.00     0.000 C 
BRANCH   7   8
ATOM      8  C   UNL     1      15.565   5.252  46.849  1.00  0.00     0.000 C 
BRANCH   8   9
ATOM      9  C   UNL     1      14.278   4.655  47.444  1.00  0.00     0.000 C 
BRANCH   9  10
ATOM     10  C   UNL     1      13.004   5.184  46.761  1.00  0.00     0.006 C 
BRANCH  10  11
ATOM     11  C   UNL     1      12.564   6.539  47.329  1.00  0.00     0.053 C 
BRANCH  11  12
ATOM     12  C   UNL     1      11.650   6.378  48.507  1.00  0.00     0.041 C 
ATOM     13  O   UNL     1      10.435   6.103  48.334  1.00  0.00    -0.550 OA
ATOM     14  O   UNL     1      12.139   6.564  49.795  1.00  0.00    -0.550 OA
ENDBRANCH  11  12
ENDBRANCH  10  11
ENDBRANCH   9  10
ENDBRANCH   8   9
ENDBRANCH   7   8
ENDBRANCH   6   7
ENDBRANCH   5   6
ENDBRANCH   4   5
ENDBRANCH   3   4
ENDBRANCH   2   3
ENDBRANCH   1   2
BRANCH   1  15
ATOM     15  C   UNL     1      16.295   9.806  41.387  1.00  0.00     0.000 C 
BRANCH  15  16
ATOM     16  C   UNL     1      17.387   9.101  42.203  1.00  0.00     0.000 C 
BRANCH  16  17
ATOM     17  C   UNL     1      17.832   7.801  41.517  1.00  0.00     0.000 C 
BRANCH  17  18
ATOM     18  C   UNL     1      16.844   7.322  40.438  1.00  0.00    -0.000 C 
BRANCH  18  19
ATOM     19  C   UNL     1      15.860   6.231  40.900  1.00  0.00    -0.000 C 
BRANCH  19  20
ATOM     20  C   UNL     1      16.360   4.809  40.595  1.00  0.00    -0.000 C 
BRANCH  20  21
ATOM     21  C   UNL     1      16.255   3.876  41.811  1.00  0.00    -0.000 C 
BRANCH  21  22
ATOM     22  C   UNL     1      17.525   3.031  42.015  1.00  0.00    -0.000 C 
BRANCH  22  23
ATOM     23  C   UNL     1      17.912   2.227  40.762  1.00  0.00    -0.000 C 
BRANCH  23  24
ATOM     24  C   UNL     1      19.337   2.493  40.232  1.00  0.00    -0.000 C 
BRANCH  24  25
ATOM     25  C   UNL     1      20.262   3.247  41.204  1.00  0.00    -0.003 C 
ATOM     26  C   UNL     1      21.461   2.414  41.652  1.00  0.00     0.004 C 
ENDBRANCH  24  25
ENDBRANCH  23  24
ENDBRANCH  22  23
ENDBRANCH  21  22
ENDBRANCH  20  21
ENDBRANCH  19  20
ENDBRANCH  18  19
ENDBRANCH  17  18
ENDBRANCH  16  17
ENDBRANCH  15  16
ENDBRANCH   1  15
TORSDOF 22
ENDMDL
MODEL 6
REMARK VINA RESULT:    -4.273      3.088      6.964
REMARK INTER + INTRA:         -13.050
REMARK INTER:                  -9.945
REMARK INTRA:                  -3.105
REMARK UNBOUND:                -3.282
REMARK SMILES CCCCCCCCCCCCCCCCCCCCCCCC(=O)[O-]
REMARK SMILES IDX 13 1 14 2 15 3 16 4 17 5 18 6 19 7 20 8 21 9 22 10 23 11
REMARK SMILES IDX 24 12 25 13 26 14 12 15 11 16 10 17 9 18 8 19 7 20 6 21 5 22
REMARK SMILES IDX 4 23 3 24 2 25 1 26
REMARK H PARENT
REMARK Flexibility Score: inf
ROOT
ATOM      1  C   UNL     1      16.489   5.897  44.941  1.00  0.00     0.000 C 
ENDROOT
BRANCH   1   2
ATOM      2  C   UNL     1      15.927   4.802  45.872  1.00  0.00     0.000 C 
BRANCH   2   3
ATOM      3  C   UNL     1      15.042   5.314  47.023  1.00  0.00     0.000 C 
BRANCH   3   4
ATOM      4  C   UNL     1      13.621   4.722  47.057  1.00  0.00     0.000 C 
BRANCH   4   5
ATOM      5  C   UNL     1      12.591   5.536  46.241  1.00  0.00     0.000 C 
BRANCH   5   6
ATOM      6  C   UNL     1      12.106   4.784  44.990  1.00  0.00     0.000 C 
BRANCH   6   7
ATOM      7  C   UNL     1      12.919   5.157  43.731  1.00  0.00     0.000 C 
BRANCH   7   8
ATOM      8  C   UNL     1      12.171   4.901  42.409  1.00  0.00     0.000 C 
BRANCH   8   9
ATOM      9  C   UNL     1      12.647   3.668  41.622  1.00  0.00     0.000 C 
BRANCH   9  10
ATOM     10  C   UNL     1      11.743   2.441  41.831  1.00  0.00     0.006 C 
BRANCH  10  11
ATOM     11  C   UNL     1      12.130   1.275  40.914  1.00  0.00     0.053 C 
BRANCH  11  12
ATOM     12  C   UNL     1      12.007  -0.047  41.610  1.00  0.00     0.041 C 
ATOM     13  O   UNL     1      13.014  -0.789  41.745  1.00  0.00    -0.550 OA
ATOM     14  O   UNL     1      10.770  -0.469  42.083  1.00  0.00    -0.550 OA
ENDBRANCH  11  12
ENDBRANCH  10  11
ENDBRANCH   9  10
ENDBRANCH   8   9
ENDBRANCH   7   8
ENDBRANCH   6   7
ENDBRANCH   5   6
ENDBRANCH   4   5
ENDBRANCH   3   4
ENDBRANCH   2   3
ENDBRANCH   1   2
BRANCH   1  15
ATOM     15  C   UNL     1      16.379   7.333  45.484  1.00  0.00     0.000 C 
BRANCH  15  16
ATOM     16  C   UNL     1      16.005   8.356  44.401  1.00  0.00     0.000 C 
BRANCH  16  17
ATOM     17  C   UNL     1      14.694   7.963  43.705  1.00  0.00     0.000 C 
BRANCH  17  18
ATOM     18  C   UNL     1      14.735   8.175  42.180  1.00  0.00    -0.000 C 
BRANCH  18  19
ATOM     19  C   UNL     1      16.150   8.260  41.577  1.00  0.00    -0.000 C 
BRANCH  19  20
ATOM     20  C   UNL     1      16.474   7.076  40.650  1.00  0.00    -0.000 C 
BRANCH  20  21
ATOM     21  C   UNL     1      16.964   5.842  41.423  1.00  0.00    -0.000 C 
BRANCH  21  22
ATOM     22  C   UNL     1      16.250   4.552  40.984  1.00  0.00    -0.000 C 
BRANCH  22  23
ATOM     23  C   UNL     1      16.838   3.293  41.644  1.00  0.00    -0.000 C 
BRANCH  23  24
ATOM     24  C   UNL     1      17.203   2.155  40.667  1.00  0.00    -0.000 C 
BRANCH  24  25
ATOM     25  C   UNL     1      18.676   2.128  40.222  1.00  0.00    -0.003 C 
ATOM     26  C   UNL     1      19.590   2.938  41.139  1.00  0.00     0.004 C 
ENDBRANCH  24  25
ENDBRANCH  23  24
ENDBRANCH  22  23
ENDBRANCH  21  22
ENDBRANCH  20  21
ENDBRANCH  19  20
ENDBRANCH  18  19
ENDBRANCH  17  18
ENDBRANCH  16  17
ENDBRANCH  15  16
ENDBRANCH   1  15
TORSDOF 22
ENDMDL
MODEL 7
REMARK VINA RESULT:    -4.266      2.486      7.139
REMARK INTER + INTRA:         -13.034
REMARK INTER:                 -10.223
REMARK INTRA:                  -2.811
REMARK UNBOUND:                -3.282
REMARK SMILES CCCCCCCCCCCCCCCCCCCCCCCC(=O)[O-]
REMARK SMILES IDX 13 1 14 2 15 3 16 4 17 5 18 6 19 7 20 8 21 9 22 10 23 11
REMARK SMILES IDX 24 12 25 13 26 14 12 15 11 16 10 17 9 18 8 19 7 20 6 21 5 22
REMARK SMILES IDX 4 23 3 24 2 25 1 26
REMARK H PARENT
REMARK Flexibility Score: inf
ROOT
ATOM      1  C   UNL     1      15.502   0.195  40.960  1.00  0.00     0.000 C 
ENDROOT
BRANCH   1   2
ATOM      2  C   UNL     1      14.062  -0.157  40.531  1.00  0.00     0.000 C 
BRANCH   2   3
ATOM      3  C   UNL     1      13.114  -0.544  41.680  1.00  0.00     0.000 C 
BRANCH   3   4
ATOM      4  C   UNL     1      11.617  -0.343  41.376  1.00  0.00     0.000 C 
BRANCH   4   5
ATOM      5  C   UNL     1      11.169   1.135  41.419  1.00  0.00     0.000 C 
BRANCH   5   6
ATOM      6  C   UNL     1      10.787   1.675  40.030  1.00  0.00     0.000 C 
BRANCH   6   7
ATOM      7  C   UNL     1      10.775   0.567  38.954  1.00  0.00     0.000 C 
BRANCH   7   8
ATOM      8  C   UNL     1       9.504   0.560  38.083  1.00  0.00     0.000 C 
BRANCH   8   9
ATOM      9  C   UNL     1       8.281  -0.118  38.724  1.00  0.00     0.000 C 
BRANCH   9  10
ATOM     10  C   UNL     1       8.648  -1.388  39.511  1.00  0.00     0.006 C 
BRANCH  10  11
ATOM     11  C   UNL     1       7.627  -1.701  40.611  1.00  0.00     0.053 C 
BRANCH  11  12
ATOM     12  C   UNL     1       7.966  -1.011  41.898  1.00  0.00     0.041 C 
ATOM     13  O   UNL     1       7.840   0.237  42.001  1.00  0.00    -0.550 OA
ATOM     14  O   UNL     1       8.450  -1.746  42.974  1.00  0.00    -0.550 OA
ENDBRANCH  11  12
ENDBRANCH  10  11
ENDBRANCH   9  10
ENDBRANCH   8   9
ENDBRANCH   7   8
ENDBRANCH   6   7
ENDBRANCH   5   6
ENDBRANCH   4   5
ENDBRANCH   3   4
ENDBRANCH   2   3
ENDBRANCH   1   2
BRANCH   1  15
ATOM     15  C   UNL     1      15.947   1.632  40.631  1.00  0.00     0.000 C 
BRANCH  15  16
ATOM     16  C   UNL     1      17.473   1.779  40.537  1.00  0.00     0.000 C 
BRANCH  16  17
ATOM     17  C   UNL     1      17.870   3.250  40.340  1.00  0.00     0.000 C 
BRANCH  17  18
ATOM     18  C   UNL     1      16.798   4.235  40.841  1.00  0.00    -0.000 C 
BRANCH  18  19
ATOM     19  C   UNL     1      17.245   5.142  42.003  1.00  0.00    -0.000 C 
BRANCH  19  20
ATOM     20  C   UNL     1      16.147   6.122  42.451  1.00  0.00    -0.000 C 
BRANCH  20  21
ATOM     21  C   UNL     1      16.077   7.371  41.559  1.00  0.00    -0.000 C 
BRANCH  21  22
ATOM     22  C   UNL     1      14.733   8.110  41.688  1.00  0.00    -0.000 C 
BRANCH  22  23
ATOM     23  C   UNL     1      13.574   7.174  42.071  1.00  0.00    -0.000 C 
BRANCH  23  24
ATOM     24  C   UNL     1      12.622   6.809  40.913  1.00  0.00    -0.000 C 
BRANCH  24  25
ATOM     25  C   UNL     1      12.803   5.389  40.347  1.00  0.00    -0.003 C 
ATOM     26  C   UNL     1      13.127   4.355  41.423  1.00  0.00     0.004 C 
ENDBRANCH  24  25
ENDBRANCH  23  24
ENDBRANCH  22  23
ENDBRANCH  21  22
ENDBRANCH  20  21
ENDBRANCH  19  20
ENDBRANCH  18  19
ENDBRANCH  17  18
ENDBRANCH  16  17
ENDBRANCH  15  16
ENDBRANCH   1  15
TORSDOF 22
ENDMDL
MODEL 8
REMARK VINA RESULT:    -4.190      1.995      4.890
REMARK INTER + INTRA:         -12.861
REMARK INTER:                 -10.216
REMARK INTRA:                  -2.644
REMARK UNBOUND:                -3.282
REMARK SMILES CCCCCCCCCCCCCCCCCCCCCCCC(=O)[O-]
REMARK SMILES IDX 13 1 14 2 15 3 16 4 17 5 18 6 19 7 20 8 21 9 22 10 23 11
REMARK SMILES IDX 24 12 25 13 26 14 12 15 11 16 10 17 9 18 8 19 7 20 6 21 5 22
REMARK SMILES IDX 4 23 3 24 2 25 1 26
REMARK H PARENT
REMARK Flexibility Score: inf
ROOT
ATOM      1  C   UNL     1      16.775   4.275  40.635  1.00  0.00     0.000 C 
ENDROOT
BRANCH   1   2
ATOM      2  C   UNL     1      17.899   3.218  40.676  1.00  0.00     0.000 C 
BRANCH   2   3
ATOM      3  C   UNL     1      17.422   1.755  40.628  1.00  0.00     0.000 C 
BRANCH   3   4
ATOM      4  C   UNL     1      15.942   1.547  40.999  1.00  0.00     0.000 C 
BRANCH   4   5
ATOM      5  C   UNL     1      15.398   0.152  40.618  1.00  0.00     0.000 C 
BRANCH   5   6
ATOM      6  C   UNL     1      13.986  -0.102  41.174  1.00  0.00     0.000 C 
BRANCH   6   7
ATOM      7  C   UNL     1      13.015  -0.622  40.093  1.00  0.00     0.000 C 
BRANCH   7   8
ATOM      8  C   UNL     1      11.551  -0.199  40.317  1.00  0.00     0.000 C 
BRANCH   8   9
ATOM      9  C   UNL     1      11.028  -0.404  41.750  1.00  0.00     0.000 C 
BRANCH   9  10
ATOM     10  C   UNL     1       9.829   0.500  42.081  1.00  0.00     0.006 C 
BRANCH  10  11
ATOM     11  C   UNL     1       8.517  -0.044  41.503  1.00  0.00     0.053 C 
BRANCH  11  12
ATOM     12  C   UNL     1       8.388  -1.524  41.710  1.00  0.00     0.041 C 
ATOM     13  O   UNL     1       8.364  -2.001  42.874  1.00  0.00    -0.550 OA
ATOM     14  O   UNL     1       8.327  -2.375  40.614  1.00  0.00    -0.550 OA
ENDBRANCH  11  12
ENDBRANCH  10  11
ENDBRANCH   9  10
ENDBRANCH   8   9
ENDBRANCH   7   8
ENDBRANCH   6   7
ENDBRANCH   5   6
ENDBRANCH   4   5
ENDBRANCH   3   4
ENDBRANCH   2   3
ENDBRANCH   1   2
BRANCH   1  15
ATOM     15  C   UNL     1      16.590   5.080  41.935  1.00  0.00     0.000 C 
BRANCH  15  16
ATOM     16  C   UNL     1      15.120   5.403  42.235  1.00  0.00     0.000 C 
BRANCH  16  17
ATOM     17  C   UNL     1      14.198   4.819  41.155  1.00  0.00     0.000 C 
BRANCH  17  18
ATOM     18  C   UNL     1      13.108   3.895  41.729  1.00  0.00    -0.000 C 
BRANCH  18  19
ATOM     19  C   UNL     1      11.668   4.419  41.576  1.00  0.00    -0.000 C 
BRANCH  19  20
ATOM     20  C   UNL     1      10.708   3.365  40.998  1.00  0.00    -0.000 C 
BRANCH  20  21
ATOM     21  C   UNL     1      10.366   3.628  39.524  1.00  0.00    -0.000 C 
BRANCH  21  22
ATOM     22  C   UNL     1       8.935   3.192  39.166  1.00  0.00    -0.000 C 
BRANCH  22  23
ATOM     23  C   UNL     1       8.893   2.177  38.011  1.00  0.00    -0.000 C 
BRANCH  23  24
ATOM     24  C   UNL     1      10.267   1.617  37.586  1.00  0.00    -0.000 C 
BRANCH  24  25
ATOM     25  C   UNL     1      10.633   1.847  36.110  1.00  0.00    -0.003 C 
ATOM     26  C   UNL     1      10.661   3.325  35.726  1.00  0.00     0.004 C 
ENDBRANCH  24  25
ENDBRANCH  23  24
ENDBRANCH  22  23
ENDBRANCH  21  22
ENDBRANCH  20  21
ENDBRANCH  19  20
ENDBRANCH  18  19
ENDBRANCH  17  18
ENDBRANCH  16  17
ENDBRANCH  15  16
ENDBRANCH   1  15
TORSDOF 22
ENDMDL
MODEL 9
REMARK VINA RESULT:    -4.185      4.062      6.492
REMARK INTER + INTRA:         -12.850
REMARK INTER:                  -9.578
REMARK INTRA:                  -3.271
REMARK UNBOUND:                -3.282
REMARK SMILES CCCCCCCCCCCCCCCCCCCCCCCC(=O)[O-]
REMARK SMILES IDX 13 1 14 2 15 3 16 4 17 5 18 6 19 7 20 8 21 9 22 10 23 11
REMARK SMILES IDX 24 12 25 13 26 14 12 15 11 16 10 17 9 18 8 19 7 20 6 21 5 22
REMARK SMILES IDX 4 23 3 24 2 25 1 26
REMARK H PARENT
REMARK Flexibility Score: inf
ROOT
ATOM      1  C   UNL     1      14.066  -0.862  40.151  1.00  0.00     0.000 C 
ENDROOT
BRANCH   1   2
ATOM      2  C   UNL     1      15.162  -0.201  41.013  1.00  0.00     0.000 C 
BRANCH   2   3
ATOM      3  C   UNL     1      15.483   1.261  40.653  1.00  0.00     0.000 C 
BRANCH   3   4
ATOM      4  C   UNL     1      16.846   1.767  41.162  1.00  0.00     0.000 C 
BRANCH   4   5
ATOM      5  C   UNL     1      17.430   2.925  40.322  1.00  0.00     0.000 C 
BRANCH   5   6
ATOM      6  C   UNL     1      17.326   4.282  41.039  1.00  0.00     0.000 C 
BRANCH   6   7
ATOM      7  C   UNL     1      15.973   4.978  40.780  1.00  0.00     0.000 C 
BRANCH   7   8
ATOM      8  C   UNL     1      15.523   5.908  41.923  1.00  0.00     0.000 C 
BRANCH   8   9
ATOM      9  C   UNL     1      15.663   5.314  43.335  1.00  0.00     0.000 C 
BRANCH   9  10
ATOM     10  C   UNL     1      16.519   6.189  44.267  1.00  0.00     0.006 C 
BRANCH  10  11
ATOM     11  C   UNL     1      17.123   7.394  43.536  1.00  0.00     0.053 C 
BRANCH  11  12
ATOM     12  C   UNL     1      18.620   7.325  43.490  1.00  0.00     0.041 C 
ATOM     13  O   UNL     1      19.211   7.091  42.405  1.00  0.00    -0.550 OA
ATOM     14  O   UNL     1      19.358   7.490  44.656  1.00  0.00    -0.550 OA
ENDBRANCH  11  12
ENDBRANCH  10  11
ENDBRANCH   9  10
ENDBRANCH   8   9
ENDBRANCH   7   8
ENDBRANCH   6   7
ENDBRANCH   5   6
ENDBRANCH   4   5
ENDBRANCH   3   4
ENDBRANCH   2   3
ENDBRANCH   1   2
BRANCH   1  15
ATOM     15  C   UNL     1      12.707  -0.137  40.157  1.00  0.00     0.000 C 
BRANCH  15  16
ATOM     16  C   UNL     1      12.081  -0.049  41.556  1.00  0.00     0.000 C 
BRANCH  16  17
ATOM     17  C   UNL     1      10.616  -0.509  41.532  1.00  0.00     0.000 C 
BRANCH  17  18
ATOM     18  C   UNL     1      10.270  -1.348  40.288  1.00  0.00    -0.000 C 
BRANCH  18  19
ATOM     19  C   UNL     1       8.818  -1.204  39.794  1.00  0.00    -0.000 C 
BRANCH  19  20
ATOM     20  C   UNL     1       8.538   0.166  39.155  1.00  0.00    -0.000 C 
BRANCH  20  21
ATOM     21  C   UNL     1       9.573   0.536  38.082  1.00  0.00    -0.000 C 
BRANCH  21  22
ATOM     22  C   UNL     1      10.252   1.888  38.361  1.00  0.00    -0.000 C 
BRANCH  22  23
ATOM     23  C   UNL     1       9.466   2.753  39.362  1.00  0.00    -0.000 C 
BRANCH  23  24
ATOM     24  C   UNL     1      10.224   3.098  40.662  1.00  0.00    -0.000 C 
BRANCH  24  25
ATOM     25  C   UNL     1      11.510   3.920  40.465  1.00  0.00    -0.003 C 
ATOM     26  C   UNL     1      12.528   3.711  41.584  1.00  0.00     0.004 C 
ENDBRANCH  24  25
ENDBRANCH  23  24
ENDBRANCH  22  23
ENDBRANCH  21  22
ENDBRANCH  20  21
ENDBRANCH  19  20
ENDBRANCH  18  19
ENDBRANCH  17  18
ENDBRANCH  16  17
ENDBRANCH  15  16
ENDBRANCH   1  15
TORSDOF 22
ENDMDL
