MODEL 1
REMARK VINA RESULT:    -5.618      0.000      0.000
REMARK INTER + INTRA:          -5.618
REMARK INTER:                  -5.618
REMARK INTRA:                   0.000
REMARK UNBOUND:                 0.000
REMARK SMILES O=c1ccc2ccccc2o1
REMARK SMILES IDX 7 1 8 2 9 3 10 4 5 5 6 6 4 7 3 8 2 9 1 10 11 11
REMARK H PARENT
REMARK Flexibility Score: inf
ROOT
ATOM      1  C   UNL     1      30.442  37.108  35.636  1.00  0.00     0.001 A 
ATOM      2  C   UNL     1      30.320  37.435  34.281  1.00  0.00     0.004 A 
ATOM      3  C   UNL     1      31.434  37.371  33.439  1.00  0.00     0.048 A 
ATOM      4  C   UNL     1      32.677  36.980  33.949  1.00  0.00     0.138 A 
ATOM      5  C   UNL     1      32.802  36.650  35.317  1.00  0.00     0.018 A 
ATOM      6  C   UNL     1      31.680  36.716  36.157  1.00  0.00     0.012 A 
ATOM      7  C   UNL     1      34.055  36.263  35.798  1.00  0.00     0.019 A 
ATOM      8  C   UNL     1      35.140  36.213  34.922  1.00  0.00     0.094 A 
ATOM      9  C   UNL     1      34.941  36.554  33.579  1.00  0.00     0.336 A 
ATOM     10  O   UNL     1      35.908  36.516  32.773  1.00  0.00    -0.246 OA
ATOM     11  O   UNL     1      33.738  36.920  33.146  1.00  0.00    -0.423 OA
ENDROOT
TORSDOF 0
ENDMDL
MODEL 2
REMARK VINA RESULT:    -5.265     16.181     17.565
REMARK INTER + INTRA:          -5.265
REMARK INTER:                  -5.265
REMARK INTRA:                   0.000
REMARK UNBOUND:                 0.000
REMARK SMILES O=c1ccc2ccccc2o1
REMARK SMILES IDX 7 1 8 2 9 3 10 4 5 5 6 6 4 7 3 8 2 9 1 10 11 11
REMARK H PARENT
REMARK Flexibility Score: inf
ROOT
ATOM      1  C   UNL     1      24.584  28.633  19.343  1.00  0.00     0.001 A 
ATOM      2  C   UNL     1      25.751  28.405  20.080  1.00  0.00     0.004 A 
ATOM      3  C   UNL     1      25.754  28.583  21.466  1.00  0.00     0.048 A 
ATOM      4  C   UNL     1      24.588  28.992  22.123  1.00  0.00     0.138 A 
ATOM      5  C   UNL     1      23.408  29.223  21.380  1.00  0.00     0.018 A 
ATOM      6  C   UNL     1      23.412  29.042  19.989  1.00  0.00     0.012 A 
ATOM      7  C   UNL     1      22.259  29.630  22.063  1.00  0.00     0.019 A 
ATOM      8  C   UNL     1      22.307  29.795  23.447  1.00  0.00     0.094 A 
ATOM      9  C   UNL     1      23.511  29.548  24.118  1.00  0.00     0.336 A 
ATOM     10  O   UNL     1      23.574  29.693  25.367  1.00  0.00    -0.246 OA
ATOM     11  O   UNL     1      24.591  29.162  23.444  1.00  0.00    -0.423 OA
ENDROOT
TORSDOF 0
ENDMDL
MODEL 3
REMARK VINA RESULT:    -5.236      1.996      2.671
REMARK INTER + INTRA:          -5.236
REMARK INTER:                  -5.236
REMARK INTRA:                   0.000
REMARK UNBOUND:                 0.000
REMARK SMILES O=c1ccc2ccccc2o1
REMARK SMILES IDX 7 1 8 2 9 3 10 4 5 5 6 6 4 7 3 8 2 9 1 10 11 11
REMARK H PARENT
REMARK Flexibility Score: inf
ROOT
ATOM      1  C   UNL     1      29.841  37.750  33.838  1.00  0.00     0.001 A 
ATOM      2  C   UNL     1      29.416  37.493  35.145  1.00  0.00     0.004 A 
ATOM      3  C   UNL     1      30.317  37.004  36.095  1.00  0.00     0.048 A 
ATOM      4  C   UNL     1      31.650  36.767  35.740  1.00  0.00     0.138 A 
ATOM      5  C   UNL     1      32.081  37.026  34.420  1.00  0.00     0.018 A 
ATOM      6  C   UNL     1      31.171  37.517  33.471  1.00  0.00     0.012 A 
ATOM      7  C   UNL     1      33.418  36.781  34.094  1.00  0.00     0.019 A 
ATOM      8  C   UNL     1      34.282  36.293  35.074  1.00  0.00     0.094 A 
ATOM      9  C   UNL     1      33.785  36.060  36.362  1.00  0.00     0.336 A 
ATOM     10  O   UNL     1      34.551  35.619  37.259  1.00  0.00    -0.246 OA
ATOM     11  O   UNL     1      32.508  36.301  36.645  1.00  0.00    -0.423 OA
ENDROOT
TORSDOF 0
ENDMDL
MODEL 4
REMARK VINA RESULT:    -5.138      1.519      3.769
REMARK INTER + INTRA:          -5.138
REMARK INTER:                  -5.138
REMARK INTRA:                   0.000
REMARK UNBOUND:                 0.000
REMARK SMILES O=c1ccc2ccccc2o1
REMARK SMILES IDX 7 1 8 2 9 3 10 4 5 5 6 6 4 7 3 8 2 9 1 10 11 11
REMARK H PARENT
REMARK Flexibility Score: inf
ROOT
ATOM      1  C   UNL     1      34.980  36.121  35.590  1.00  0.00     0.001 A 
ATOM      2  C   UNL     1      35.134  36.369  34.222  1.00  0.00     0.004 A 
ATOM      3  C   UNL     1      34.038  36.767  33.451  1.00  0.00     0.048 A 
ATOM      4  C   UNL     1      32.780  36.917  34.046  1.00  0.00     0.138 A 
ATOM      5  C   UNL     1      32.623  36.666  35.427  1.00  0.00     0.018 A 
ATOM      6  C   UNL     1      33.727  36.267  36.195  1.00  0.00     0.012 A 
ATOM      7  C   UNL     1      31.356  36.824  35.994  1.00  0.00     0.019 A 
ATOM      8  C   UNL     1      30.290  37.223  35.187  1.00  0.00     0.094 A 
ATOM      9  C   UNL     1      30.520  37.454  33.826  1.00  0.00     0.336 A 
ATOM     10  O   UNL     1      29.570  37.813  33.082  1.00  0.00    -0.246 OA
ATOM     11  O   UNL     1      31.736  37.295  33.311  1.00  0.00    -0.423 OA
ENDROOT
TORSDOF 0
ENDMDL
MODEL 5
REMARK VINA RESULT:    -5.092     16.945     17.995
REMARK INTER + INTRA:          -5.092
REMARK INTER:                  -5.092
REMARK INTRA:                   0.000
REMARK UNBOUND:                 0.000
REMARK SMILES O=c1ccc2ccccc2o1
REMARK SMILES IDX 7 1 8 2 9 3 10 4 5 5 6 6 4 7 3 8 2 9 1 10 11 11
REMARK H PARENT
REMARK Flexibility Score: inf
ROOT
ATOM      1  C   UNL     1      22.931  29.453  23.136  1.00  0.00     0.001 A 
ATOM      2  C   UNL     1      24.261  29.775  23.426  1.00  0.00     0.004 A 
ATOM      3  C   UNL     1      25.305  29.072  22.818  1.00  0.00     0.048 A 
ATOM      4  C   UNL     1      25.023  28.040  21.915  1.00  0.00     0.138 A 
ATOM      5  C   UNL     1      23.680  27.713  21.621  1.00  0.00     0.018 A 
ATOM      6  C   UNL     1      22.637  28.423  22.235  1.00  0.00     0.012 A 
ATOM      7  C   UNL     1      23.429  26.679  20.716  1.00  0.00     0.019 A 
ATOM      8  C   UNL     1      24.501  26.004  20.132  1.00  0.00     0.094 A 
ATOM      9  C   UNL     1      25.805  26.383  20.471  1.00  0.00     0.336 A 
ATOM     10  O   UNL     1      26.786  25.785  19.955  1.00  0.00    -0.246 OA
ATOM     11  O   UNL     1      26.018  27.371  21.336  1.00  0.00    -0.423 OA
ENDROOT
TORSDOF 0
ENDMDL
MODEL 6
REMARK VINA RESULT:    -5.019     16.730     17.982
REMARK INTER + INTRA:          -5.019
REMARK INTER:                  -5.019
REMARK INTRA:                   0.000
REMARK UNBOUND:                 0.000
REMARK SMILES O=c1ccc2ccccc2o1
REMARK SMILES IDX 7 1 8 2 9 3 10 4 5 5 6 6 4 7 3 8 2 9 1 10 11 11
REMARK H PARENT
REMARK Flexibility Score: inf
ROOT
ATOM      1  C   UNL     1      22.149  29.506  19.048  1.00  0.00     0.001 A 
ATOM      2  C   UNL     1      20.995  29.534  19.839  1.00  0.00     0.004 A 
ATOM      3  C   UNL     1      21.098  29.541  21.233  1.00  0.00     0.048 A 
ATOM      4  C   UNL     1      22.357  29.519  21.843  1.00  0.00     0.138 A 
ATOM      5  C   UNL     1      23.523  29.491  21.046  1.00  0.00     0.018 A 
ATOM      6  C   UNL     1      23.413  29.484  19.647  1.00  0.00     0.012 A 
ATOM      7  C   UNL     1      24.767  29.470  21.682  1.00  0.00     0.019 A 
ATOM      8  C   UNL     1      24.822  29.478  23.076  1.00  0.00     0.094 A 
ATOM      9  C   UNL     1      23.626  29.506  23.802  1.00  0.00     0.336 A 
ATOM     10  O   UNL     1      23.656  29.513  25.061  1.00  0.00    -0.246 OA
ATOM     11  O   UNL     1      22.455  29.525  23.171  1.00  0.00    -0.423 OA
ENDROOT
TORSDOF 0
ENDMDL
MODEL 7
REMARK VINA RESULT:    -4.868     16.252     17.681
REMARK INTER + INTRA:          -4.868
REMARK INTER:                  -4.868
REMARK INTRA:                   0.000
REMARK UNBOUND:                 0.000
REMARK SMILES O=c1ccc2ccccc2o1
REMARK SMILES IDX 7 1 8 2 9 3 10 4 5 5 6 6 4 7 3 8 2 9 1 10 11 11
REMARK H PARENT
REMARK Flexibility Score: inf
ROOT
ATOM      1  C   UNL     1      38.114  21.143  24.503  1.00  0.00     0.001 A 
ATOM      2  C   UNL     1      38.091  21.870  25.698  1.00  0.00     0.004 A 
ATOM      3  C   UNL     1      37.692  23.210  25.700  1.00  0.00     0.048 A 
ATOM      4  C   UNL     1      37.316  23.831  24.503  1.00  0.00     0.138 A 
ATOM      5  C   UNL     1      37.339  23.098  23.295  1.00  0.00     0.018 A 
ATOM      6  C   UNL     1      37.740  21.754  23.300  1.00  0.00     0.012 A 
ATOM      7  C   UNL     1      36.958  23.744  22.116  1.00  0.00     0.019 A 
ATOM      8  C   UNL     1      36.567  25.082  22.164  1.00  0.00     0.094 A 
ATOM      9  C   UNL     1      36.569  25.745  23.397  1.00  0.00     0.336 A 
ATOM     10  O   UNL     1      36.220  26.953  23.460  1.00  0.00    -0.246 OA
ATOM     11  O   UNL     1      36.937  25.107  24.505  1.00  0.00    -0.423 OA
ENDROOT
TORSDOF 0
ENDMDL
MODEL 8
REMARK VINA RESULT:    -4.789     17.147     18.322
REMARK INTER + INTRA:          -4.789
REMARK INTER:                  -4.789
REMARK INTRA:                   0.000
REMARK UNBOUND:                 0.000
REMARK SMILES O=c1ccc2ccccc2o1
REMARK SMILES IDX 7 1 8 2 9 3 10 4 5 5 6 6 4 7 3 8 2 9 1 10 11 11
REMARK H PARENT
REMARK Flexibility Score: inf
ROOT
ATOM      1  C   UNL     1      25.163  25.731  19.802  1.00  0.00     0.001 A 
ATOM      2  C   UNL     1      23.831  25.430  20.107  1.00  0.00     0.004 A 
ATOM      3  C   UNL     1      23.121  26.222  21.014  1.00  0.00     0.048 A 
ATOM      4  C   UNL     1      23.740  27.320  21.622  1.00  0.00     0.138 A 
ATOM      5  C   UNL     1      25.085  27.625  21.315  1.00  0.00     0.018 A 
ATOM      6  C   UNL     1      25.793  26.826  20.404  1.00  0.00     0.012 A 
ATOM      7  C   UNL     1      25.678  28.727  21.937  1.00  0.00     0.019 A 
ATOM      8  C   UNL     1      24.932  29.489  22.836  1.00  0.00     0.094 A 
ATOM      9  C   UNL     1      23.604  29.128  23.091  1.00  0.00     0.336 A 
ATOM     10  O   UNL     1      22.914  29.803  23.900  1.00  0.00    -0.246 OA
ATOM     11  O   UNL     1      23.063  28.073  22.486  1.00  0.00    -0.423 OA
ENDROOT
TORSDOF 0
ENDMDL
MODEL 9
REMARK VINA RESULT:    -4.742     15.720     17.210
REMARK INTER + INTRA:          -4.742
REMARK INTER:                  -4.742
REMARK INTRA:                   0.000
REMARK UNBOUND:                 0.000
REMARK SMILES O=c1ccc2ccccc2o1
REMARK SMILES IDX 7 1 8 2 9 3 10 4 5 5 6 6 4 7 3 8 2 9 1 10 11 11
REMARK H PARENT
REMARK Flexibility Score: inf
ROOT
ATOM      1  C   UNL     1      37.835  22.441  23.191  1.00  0.00     0.001 A 
ATOM      2  C   UNL     1      37.768  22.944  24.495  1.00  0.00     0.004 A 
ATOM      3  C   UNL     1      37.411  24.277  24.719  1.00  0.00     0.048 A 
ATOM      4  C   UNL     1      37.122  25.116  23.637  1.00  0.00     0.138 A 
ATOM      5  C   UNL     1      37.190  24.610  22.319  1.00  0.00     0.018 A 
ATOM      6  C   UNL     1      37.548  23.271  22.102  1.00  0.00     0.012 A 
ATOM      7  C   UNL     1      36.895  25.471  21.258  1.00  0.00     0.019 A 
ATOM      8  C   UNL     1      36.545  26.794  21.527  1.00  0.00     0.094 A 
ATOM      9  C   UNL     1      36.497  27.225  22.858  1.00  0.00     0.336 A 
ATOM     10  O   UNL     1      36.184  28.416  23.121  1.00  0.00    -0.246 OA
ATOM     11  O   UNL     1      36.783  26.386  23.850  1.00  0.00    -0.423 OA
ENDROOT
TORSDOF 0
ENDMDL
