MODEL 1
REMARK VINA RESULT:    -4.397      0.000      0.000
REMARK INTER + INTRA:          -3.913
REMARK INTER:                  -5.425
REMARK INTRA:                   1.512
REMARK UNBOUND:                 1.512
REMARK SMILES C=C1CC[C@@H]2[C@H]([C@@H]3[C@@H](C)CC[C@@H]13)C2(C)C
REMARK SMILES IDX 3 1 2 2 1 3 12 4 9 5 8 6 10 7 7 8 11 9 4 11 5 12 6 13 13 14
REMARK SMILES IDX 14 16 15 17
REMARK H PARENT
REMARK Flexibility Score: 80.00
ROOT
ATOM      1  C   UNL     1       1.740  -1.713  15.979  1.00  0.00     0.031 C 
ENDROOT
BRANCH   1   2
ATOM      2  C   UNL     1       3.224  -2.050  15.989  1.00  0.00    -0.074 C 
ATOM      3  C   UNL     1       3.877  -2.058  14.807  1.00  0.00     0.008 C 
BRANCH   2   4
ATOM      4  C   UNL     1       3.967  -2.146  17.330  1.00  0.00     0.018 C 
ATOM      5  C   UNL     1       4.620  -5.088  19.493  1.00  0.00     0.008 C 
ATOM      6  C   UNL     1       4.531  -3.577  19.240  1.00  0.00    -0.010 C 
ATOM      7  C   UNL     1       5.822  -3.022  18.625  1.00  0.00     0.004 C 
ATOM      8  C   UNL     1       3.389  -3.223  18.260  1.00  0.00     0.003 CG0
ATOM      9  C   UNL     1       5.448  -2.520  17.241  1.00  0.00     0.008 C 
ATOM     10  G   UNL     1       2.155  -2.697  19.033  1.00  0.00     0.000 G0
ENDBRANCH   2   4
ENDBRANCH   1   2
BRANCH   1  11
ATOM     11  C   UNL     1       0.888  -2.747  16.727  1.00  0.00     0.009 C 
BRANCH  11  12
ATOM     12  C   UNL     1       0.855  -2.434  18.235  1.00  0.00    -0.001 C 
ATOM     13  C   UNL     1       2.146  -2.685  19.029  1.00  0.00     0.002 CG0
ATOM     14  C   UNL     1       0.903  -3.560  19.283  1.00  0.00    -0.029 C 
ATOM     15  G   UNL     1       3.370  -3.230  18.253  1.00  0.00     0.000 G0
ATOM     16  C   UNL     1       0.147  -3.240  20.577  1.00  0.00     0.011 C 
ATOM     17  C   UNL     1       0.807  -5.025  18.816  1.00  0.00     0.011 C 
ENDBRANCH  11  12
ENDBRANCH   1  11
TORSDOF 0
ENDMDL
MODEL 2
REMARK VINA RESULT:    -4.249      1.177      3.331
REMARK INTER + INTRA:          -3.731
REMARK INTER:                  -5.294
REMARK INTRA:                   1.562
REMARK UNBOUND:                 1.512
REMARK SMILES C=C1CC[C@@H]2[C@H]([C@@H]3[C@@H](C)CC[C@@H]13)C2(C)C
REMARK SMILES IDX 3 1 2 2 1 3 12 4 9 5 8 6 10 7 7 8 11 9 4 11 5 12 6 13 13 14
REMARK SMILES IDX 14 16 15 17
REMARK H PARENT
REMARK Flexibility Score: 80.00
ROOT
ATOM      1  C   UNL     1       4.793  -3.952  19.824  1.00  0.00     0.031 C 
ENDROOT
BRANCH   1   2
ATOM      2  C   UNL     1       4.848  -3.067  18.589  1.00  0.00    -0.074 C 
ATOM      3  C   UNL     1       5.948  -2.304  18.409  1.00  0.00     0.008 C 
BRANCH   2   4
ATOM      4  C   UNL     1       3.783  -3.230  17.494  1.00  0.00     0.018 C 
ATOM      5  C   UNL     1       0.529  -1.505  17.051  1.00  0.00     0.008 C 
ATOM      6  C   UNL     1       1.517  -2.643  16.764  1.00  0.00    -0.010 C 
ATOM      7  C   UNL     1       2.517  -2.272  15.661  1.00  0.00     0.004 C 
ATOM      8  C   UNL     1       2.354  -3.010  18.010  1.00  0.00     0.003 CG0
ATOM      9  C   UNL     1       3.885  -2.255  16.320  1.00  0.00     0.008 C 
ATOM     10  G   UNL     1       1.794  -4.287  18.684  1.00  0.00     0.000 G0
ENDBRANCH   2   4
ENDBRANCH   1   2
BRANCH   1  11
ATOM     11  C   UNL     1       3.489  -3.793  20.616  1.00  0.00     0.009 C 
BRANCH  11  12
ATOM     12  C   UNL     1       2.387  -4.702  20.038  1.00  0.00    -0.001 C 
ATOM     13  C   UNL     1       1.791  -4.298  18.681  1.00  0.00     0.002 CG0
ATOM     14  C   UNL     1       0.926  -4.227  19.954  1.00  0.00    -0.029 C 
ATOM     15  G   UNL     1       2.341  -3.016  18.008  1.00  0.00     0.000 G0
ATOM     16  C   UNL     1      -0.104  -5.354  20.094  1.00  0.00     0.011 C 
ATOM     17  C   UNL     1       0.530  -2.894  20.619  1.00  0.00     0.011 C 
ENDBRANCH  11  12
ENDBRANCH   1  11
TORSDOF 0
ENDMDL
MODEL 3
REMARK VINA RESULT:    -4.245      1.569      4.183
REMARK INTER + INTRA:          -3.726
REMARK INTER:                  -5.224
REMARK INTRA:                   1.499
REMARK UNBOUND:                 1.512
REMARK SMILES C=C1CC[C@@H]2[C@H]([C@@H]3[C@@H](C)CC[C@@H]13)C2(C)C
REMARK SMILES IDX 3 1 2 2 1 3 12 4 9 5 8 6 10 7 7 8 11 9 4 11 5 12 6 13 13 14
REMARK SMILES IDX 14 16 15 17
REMARK H PARENT
REMARK Flexibility Score: 80.00
ROOT
ATOM      1  C   UNL     1       2.290  -2.310  17.560  1.00  0.00     0.031 C 
ENDROOT
BRANCH   1   2
ATOM      2  C   UNL     1       1.865  -3.117  18.778  1.00  0.00    -0.074 C 
ATOM      3  C   UNL     1       0.594  -2.979  19.213  1.00  0.00     0.008 C 
BRANCH   2   4
ATOM      4  C   UNL     1       2.799  -4.206  19.326  1.00  0.00     0.018 C 
ATOM      5  C   UNL     1       5.400  -4.015  21.964  1.00  0.00     0.008 C 
ATOM      6  C   UNL     1       4.725  -4.692  20.764  1.00  0.00    -0.010 C 
ATOM      7  C   UNL     1       3.540  -5.568  21.191  1.00  0.00     0.004 C 
ATOM      8  C   UNL     1       4.168  -3.660  19.757  1.00  0.00     0.003 CG0
ATOM      9  C   UNL     1       2.303  -4.935  20.577  1.00  0.00     0.008 C 
ATOM     10  G   UNL     1       5.123  -3.514  18.547  1.00  0.00     0.000 G0
ENDBRANCH   2   4
ENDBRANCH   1   2
BRANCH   1  11
ATOM     11  C   UNL     1       3.587  -1.523  17.788  1.00  0.00     0.009 C 
BRANCH  11  12
ATOM     12  C   UNL     1       4.816  -2.409  17.511  1.00  0.00    -0.001 C 
ATOM     13  C   UNL     1       5.127  -3.512  18.535  1.00  0.00     0.002 CG0
ATOM     14  C   UNL     1       6.080  -2.312  18.383  1.00  0.00    -0.029 C 
ATOM     15  G   UNL     1       4.184  -3.642  19.757  1.00  0.00     0.000 G0
ATOM     16  C   UNL     1       7.381  -2.617  17.631  1.00  0.00     0.011 C 
ATOM     17  C   UNL     1       6.183  -1.191  19.435  1.00  0.00     0.011 C 
ENDBRANCH  11  12
ENDBRANCH   1  11
TORSDOF 0
ENDMDL
MODEL 4
REMARK VINA RESULT:    -4.186      9.911     12.390
REMARK INTER + INTRA:          -3.653
REMARK INTER:                  -5.162
REMARK INTRA:                   1.508
REMARK UNBOUND:                 1.512
REMARK SMILES C=C1CC[C@@H]2[C@H]([C@@H]3[C@@H](C)CC[C@@H]13)C2(C)C
REMARK SMILES IDX 3 1 2 2 1 3 12 4 9 5 8 6 10 7 7 8 11 9 4 11 5 12 6 13 13 14
REMARK SMILES IDX 14 16 15 17
REMARK H PARENT
REMARK Flexibility Score: 80.00
ROOT
ATOM      1  C   UNL     1      10.057   0.060  28.463  1.00  0.00     0.031 C 
ENDROOT
BRANCH   1   2
ATOM      2  C   UNL     1       8.897   0.364  27.526  1.00  0.00    -0.074 C 
ATOM      3  C   UNL     1       7.662  -0.026  27.906  1.00  0.00     0.008 C 
BRANCH   2   4
ATOM      4  C   UNL     1       9.125   1.280  26.314  1.00  0.00     0.018 C 
ATOM      5  C   UNL     1      10.047   0.435  22.822  1.00  0.00     0.008 C 
ATOM      6  C   UNL     1       9.899   1.417  23.991  1.00  0.00    -0.010 C 
ATOM      7  C   UNL     1       8.477   1.986  24.087  1.00  0.00     0.004 C 
ATOM      8  C   UNL     1      10.195   0.744  25.351  1.00  0.00     0.003 CG0
ATOM      9  C   UNL     1       7.912   1.492  25.407  1.00  0.00     0.008 C 
ATOM     10  G   UNL     1      11.621   1.104  25.835  1.00  0.00     0.000 G0
ENDBRANCH   2   4
ENDBRANCH   1   2
BRANCH   1  11
ATOM     11  C   UNL     1      11.227  -0.638  27.759  1.00  0.00     0.009 C 
BRANCH  11  12
ATOM     12  C   UNL     1      12.160   0.395  27.099  1.00  0.00    -0.001 C 
ATOM     13  C   UNL     1      11.634   1.111  25.846  1.00  0.00     0.002 CG0
ATOM     14  C   UNL     1      12.810   0.122  25.732  1.00  0.00    -0.029 C 
ATOM     15  G   UNL     1      10.216   0.736  25.348  1.00  0.00     0.000 G0
ATOM     16  C   UNL     1      14.185   0.778  25.553  1.00  0.00     0.011 C 
ATOM     17  C   UNL     1      12.666  -1.275  25.097  1.00  0.00     0.011 C 
ENDBRANCH  11  12
ENDBRANCH   1  11
TORSDOF 0
ENDMDL
MODEL 5
REMARK VINA RESULT:    -4.139      1.602      3.589
REMARK INTER + INTRA:          -3.595
REMARK INTER:                  -5.162
REMARK INTRA:                   1.567
REMARK UNBOUND:                 1.512
REMARK SMILES C=C1CC[C@@H]2[C@H]([C@@H]3[C@@H](C)CC[C@@H]13)C2(C)C
REMARK SMILES IDX 3 1 2 2 1 3 12 4 9 5 8 6 10 7 7 8 11 9 4 11 5 12 6 13 13 14
REMARK SMILES IDX 14 16 15 17
REMARK H PARENT
REMARK Flexibility Score: 80.00
ROOT
ATOM      1  C   UNL     1       5.481  -3.400  20.803  1.00  0.00     0.031 C 
ENDROOT
BRANCH   1   2
ATOM      2  C   UNL     1       5.354  -2.684  19.467  1.00  0.00    -0.074 C 
ATOM      3  C   UNL     1       6.256  -1.722  19.179  1.00  0.00     0.008 C 
BRANCH   2   4
ATOM      4  C   UNL     1       4.368  -3.215  18.416  1.00  0.00     0.018 C 
ATOM      5  C   UNL     1       0.830  -2.299  17.781  1.00  0.00     0.008 C 
ATOM      6  C   UNL     1       2.042  -3.228  17.638  1.00  0.00    -0.010 C 
ATOM      7  C   UNL     1       2.960  -2.803  16.485  1.00  0.00     0.004 C 
ATOM      8  C   UNL     1       2.915  -3.238  18.913  1.00  0.00     0.003 CG0
ATOM      9  C   UNL     1       4.281  -2.406  17.120  1.00  0.00     0.008 C 
ATOM     10  G   UNL     1       2.628  -4.503  19.758  1.00  0.00     0.000 G0
ENDBRANCH   2   4
ENDBRANCH   1   2
BRANCH   1  11
ATOM     11  C   UNL     1       4.167  -3.429  21.594  1.00  0.00     0.009 C 
BRANCH  11  12
ATOM     12  C   UNL     1       3.286  -4.608  21.141  1.00  0.00    -0.001 C 
ATOM     13  C   UNL     1       2.636  -4.502  19.753  1.00  0.00     0.002 CG0
ATOM     14  C   UNL     1       1.759  -4.461  21.020  1.00  0.00    -0.029 C 
ATOM     15  G   UNL     1       2.916  -3.224  18.926  1.00  0.00     0.000 G0
ATOM     16  C   UNL     1       0.983  -5.752  21.306  1.00  0.00     0.011 C 
ATOM     17  C   UNL     1       1.086  -3.170  21.526  1.00  0.00     0.011 C 
ENDBRANCH  11  12
ENDBRANCH   1  11
TORSDOF 0
ENDMDL
MODEL 6
REMARK VINA RESULT:    -4.129      1.866      3.622
REMARK INTER + INTRA:          -3.583
REMARK INTER:                  -5.104
REMARK INTRA:                   1.521
REMARK UNBOUND:                 1.512
REMARK SMILES C=C1CC[C@@H]2[C@H]([C@@H]3[C@@H](C)CC[C@@H]13)C2(C)C
REMARK SMILES IDX 3 1 2 2 1 3 12 4 9 5 8 6 10 7 7 8 11 9 4 11 5 12 6 13 13 14
REMARK SMILES IDX 14 16 15 17
REMARK H PARENT
REMARK Flexibility Score: 80.00
ROOT
ATOM      1  C   UNL     1       4.273  -1.410  14.002  1.00  0.00     0.031 C 
ENDROOT
BRANCH   1   2
ATOM      2  C   UNL     1       4.695  -1.969  15.352  1.00  0.00    -0.074 C 
ATOM      3  C   UNL     1       5.966  -2.404  15.485  1.00  0.00     0.008 C 
BRANCH   2   4
ATOM      4  C   UNL     1       3.756  -1.818  16.558  1.00  0.00     0.018 C 
ATOM      5  C   UNL     1       1.137  -4.106  17.849  1.00  0.00     0.008 C 
ATOM      6  C   UNL     1       1.820  -2.735  17.751  1.00  0.00    -0.010 C 
ATOM      7  C   UNL     1       3.001  -2.612  18.722  1.00  0.00     0.004 C 
ATOM      8  C   UNL     1       2.384  -2.471  16.337  1.00  0.00     0.003 CG0
ATOM      9  C   UNL     1       4.243  -2.458  17.860  1.00  0.00     0.008 C 
ATOM     10  G   UNL     1       1.438  -1.540  15.541  1.00  0.00     0.000 G0
ENDBRANCH   2   4
ENDBRANCH   1   2
BRANCH   1  11
ATOM     11  C   UNL     1       2.979  -2.041  13.471  1.00  0.00     0.009 C 
BRANCH  11  12
ATOM     12  C   UNL     1       1.746  -1.316  14.042  1.00  0.00    -0.001 C 
ATOM     13  C   UNL     1       1.429  -1.542  15.528  1.00  0.00     0.002 CG0
ATOM     14  C   UNL     1       0.482  -2.094  14.446  1.00  0.00    -0.029 C 
ATOM     15  G   UNL     1       2.370  -2.477  16.328  1.00  0.00     0.000 G0
ATOM     16  C   UNL     1      -0.820  -1.303  14.269  1.00  0.00     0.011 C 
ATOM     17  C   UNL     1       0.383  -3.595  14.111  1.00  0.00     0.011 C 
ENDBRANCH  11  12
ENDBRANCH   1  11
TORSDOF 0
ENDMDL
MODEL 7
REMARK VINA RESULT:    -4.112      1.115      3.672
REMARK INTER + INTRA:          -3.562
REMARK INTER:                  -5.114
REMARK INTRA:                   1.552
REMARK UNBOUND:                 1.512
REMARK SMILES C=C1CC[C@@H]2[C@H]([C@@H]3[C@@H](C)CC[C@@H]13)C2(C)C
REMARK SMILES IDX 3 1 2 2 1 3 12 4 9 5 8 6 10 7 7 8 11 9 4 11 5 12 6 13 13 14
REMARK SMILES IDX 14 16 15 17
REMARK H PARENT
REMARK Flexibility Score: 80.00
ROOT
ATOM      1  C   UNL     1       0.043  -2.855  19.259  1.00  0.00     0.031 C 
ENDROOT
BRANCH   1   2
ATOM      2  C   UNL     1       1.177  -3.192  20.215  1.00  0.00    -0.074 C 
ATOM      3  C   UNL     1       0.967  -3.001  21.535  1.00  0.00     0.008 C 
BRANCH   2   4
ATOM      4  C   UNL     1       2.413  -3.935  19.687  1.00  0.00     0.018 C 
ATOM      5  C   UNL     1       5.611  -2.605  18.357  1.00  0.00     0.008 C 
ATOM      6  C   UNL     1       4.578  -3.722  18.555  1.00  0.00    -0.010 C 
ATOM      7  C   UNL     1       4.774  -4.454  19.889  1.00  0.00     0.004 C 
ATOM      8  C   UNL     1       3.132  -3.178  18.561  1.00  0.00     0.003 CG0
ATOM      9  C   UNL     1       3.526  -4.179  20.710  1.00  0.00     0.008 C 
ATOM     10  G   UNL     1       2.453  -3.428  17.191  1.00  0.00     0.000 G0
ENDBRANCH   2   4
ENDBRANCH   1   2
BRANCH   1  11
ATOM     11  C   UNL     1       0.486  -1.950  18.101  1.00  0.00     0.009 C 
BRANCH  11  12
ATOM     12  C   UNL     1       1.072  -2.789  16.950  1.00  0.00    -0.001 C 
ATOM     13  C   UNL     1       2.450  -3.428  17.183  1.00  0.00     0.002 CG0
ATOM     14  C   UNL     1       2.289  -2.299  16.147  1.00  0.00    -0.029 C 
ATOM     15  G   UNL     1       3.135  -3.177  18.548  1.00  0.00     0.000 G0
ATOM     16  C   UNL     1       2.299  -2.762  14.685  1.00  0.00     0.011 C 
ATOM     17  C   UNL     1       2.819  -0.871  16.383  1.00  0.00     0.011 C 
ENDBRANCH  11  12
ENDBRANCH   1  11
TORSDOF 0
ENDMDL
MODEL 8
REMARK VINA RESULT:    -4.035      1.568      3.213
REMARK INTER + INTRA:          -3.466
REMARK INTER:                  -4.981
REMARK INTRA:                   1.514
REMARK UNBOUND:                 1.512
REMARK SMILES C=C1CC[C@@H]2[C@H]([C@@H]3[C@@H](C)CC[C@@H]13)C2(C)C
REMARK SMILES IDX 3 1 2 2 1 3 12 4 9 5 8 6 10 7 7 8 11 9 4 11 5 12 6 13 13 14
REMARK SMILES IDX 14 16 15 17
REMARK H PARENT
REMARK Flexibility Score: 80.00
ROOT
ATOM      1  C   UNL     1       5.610  -1.480  14.846  1.00  0.00     0.031 C 
ENDROOT
BRANCH   1   2
ATOM      2  C   UNL     1       6.033  -2.294  16.060  1.00  0.00    -0.074 C 
ATOM      3  C   UNL     1       7.243  -2.891  16.028  1.00  0.00     0.008 C 
BRANCH   2   4
ATOM      4  C   UNL     1       5.191  -2.227  17.344  1.00  0.00     0.018 C 
ATOM      5  C   UNL     1       2.391  -4.380  18.478  1.00  0.00     0.008 C 
ATOM      6  C   UNL     1       3.230  -3.096  18.532  1.00  0.00    -0.010 C 
ATOM      7  C   UNL     1       4.472  -3.258  19.418  1.00  0.00     0.004 C 
ATOM      8  C   UNL     1       3.739  -2.680  17.133  1.00  0.00     0.003 CG0
ATOM      9  C   UNL     1       5.671  -3.113  18.496  1.00  0.00     0.008 C 
ATOM     10  G   UNL     1       2.869  -1.536  16.557  1.00  0.00     0.000 G0
ENDBRANCH   2   4
ENDBRANCH   1   2
BRANCH   1  11
ATOM     11  C   UNL     1       4.216  -1.858  14.329  1.00  0.00     0.009 C 
BRANCH  11  12
ATOM     12  C   UNL     1       3.124  -1.094  15.102  1.00  0.00    -0.001 C 
ATOM     13  C   UNL     1       2.869  -1.520  16.556  1.00  0.00     0.002 CG0
ATOM     14  C   UNL     1       1.795  -1.770  15.480  1.00  0.00    -0.029 C 
ATOM     15  G   UNL     1       3.725  -2.679  17.124  1.00  0.00     0.000 G0
ATOM     16  C   UNL     1       0.600  -0.810  15.532  1.00  0.00     0.011 C 
ATOM     17  C   UNL     1       1.481  -3.173  14.926  1.00  0.00     0.011 C 
ENDBRANCH  11  12
ENDBRANCH   1  11
TORSDOF 0
ENDMDL
MODEL 9
REMARK VINA RESULT:    -3.972      1.328      3.875
REMARK INTER + INTRA:          -3.389
REMARK INTER:                  -4.981
REMARK INTRA:                   1.592
REMARK UNBOUND:                 1.512
REMARK SMILES C=C1CC[C@@H]2[C@H]([C@@H]3[C@@H](C)CC[C@@H]13)C2(C)C
REMARK SMILES IDX 3 1 2 2 1 3 12 4 9 5 8 6 10 7 7 8 11 9 4 11 5 12 6 13 13 14
REMARK SMILES IDX 14 16 15 17
REMARK H PARENT
REMARK Flexibility Score: 80.00
ROOT
ATOM      1  C   UNL     1       4.797  -2.684  17.393  1.00  0.00     0.031 C 
ENDROOT
BRANCH   1   2
ATOM      2  C   UNL     1       3.329  -2.286  17.390  1.00  0.00    -0.074 C 
ATOM      3  C   UNL     1       2.950  -1.276  16.577  1.00  0.00     0.008 C 
BRANCH   2   4
ATOM      4  C   UNL     1       2.306  -3.168  18.122  1.00  0.00     0.018 C 
ATOM      5  C   UNL     1       1.074  -3.000  21.617  1.00  0.00     0.008 C 
ATOM      6  C   UNL     1       1.278  -3.722  20.278  1.00  0.00    -0.010 C 
ATOM      7  C   UNL     1       0.178  -3.378  19.266  1.00  0.00     0.004 C 
ATOM      8  C   UNL     1       2.621  -3.339  19.615  1.00  0.00     0.003 CG0
ATOM      9  C   UNL     1       0.866  -2.650  18.125  1.00  0.00     0.008 C 
ATOM     10  G   UNL     1       3.676  -4.448  19.846  1.00  0.00     0.000 G0
ENDBRANCH   2   4
ENDBRANCH   1   2
BRANCH   1  11
ATOM     11  C   UNL     1       5.392  -2.766  18.805  1.00  0.00     0.009 C 
BRANCH  11  12
ATOM     12  C   UNL     1       5.123  -4.148  19.428  1.00  0.00    -0.001 C 
ATOM     13  C   UNL     1       3.678  -4.455  19.850  1.00  0.00     0.002 CG0
ATOM     14  C   UNL     1       4.776  -4.296  20.919  1.00  0.00    -0.029 C 
ATOM     15  G   UNL     1       2.614  -3.354  19.618  1.00  0.00     0.000 G0
ATOM     16  C   UNL     1       5.259  -5.610  21.545  1.00  0.00     0.011 C 
ATOM     17  C   UNL     1       4.871  -3.062  21.838  1.00  0.00     0.011 C 
ENDBRANCH  11  12
ENDBRANCH   1  11
TORSDOF 0
ENDMDL
