MODEL 1
REMARK VINA RESULT:    -3.591      0.000      0.000
REMARK INTER + INTRA:          -4.841
REMARK INTER:                  -4.641
REMARK INTRA:                  -0.201
REMARK UNBOUND:                -0.201
REMARK SMILES CCCCCCC(=O)[O-]
REMARK SMILES IDX 5 1 6 2 7 3 8 4 9 5 4 6 3 7 2 8 1 9
REMARK H PARENT
REMARK Flexibility Score: inf
ROOT
ATOM      1  C   UNL     1      25.618 -13.149  -0.396  1.00  0.00     0.006 C 
ENDROOT
BRANCH   1   2
ATOM      2  C   UNL     1      26.935 -13.825  -0.809  1.00  0.00     0.053 C 
BRANCH   2   3
ATOM      3  C   UNL     1      27.750 -14.242   0.376  1.00  0.00     0.041 C 
ATOM      4  O   UNL     1      28.045 -13.404   1.268  1.00  0.00    -0.550 OA
ATOM      5  O   UNL     1      28.211 -15.549   0.480  1.00  0.00    -0.550 OA
ENDBRANCH   2   3
ENDBRANCH   1   2
BRANCH   1   6
ATOM      6  C   UNL     1      24.403 -13.554  -1.252  1.00  0.00     0.000 C 
BRANCH   6   7
ATOM      7  C   UNL     1      24.801 -14.280  -2.545  1.00  0.00    -0.000 C 
BRANCH   7   8
ATOM      8  C   UNL     1      23.638 -15.124  -3.080  1.00  0.00    -0.003 C 
ATOM      9  C   UNL     1      22.849 -15.761  -1.940  1.00  0.00     0.004 C 
ENDBRANCH   7   8
ENDBRANCH   6   7
ENDBRANCH   1   6
TORSDOF 5
ENDMDL
MODEL 2
REMARK VINA RESULT:    -3.575      0.137      1.079
REMARK INTER + INTRA:          -4.820
REMARK INTER:                  -4.613
REMARK INTRA:                  -0.207
REMARK UNBOUND:                -0.201
REMARK SMILES CCCCCCC(=O)[O-]
REMARK SMILES IDX 5 1 6 2 7 3 8 4 9 5 4 6 3 7 2 8 1 9
REMARK H PARENT
REMARK Flexibility Score: inf
ROOT
ATOM      1  C   UNL     1      25.576 -13.151  -0.385  1.00  0.00     0.006 C 
ENDROOT
BRANCH   1   2
ATOM      2  C   UNL     1      26.935 -13.684  -0.865  1.00  0.00     0.053 C 
BRANCH   2   3
ATOM      3  C   UNL     1      27.740 -14.264   0.256  1.00  0.00     0.041 C 
ATOM      4  O   UNL     1      28.128 -15.461   0.204  1.00  0.00    -0.550 OA
ATOM      5  O   UNL     1      28.035 -13.493   1.373  1.00  0.00    -0.550 OA
ENDBRANCH   2   3
ENDBRANCH   1   2
BRANCH   1   6
ATOM      6  C   UNL     1      24.376 -13.623  -1.228  1.00  0.00     0.000 C 
BRANCH   6   7
ATOM      7  C   UNL     1      24.800 -14.284  -2.548  1.00  0.00    -0.000 C 
BRANCH   7   8
ATOM      8  C   UNL     1      23.704 -15.222  -3.068  1.00  0.00    -0.003 C 
ATOM      9  C   UNL     1      22.847 -15.757  -1.925  1.00  0.00     0.004 C 
ENDBRANCH   7   8
ENDBRANCH   6   7
ENDBRANCH   1   6
TORSDOF 5
ENDMDL
MODEL 3
REMARK VINA RESULT:    -3.479     13.843     14.737
REMARK INTER + INTRA:          -4.697
REMARK INTER:                  -4.485
REMARK INTRA:                  -0.212
REMARK UNBOUND:                -0.201
REMARK SMILES CCCCCCC(=O)[O-]
REMARK SMILES IDX 5 1 6 2 7 3 8 4 9 5 4 6 3 7 2 8 1 9
REMARK H PARENT
REMARK Flexibility Score: inf
ROOT
ATOM      1  C   UNL     1      24.195 -14.290  13.950  1.00  0.00     0.006 C 
ENDROOT
BRANCH   1   2
ATOM      2  C   UNL     1      23.653 -15.357  14.915  1.00  0.00     0.053 C 
BRANCH   2   3
ATOM      3  C   UNL     1      24.743 -15.988  15.725  1.00  0.00     0.041 C 
ATOM      4  O   UNL     1      25.765 -15.322  16.039  1.00  0.00    -0.550 OA
ATOM      5  O   UNL     1      24.646 -17.320  16.105  1.00  0.00    -0.550 OA
ENDBRANCH   2   3
ENDBRANCH   1   2
BRANCH   1   6
ATOM      6  C   UNL     1      24.351 -14.773  12.496  1.00  0.00     0.000 C 
BRANCH   6   7
ATOM      7  C   UNL     1      23.478 -15.996  12.177  1.00  0.00    -0.000 C 
BRANCH   7   8
ATOM      8  C   UNL     1      23.228 -16.113  10.669  1.00  0.00    -0.003 C 
ATOM      9  C   UNL     1      22.214 -15.077  10.196  1.00  0.00     0.004 C 
ENDBRANCH   7   8
ENDBRANCH   6   7
ENDBRANCH   1   6
TORSDOF 5
ENDMDL
MODEL 4
REMARK VINA RESULT:    -3.460      3.008      4.758
REMARK INTER + INTRA:          -4.673
REMARK INTER:                  -4.496
REMARK INTRA:                  -0.177
REMARK UNBOUND:                -0.201
REMARK SMILES CCCCCCC(=O)[O-]
REMARK SMILES IDX 5 1 6 2 7 3 8 4 9 5 4 6 3 7 2 8 1 9
REMARK H PARENT
REMARK Flexibility Score: inf
ROOT
ATOM      1  C   UNL     1      24.326 -13.552  -1.244  1.00  0.00     0.006 C 
ENDROOT
BRANCH   1   2
ATOM      2  C   UNL     1      24.558 -14.253  -2.592  1.00  0.00     0.053 C 
BRANCH   2   3
ATOM      3  C   UNL     1      23.581 -15.363  -2.825  1.00  0.00     0.041 C 
ATOM      4  O   UNL     1      22.747 -15.670  -1.932  1.00  0.00    -0.550 OA
ATOM      5  O   UNL     1      23.611 -16.080  -4.014  1.00  0.00    -0.550 OA
ENDBRANCH   2   3
ENDBRANCH   1   2
BRANCH   1   6
ATOM      6  C   UNL     1      25.617 -13.211  -0.477  1.00  0.00     0.000 C 
BRANCH   6   7
ATOM      7  C   UNL     1      26.874 -13.796  -1.138  1.00  0.00    -0.000 C 
BRANCH   7   8
ATOM      8  C   UNL     1      28.128 -13.471  -0.316  1.00  0.00    -0.003 C 
ATOM      9  C   UNL     1      28.161 -14.275   0.980  1.00  0.00     0.004 C 
ENDBRANCH   7   8
ENDBRANCH   6   7
ENDBRANCH   1   6
TORSDOF 5
ENDMDL
MODEL 5
REMARK VINA RESULT:    -3.429     13.489     14.846
REMARK INTER + INTRA:          -4.631
REMARK INTER:                  -4.474
REMARK INTRA:                  -0.157
REMARK UNBOUND:                -0.201
REMARK SMILES CCCCCCC(=O)[O-]
REMARK SMILES IDX 5 1 6 2 7 3 8 4 9 5 4 6 3 7 2 8 1 9
REMARK H PARENT
REMARK Flexibility Score: inf
ROOT
ATOM      1  C   UNL     1      24.342 -14.811  12.748  1.00  0.00     0.006 C 
ENDROOT
BRANCH   1   2
ATOM      2  C   UNL     1      23.315 -15.811  12.193  1.00  0.00     0.053 C 
BRANCH   2   3
ATOM      3  C   UNL     1      23.187 -15.717  10.704  1.00  0.00     0.041 C 
ATOM      4  O   UNL     1      24.108 -16.149   9.961  1.00  0.00    -0.550 OA
ATOM      5  O   UNL     1      22.067 -15.122  10.137  1.00  0.00    -0.550 OA
ENDBRANCH   2   3
ENDBRANCH   1   2
BRANCH   1   6
ATOM      6  C   UNL     1      24.272 -14.614  14.274  1.00  0.00     0.000 C 
BRANCH   6   7
ATOM      7  C   UNL     1      23.835 -15.884  15.019  1.00  0.00    -0.000 C 
BRANCH   7   8
ATOM      8  C   UNL     1      24.838 -16.247  16.120  1.00  0.00    -0.003 C 
ATOM      9  C   UNL     1      25.134 -17.744  16.125  1.00  0.00     0.004 C 
ENDBRANCH   7   8
ENDBRANCH   6   7
ENDBRANCH   1   6
TORSDOF 5
ENDMDL
MODEL 6
REMARK VINA RESULT:    -3.356     13.629     14.681
REMARK INTER + INTRA:          -4.537
REMARK INTER:                  -4.335
REMARK INTRA:                  -0.202
REMARK UNBOUND:                -0.201
REMARK SMILES CCCCCCC(=O)[O-]
REMARK SMILES IDX 5 1 6 2 7 3 8 4 9 5 4 6 3 7 2 8 1 9
REMARK H PARENT
REMARK Flexibility Score: inf
ROOT
ATOM      1  C   UNL     1      24.364 -14.635  14.349  1.00  0.00     0.006 C 
ENDROOT
BRANCH   1   2
ATOM      2  C   UNL     1      25.583 -14.973  15.223  1.00  0.00     0.053 C 
BRANCH   2   3
ATOM      3  C   UNL     1      26.845 -14.377  14.681  1.00  0.00     0.041 C 
ATOM      4  O   UNL     1      27.840 -14.207  15.435  1.00  0.00    -0.550 OA
ATOM      5  O   UNL     1      26.913 -13.977  13.352  1.00  0.00    -0.550 OA
ENDBRANCH   2   3
ENDBRANCH   1   2
BRANCH   1   6
ATOM      6  C   UNL     1      23.239 -15.686  14.399  1.00  0.00     0.000 C 
BRANCH   6   7
ATOM      7  C   UNL     1      22.769 -16.123  13.004  1.00  0.00    -0.000 C 
BRANCH   7   8
ATOM      8  C   UNL     1      23.571 -15.412  11.907  1.00  0.00    -0.003 C 
ATOM      9  C   UNL     1      23.426 -16.127  10.567  1.00  0.00     0.004 C 
ENDBRANCH   7   8
ENDBRANCH   6   7
ENDBRANCH   1   6
TORSDOF 5
ENDMDL
MODEL 7
REMARK VINA RESULT:    -3.240      3.025      5.172
REMARK INTER + INTRA:          -4.388
REMARK INTER:                  -4.296
REMARK INTRA:                  -0.092
REMARK UNBOUND:                -0.201
REMARK SMILES CCCCCCC(=O)[O-]
REMARK SMILES IDX 5 1 6 2 7 3 8 4 9 5 4 6 3 7 2 8 1 9
REMARK H PARENT
REMARK Flexibility Score: inf
ROOT
ATOM      1  C   UNL     1      25.874 -13.846  -1.448  1.00  0.00     0.006 C 
ENDROOT
BRANCH   1   2
ATOM      2  C   UNL     1      24.345 -13.681  -1.446  1.00  0.00     0.053 C 
BRANCH   2   3
ATOM      3  C   UNL     1      23.675 -14.642  -2.378  1.00  0.00     0.041 C 
ATOM      4  O   UNL     1      22.848 -15.482  -1.935  1.00  0.00    -0.550 OA
ATOM      5  O   UNL     1      23.988 -14.633  -3.732  1.00  0.00    -0.550 OA
ENDBRANCH   2   3
ENDBRANCH   1   2
BRANCH   1   6
ATOM      6  C   UNL     1      26.552 -13.470  -0.117  1.00  0.00     0.000 C 
BRANCH   6   7
ATOM      7  C   UNL     1      27.759 -14.362   0.209  1.00  0.00    -0.000 C 
BRANCH   7   8
ATOM      8  C   UNL     1      28.501 -13.849   1.449  1.00  0.00    -0.003 C 
ATOM      9  C   UNL     1      29.372 -12.643   1.112  1.00  0.00     0.004 C 
ENDBRANCH   7   8
ENDBRANCH   6   7
ENDBRANCH   1   6
TORSDOF 5
ENDMDL
MODEL 8
REMARK VINA RESULT:    -3.196      1.367      1.868
REMARK INTER + INTRA:          -4.331
REMARK INTER:                  -4.252
REMARK INTRA:                  -0.079
REMARK UNBOUND:                -0.201
REMARK SMILES CCCCCCC(=O)[O-]
REMARK SMILES IDX 5 1 6 2 7 3 8 4 9 5 4 6 3 7 2 8 1 9
REMARK H PARENT
REMARK Flexibility Score: inf
ROOT
ATOM      1  C   UNL     1      26.970 -13.561   0.003  1.00  0.00     0.006 C 
ENDROOT
BRANCH   1   2
ATOM      2  C   UNL     1      28.476 -13.337  -0.214  1.00  0.00     0.053 C 
BRANCH   2   3
ATOM      3  C   UNL     1      29.170 -12.924   1.046  1.00  0.00     0.041 C 
ATOM      4  O   UNL     1      30.044 -12.018   1.020  1.00  0.00    -0.550 OA
ATOM      5  O   UNL     1      28.878 -13.563   2.244  1.00  0.00    -0.550 OA
ENDBRANCH   2   3
ENDBRANCH   1   2
BRANCH   1   6
ATOM      6  C   UNL     1      26.166 -13.761  -1.296  1.00  0.00     0.000 C 
BRANCH   6   7
ATOM      7  C   UNL     1      24.667 -13.480  -1.118  1.00  0.00    -0.000 C 
BRANCH   7   8
ATOM      8  C   UNL     1      23.888 -13.834  -2.390  1.00  0.00    -0.003 C 
ATOM      9  C   UNL     1      23.184 -15.180  -2.248  1.00  0.00     0.004 C 
ENDBRANCH   7   8
ENDBRANCH   6   7
ENDBRANCH   1   6
TORSDOF 5
ENDMDL
MODEL 9
REMARK VINA RESULT:    -3.158      2.001      3.230
REMARK INTER + INTRA:          -4.282
REMARK INTER:                  -4.120
REMARK INTRA:                  -0.162
REMARK UNBOUND:                -0.201
REMARK SMILES CCCCCCC(=O)[O-]
REMARK SMILES IDX 5 1 6 2 7 3 8 4 9 5 4 6 3 7 2 8 1 9
REMARK H PARENT
REMARK Flexibility Score: inf
ROOT
ATOM      1  C   UNL     1      28.170 -14.833   1.090  1.00  0.00     0.006 C 
ENDROOT
BRANCH   1   2
ATOM      2  C   UNL     1      28.764 -15.821   0.073  1.00  0.00     0.053 C 
BRANCH   2   3
ATOM      3  C   UNL     1      30.214 -16.088   0.330  1.00  0.00     0.041 C 
ATOM      4  O   UNL     1      31.050 -15.147   0.284  1.00  0.00    -0.550 OA
ATOM      5  O   UNL     1      30.649 -17.383   0.586  1.00  0.00    -0.550 OA
ENDBRANCH   2   3
ENDBRANCH   1   2
BRANCH   1   6
ATOM      6  C   UNL     1      27.711 -13.495   0.480  1.00  0.00     0.000 C 
BRANCH   6   7
ATOM      7  C   UNL     1      26.791 -13.679  -0.736  1.00  0.00    -0.000 C 
BRANCH   7   8
ATOM      8  C   UNL     1      25.400 -13.094  -0.465  1.00  0.00    -0.003 C 
ATOM      9  C   UNL     1      24.353 -13.713  -1.385  1.00  0.00     0.004 C 
ENDBRANCH   7   8
ENDBRANCH   6   7
ENDBRANCH   1   6
TORSDOF 5
ENDMDL
