MODEL 1
REMARK VINA RESULT:    -4.761      0.000      0.000
REMARK INTER + INTRA:          -7.793
REMARK INTER:                  -7.267
REMARK INTRA:                  -0.526
REMARK UNBOUND:                -0.526
REMARK SMILES CCCCCCCCCCC(=O)[O-]
REMARK SMILES IDX 7 1 8 2 9 3 10 4 11 5 12 6 13 7 6 8 5 9 4 10 3 11 2 12 1 13
REMARK H PARENT
REMARK Flexibility Score: inf
ROOT
ATOM      1  C   UNL     1      41.070  63.896   8.412  1.00  0.00     0.000 C 
ENDROOT
BRANCH   1   2
ATOM      2  C   UNL     1      40.905  64.814   7.195  1.00  0.00     0.000 C 
BRANCH   2   3
ATOM      3  C   UNL     1      39.442  64.854   6.729  1.00  0.00     0.006 C 
BRANCH   3   4
ATOM      4  C   UNL     1      39.250  65.741   5.491  1.00  0.00     0.053 C 
BRANCH   4   5
ATOM      5  C   UNL     1      37.987  66.541   5.572  1.00  0.00     0.041 C 
ATOM      6  O   UNL     1      37.740  67.426   4.710  1.00  0.00    -0.550 OA
ATOM      7  O   UNL     1      37.066  66.288   6.581  1.00  0.00    -0.550 OA
ENDBRANCH   4   5
ENDBRANCH   3   4
ENDBRANCH   2   3
ENDBRANCH   1   2
BRANCH   1   8
ATOM      8  C   UNL     1      39.848  62.983   8.582  1.00  0.00     0.000 C 
BRANCH   8   9
ATOM      9  C   UNL     1      40.190  61.495   8.407  1.00  0.00    -0.000 C 
BRANCH   9  10
ATOM     10  C   UNL     1      41.664  61.265   8.030  1.00  0.00    -0.000 C 
BRANCH  10  11
ATOM     11  C   UNL     1      42.008  59.765   7.916  1.00  0.00    -0.000 C 
BRANCH  11  12
ATOM     12  C   UNL     1      40.771  58.852   7.869  1.00  0.00    -0.003 C 
ATOM     13  C   UNL     1      40.789  57.763   8.939  1.00  0.00     0.004 C 
ENDBRANCH  11  12
ENDBRANCH  10  11
ENDBRANCH   9  10
ENDBRANCH   8   9
ENDBRANCH   1   8
TORSDOF 9
ENDMDL
MODEL 2
REMARK VINA RESULT:    -4.733      3.509      5.691
REMARK INTER + INTRA:          -7.749
REMARK INTER:                  -6.444
REMARK INTRA:                  -1.305
REMARK UNBOUND:                -0.526
REMARK SMILES CCCCCCCCCCC(=O)[O-]
REMARK SMILES IDX 7 1 8 2 9 3 10 4 11 5 12 6 13 7 6 8 5 9 4 10 3 11 2 12 1 13
REMARK H PARENT
REMARK Flexibility Score: inf
ROOT
ATOM      1  C   UNL     1      39.299  63.715   8.761  1.00  0.00     0.000 C 
ENDROOT
BRANCH   1   2
ATOM      2  C   UNL     1      40.796  63.395   8.843  1.00  0.00     0.000 C 
BRANCH   2   3
ATOM      3  C   UNL     1      41.096  62.005   8.262  1.00  0.00     0.006 C 
BRANCH   3   4
ATOM      4  C   UNL     1      39.906  61.433   7.478  1.00  0.00     0.053 C 
BRANCH   4   5
ATOM      5  C   UNL     1      39.934  59.936   7.440  1.00  0.00     0.041 C 
ATOM      6  O   UNL     1      40.963  59.332   7.035  1.00  0.00    -0.550 OA
ATOM      7  O   UNL     1      38.838  59.208   7.882  1.00  0.00    -0.550 OA
ENDBRANCH   4   5
ENDBRANCH   3   4
ENDBRANCH   2   3
ENDBRANCH   1   2
BRANCH   1   8
ATOM      8  C   UNL     1      39.064  65.087   8.113  1.00  0.00     0.000 C 
BRANCH   8   9
ATOM      9  C   UNL     1      38.743  64.988   6.614  1.00  0.00    -0.000 C 
BRANCH   9  10
ATOM     10  C   UNL     1      39.904  65.466   5.725  1.00  0.00    -0.000 C 
BRANCH  10  11
ATOM     11  C   UNL     1      40.821  64.303   5.292  1.00  0.00    -0.000 C 
BRANCH  11  12
ATOM     12  C   UNL     1      42.308  64.545   5.599  1.00  0.00    -0.003 C 
ATOM     13  C   UNL     1      42.541  65.721   6.546  1.00  0.00     0.004 C 
ENDBRANCH  11  12
ENDBRANCH  10  11
ENDBRANCH   9  10
ENDBRANCH   8   9
ENDBRANCH   1   8
TORSDOF 9
ENDMDL
MODEL 3
REMARK VINA RESULT:    -4.718      1.620      2.772
REMARK INTER + INTRA:          -7.725
REMARK INTER:                  -6.419
REMARK INTRA:                  -1.306
REMARK UNBOUND:                -0.526
REMARK SMILES CCCCCCCCCCC(=O)[O-]
REMARK SMILES IDX 7 1 8 2 9 3 10 4 11 5 12 6 13 7 6 8 5 9 4 10 3 11 2 12 1 13
REMARK H PARENT
REMARK Flexibility Score: inf
ROOT
ATOM      1  C   UNL     1      40.844  63.539   8.763  1.00  0.00     0.000 C 
ENDROOT
BRANCH   1   2
ATOM      2  C   UNL     1      40.668  64.763   7.856  1.00  0.00     0.000 C 
BRANCH   2   3
ATOM      3  C   UNL     1      39.289  64.754   7.180  1.00  0.00     0.006 C 
BRANCH   3   4
ATOM      4  C   UNL     1      39.284  65.538   5.860  1.00  0.00     0.053 C 
BRANCH   4   5
ATOM      5  C   UNL     1      38.026  66.333   5.692  1.00  0.00     0.041 C 
ATOM      6  O   UNL     1      37.155  66.343   6.603  1.00  0.00    -0.550 OA
ATOM      7  O   UNL     1      37.829  67.091   4.545  1.00  0.00    -0.550 OA
ENDBRANCH   4   5
ENDBRANCH   3   4
ENDBRANCH   2   3
ENDBRANCH   1   2
BRANCH   1   8
ATOM      8  C   UNL     1      40.050  62.338   8.227  1.00  0.00     0.000 C 
BRANCH   8   9
ATOM      9  C   UNL     1      40.929  61.100   7.996  1.00  0.00    -0.000 C 
BRANCH   9  10
ATOM     10  C   UNL     1      41.483  61.024   6.563  1.00  0.00    -0.000 C 
BRANCH  10  11
ATOM     11  C   UNL     1      40.512  61.636   5.531  1.00  0.00    -0.000 C 
BRANCH  11  12
ATOM     12  C   UNL     1      41.198  62.567   4.517  1.00  0.00    -0.003 C 
ATOM     13  C   UNL     1      42.440  63.255   5.080  1.00  0.00     0.004 C 
ENDBRANCH  11  12
ENDBRANCH  10  11
ENDBRANCH   9  10
ENDBRANCH   8   9
ENDBRANCH   1   8
TORSDOF 9
ENDMDL
MODEL 4
REMARK VINA RESULT:    -4.690      4.346      6.727
REMARK INTER + INTRA:          -7.684
REMARK INTER:                  -6.692
REMARK INTRA:                  -0.992
REMARK UNBOUND:                -0.526
REMARK SMILES CCCCCCCCCCC(=O)[O-]
REMARK SMILES IDX 7 1 8 2 9 3 10 4 11 5 12 6 13 7 6 8 5 9 4 10 3 11 2 12 1 13
REMARK H PARENT
REMARK Flexibility Score: inf
ROOT
ATOM      1  C   UNL     1      39.998  61.359   8.319  1.00  0.00     0.000 C 
ENDROOT
BRANCH   1   2
ATOM      2  C   UNL     1      41.483  61.036   8.115  1.00  0.00     0.000 C 
BRANCH   2   3
ATOM      3  C   UNL     1      41.659  59.783   7.245  1.00  0.00     0.006 C 
BRANCH   3   4
ATOM      4  C   UNL     1      42.410  58.664   7.982  1.00  0.00     0.053 C 
BRANCH   4   5
ATOM      5  C   UNL     1      41.510  57.509   8.301  1.00  0.00     0.041 C 
ATOM      6  O   UNL     1      40.568  57.648   9.125  1.00  0.00    -0.550 OA
ATOM      7  O   UNL     1      41.693  56.288   7.664  1.00  0.00    -0.550 OA
ENDBRANCH   4   5
ENDBRANCH   3   4
ENDBRANCH   2   3
ENDBRANCH   1   2
BRANCH   1   8
ATOM      8  C   UNL     1      39.781  62.872   8.475  1.00  0.00     0.000 C 
BRANCH   8   9
ATOM      9  C   UNL     1      41.094  63.642   8.677  1.00  0.00    -0.000 C 
BRANCH   9  10
ATOM     10  C   UNL     1      41.225  64.850   7.735  1.00  0.00    -0.000 C 
BRANCH  10  11
ATOM     11  C   UNL     1      41.954  64.489   6.423  1.00  0.00    -0.000 C 
BRANCH  11  12
ATOM     12  C   UNL     1      41.002  64.150   5.264  1.00  0.00    -0.003 C 
ATOM     13  C   UNL     1      41.213  62.744   4.706  1.00  0.00     0.004 C 
ENDBRANCH  11  12
ENDBRANCH  10  11
ENDBRANCH   9  10
ENDBRANCH   8   9
ENDBRANCH   1   8
TORSDOF 9
ENDMDL
MODEL 5
REMARK VINA RESULT:    -4.669      1.079      1.727
REMARK INTER + INTRA:          -7.651
REMARK INTER:                  -7.227
REMARK INTRA:                  -0.424
REMARK UNBOUND:                -0.526
REMARK SMILES CCCCCCCCCCC(=O)[O-]
REMARK SMILES IDX 7 1 8 2 9 3 10 4 11 5 12 6 13 7 6 8 5 9 4 10 3 11 2 12 1 13
REMARK H PARENT
REMARK Flexibility Score: inf
ROOT
ATOM      1  C   UNL     1      40.919  63.269   8.301  1.00  0.00     0.000 C 
ENDROOT
BRANCH   1   2
ATOM      2  C   UNL     1      39.419  63.508   8.507  1.00  0.00     0.000 C 
BRANCH   2   3
ATOM      3  C   UNL     1      39.026  64.935   8.099  1.00  0.00     0.006 C 
BRANCH   3   4
ATOM      4  C   UNL     1      39.014  65.123   6.576  1.00  0.00     0.053 C 
BRANCH   4   5
ATOM      5  C   UNL     1      37.964  66.100   6.145  1.00  0.00     0.041 C 
ATOM      6  O   UNL     1      37.056  66.450   6.945  1.00  0.00    -0.550 OA
ATOM      7  O   UNL     1      38.008  66.652   4.871  1.00  0.00    -0.550 OA
ENDBRANCH   4   5
ENDBRANCH   3   4
ENDBRANCH   2   3
ENDBRANCH   1   2
BRANCH   1   8
ATOM      8  C   UNL     1      41.248  61.769   8.332  1.00  0.00     0.000 C 
BRANCH   8   9
ATOM      9  C   UNL     1      40.004  60.886   8.146  1.00  0.00    -0.000 C 
BRANCH   9  10
ATOM     10  C   UNL     1      40.264  59.412   8.503  1.00  0.00    -0.000 C 
BRANCH  10  11
ATOM     11  C   UNL     1      41.654  58.935   8.029  1.00  0.00    -0.000 C 
BRANCH  11  12
ATOM     12  C   UNL     1      41.595  57.917   6.879  1.00  0.00    -0.003 C 
ATOM     13  C   UNL     1      41.800  56.476   7.342  1.00  0.00     0.004 C 
ENDBRANCH  11  12
ENDBRANCH  10  11
ENDBRANCH   9  10
ENDBRANCH   8   9
ENDBRANCH   1   8
TORSDOF 9
ENDMDL
MODEL 6
REMARK VINA RESULT:    -4.569      3.659      5.747
REMARK INTER + INTRA:          -7.499
REMARK INTER:                  -6.275
REMARK INTRA:                  -1.224
REMARK UNBOUND:                -0.526
REMARK SMILES CCCCCCCCCCC(=O)[O-]
REMARK SMILES IDX 7 1 8 2 9 3 10 4 11 5 12 6 13 7 6 8 5 9 4 10 3 11 2 12 1 13
REMARK H PARENT
REMARK Flexibility Score: inf
ROOT
ATOM      1  C   UNL     1      40.880  63.258   8.770  1.00  0.00     0.000 C 
ENDROOT
BRANCH   1   2
ATOM      2  C   UNL     1      41.092  61.856   8.186  1.00  0.00     0.000 C 
BRANCH   2   3
ATOM      3  C   UNL     1      39.752  61.134   7.982  1.00  0.00     0.006 C 
BRANCH   3   4
ATOM      4  C   UNL     1      39.543  60.695   6.526  1.00  0.00     0.053 C 
BRANCH   4   5
ATOM      5  C   UNL     1      39.559  59.203   6.389  1.00  0.00     0.041 C 
ATOM      6  O   UNL     1      40.194  58.497   7.216  1.00  0.00    -0.550 OA
ATOM      7  O   UNL     1      38.844  58.591   5.367  1.00  0.00    -0.550 OA
ENDBRANCH   4   5
ENDBRANCH   3   4
ENDBRANCH   2   3
ENDBRANCH   1   2
BRANCH   1   8
ATOM      8  C   UNL     1      39.392  63.639   8.758  1.00  0.00     0.000 C 
BRANCH   8   9
ATOM      9  C   UNL     1      39.133  64.997   8.088  1.00  0.00    -0.000 C 
BRANCH   9  10
ATOM     10  C   UNL     1      38.917  64.878   6.569  1.00  0.00    -0.000 C 
BRANCH  10  11
ATOM     11  C   UNL     1      40.181  65.260   5.770  1.00  0.00    -0.000 C 
BRANCH  11  12
ATOM     12  C   UNL     1      40.896  64.055   5.137  1.00  0.00    -0.003 C 
ATOM     13  C   UNL     1      42.399  64.040   5.408  1.00  0.00     0.004 C 
ENDBRANCH  11  12
ENDBRANCH  10  11
ENDBRANCH   9  10
ENDBRANCH   8   9
ENDBRANCH   1   8
TORSDOF 9
ENDMDL
MODEL 7
REMARK VINA RESULT:    -4.551      1.951      3.059
REMARK INTER + INTRA:          -7.472
REMARK INTER:                  -6.557
REMARK INTRA:                  -0.915
REMARK UNBOUND:                -0.526
REMARK SMILES CCCCCCCCCCC(=O)[O-]
REMARK SMILES IDX 7 1 8 2 9 3 10 4 11 5 12 6 13 7 6 8 5 9 4 10 3 11 2 12 1 13
REMARK H PARENT
REMARK Flexibility Score: inf
ROOT
ATOM      1  C   UNL     1      41.129  61.476   6.764  1.00  0.00     0.000 C 
ENDROOT
BRANCH   1   2
ATOM      2  C   UNL     1      41.301  61.830   8.245  1.00  0.00     0.000 C 
BRANCH   2   3
ATOM      3  C   UNL     1      41.056  63.327   8.487  1.00  0.00     0.006 C 
BRANCH   3   4
ATOM      4  C   UNL     1      39.574  63.641   8.732  1.00  0.00     0.053 C 
BRANCH   4   5
ATOM      5  C   UNL     1      39.105  64.795   7.900  1.00  0.00     0.041 C 
ATOM      6  O   UNL     1      38.283  65.625   8.370  1.00  0.00    -0.550 OA
ATOM      7  O   UNL     1      39.603  64.973   6.615  1.00  0.00    -0.550 OA
ENDBRANCH   4   5
ENDBRANCH   3   4
ENDBRANCH   2   3
ENDBRANCH   1   2
BRANCH   1   8
ATOM      8  C   UNL     1      40.030  60.420   6.574  1.00  0.00     0.000 C 
BRANCH   8   9
ATOM      9  C   UNL     1      39.489  59.882   7.907  1.00  0.00    -0.000 C 
BRANCH   9  10
ATOM     10  C   UNL     1      39.429  58.345   7.947  1.00  0.00    -0.000 C 
BRANCH  10  11
ATOM     11  C   UNL     1      40.606  57.738   8.741  1.00  0.00    -0.000 C 
BRANCH  11  12
ATOM     12  C   UNL     1      41.586  56.936   7.869  1.00  0.00    -0.003 C 
ATOM     13  C   UNL     1      42.697  57.795   7.270  1.00  0.00     0.004 C 
ENDBRANCH  11  12
ENDBRANCH  10  11
ENDBRANCH   9  10
ENDBRANCH   8   9
ENDBRANCH   1   8
TORSDOF 9
ENDMDL
MODEL 8
REMARK VINA RESULT:    -4.525      3.957      7.091
REMARK INTER + INTRA:          -7.431
REMARK INTER:                  -7.008
REMARK INTRA:                  -0.423
REMARK UNBOUND:                -0.526
REMARK SMILES CCCCCCCCCCC(=O)[O-]
REMARK SMILES IDX 7 1 8 2 9 3 10 4 11 5 12 6 13 7 6 8 5 9 4 10 3 11 2 12 1 13
REMARK H PARENT
REMARK Flexibility Score: inf
ROOT
ATOM      1  C   UNL     1      41.234  61.999   8.057  1.00  0.00     0.000 C 
ENDROOT
BRANCH   1   2
ATOM      2  C   UNL     1      40.002  61.087   8.101  1.00  0.00     0.000 C 
BRANCH   2   3
ATOM      3  C   UNL     1      40.384  59.665   8.535  1.00  0.00     0.006 C 
BRANCH   3   4
ATOM      4  C   UNL     1      40.009  58.614   7.481  1.00  0.00     0.053 C 
BRANCH   4   5
ATOM      5  C   UNL     1      41.222  57.978   6.875  1.00  0.00     0.041 C 
ATOM      6  O   UNL     1      41.199  56.765   6.534  1.00  0.00    -0.550 OA
ATOM      7  O   UNL     1      42.368  58.732   6.655  1.00  0.00    -0.550 OA
ENDBRANCH   4   5
ENDBRANCH   3   4
ENDBRANCH   2   3
ENDBRANCH   1   2
BRANCH   1   8
ATOM      8  C   UNL     1      40.872  63.433   8.469  1.00  0.00     0.000 C 
BRANCH   8   9
ATOM      9  C   UNL     1      39.355  63.663   8.549  1.00  0.00    -0.000 C 
BRANCH   9  10
ATOM     10  C   UNL     1      38.945  65.082   8.119  1.00  0.00    -0.000 C 
BRANCH  10  11
ATOM     11  C   UNL     1      38.532  65.143   6.633  1.00  0.00    -0.000 C 
BRANCH  11  12
ATOM     12  C   UNL     1      37.484  66.227   6.331  1.00  0.00    -0.003 C 
ATOM     13  C   UNL     1      37.768  66.992   5.039  1.00  0.00     0.004 C 
ENDBRANCH  11  12
ENDBRANCH  10  11
ENDBRANCH   9  10
ENDBRANCH   8   9
ENDBRANCH   1   8
TORSDOF 9
ENDMDL
MODEL 9
REMARK VINA RESULT:    -4.484      4.010      6.018
REMARK INTER + INTRA:          -7.369
REMARK INTER:                  -6.309
REMARK INTRA:                  -1.061
REMARK UNBOUND:                -0.526
REMARK SMILES CCCCCCCCCCC(=O)[O-]
REMARK SMILES IDX 7 1 8 2 9 3 10 4 11 5 12 6 13 7 6 8 5 9 4 10 3 11 2 12 1 13
REMARK H PARENT
REMARK Flexibility Score: inf
ROOT
ATOM      1  C   UNL     1      39.607  63.256   8.200  1.00  0.00     0.000 C 
ENDROOT
BRANCH   1   2
ATOM      2  C   UNL     1      40.785  62.295   8.400  1.00  0.00     0.000 C 
BRANCH   2   3
ATOM      3  C   UNL     1      40.314  60.833   8.374  1.00  0.00     0.006 C 
BRANCH   3   4
ATOM      4  C   UNL     1      41.449  59.863   8.018  1.00  0.00     0.053 C 
BRANCH   4   5
ATOM      5  C   UNL     1      40.944  58.467   7.817  1.00  0.00     0.041 C 
ATOM      6  O   UNL     1      40.531  58.099   6.686  1.00  0.00    -0.550 OA
ATOM      7  O   UNL     1      40.961  57.563   8.871  1.00  0.00    -0.550 OA
ENDBRANCH   4   5
ENDBRANCH   3   4
ENDBRANCH   2   3
ENDBRANCH   1   2
BRANCH   1   8
ATOM      8  C   UNL     1      40.099  64.697   8.005  1.00  0.00     0.000 C 
BRANCH   8   9
ATOM      9  C   UNL     1      41.607  64.775   7.722  1.00  0.00    -0.000 C 
BRANCH   9  10
ATOM     10  C   UNL     1      41.920  65.139   6.260  1.00  0.00    -0.000 C 
BRANCH  10  11
ATOM     11  C   UNL     1      42.322  63.903   5.427  1.00  0.00    -0.000 C 
BRANCH  11  12
ATOM     12  C   UNL     1      41.139  63.240   4.701  1.00  0.00    -0.003 C 
ATOM     13  C   UNL     1      41.180  61.714   4.760  1.00  0.00     0.004 C 
ENDBRANCH  11  12
ENDBRANCH  10  11
ENDBRANCH   9  10
ENDBRANCH   8   9
ENDBRANCH   1   8
TORSDOF 9
ENDMDL
