MODEL 1
REMARK VINA RESULT:    -4.250      0.000      0.000
REMARK INTER + INTRA:          -7.881
REMARK INTER:                  -6.487
REMARK INTRA:                  -1.394
REMARK UNBOUND:                -1.394
REMARK SMILES CCCCCCCCCCC(=O)[O-]
REMARK SMILES IDX 7 1 8 2 9 3 10 4 11 5 12 6 13 7 6 8 5 9 4 10 3 11 2 12 1 13
REMARK H PARENT
REMARK Flexibility Score: inf
ROOT
ATOM      1  C   UNL     1     182.062 179.139 181.357  1.00  0.00     0.000 C 
ENDROOT
BRANCH   1   2
ATOM      2  C   UNL     1     180.676 179.564 180.833  1.00  0.00     0.000 C 
BRANCH   2   3
ATOM      3  C   UNL     1     179.975 180.662 181.659  1.00  0.00     0.006 C 
BRANCH   3   4
ATOM      4  C   UNL     1     179.300 181.756 180.816  1.00  0.00     0.053 C 
BRANCH   4   5
ATOM      5  C   UNL     1     178.709 182.836 181.669  1.00  0.00     0.041 C 
ATOM      6  O   UNL     1     177.471 183.068 181.629  1.00  0.00    -0.550 OA
ATOM      7  O   UNL     1     179.518 183.564 182.532  1.00  0.00    -0.550 OA
ENDBRANCH   4   5
ENDBRANCH   3   4
ENDBRANCH   2   3
ENDBRANCH   1   2
BRANCH   1   8
ATOM      8  C   UNL     1     182.745 180.152 182.296  1.00  0.00     0.000 C 
BRANCH   8   9
ATOM      9  C   UNL     1     183.650 181.182 181.594  1.00  0.00    -0.000 C 
BRANCH   9  10
ATOM     10  C   UNL     1     183.160 182.627 181.773  1.00  0.00    -0.000 C 
BRANCH  10  11
ATOM     11  C   UNL     1     182.652 183.202 180.442  1.00  0.00    -0.000 C 
BRANCH  11  12
ATOM     12  C   UNL     1     183.159 182.413 179.226  1.00  0.00    -0.003 C 
ATOM     13  C   UNL     1     182.035 182.007 178.273  1.00  0.00     0.004 C 
ENDBRANCH  11  12
ENDBRANCH  10  11
ENDBRANCH   9  10
ENDBRANCH   8   9
ENDBRANCH   1   8
TORSDOF 9
ENDMDL
MODEL 2
REMARK VINA RESULT:    -4.247      3.002      5.063
REMARK INTER + INTRA:          -7.875
REMARK INTER:                  -6.576
REMARK INTRA:                  -1.299
REMARK UNBOUND:                -1.394
REMARK SMILES CCCCCCCCCCC(=O)[O-]
REMARK SMILES IDX 7 1 8 2 9 3 10 4 11 5 12 6 13 7 6 8 5 9 4 10 3 11 2 12 1 13
REMARK H PARENT
REMARK Flexibility Score: inf
ROOT
ATOM      1  C   UNL     1     181.624 184.617 181.099  1.00  0.00     0.000 C 
ENDROOT
BRANCH   1   2
ATOM      2  C   UNL     1     183.117 184.290 180.902  1.00  0.00     0.000 C 
BRANCH   2   3
ATOM      3  C   UNL     1     183.621 183.052 181.674  1.00  0.00     0.006 C 
BRANCH   3   4
ATOM      4  C   UNL     1     184.591 182.162 180.881  1.00  0.00     0.053 C 
BRANCH   4   5
ATOM      5  C   UNL     1     185.276 181.160 181.759  1.00  0.00     0.041 C 
ATOM      6  O   UNL     1     186.506 180.925 181.611  1.00  0.00    -0.550 OA
ATOM      7  O   UNL     1     184.567 180.511 182.761  1.00  0.00    -0.550 OA
ENDBRANCH   4   5
ENDBRANCH   3   4
ENDBRANCH   2   3
ENDBRANCH   1   2
BRANCH   1   8
ATOM      8  C   UNL     1     180.890 183.732 182.126  1.00  0.00     0.000 C 
BRANCH   8   9
ATOM      9  C   UNL     1     179.797 182.822 181.537  1.00  0.00    -0.000 C 
BRANCH   9  10
ATOM     10  C   UNL     1     180.124 181.327 181.680  1.00  0.00    -0.000 C 
BRANCH  10  11
ATOM     11  C   UNL     1     180.996 180.843 180.512  1.00  0.00    -0.000 C 
BRANCH  11  12
ATOM     12  C   UNL     1     180.601 181.485 179.174  1.00  0.00    -0.003 C 
ATOM     13  C   UNL     1     181.807 181.800 178.290  1.00  0.00     0.004 C 
ENDBRANCH  11  12
ENDBRANCH  10  11
ENDBRANCH   9  10
ENDBRANCH   8   9
ENDBRANCH   1   8
TORSDOF 9
ENDMDL
MODEL 3
REMARK VINA RESULT:    -4.149      0.759      1.403
REMARK INTER + INTRA:          -7.726
REMARK INTER:                  -6.379
REMARK INTRA:                  -1.347
REMARK UNBOUND:                -1.394
REMARK SMILES CCCCCCCCCCC(=O)[O-]
REMARK SMILES IDX 7 1 8 2 9 3 10 4 11 5 12 6 13 7 6 8 5 9 4 10 3 11 2 12 1 13
REMARK H PARENT
REMARK Flexibility Score: inf
ROOT
ATOM      1  C   UNL     1     182.295 179.483 181.169  1.00  0.00     0.000 C 
ENDROOT
BRANCH   1   2
ATOM      2  C   UNL     1     180.917 179.971 180.680  1.00  0.00     0.000 C 
BRANCH   2   3
ATOM      3  C   UNL     1     180.133 180.833 181.691  1.00  0.00     0.006 C 
BRANCH   3   4
ATOM      4  C   UNL     1     179.588 182.149 181.115  1.00  0.00     0.053 C 
BRANCH   4   5
ATOM      5  C   UNL     1     179.155 183.095 182.191  1.00  0.00     0.041 C 
ATOM      6  O   UNL     1     179.989 183.878 182.720  1.00  0.00    -0.550 OA
ATOM      7  O   UNL     1     177.825 183.139 182.587  1.00  0.00    -0.550 OA
ENDBRANCH   4   5
ENDBRANCH   3   4
ENDBRANCH   2   3
ENDBRANCH   1   2
BRANCH   1   8
ATOM      8  C   UNL     1     182.814 180.167 182.450  1.00  0.00     0.000 C 
BRANCH   8   9
ATOM      9  C   UNL     1     184.303 180.558 182.420  1.00  0.00    -0.000 C 
BRANCH   9  10
ATOM     10  C   UNL     1     184.562 181.864 181.654  1.00  0.00    -0.000 C 
BRANCH  10  11
ATOM     11  C   UNL     1     183.421 182.867 181.881  1.00  0.00    -0.000 C 
BRANCH  11  12
ATOM     12  C   UNL     1     182.994 183.579 180.588  1.00  0.00    -0.003 C 
ATOM     13  C   UNL     1     183.144 182.696 179.349  1.00  0.00     0.004 C 
ENDBRANCH  11  12
ENDBRANCH  10  11
ENDBRANCH   9  10
ENDBRANCH   8   9
ENDBRANCH   1   8
TORSDOF 9
ENDMDL
MODEL 4
REMARK VINA RESULT:    -4.101      3.146      5.097
REMARK INTER + INTRA:          -7.653
REMARK INTER:                  -6.361
REMARK INTRA:                  -1.291
REMARK UNBOUND:                -1.394
REMARK SMILES CCCCCCCCCCC(=O)[O-]
REMARK SMILES IDX 7 1 8 2 9 3 10 4 11 5 12 6 13 7 6 8 5 9 4 10 3 11 2 12 1 13
REMARK H PARENT
REMARK Flexibility Score: inf
ROOT
ATOM      1  C   UNL     1     183.090 182.605 179.004  1.00  0.00     0.000 C 
ENDROOT
BRANCH   1   2
ATOM      2  C   UNL     1     182.834 183.452 180.266  1.00  0.00     0.000 C 
BRANCH   2   3
ATOM      3  C   UNL     1     183.843 183.234 181.413  1.00  0.00     0.006 C 
BRANCH   3   4
ATOM      4  C   UNL     1     183.647 181.922 182.189  1.00  0.00     0.053 C 
BRANCH   4   5
ATOM      5  C   UNL     1     184.844 181.027 182.089  1.00  0.00     0.041 C 
ATOM      6  O   UNL     1     185.535 181.010 181.035  1.00  0.00    -0.550 OA
ATOM      7  O   UNL     1     185.216 180.238 183.169  1.00  0.00    -0.550 OA
ENDBRANCH   4   5
ENDBRANCH   3   4
ENDBRANCH   2   3
ENDBRANCH   1   2
BRANCH   1   8
ATOM      8  C   UNL     1     181.904 181.732 178.549  1.00  0.00     0.000 C 
BRANCH   8   9
ATOM      9  C   UNL     1     180.667 181.789 179.465  1.00  0.00    -0.000 C 
BRANCH   9  10
ATOM     10  C   UNL     1     180.617 180.631 180.474  1.00  0.00    -0.000 C 
BRANCH  10  11
ATOM     11  C   UNL     1     180.111 181.117 181.840  1.00  0.00    -0.000 C 
BRANCH  11  12
ATOM     12  C   UNL     1     179.531 182.538 181.784  1.00  0.00    -0.003 C 
ATOM     13  C   UNL     1     180.158 183.473 182.818  1.00  0.00     0.004 C 
ENDBRANCH  11  12
ENDBRANCH  10  11
ENDBRANCH   9  10
ENDBRANCH   8   9
ENDBRANCH   1   8
TORSDOF 9
ENDMDL
MODEL 5
REMARK VINA RESULT:    -4.074      1.081      2.985
REMARK INTER + INTRA:          -7.612
REMARK INTER:                  -6.446
REMARK INTRA:                  -1.166
REMARK UNBOUND:                -1.394
REMARK SMILES CCCCCCCCCCC(=O)[O-]
REMARK SMILES IDX 7 1 8 2 9 3 10 4 11 5 12 6 13 7 6 8 5 9 4 10 3 11 2 12 1 13
REMARK H PARENT
REMARK Flexibility Score: inf
ROOT
ATOM      1  C   UNL     1     183.531 182.382 179.601  1.00  0.00     0.000 C 
ENDROOT
BRANCH   1   2
ATOM      2  C   UNL     1     182.028 182.674 179.422  1.00  0.00     0.000 C 
BRANCH   2   3
ATOM      3  C   UNL     1     181.343 183.336 180.635  1.00  0.00     0.006 C 
BRANCH   3   4
ATOM      4  C   UNL     1     179.953 182.769 180.967  1.00  0.00     0.053 C 
BRANCH   4   5
ATOM      5  C   UNL     1     179.484 183.194 182.324  1.00  0.00     0.041 C 
ATOM      6  O   UNL     1     180.318 183.539 183.204  1.00  0.00    -0.550 OA
ATOM      7  O   UNL     1     178.125 183.243 182.608  1.00  0.00    -0.550 OA
ENDBRANCH   4   5
ENDBRANCH   3   4
ENDBRANCH   2   3
ENDBRANCH   1   2
BRANCH   1   8
ATOM      8  C   UNL     1     184.039 182.435 181.056  1.00  0.00     0.000 C 
BRANCH   8   9
ATOM      9  C   UNL     1     184.763 181.165 181.538  1.00  0.00    -0.000 C 
BRANCH   9  10
ATOM     10  C   UNL     1     184.073 180.505 182.741  1.00  0.00    -0.000 C 
BRANCH  10  11
ATOM     11  C   UNL     1     182.572 180.317 182.477  1.00  0.00    -0.000 C 
BRANCH  11  12
ATOM     12  C   UNL     1     182.291 179.273 181.385  1.00  0.00    -0.003 C 
ATOM     13  C   UNL     1     180.805 179.157 181.047  1.00  0.00     0.004 C 
ENDBRANCH  11  12
ENDBRANCH  10  11
ENDBRANCH   9  10
ENDBRANCH   8   9
ENDBRANCH   1   8
TORSDOF 9
ENDMDL
MODEL 6
REMARK VINA RESULT:    -4.049      1.074      2.554
REMARK INTER + INTRA:          -7.573
REMARK INTER:                  -6.239
REMARK INTRA:                  -1.333
REMARK UNBOUND:                -1.394
REMARK SMILES CCCCCCCCCCC(=O)[O-]
REMARK SMILES IDX 7 1 8 2 9 3 10 4 11 5 12 6 13 7 6 8 5 9 4 10 3 11 2 12 1 13
REMARK H PARENT
REMARK Flexibility Score: inf
ROOT
ATOM      1  C   UNL     1     180.616 181.452 179.229  1.00  0.00     0.000 C 
ENDROOT
BRANCH   1   2
ATOM      2  C   UNL     1     180.872 180.458 180.379  1.00  0.00     0.000 C 
BRANCH   2   3
ATOM      3  C   UNL     1     180.176 180.808 181.710  1.00  0.00     0.006 C 
BRANCH   3   4
ATOM      4  C   UNL     1     179.701 182.266 181.814  1.00  0.00     0.053 C 
BRANCH   4   5
ATOM      5  C   UNL     1     178.220 182.361 182.009  1.00  0.00     0.041 C 
ATOM      6  O   UNL     1     177.449 181.574 181.397  1.00  0.00    -0.550 OA
ATOM      7  O   UNL     1     177.691 183.293 182.891  1.00  0.00    -0.550 OA
ENDBRANCH   4   5
ENDBRANCH   3   4
ENDBRANCH   2   3
ENDBRANCH   1   2
BRANCH   1   8
ATOM      8  C   UNL     1     181.883 182.006 178.548  1.00  0.00     0.000 C 
BRANCH   8   9
ATOM      9  C   UNL     1     183.120 182.103 179.459  1.00  0.00    -0.000 C 
BRANCH   9  10
ATOM     10  C   UNL     1     183.054 183.291 180.431  1.00  0.00    -0.000 C 
BRANCH  10  11
ATOM     11  C   UNL     1     183.542 182.883 181.829  1.00  0.00    -0.000 C 
BRANCH  11  12
ATOM     12  C   UNL     1     184.240 181.515 181.835  1.00  0.00    -0.003 C 
ATOM     13  C   UNL     1     183.674 180.567 182.892  1.00  0.00     0.004 C 
ENDBRANCH  11  12
ENDBRANCH  10  11
ENDBRANCH   9  10
ENDBRANCH   8   9
ENDBRANCH   1   8
TORSDOF 9
ENDMDL
MODEL 7
REMARK VINA RESULT:    -4.046      2.345      4.491
REMARK INTER + INTRA:          -7.569
REMARK INTER:                  -6.197
REMARK INTRA:                  -1.371
REMARK UNBOUND:                -1.394
REMARK SMILES CCCCCCCCCCC(=O)[O-]
REMARK SMILES IDX 7 1 8 2 9 3 10 4 11 5 12 6 13 7 6 8 5 9 4 10 3 11 2 12 1 13
REMARK H PARENT
REMARK Flexibility Score: inf
ROOT
ATOM      1  C   UNL     1     179.602 183.156 182.301  1.00  0.00     0.000 C 
ENDROOT
BRANCH   1   2
ATOM      2  C   UNL     1     180.954 183.895 182.276  1.00  0.00     0.000 C 
BRANCH   2   3
ATOM      3  C   UNL     1     181.526 184.161 180.868  1.00  0.00     0.006 C 
BRANCH   3   4
ATOM      4  C   UNL     1     182.984 183.713 180.680  1.00  0.00     0.053 C 
BRANCH   4   5
ATOM      5  C   UNL     1     183.134 182.760 179.534  1.00  0.00     0.041 C 
ATOM      6  O   UNL     1     182.194 182.607 178.710  1.00  0.00    -0.550 OA
ATOM      7  O   UNL     1     184.324 182.066 179.357  1.00  0.00    -0.550 OA
ENDBRANCH   4   5
ENDBRANCH   3   4
ENDBRANCH   2   3
ENDBRANCH   1   2
BRANCH   1   8
ATOM      8  C   UNL     1     179.482 181.976 181.314  1.00  0.00     0.000 C 
BRANCH   8   9
ATOM      9  C   UNL     1     180.136 180.665 181.787  1.00  0.00    -0.000 C 
BRANCH   9  10
ATOM     10  C   UNL     1     180.943 179.968 180.681  1.00  0.00    -0.000 C 
BRANCH  10  11
ATOM     11  C   UNL     1     182.331 179.555 181.193  1.00  0.00    -0.000 C 
BRANCH  11  12
ATOM     12  C   UNL     1     182.739 180.308 182.468  1.00  0.00    -0.003 C 
ATOM     13  C   UNL     1     184.241 180.581 182.540  1.00  0.00     0.004 C 
ENDBRANCH  11  12
ENDBRANCH  10  11
ENDBRANCH   9  10
ENDBRANCH   8   9
ENDBRANCH   1   8
TORSDOF 9
ENDMDL
MODEL 8
REMARK VINA RESULT:    -4.039      3.075      4.474
REMARK INTER + INTRA:          -7.558
REMARK INTER:                  -6.278
REMARK INTRA:                  -1.280
REMARK UNBOUND:                -1.394
REMARK SMILES CCCCCCCCCCC(=O)[O-]
REMARK SMILES IDX 7 1 8 2 9 3 10 4 11 5 12 6 13 7 6 8 5 9 4 10 3 11 2 12 1 13
REMARK H PARENT
REMARK Flexibility Score: inf
ROOT
ATOM      1  C   UNL     1     181.372 180.823 179.655  1.00  0.00     0.000 C 
ENDROOT
BRANCH   1   2
ATOM      2  C   UNL     1     181.232 180.452 181.145  1.00  0.00     0.000 C 
BRANCH   2   3
ATOM      3  C   UNL     1     182.447 179.718 181.751  1.00  0.00     0.006 C 
BRANCH   3   4
ATOM      4  C   UNL     1     183.171 180.499 182.859  1.00  0.00     0.053 C 
BRANCH   4   5
ATOM      5  C   UNL     1     184.658 180.466 182.687  1.00  0.00     0.041 C 
ATOM      6  O   UNL     1     185.182 180.886 181.621  1.00  0.00    -0.550 OA
ATOM      7  O   UNL     1     185.468 180.004 183.716  1.00  0.00    -0.550 OA
ENDBRANCH   4   5
ENDBRANCH   3   4
ENDBRANCH   2   3
ENDBRANCH   1   2
BRANCH   1   8
ATOM      8  C   UNL     1     181.642 182.316 179.376  1.00  0.00     0.000 C 
BRANCH   8   9
ATOM      9  C   UNL     1     183.042 182.811 179.785  1.00  0.00    -0.000 C 
BRANCH   9  10
ATOM     10  C   UNL     1     183.004 183.808 180.953  1.00  0.00    -0.000 C 
BRANCH  10  11
ATOM     11  C   UNL     1     181.576 184.323 181.188  1.00  0.00    -0.000 C 
BRANCH  11  12
ATOM     12  C   UNL     1     181.014 183.904 182.554  1.00  0.00    -0.003 C 
ATOM     13  C   UNL     1     179.571 183.407 182.474  1.00  0.00     0.004 C 
ENDBRANCH  11  12
ENDBRANCH  10  11
ENDBRANCH   9  10
ENDBRANCH   8   9
ENDBRANCH   1   8
TORSDOF 9
ENDMDL
MODEL 9
REMARK VINA RESULT:    -4.029      2.309      4.186
REMARK INTER + INTRA:          -7.542
REMARK INTER:                  -6.238
REMARK INTRA:                  -1.304
REMARK UNBOUND:                -1.394
REMARK SMILES CCCCCCCCCCC(=O)[O-]
REMARK SMILES IDX 7 1 8 2 9 3 10 4 11 5 12 6 13 7 6 8 5 9 4 10 3 11 2 12 1 13
REMARK H PARENT
REMARK Flexibility Score: inf
ROOT
ATOM      1  C   UNL     1     182.840 180.194 182.428  1.00  0.00     0.000 C 
ENDROOT
BRANCH   1   2
ATOM      2  C   UNL     1     184.331 180.541 182.243  1.00  0.00     0.000 C 
BRANCH   2   3
ATOM      3  C   UNL     1     184.615 181.687 181.251  1.00  0.00     0.006 C 
BRANCH   3   4
ATOM      4  C   UNL     1     184.171 183.075 181.741  1.00  0.00     0.053 C 
BRANCH   4   5
ATOM      5  C   UNL     1     183.248 183.744 180.770  1.00  0.00     0.041 C 
ATOM      6  O   UNL     1     182.867 184.928 180.971  1.00  0.00    -0.550 OA
ATOM      7  O   UNL     1     182.836 183.074 179.625  1.00  0.00    -0.550 OA
ENDBRANCH   4   5
ENDBRANCH   3   4
ENDBRANCH   2   3
ENDBRANCH   1   2
BRANCH   1   8
ATOM      8  C   UNL     1     182.147 179.597 181.187  1.00  0.00     0.000 C 
BRANCH   8   9
ATOM      9  C   UNL     1     180.914 180.376 180.694  1.00  0.00    -0.000 C 
BRANCH   9  10
ATOM     10  C   UNL     1     180.192 181.128 181.823  1.00  0.00    -0.000 C 
BRANCH  10  11
ATOM     11  C   UNL     1     179.784 182.537 181.368  1.00  0.00    -0.000 C 
BRANCH  11  12
ATOM     12  C   UNL     1     179.916 183.581 182.487  1.00  0.00    -0.003 C 
ATOM     13  C   UNL     1     180.908 183.162 183.573  1.00  0.00     0.004 C 
ENDBRANCH  11  12
ENDBRANCH  10  11
ENDBRANCH   9  10
ENDBRANCH   8   9
ENDBRANCH   1   8
TORSDOF 9
ENDMDL
