MODEL 1
REMARK VINA RESULT:    -3.525      0.000      0.000
REMARK INTER + INTRA:          -5.189
REMARK INTER:                  -5.174
REMARK INTRA:                  -0.015
REMARK UNBOUND:                -0.015
REMARK SMILES C=C1CC=CC(C)(C)CC=C(C)CCC1
REMARK SMILES IDX 2 1 1 2 15 3 14 4 13 5 11 6 12 7 10 8 3 10 4 11 5 12 6 13
REMARK SMILES IDX 7 14 8 15 9 16
REMARK H PARENT
REMARK Flexibility Score: 60.00
ROOT
ATOM      1  C   UNL     1     168.373 168.714 199.675  1.00  0.00    -0.074 C 
ATOM      2  C   UNL     1     167.760 169.589 198.861  1.00  0.00     0.008 C 
ENDROOT
BRANCH   1   3
ATOM      3  C   UNL     1     168.040 168.750 201.156  1.00  0.00     0.031 C 
BRANCH   3   4
ATOM      4  C   UNL     1     166.606 168.256 201.516  1.00  0.00     0.009 C 
BRANCH   4   5
ATOM      5  C   UNL     1     166.304 166.754 201.255  1.00  0.00     0.030 C 
BRANCH   5   6
ATOM      6  C   UNL     1     165.690 166.421 199.898  1.00  0.00    -0.077 C 
ATOM      7  C   UNL     1     164.589 167.306 199.366  1.00  0.00     0.039 C 
ATOM      8  C   UNL     1     166.164 165.452 199.074  1.00  0.00    -0.027 CG0
ATOM      9  G   UNL     1     167.126 164.364 199.480  1.00  0.00     0.000 G0
ENDBRANCH   5   6
ENDBRANCH   4   5
ENDBRANCH   3   4
ENDBRANCH   1   3
BRANCH   1  10
ATOM     10  C   UNL     1     169.270 167.649 199.052  1.00  0.00     0.057 C 
BRANCH  10  11
ATOM     11  C   UNL     1     169.681 166.513 199.963  1.00  0.00    -0.026 C 
ATOM     12  C   UNL     1     169.500 165.177 199.803  1.00  0.00    -0.024 C 
BRANCH  12  13
ATOM     13  C   UNL     1     168.578 164.402 198.841  1.00  0.00    -0.014 C 
ATOM     14  C   UNL     1     168.631 164.940 197.388  1.00  0.00     0.016 C 
ATOM     15  C   UNL     1     169.110 162.947 198.776  1.00  0.00     0.016 C 
BRANCH  13  16
ATOM     16  C   UNL     1     167.144 164.360 199.467  1.00  0.00     0.038 CG0
ATOM     17  G   UNL     1     166.171 165.439 199.063  1.00  0.00     0.000 G0
ENDBRANCH  13  16
ENDBRANCH  12  13
ENDBRANCH  10  11
ENDBRANCH   1  10
TORSDOF 0
ENDMDL
MODEL 2
REMARK VINA RESULT:    -3.487      2.423      5.722
REMARK INTER + INTRA:          -5.133
REMARK INTER:                  -5.274
REMARK INTRA:                   0.141
REMARK UNBOUND:                -0.015
REMARK SMILES C=C1CC=CC(C)(C)CC=C(C)CCC1
REMARK SMILES IDX 2 1 1 2 15 3 14 4 13 5 11 6 12 7 10 8 3 10 4 11 5 12 6 13
REMARK SMILES IDX 7 14 8 15 9 16
REMARK H PARENT
REMARK Flexibility Score: 60.00
ROOT
ATOM      1  C   UNL     1     163.956 162.978 199.534  1.00  0.00    -0.074 C 
ATOM      2  C   UNL     1     164.404 161.999 198.732  1.00  0.00     0.008 C 
ENDROOT
BRANCH   1   3
ATOM      3  C   UNL     1     164.475 163.036 200.960  1.00  0.00     0.031 C 
BRANCH   3   4
ATOM      4  C   UNL     1     165.948 163.528 201.101  1.00  0.00     0.009 C 
BRANCH   4   5
ATOM      5  C   UNL     1     166.150 165.051 201.339  1.00  0.00     0.030 C 
BRANCH   5   6
ATOM      6  C   UNL     1     166.553 165.870 200.117  1.00  0.00    -0.077 C 
ATOM      7  C   UNL     1     167.845 165.534 199.414  1.00  0.00     0.039 C 
ATOM      8  C   UNL     1     165.753 166.803 199.539  1.00  0.00    -0.027 CG0
ATOM      9  G   UNL     1     164.521 167.400 200.172  1.00  0.00     0.000 G0
ENDBRANCH   5   6
ENDBRANCH   4   5
ENDBRANCH   3   4
ENDBRANCH   1   3
BRANCH   1  10
ATOM     10  C   UNL     1     163.054 164.053 198.934  1.00  0.00     0.057 C 
BRANCH  10  11
ATOM     11  C   UNL     1     162.316 164.926 199.924  1.00  0.00    -0.026 C 
ATOM     12  C   UNL     1     162.272 166.281 200.008  1.00  0.00    -0.024 C 
BRANCH  12  13
ATOM     13  C   UNL     1     163.168 167.350 199.353  1.00  0.00    -0.014 C 
ATOM     14  C   UNL     1     163.334 167.148 197.825  1.00  0.00     0.016 C 
ATOM     15  C   UNL     1     162.448 168.713 199.526  1.00  0.00     0.016 C 
BRANCH  13  16
ATOM     16  C   UNL     1     164.514 167.415 200.150  1.00  0.00     0.038 CG0
ATOM     17  G   UNL     1     165.738 166.810 199.510  1.00  0.00     0.000 G0
ENDBRANCH  13  16
ENDBRANCH  12  13
ENDBRANCH  10  11
ENDBRANCH   1  10
TORSDOF 0
ENDMDL
MODEL 3
REMARK VINA RESULT:    -3.449      2.066      4.410
REMARK INTER + INTRA:          -5.076
REMARK INTER:                  -5.272
REMARK INTRA:                   0.196
REMARK UNBOUND:                -0.015
REMARK SMILES C=C1CC=CC(C)(C)CC=C(C)CCC1
REMARK SMILES IDX 2 1 1 2 15 3 14 4 13 5 11 6 12 7 10 8 3 10 4 11 5 12 6 13
REMARK SMILES IDX 7 14 8 15 9 16
REMARK H PARENT
REMARK Flexibility Score: 60.00
ROOT
ATOM      1  C   UNL     1     166.645 169.766 199.452  1.00  0.00    -0.074 C 
ATOM      2  C   UNL     1     166.948 170.127 198.195  1.00  0.00     0.008 C 
ENDROOT
BRANCH   1   3
ATOM      3  C   UNL     1     167.770 169.303 200.361  1.00  0.00     0.031 C 
BRANCH   3   4
ATOM      4  C   UNL     1     168.649 168.154 199.781  1.00  0.00     0.009 C 
BRANCH   4   5
ATOM      5  C   UNL     1     168.066 166.716 199.883  1.00  0.00     0.030 C 
BRANCH   5   6
ATOM      6  C   UNL     1     167.339 166.381 201.182  1.00  0.00    -0.077 C 
ATOM      7  C   UNL     1     168.156 166.166 202.433  1.00  0.00     0.039 C 
ATOM      8  C   UNL     1     165.988 166.392 201.314  1.00  0.00    -0.027 CG0
ATOM      9  G   UNL     1     165.006 166.413 200.170  1.00  0.00     0.000 G0
ENDBRANCH   5   6
ENDBRANCH   4   5
ENDBRANCH   3   4
ENDBRANCH   1   3
BRANCH   1  10
ATOM     10  C   UNL     1     165.213 169.963 199.939  1.00  0.00     0.057 C 
BRANCH  10  11
ATOM     11  C   UNL     1     164.134 169.304 199.110  1.00  0.00    -0.026 C 
ATOM     12  C   UNL     1     163.392 168.200 199.388  1.00  0.00    -0.024 C 
BRANCH  12  13
ATOM     13  C   UNL     1     163.596 167.102 200.449  1.00  0.00    -0.014 C 
ATOM     14  C   UNL     1     163.411 167.619 201.899  1.00  0.00     0.016 C 
ATOM     15  C   UNL     1     162.481 166.045 200.228  1.00  0.00     0.016 C 
BRANCH  13  16
ATOM     16  C   UNL     1     164.973 166.409 200.176  1.00  0.00     0.038 CG0
ATOM     17  G   UNL     1     165.983 166.391 201.296  1.00  0.00     0.000 G0
ENDBRANCH  13  16
ENDBRANCH  12  13
ENDBRANCH  10  11
ENDBRANCH   1  10
TORSDOF 0
ENDMDL
MODEL 4
REMARK VINA RESULT:    -3.404      1.656      4.301
REMARK INTER + INTRA:          -5.011
REMARK INTER:                  -5.209
REMARK INTRA:                   0.198
REMARK UNBOUND:                -0.015
REMARK SMILES C=C1CC=CC(C)(C)CC=C(C)CCC1
REMARK SMILES IDX 2 1 1 2 15 3 14 4 13 5 11 6 12 7 10 8 3 10 4 11 5 12 6 13
REMARK SMILES IDX 7 14 8 15 9 16
REMARK H PARENT
REMARK Flexibility Score: 60.00
ROOT
ATOM      1  C   UNL     1     168.956 164.221 200.874  1.00  0.00    -0.074 C 
ATOM      2  C   UNL     1     168.331 163.407 201.740  1.00  0.00     0.008 C 
ENDROOT
BRANCH   1   3
ATOM      3  C   UNL     1     169.747 163.596 199.738  1.00  0.00     0.031 C 
BRANCH   3   4
ATOM      4  C   UNL     1     168.879 162.983 198.597  1.00  0.00     0.009 C 
BRANCH   4   5
ATOM      5  C   UNL     1     168.435 163.953 197.467  1.00  0.00     0.030 C 
BRANCH   5   6
ATOM      6  C   UNL     1     166.964 164.359 197.474  1.00  0.00    -0.077 C 
ATOM      7  C   UNL     1     165.915 163.274 197.516  1.00  0.00     0.039 C 
ATOM      8  C   UNL     1     166.538 165.643 197.578  1.00  0.00    -0.027 CG0
ATOM      9  G   UNL     1     167.402 166.862 197.379  1.00  0.00     0.000 G0
ENDBRANCH   5   6
ENDBRANCH   4   5
ENDBRANCH   3   4
ENDBRANCH   1   3
BRANCH   1  10
ATOM     10  C   UNL     1     168.732 165.725 201.000  1.00  0.00     0.057 C 
BRANCH  10  11
ATOM     11  C   UNL     1     169.517 166.594 200.043  1.00  0.00    -0.026 C 
ATOM     12  C   UNL     1     169.068 167.530 199.168  1.00  0.00    -0.024 C 
BRANCH  12  13
ATOM     13  C   UNL     1     167.645 167.800 198.639  1.00  0.00    -0.014 C 
ATOM     14  C   UNL     1     166.560 167.694 199.741  1.00  0.00     0.016 C 
ATOM     15  C   UNL     1     167.615 169.273 198.153  1.00  0.00     0.016 C 
BRANCH  13  16
ATOM     16  C   UNL     1     167.404 166.880 197.396  1.00  0.00     0.038 CG0
ATOM     17  G   UNL     1     166.536 165.661 197.585  1.00  0.00     0.000 G0
ENDBRANCH  13  16
ENDBRANCH  12  13
ENDBRANCH  10  11
ENDBRANCH   1  10
TORSDOF 0
ENDMDL
MODEL 5
REMARK VINA RESULT:    -3.367      2.258      4.437
REMARK INTER + INTRA:          -4.957
REMARK INTER:                  -5.081
REMARK INTRA:                   0.124
REMARK UNBOUND:                -0.015
REMARK SMILES C=C1CC=CC(C)(C)CC=C(C)CCC1
REMARK SMILES IDX 2 1 1 2 15 3 14 4 13 5 11 6 12 7 10 8 3 10 4 11 5 12 6 13
REMARK SMILES IDX 7 14 8 15 9 16
REMARK H PARENT
REMARK Flexibility Score: 60.00
ROOT
ATOM      1  C   UNL     1     163.176 167.887 200.250  1.00  0.00    -0.074 C 
ATOM      2  C   UNL     1     162.272 168.557 199.517  1.00  0.00     0.008 C 
ENDROOT
BRANCH   1   3
ATOM      3  C   UNL     1     164.456 168.602 200.648  1.00  0.00     0.031 C 
BRANCH   3   4
ATOM      4  C   UNL     1     165.486 168.790 199.493  1.00  0.00     0.009 C 
BRANCH   4   5
ATOM      5  C   UNL     1     166.037 167.492 198.837  1.00  0.00     0.030 C 
BRANCH   5   6
ATOM      6  C   UNL     1     166.696 166.493 199.783  1.00  0.00    -0.077 C 
ATOM      7  C   UNL     1     167.792 166.979 200.699  1.00  0.00     0.039 C 
ATOM      8  C   UNL     1     166.266 165.216 199.948  1.00  0.00    -0.027 CG0
ATOM      9  G   UNL     1     165.316 164.495 199.025  1.00  0.00     0.000 G0
ENDBRANCH   5   6
ENDBRANCH   4   5
ENDBRANCH   3   4
ENDBRANCH   1   3
BRANCH   1  10
ATOM     10  C   UNL     1     162.813 166.493 200.753  1.00  0.00     0.057 C 
BRANCH  10  11
ATOM     11  C   UNL     1     162.320 165.518 199.707  1.00  0.00    -0.026 C 
ATOM     12  C   UNL     1     162.811 164.298 199.371  1.00  0.00    -0.024 C 
BRANCH  12  13
ATOM     13  C   UNL     1     164.167 163.643 199.700  1.00  0.00    -0.014 C 
ATOM     14  C   UNL     1     164.361 163.383 201.217  1.00  0.00     0.016 C 
ATOM     15  C   UNL     1     164.172 162.247 199.025  1.00  0.00     0.016 C 
BRANCH  13  16
ATOM     16  C   UNL     1     165.297 164.500 199.037  1.00  0.00     0.038 CG0
ATOM     17  G   UNL     1     166.254 165.225 199.950  1.00  0.00     0.000 G0
ENDBRANCH  13  16
ENDBRANCH  12  13
ENDBRANCH  10  11
ENDBRANCH   1  10
TORSDOF 0
ENDMDL
MODEL 6
REMARK VINA RESULT:    -3.364      1.977      4.289
REMARK INTER + INTRA:          -4.951
REMARK INTER:                  -5.268
REMARK INTRA:                   0.317
REMARK UNBOUND:                -0.015
REMARK SMILES C=C1CC=CC(C)(C)CC=C(C)CCC1
REMARK SMILES IDX 2 1 1 2 15 3 14 4 13 5 11 6 12 7 10 8 3 10 4 11 5 12 6 13
REMARK SMILES IDX 7 14 8 15 9 16
REMARK H PARENT
REMARK Flexibility Score: 60.00
ROOT
ATOM      1  C   UNL     1     168.510 163.206 199.986  1.00  0.00    -0.074 C 
ATOM      2  C   UNL     1     169.099 162.990 198.799  1.00  0.00     0.008 C 
ENDROOT
BRANCH   1   3
ATOM      3  C   UNL     1     168.999 164.367 200.834  1.00  0.00     0.031 C 
BRANCH   3   4
ATOM      4  C   UNL     1     169.213 165.701 200.055  1.00  0.00     0.009 C 
BRANCH   4   5
ATOM      5  C   UNL     1     168.029 166.708 200.066  1.00  0.00     0.030 C 
BRANCH   5   6
ATOM      6  C   UNL     1     167.064 166.618 198.887  1.00  0.00    -0.077 C 
ATOM      7  C   UNL     1     167.402 167.362 197.618  1.00  0.00     0.039 C 
ATOM      8  C   UNL     1     165.981 165.801 198.862  1.00  0.00    -0.027 CG0
ATOM      9  G   UNL     1     165.382 165.118 200.065  1.00  0.00     0.000 G0
ENDBRANCH   5   6
ENDBRANCH   4   5
ENDBRANCH   3   4
ENDBRANCH   1   3
BRANCH   1  10
ATOM     10  C   UNL     1     167.299 162.357 200.361  1.00  0.00     0.057 C 
BRANCH  10  11
ATOM     11  C   UNL     1     166.279 162.137 199.266  1.00  0.00    -0.026 C 
ATOM     12  C   UNL     1     165.162 162.854 198.976  1.00  0.00    -0.024 C 
BRANCH  12  13
ATOM     13  C   UNL     1     164.405 163.903 199.813  1.00  0.00    -0.014 C 
ATOM     14  C   UNL     1     163.026 164.276 199.212  1.00  0.00     0.016 C 
ATOM     15  C   UNL     1     164.107 163.255 201.191  1.00  0.00     0.016 C 
BRANCH  13  16
ATOM     16  C   UNL     1     165.361 165.119 200.053  1.00  0.00     0.038 CG0
ATOM     17  G   UNL     1     165.964 165.786 198.842  1.00  0.00     0.000 G0
ENDBRANCH  13  16
ENDBRANCH  12  13
ENDBRANCH  10  11
ENDBRANCH   1  10
TORSDOF 0
ENDMDL
MODEL 7
REMARK VINA RESULT:    -3.275      2.033      3.863
REMARK INTER + INTRA:          -4.821
REMARK INTER:                  -4.928
REMARK INTRA:                   0.107
REMARK UNBOUND:                -0.015
REMARK SMILES C=C1CC=CC(C)(C)CC=C(C)CCC1
REMARK SMILES IDX 2 1 1 2 15 3 14 4 13 5 11 6 12 7 10 8 3 10 4 11 5 12 6 13
REMARK SMILES IDX 7 14 8 15 9 16
REMARK H PARENT
REMARK Flexibility Score: 60.00
ROOT
ATOM      1  C   UNL     1     163.479 169.307 199.703  1.00  0.00    -0.074 C 
ATOM      2  C   UNL     1     163.016 169.369 198.444  1.00  0.00     0.008 C 
ENDROOT
BRANCH   1   3
ATOM      3  C   UNL     1     162.750 168.421 200.698  1.00  0.00     0.031 C 
BRANCH   3   4
ATOM      4  C   UNL     1     162.686 166.913 200.305  1.00  0.00     0.009 C 
BRANCH   4   5
ATOM      5  C   UNL     1     164.038 166.148 200.271  1.00  0.00     0.030 C 
BRANCH   5   6
ATOM      6  C   UNL     1     164.564 165.781 198.886  1.00  0.00    -0.077 C 
ATOM      7  C   UNL     1     163.605 165.191 197.881  1.00  0.00     0.039 C 
ATOM      8  C   UNL     1     165.817 166.076 198.454  1.00  0.00    -0.027 CG0
ATOM      9  G   UNL     1     166.961 166.500 199.339  1.00  0.00     0.000 G0
ENDBRANCH   5   6
ENDBRANCH   4   5
ENDBRANCH   3   4
ENDBRANCH   1   3
BRANCH   1  10
ATOM     10  C   UNL     1     164.784 170.025 200.033  1.00  0.00     0.057 C 
BRANCH  10  11
ATOM     11  C   UNL     1     165.711 169.309 200.991  1.00  0.00    -0.026 C 
ATOM     12  C   UNL     1     166.833 168.592 200.725  1.00  0.00    -0.024 C 
BRANCH  12  13
ATOM     13  C   UNL     1     167.357 168.016 199.395  1.00  0.00    -0.014 C 
ATOM     14  C   UNL     1     166.908 168.839 198.160  1.00  0.00     0.016 C 
ATOM     15  C   UNL     1     168.904 168.120 199.434  1.00  0.00     0.016 C 
BRANCH  13  16
ATOM     16  C   UNL     1     166.980 166.498 199.337  1.00  0.00     0.038 CG0
ATOM     17  G   UNL     1     165.829 166.095 198.450  1.00  0.00     0.000 G0
ENDBRANCH  13  16
ENDBRANCH  12  13
ENDBRANCH  10  11
ENDBRANCH   1  10
TORSDOF 0
ENDMDL
MODEL 8
REMARK VINA RESULT:    -3.222      1.520      4.277
REMARK INTER + INTRA:          -4.744
REMARK INTER:                  -4.773
REMARK INTRA:                   0.029
REMARK UNBOUND:                -0.015
REMARK SMILES C=C1CC=CC(C)(C)CC=C(C)CCC1
REMARK SMILES IDX 2 1 1 2 15 3 14 4 13 5 11 6 12 7 10 8 3 10 4 11 5 12 6 13
REMARK SMILES IDX 7 14 8 15 9 16
REMARK H PARENT
REMARK Flexibility Score: 60.00
ROOT
ATOM      1  C   UNL     1     168.483 163.159 199.691  1.00  0.00    -0.074 C 
ATOM      2  C   UNL     1     167.766 162.334 200.471  1.00  0.00     0.008 C 
ENDROOT
BRANCH   1   3
ATOM      3  C   UNL     1     168.264 163.104 198.190  1.00  0.00     0.031 C 
BRANCH   3   4
ATOM      4  C   UNL     1     166.776 163.228 197.741  1.00  0.00     0.009 C 
BRANCH   4   5
ATOM      5  C   UNL     1     166.082 164.592 198.013  1.00  0.00     0.030 C 
BRANCH   5   6
ATOM      6  C   UNL     1     165.314 164.701 199.327  1.00  0.00    -0.077 C 
ATOM      7  C   UNL     1     164.312 163.626 199.670  1.00  0.00     0.039 C 
ATOM      8  C   UNL     1     165.572 165.638 200.274  1.00  0.00    -0.027 CG0
ATOM      9  G   UNL     1     166.398 166.882 200.061  1.00  0.00     0.000 G0
ENDBRANCH   5   6
ENDBRANCH   4   5
ENDBRANCH   3   4
ENDBRANCH   1   3
BRANCH   1  10
ATOM     10  C   UNL     1     169.381 164.194 200.362  1.00  0.00     0.057 C 
BRANCH  10  11
ATOM     11  C   UNL     1     169.501 165.525 199.653  1.00  0.00    -0.026 C 
ATOM     12  C   UNL     1     168.917 166.714 199.953  1.00  0.00    -0.024 C 
BRANCH  12  13
ATOM     13  C   UNL     1     167.734 167.036 200.888  1.00  0.00    -0.014 C 
ATOM     14  C   UNL     1     167.769 166.226 202.210  1.00  0.00     0.016 C 
ATOM     15  C   UNL     1     167.873 168.526 201.298  1.00  0.00     0.016 C 
BRANCH  13  16
ATOM     16  C   UNL     1     166.409 166.887 200.068  1.00  0.00     0.038 CG0
ATOM     17  G   UNL     1     165.580 165.648 200.296  1.00  0.00     0.000 G0
ENDBRANCH  13  16
ENDBRANCH  12  13
ENDBRANCH  10  11
ENDBRANCH   1  10
TORSDOF 0
ENDMDL
MODEL 9
REMARK VINA RESULT:    -3.204      2.035      4.351
REMARK INTER + INTRA:          -4.718
REMARK INTER:                  -4.882
REMARK INTRA:                   0.164
REMARK UNBOUND:                -0.015
REMARK SMILES C=C1CC=CC(C)(C)CC=C(C)CCC1
REMARK SMILES IDX 2 1 1 2 15 3 14 4 13 5 11 6 12 7 10 8 3 10 4 11 5 12 6 13
REMARK SMILES IDX 7 14 8 15 9 16
REMARK H PARENT
REMARK Flexibility Score: 60.00
ROOT
ATOM      1  C   UNL     1     165.213 162.517 199.669  1.00  0.00    -0.074 C 
ATOM      2  C   UNL     1     165.094 161.874 198.496  1.00  0.00     0.008 C 
ENDROOT
BRANCH   1   3
ATOM      3  C   UNL     1     163.990 163.216 200.236  1.00  0.00     0.031 C 
BRANCH   3   4
ATOM      4  C   UNL     1     163.229 164.126 199.224  1.00  0.00     0.009 C 
BRANCH   4   5
ATOM      5  C   UNL     1     163.968 165.411 198.755  1.00  0.00     0.030 C 
BRANCH   5   6
ATOM      6  C   UNL     1     164.394 166.377 199.857  1.00  0.00    -0.077 C 
ATOM      7  C   UNL     1     163.325 167.127 200.613  1.00  0.00     0.039 C 
ATOM      8  C   UNL     1     165.673 166.506 200.292  1.00  0.00    -0.027 CG0
ATOM      9  G   UNL     1     166.891 165.986 199.570  1.00  0.00     0.000 G0
ENDBRANCH   5   6
ENDBRANCH   4   5
ENDBRANCH   3   4
ENDBRANCH   1   3
BRANCH   1  10
ATOM     10  C   UNL     1     166.530 162.402 200.430  1.00  0.00     0.057 C 
BRANCH  10  11
ATOM     11  C   UNL     1     167.768 162.849 199.684  1.00  0.00    -0.026 C 
ATOM     12  C   UNL     1     168.455 164.017 199.783  1.00  0.00    -0.024 C 
BRANCH  12  13
ATOM     13  C   UNL     1     168.054 165.359 200.426  1.00  0.00    -0.014 C 
ATOM     14  C   UNL     1     167.740 165.235 201.939  1.00  0.00     0.016 C 
ATOM     15  C   UNL     1     169.285 166.297 200.323  1.00  0.00     0.016 C 
BRANCH  13  16
ATOM     16  C   UNL     1     166.902 165.985 199.571  1.00  0.00     0.038 CG0
ATOM     17  G   UNL     1     165.693 166.512 200.303  1.00  0.00     0.000 G0
ENDBRANCH  13  16
ENDBRANCH  12  13
ENDBRANCH  10  11
ENDBRANCH   1  10
TORSDOF 0
ENDMDL
