MODEL 1
REMARK VINA RESULT:    -3.466      0.000      0.000
REMARK INTER + INTRA:          -8.255
REMARK INTER:                  -6.302
REMARK INTRA:                  -1.953
REMARK UNBOUND:                -1.953
REMARK SMILES CCCCCCCCCCCCCCCC(=O)[O-]
REMARK SMILES IDX 9 1 10 2 11 3 12 4 13 5 14 6 15 7 16 8 17 9 18 10 8 11 7 12
REMARK SMILES IDX 6 13 5 14 4 15 3 16 2 17 1 18
REMARK H PARENT
REMARK Flexibility Score: inf
ROOT
ATOM      1  C   UNL     1     -95.301 147.905 239.008  1.00  0.00     0.000 C 
ENDROOT
BRANCH   1   2
ATOM      2  C   UNL     1     -96.605 148.625 239.382  1.00  0.00     0.000 C 
BRANCH   2   3
ATOM      3  C   UNL     1     -96.542 150.109 238.998  1.00  0.00     0.000 C 
BRANCH   3   4
ATOM      4  C   UNL     1     -97.901 150.789 239.205  1.00  0.00     0.000 C 
BRANCH   4   5
ATOM      5  C   UNL     1     -98.946 149.788 239.718  1.00  0.00     0.000 C 
BRANCH   5   6
ATOM      6  C   UNL     1     -99.630 150.252 241.016  1.00  0.00     0.006 C 
BRANCH   6   7
ATOM      7  C   UNL     1     -98.754 150.127 242.273  1.00  0.00     0.053 C 
BRANCH   7   8
ATOM      8  C   UNL     1     -99.231 151.017 243.380  1.00  0.00     0.041 C 
ATOM      9  O   UNL     1     -99.764 150.520 244.406  1.00  0.00    -0.550 OA
ATOM     10  O   UNL     1     -99.116 152.396 243.261  1.00  0.00    -0.550 OA
ENDBRANCH   7   8
ENDBRANCH   6   7
ENDBRANCH   5   6
ENDBRANCH   4   5
ENDBRANCH   3   4
ENDBRANCH   2   3
ENDBRANCH   1   2
BRANCH   1  11
ATOM     11  C   UNL     1     -94.531 148.618 237.885  1.00  0.00     0.000 C 
BRANCH  11  12
ATOM     12  C   UNL     1     -93.949 147.640 236.852  1.00  0.00    -0.000 C 
BRANCH  12  13
ATOM     13  C   UNL     1     -94.304 148.074 235.425  1.00  0.00    -0.000 C 
BRANCH  13  14
ATOM     14  C   UNL     1     -95.074 149.403 235.430  1.00  0.00    -0.000 C 
BRANCH  14  15
ATOM     15  C   UNL     1     -95.866 149.632 234.132  1.00  0.00    -0.000 C 
BRANCH  15  16
ATOM     16  C   UNL     1     -97.360 149.297 234.283  1.00  0.00    -0.000 C 
BRANCH  16  17
ATOM     17  C   UNL     1     -97.802 149.229 235.753  1.00  0.00    -0.003 C 
ATOM     18  C   UNL     1     -98.273 147.835 236.163  1.00  0.00     0.004 C 
ENDBRANCH  16  17
ENDBRANCH  15  16
ENDBRANCH  14  15
ENDBRANCH  13  14
ENDBRANCH  12  13
ENDBRANCH  11  12
ENDBRANCH   1  11
TORSDOF 14
ENDMDL
MODEL 2
REMARK VINA RESULT:    -3.432      0.990      2.405
REMARK INTER + INTRA:          -8.193
REMARK INTER:                  -6.606
REMARK INTRA:                  -1.587
REMARK UNBOUND:                -1.953
REMARK SMILES CCCCCCCCCCCCCCCC(=O)[O-]
REMARK SMILES IDX 9 1 10 2 11 3 12 4 13 5 14 6 15 7 16 8 17 9 18 10 8 11 7 12
REMARK SMILES IDX 6 13 5 14 4 15 3 16 2 17 1 18
REMARK H PARENT
REMARK Flexibility Score: inf
ROOT
ATOM      1  C   UNL     1     -96.489 150.024 238.996  1.00  0.00     0.000 C 
ENDROOT
BRANCH   1   2
ATOM      2  C   UNL     1     -97.867 150.659 239.235  1.00  0.00     0.000 C 
BRANCH   2   3
ATOM      3  C   UNL     1     -98.940 149.582 239.437  1.00  0.00     0.000 C 
BRANCH   3   4
ATOM      4  C   UNL     1     -99.708 149.806 240.746  1.00  0.00     0.000 C 
BRANCH   4   5
ATOM      5  C   UNL     1     -98.753 150.199 241.883  1.00  0.00     0.000 C 
BRANCH   5   6
ATOM      6  C   UNL     1     -99.490 150.740 243.121  1.00  0.00     0.006 C 
BRANCH   6   7
ATOM      7  C   UNL     1     -99.099 152.173 243.515  1.00  0.00     0.053 C 
BRANCH   7   8
ATOM      8  C   UNL     1     -99.333 152.438 244.971  1.00  0.00     0.041 C 
ATOM      9  O   UNL     1     -99.214 153.604 245.430  1.00  0.00    -0.550 OA
ATOM     10  O   UNL     1     -99.649 151.390 245.826  1.00  0.00    -0.550 OA
ENDBRANCH   7   8
ENDBRANCH   6   7
ENDBRANCH   5   6
ENDBRANCH   4   5
ENDBRANCH   3   4
ENDBRANCH   2   3
ENDBRANCH   1   2
BRANCH   1  11
ATOM     11  C   UNL     1     -96.471 148.517 239.298  1.00  0.00     0.000 C 
BRANCH  11  12
ATOM     12  C   UNL     1     -95.121 147.862 238.961  1.00  0.00    -0.000 C 
BRANCH  12  13
ATOM     13  C   UNL     1     -94.362 148.680 237.909  1.00  0.00    -0.000 C 
BRANCH  13  14
ATOM     14  C   UNL     1     -93.778 147.767 236.820  1.00  0.00    -0.000 C 
BRANCH  14  15
ATOM     15  C   UNL     1     -94.299 148.115 235.416  1.00  0.00    -0.000 C 
BRANCH  15  16
ATOM     16  C   UNL     1     -95.409 149.180 235.444  1.00  0.00    -0.000 C 
BRANCH  16  17
ATOM     17  C   UNL     1     -96.797 148.591 235.152  1.00  0.00    -0.003 C 
ATOM     18  C   UNL     1     -97.932 149.477 235.664  1.00  0.00     0.004 C 
ENDBRANCH  16  17
ENDBRANCH  15  16
ENDBRANCH  14  15
ENDBRANCH  13  14
ENDBRANCH  12  13
ENDBRANCH  11  12
ENDBRANCH   1  11
TORSDOF 14
ENDMDL
MODEL 3
REMARK VINA RESULT:    -3.412      2.916      4.194
REMARK INTER + INTRA:          -8.157
REMARK INTER:                  -6.667
REMARK INTRA:                  -1.490
REMARK UNBOUND:                -1.953
REMARK SMILES CCCCCCCCCCCCCCCC(=O)[O-]
REMARK SMILES IDX 9 1 10 2 11 3 12 4 13 5 14 6 15 7 16 8 17 9 18 10 8 11 7 12
REMARK SMILES IDX 6 13 5 14 4 15 3 16 2 17 1 18
REMARK H PARENT
REMARK Flexibility Score: inf
ROOT
ATOM      1  C   UNL     1     -94.300 148.421 236.831  1.00  0.00     0.000 C 
ENDROOT
BRANCH   1   2
ATOM      2  C   UNL     1     -94.630 148.946 238.237  1.00  0.00     0.000 C 
BRANCH   2   3
ATOM      3  C   UNL     1     -95.540 147.968 238.989  1.00  0.00     0.000 C 
BRANCH   3   4
ATOM      4  C   UNL     1     -96.811 148.668 239.487  1.00  0.00     0.000 C 
BRANCH   4   5
ATOM      5  C   UNL     1     -96.814 150.151 239.087  1.00  0.00     0.000 C 
BRANCH   5   6
ATOM      6  C   UNL     1     -98.218 150.779 239.139  1.00  0.00     0.006 C 
BRANCH   6   7
ATOM      7  C   UNL     1     -99.255 150.086 238.242  1.00  0.00     0.053 C 
BRANCH   7   8
ATOM      8  C   UNL     1     -99.973 151.060 237.358  1.00  0.00     0.041 C 
ATOM      9  O   UNL     1     -99.404 151.526 236.336  1.00  0.00    -0.550 OA
ATOM     10  O   UNL     1    -101.257 151.478 237.683  1.00  0.00    -0.550 OA
ENDBRANCH   7   8
ENDBRANCH   6   7
ENDBRANCH   5   6
ENDBRANCH   4   5
ENDBRANCH   3   4
ENDBRANCH   2   3
ENDBRANCH   1   2
BRANCH   1  11
ATOM     11  C   UNL     1     -94.860 149.320 235.717  1.00  0.00     0.000 C 
BRANCH  11  12
ATOM     12  C   UNL     1     -96.381 149.172 235.545  1.00  0.00    -0.000 C 
BRANCH  12  13
ATOM     13  C   UNL     1     -96.837 149.725 234.190  1.00  0.00    -0.000 C 
BRANCH  13  14
ATOM     14  C   UNL     1     -95.723 149.595 233.140  1.00  0.00    -0.000 C 
BRANCH  14  15
ATOM     15  C   UNL     1     -95.621 150.831 232.231  1.00  0.00    -0.000 C 
BRANCH  15  16
ATOM     16  C   UNL     1     -95.843 152.147 232.995  1.00  0.00    -0.000 C 
BRANCH  16  17
ATOM     17  C   UNL     1     -96.917 153.032 232.344  1.00  0.00    -0.003 C 
ATOM     18  C   UNL     1     -97.260 154.260 233.186  1.00  0.00     0.004 C 
ENDBRANCH  16  17
ENDBRANCH  15  16
ENDBRANCH  14  15
ENDBRANCH  13  14
ENDBRANCH  12  13
ENDBRANCH  11  12
ENDBRANCH   1  11
TORSDOF 14
ENDMDL
MODEL 4
REMARK VINA RESULT:    -3.389      1.519      2.327
REMARK INTER + INTRA:          -8.115
REMARK INTER:                  -5.940
REMARK INTRA:                  -2.175
REMARK UNBOUND:                -1.953
REMARK SMILES CCCCCCCCCCCCCCCC(=O)[O-]
REMARK SMILES IDX 9 1 10 2 11 3 12 4 13 5 14 6 15 7 16 8 17 9 18 10 8 11 7 12
REMARK SMILES IDX 6 13 5 14 4 15 3 16 2 17 1 18
REMARK H PARENT
REMARK Flexibility Score: inf
ROOT
ATOM      1  C   UNL     1     -94.254 148.635 237.582  1.00  0.00     0.000 C 
ENDROOT
BRANCH   1   2
ATOM      2  C   UNL     1     -94.994 147.806 238.642  1.00  0.00     0.000 C 
BRANCH   2   3
ATOM      3  C   UNL     1     -96.286 148.504 239.084  1.00  0.00     0.000 C 
BRANCH   3   4
ATOM      4  C   UNL     1     -96.174 150.025 238.920  1.00  0.00     0.000 C 
BRANCH   4   5
ATOM      5  C   UNL     1     -97.561 150.684 238.944  1.00  0.00     0.000 C 
BRANCH   5   6
ATOM      6  C   UNL     1     -98.704 149.664 239.089  1.00  0.00     0.006 C 
BRANCH   6   7
ATOM      7  C   UNL     1     -99.627 149.914 240.292  1.00  0.00     0.053 C 
BRANCH   7   8
ATOM      8  C   UNL     1     -98.870 149.924 241.586  1.00  0.00     0.041 C 
ATOM      9  O   UNL     1     -98.266 148.889 241.974  1.00  0.00    -0.550 OA
ATOM     10  O   UNL     1     -98.862 151.064 242.378  1.00  0.00    -0.550 OA
ENDBRANCH   7   8
ENDBRANCH   6   7
ENDBRANCH   5   6
ENDBRANCH   4   5
ENDBRANCH   3   4
ENDBRANCH   2   3
ENDBRANCH   1   2
BRANCH   1  11
ATOM     11  C   UNL     1     -93.764 147.784 236.400  1.00  0.00     0.000 C 
BRANCH  11  12
ATOM     12  C   UNL     1     -94.643 147.947 235.149  1.00  0.00    -0.000 C 
BRANCH  12  13
ATOM     13  C   UNL     1     -95.564 149.166 235.279  1.00  0.00    -0.000 C 
BRANCH  13  14
ATOM     14  C   UNL     1     -97.026 148.734 235.457  1.00  0.00    -0.000 C 
BRANCH  14  15
ATOM     15  C   UNL     1     -98.013 149.897 235.266  1.00  0.00    -0.000 C 
BRANCH  15  16
ATOM     16  C   UNL     1     -99.482 149.439 235.301  1.00  0.00    -0.000 C 
BRANCH  16  17
ATOM     17  C   UNL     1    -100.461 150.611 235.469  1.00  0.00    -0.003 C 
ATOM     18  C   UNL     1     -99.846 151.789 236.224  1.00  0.00     0.004 C 
ENDBRANCH  16  17
ENDBRANCH  15  16
ENDBRANCH  14  15
ENDBRANCH  13  14
ENDBRANCH  12  13
ENDBRANCH  11  12
ENDBRANCH   1  11
TORSDOF 14
ENDMDL
MODEL 5
REMARK VINA RESULT:    -3.380      2.577      4.045
REMARK INTER + INTRA:          -8.100
REMARK INTER:                  -6.816
REMARK INTRA:                  -1.284
REMARK UNBOUND:                -1.953
REMARK SMILES CCCCCCCCCCCCCCCC(=O)[O-]
REMARK SMILES IDX 9 1 10 2 11 3 12 4 13 5 14 6 15 7 16 8 17 9 18 10 8 11 7 12
REMARK SMILES IDX 6 13 5 14 4 15 3 16 2 17 1 18
REMARK H PARENT
REMARK Flexibility Score: inf
ROOT
ATOM      1  C   UNL     1     -94.911 148.081 235.668  1.00  0.00     0.000 C 
ENDROOT
BRANCH   1   2
ATOM      2  C   UNL     1     -93.828 148.159 236.755  1.00  0.00     0.000 C 
BRANCH   2   3
ATOM      3  C   UNL     1     -94.367 148.840 238.019  1.00  0.00     0.000 C 
BRANCH   3   4
ATOM      4  C   UNL     1     -95.281 147.894 238.808  1.00  0.00     0.000 C 
BRANCH   4   5
ATOM      5  C   UNL     1     -96.657 148.533 239.049  1.00  0.00     0.000 C 
BRANCH   5   6
ATOM      6  C   UNL     1     -96.629 150.068 238.941  1.00  0.00     0.006 C 
BRANCH   6   7
ATOM      7  C   UNL     1     -98.011 150.733 239.031  1.00  0.00     0.053 C 
BRANCH   7   8
ATOM      8  C   UNL     1     -98.827 150.182 240.161  1.00  0.00     0.041 C 
ATOM      9  O   UNL     1     -98.490 150.408 241.353  1.00  0.00    -0.550 OA
ATOM     10  O   UNL     1     -99.937 149.392 239.897  1.00  0.00    -0.550 OA
ENDBRANCH   7   8
ENDBRANCH   6   7
ENDBRANCH   5   6
ENDBRANCH   4   5
ENDBRANCH   3   4
ENDBRANCH   2   3
ENDBRANCH   1   2
BRANCH   1  11
ATOM     11  C   UNL     1     -95.345 149.467 235.164  1.00  0.00     0.000 C 
BRANCH  11  12
ATOM     12  C   UNL     1     -96.813 149.499 234.711  1.00  0.00    -0.000 C 
BRANCH  12  13
ATOM     13  C   UNL     1     -96.943 150.110 233.311  1.00  0.00    -0.000 C 
BRANCH  13  14
ATOM     14  C   UNL     1     -95.711 150.960 232.965  1.00  0.00    -0.000 C 
BRANCH  14  15
ATOM     15  C   UNL     1     -96.044 152.454 232.825  1.00  0.00    -0.000 C 
BRANCH  15  16
ATOM     16  C   UNL     1     -97.174 152.716 231.815  1.00  0.00    -0.000 C 
BRANCH  16  17
ATOM     17  C   UNL     1     -97.854 154.077 232.032  1.00  0.00    -0.003 C 
ATOM     18  C   UNL     1     -97.457 154.730 233.354  1.00  0.00     0.004 C 
ENDBRANCH  16  17
ENDBRANCH  15  16
ENDBRANCH  14  15
ENDBRANCH  13  14
ENDBRANCH  12  13
ENDBRANCH  11  12
ENDBRANCH   1  11
TORSDOF 14
ENDMDL
MODEL 6
REMARK VINA RESULT:    -3.376      4.222      6.905
REMARK INTER + INTRA:          -8.092
REMARK INTER:                  -6.562
REMARK INTRA:                  -1.531
REMARK UNBOUND:                -1.953
REMARK SMILES CCCCCCCCCCCCCCCC(=O)[O-]
REMARK SMILES IDX 9 1 10 2 11 3 12 4 13 5 14 6 15 7 16 8 17 9 18 10 8 11 7 12
REMARK SMILES IDX 6 13 5 14 4 15 3 16 2 17 1 18
REMARK H PARENT
REMARK Flexibility Score: inf
ROOT
ATOM      1  C   UNL     1     -95.848 149.515 235.246  1.00  0.00     0.000 C 
ENDROOT
BRANCH   1   2
ATOM      2  C   UNL     1     -97.234 149.439 234.587  1.00  0.00     0.000 C 
BRANCH   2   3
ATOM      3  C   UNL     1     -97.338 150.421 233.413  1.00  0.00     0.000 C 
BRANCH   3   4
ATOM      4  C   UNL     1     -95.981 150.603 232.724  1.00  0.00     0.000 C 
BRANCH   4   5
ATOM      5  C   UNL     1     -95.754 152.071 232.334  1.00  0.00     0.000 C 
BRANCH   5   6
ATOM      6  C   UNL     1     -97.038 152.916 232.420  1.00  0.00     0.006 C 
BRANCH   6   7
ATOM      7  C   UNL     1     -96.946 154.110 233.383  1.00  0.00     0.053 C 
BRANCH   7   8
ATOM      8  C   UNL     1     -98.087 155.064 233.205  1.00  0.00     0.041 C 
ATOM      9  O   UNL     1     -99.274 154.663 233.335  1.00  0.00    -0.550 OA
ATOM     10  O   UNL     1     -97.840 156.387 232.861  1.00  0.00    -0.550 OA
ENDBRANCH   7   8
ENDBRANCH   6   7
ENDBRANCH   5   6
ENDBRANCH   4   5
ENDBRANCH   3   4
ENDBRANCH   2   3
ENDBRANCH   1   2
BRANCH   1  11
ATOM     11  C   UNL     1     -95.265 148.129 235.560  1.00  0.00     0.000 C 
BRANCH  11  12
ATOM     12  C   UNL     1     -93.999 148.202 236.429  1.00  0.00    -0.000 C 
BRANCH  12  13
ATOM     13  C   UNL     1     -94.320 148.756 237.822  1.00  0.00    -0.000 C 
BRANCH  13  14
ATOM     14  C   UNL     1     -95.246 147.804 238.592  1.00  0.00    -0.000 C 
BRANCH  14  15
ATOM     15  C   UNL     1     -96.504 148.508 239.126  1.00  0.00    -0.000 C 
BRANCH  15  16
ATOM     16  C   UNL     1     -96.426 150.039 238.997  1.00  0.00    -0.000 C 
BRANCH  16  17
ATOM     17  C   UNL     1     -97.813 150.700 238.976  1.00  0.00    -0.003 C 
ATOM     18  C   UNL     1     -98.749 150.073 237.944  1.00  0.00     0.004 C 
ENDBRANCH  16  17
ENDBRANCH  15  16
ENDBRANCH  14  15
ENDBRANCH  13  14
ENDBRANCH  12  13
ENDBRANCH  11  12
ENDBRANCH   1  11
TORSDOF 14
ENDMDL
MODEL 7
REMARK VINA RESULT:    -3.312      3.925      6.534
REMARK INTER + INTRA:          -7.976
REMARK INTER:                  -5.824
REMARK INTRA:                  -2.152
REMARK UNBOUND:                -1.953
REMARK SMILES CCCCCCCCCCCCCCCC(=O)[O-]
REMARK SMILES IDX 9 1 10 2 11 3 12 4 13 5 14 6 15 7 16 8 17 9 18 10 8 11 7 12
REMARK SMILES IDX 6 13 5 14 4 15 3 16 2 17 1 18
REMARK H PARENT
REMARK Flexibility Score: inf
ROOT
ATOM      1  C   UNL     1     -94.601 148.829 238.265  1.00  0.00     0.000 C 
ENDROOT
BRANCH   1   2
ATOM      2  C   UNL     1     -93.907 148.164 237.066  1.00  0.00     0.000 C 
BRANCH   2   3
ATOM      3  C   UNL     1     -94.854 148.075 235.863  1.00  0.00     0.000 C 
BRANCH   3   4
ATOM      4  C   UNL     1     -95.276 149.472 235.389  1.00  0.00     0.000 C 
BRANCH   4   5
ATOM      5  C   UNL     1     -95.759 149.435 233.932  1.00  0.00     0.000 C 
BRANCH   5   6
ATOM      6  C   UNL     1     -95.887 150.838 233.310  1.00  0.00     0.006 C 
BRANCH   6   7
ATOM      7  C   UNL     1     -97.334 151.280 233.042  1.00  0.00     0.053 C 
BRANCH   7   8
ATOM      8  C   UNL     1     -97.413 152.718 232.627  1.00  0.00     0.041 C 
ATOM      9  O   UNL     1     -97.808 153.591 233.443  1.00  0.00    -0.550 OA
ATOM     10  O   UNL     1     -97.082 153.086 231.330  1.00  0.00    -0.550 OA
ENDBRANCH   7   8
ENDBRANCH   6   7
ENDBRANCH   5   6
ENDBRANCH   4   5
ENDBRANCH   3   4
ENDBRANCH   2   3
ENDBRANCH   1   2
BRANCH   1  11
ATOM     11  C   UNL     1     -95.616 147.901 238.951  1.00  0.00     0.000 C 
BRANCH  11  12
ATOM     12  C   UNL     1     -96.855 148.654 239.463  1.00  0.00    -0.000 C 
BRANCH  12  13
ATOM     13  C   UNL     1     -96.854 150.108 238.975  1.00  0.00    -0.000 C 
BRANCH  13  14
ATOM     14  C   UNL     1     -98.238 150.749 239.154  1.00  0.00    -0.000 C 
BRANCH  14  15
ATOM     15  C   UNL     1     -99.238 150.305 238.074  1.00  0.00    -0.000 C 
BRANCH  15  16
ATOM     16  C   UNL     1     -98.623 150.302 236.663  1.00  0.00    -0.000 C 
BRANCH  16  17
ATOM     17  C   UNL     1     -99.089 149.106 235.820  1.00  0.00    -0.003 C 
ATOM     18  C   UNL     1     -98.536 147.775 236.327  1.00  0.00     0.004 C 
ENDBRANCH  16  17
ENDBRANCH  15  16
ENDBRANCH  14  15
ENDBRANCH  13  14
ENDBRANCH  12  13
ENDBRANCH  11  12
ENDBRANCH   1  11
TORSDOF 14
ENDMDL
MODEL 8
REMARK VINA RESULT:    -3.287      3.765      5.089
REMARK INTER + INTRA:          -7.930
REMARK INTER:                  -5.737
REMARK INTRA:                  -2.194
REMARK UNBOUND:                -1.953
REMARK SMILES CCCCCCCCCCCCCCCC(=O)[O-]
REMARK SMILES IDX 9 1 10 2 11 3 12 4 13 5 14 6 15 7 16 8 17 9 18 10 8 11 7 12
REMARK SMILES IDX 6 13 5 14 4 15 3 16 2 17 1 18
REMARK H PARENT
REMARK Flexibility Score: inf
ROOT
ATOM      1  C   UNL     1     -96.420 149.961 239.032  1.00  0.00     0.000 C 
ENDROOT
BRANCH   1   2
ATOM      2  C   UNL     1     -97.774 150.655 239.239  1.00  0.00     0.000 C 
BRANCH   2   3
ATOM      3  C   UNL     1     -98.932 149.665 239.061  1.00  0.00     0.000 C 
BRANCH   3   4
ATOM      4  C   UNL     1     -99.998 150.227 238.113  1.00  0.00     0.000 C 
BRANCH   4   5
ATOM      5  C   UNL     1     -99.440 151.397 237.289  1.00  0.00     0.000 C 
BRANCH   5   6
ATOM      6  C   UNL     1    -100.000 151.438 235.856  1.00  0.00     0.006 C 
BRANCH   6   7
ATOM      7  C   UNL     1    -100.221 152.854 235.304  1.00  0.00     0.053 C 
BRANCH   7   8
ATOM      8  C   UNL     1     -99.324 153.148 234.139  1.00  0.00     0.041 C 
ATOM      9  O   UNL     1     -99.413 154.249 233.534  1.00  0.00    -0.550 OA
ATOM     10  O   UNL     1     -98.415 152.193 233.703  1.00  0.00    -0.550 OA
ENDBRANCH   7   8
ENDBRANCH   6   7
ENDBRANCH   5   6
ENDBRANCH   4   5
ENDBRANCH   3   4
ENDBRANCH   2   3
ENDBRANCH   1   2
BRANCH   1  11
ATOM     11  C   UNL     1     -96.524 148.429 239.092  1.00  0.00     0.000 C 
BRANCH  11  12
ATOM     12  C   UNL     1     -95.151 147.739 239.046  1.00  0.00    -0.000 C 
BRANCH  12  13
ATOM     13  C   UNL     1     -94.864 147.180 237.647  1.00  0.00    -0.000 C 
BRANCH  13  14
ATOM     14  C   UNL     1     -93.861 148.068 236.896  1.00  0.00    -0.000 C 
BRANCH  14  15
ATOM     15  C   UNL     1     -94.548 149.163 236.064  1.00  0.00    -0.000 C 
BRANCH  15  16
ATOM     16  C   UNL     1     -95.621 148.599 235.116  1.00  0.00    -0.000 C 
BRANCH  16  17
ATOM     17  C   UNL     1     -97.004 149.224 235.354  1.00  0.00    -0.003 C 
ATOM     18  C   UNL     1     -98.067 148.185 235.707  1.00  0.00     0.004 C 
ENDBRANCH  16  17
ENDBRANCH  15  16
ENDBRANCH  14  15
ENDBRANCH  13  14
ENDBRANCH  12  13
ENDBRANCH  11  12
ENDBRANCH   1  11
TORSDOF 14
ENDMDL
MODEL 9
REMARK VINA RESULT:    -3.276      4.319      6.902
REMARK INTER + INTRA:          -7.909
REMARK INTER:                  -6.459
REMARK INTRA:                  -1.450
REMARK UNBOUND:                -1.953
REMARK SMILES CCCCCCCCCCCCCCCC(=O)[O-]
REMARK SMILES IDX 9 1 10 2 11 3 12 4 13 5 14 6 15 7 16 8 17 9 18 10 8 11 7 12
REMARK SMILES IDX 6 13 5 14 4 15 3 16 2 17 1 18
REMARK H PARENT
REMARK Flexibility Score: inf
ROOT
ATOM      1  C   UNL     1     -94.857 148.330 235.758  1.00  0.00     0.000 C 
ENDROOT
BRANCH   1   2
ATOM      2  C   UNL     1     -95.326 149.569 234.980  1.00  0.00     0.000 C 
BRANCH   2   3
ATOM      3  C   UNL     1     -96.792 149.427 234.553  1.00  0.00     0.000 C 
BRANCH   3   4
ATOM      4  C   UNL     1     -97.126 150.382 233.401  1.00  0.00     0.000 C 
BRANCH   4   5
ATOM      5  C   UNL     1     -95.923 151.272 233.057  1.00  0.00     0.000 C 
BRANCH   5   6
ATOM      6  C   UNL     1     -96.315 152.520 232.246  1.00  0.00     0.006 C 
BRANCH   6   7
ATOM      7  C   UNL     1     -96.874 153.674 233.092  1.00  0.00     0.053 C 
BRANCH   7   8
ATOM      8  C   UNL     1     -98.238 154.095 232.636  1.00  0.00     0.041 C 
ATOM      9  O   UNL     1     -99.059 154.580 233.458  1.00  0.00    -0.550 OA
ATOM     10  O   UNL     1     -98.612 153.919 231.310  1.00  0.00    -0.550 OA
ENDBRANCH   7   8
ENDBRANCH   6   7
ENDBRANCH   5   6
ENDBRANCH   4   5
ENDBRANCH   3   4
ENDBRANCH   2   3
ENDBRANCH   1   2
BRANCH   1  11
ATOM     11  C   UNL     1     -94.158 148.690 237.079  1.00  0.00     0.000 C 
BRANCH  11  12
ATOM     12  C   UNL     1     -95.083 148.541 238.298  1.00  0.00    -0.000 C 
BRANCH  12  13
ATOM     13  C   UNL     1     -95.720 149.884 238.673  1.00  0.00    -0.000 C 
BRANCH  13  14
ATOM     14  C   UNL     1     -97.084 149.677 239.347  1.00  0.00    -0.000 C 
BRANCH  14  15
ATOM     15  C   UNL     1     -98.130 150.707 238.893  1.00  0.00    -0.000 C 
BRANCH  15  16
ATOM     16  C   UNL     1     -98.844 150.292 237.595  1.00  0.00    -0.000 C 
BRANCH  16  17
ATOM     17  C   UNL     1     -99.890 151.322 237.142  1.00  0.00    -0.003 C 
ATOM     18  C   UNL     1     -99.581 151.909 235.765  1.00  0.00     0.004 C 
ENDBRANCH  16  17
ENDBRANCH  15  16
ENDBRANCH  14  15
ENDBRANCH  13  14
ENDBRANCH  12  13
ENDBRANCH  11  12
ENDBRANCH   1  11
TORSDOF 14
ENDMDL
