MODEL 1
REMARK VINA RESULT:    -3.298      0.000      0.000
REMARK INTER + INTRA:          -3.616
REMARK INTER:                  -3.588
REMARK INTRA:                  -0.028
REMARK UNBOUND:                -0.028
REMARK SMILES O=C([O-])c1ccc(O)cc1
REMARK SMILES IDX 7 1 6 2 9 3 5 4 10 5 4 6 8 7 2 9 1 10 3 11
REMARK H PARENT 8 8
REMARK Flexibility Score: inf
ROOT
ATOM      1  C   UNL     1     116.640 127.052  96.132  1.00  0.00     0.115 A 
ATOM      2  C   UNL     1     118.016 126.862  95.979  1.00  0.00     0.047 A 
ATOM      3  C   UNL     1     116.044 126.830  97.380  1.00  0.00     0.047 A 
ATOM      4  C   UNL     1     118.796 126.450  97.063  1.00  0.00     0.014 A 
ATOM      5  C   UNL     1     116.820 126.418  98.468  1.00  0.00     0.014 A 
ATOM      6  C   UNL     1     118.205 126.224  98.321  1.00  0.00    -0.003 A 
ENDROOT
BRANCH   1   7
ATOM      7  O   UNL     1     115.875 127.462  95.043  1.00  0.00    -0.508 OA
ATOM      8  H   UNL     1     115.170 128.184  95.132  1.00  0.00     0.293 HD
ENDBRANCH   1   7
BRANCH   6   9
ATOM      9  C   UNL     1     119.026 125.788  99.472  1.00  0.00     0.071 C 
ATOM     10  O   UNL     1     119.889 126.558  99.971  1.00  0.00    -0.545 OA
ATOM     11  O   UNL     1     118.855 124.522 100.020  1.00  0.00    -0.545 OA
ENDBRANCH   6   9
TORSDOF 2
ENDMDL
MODEL 2
REMARK VINA RESULT:    -3.292     14.691     16.163
REMARK INTER + INTRA:          -3.609
REMARK INTER:                  -3.575
REMARK INTRA:                  -0.034
REMARK UNBOUND:                -0.028
REMARK SMILES O=C([O-])c1ccc(O)cc1
REMARK SMILES IDX 7 1 6 2 9 3 5 4 10 5 4 6 8 7 2 9 1 10 3 11
REMARK H PARENT 8 8
REMARK Flexibility Score: inf
ROOT
ATOM      1  C   UNL     1     134.957 124.458  95.870  1.00  0.00     0.115 A 
ATOM      2  C   UNL     1     133.591 124.541  95.587  1.00  0.00     0.047 A 
ATOM      3  C   UNL     1     135.429 124.841  97.132  1.00  0.00     0.047 A 
ATOM      4  C   UNL     1     132.697 125.006  96.557  1.00  0.00     0.014 A 
ATOM      5  C   UNL     1     134.538 125.306  98.106  1.00  0.00     0.014 A 
ATOM      6  C   UNL     1     133.163 125.393  97.827  1.00  0.00    -0.003 A 
ENDROOT
BRANCH   1   7
ATOM      7  O   UNL     1     135.836 123.994  94.895  1.00  0.00    -0.508 OA
ATOM      8  H   UNL     1     136.569 124.582  94.518  1.00  0.00     0.293 HD
ENDBRANCH   1   7
BRANCH   6   9
ATOM      9  C   UNL     1     132.222 125.885  98.858  1.00  0.00     0.071 C 
ATOM     10  O   UNL     1     131.029 125.483  98.881  1.00  0.00    -0.545 OA
ATOM     11  O   UNL     1     132.643 126.800  99.816  1.00  0.00    -0.545 OA
ENDBRANCH   6   9
TORSDOF 2
ENDMDL
MODEL 3
REMARK VINA RESULT:    -3.216      2.373      5.112
REMARK INTER + INTRA:          -3.526
REMARK INTER:                  -3.499
REMARK INTRA:                  -0.027
REMARK UNBOUND:                -0.028
REMARK SMILES O=C([O-])c1ccc(O)cc1
REMARK SMILES IDX 7 1 6 2 9 3 5 4 10 5 4 6 8 7 2 9 1 10 3 11
REMARK H PARENT 8 8
REMARK Flexibility Score: inf
ROOT
ATOM      1  C   UNL     1     119.645 124.301 101.840  1.00  0.00     0.115 A 
ATOM      2  C   UNL     1     119.564 125.684 101.659  1.00  0.00     0.047 A 
ATOM      3  C   UNL     1     119.268 123.441 100.801  1.00  0.00     0.047 A 
ATOM      4  C   UNL     1     119.109 126.211 100.446  1.00  0.00     0.014 A 
ATOM      5  C   UNL     1     118.812 123.963  99.586  1.00  0.00     0.014 A 
ATOM      6  C   UNL     1     118.727 125.354  99.396  1.00  0.00    -0.003 A 
ENDROOT
BRANCH   1   7
ATOM      7  O   UNL     1     120.100 123.791 103.054  1.00  0.00    -0.508 OA
ATOM      8  H   UNL     1     120.303 124.396 103.841  1.00  0.00     0.293 HD
ENDBRANCH   1   7
BRANCH   6   9
ATOM      9  C   UNL     1     118.245 125.904  98.110  1.00  0.00     0.071 C 
ATOM     10  O   UNL     1     119.057 126.189  97.190  1.00  0.00    -0.545 OA
ATOM     11  O   UNL     1     116.888 126.116  97.900  1.00  0.00    -0.545 OA
ENDBRANCH   6   9
TORSDOF 2
ENDMDL
MODEL 4
REMARK VINA RESULT:    -3.201     14.798     15.417
REMARK INTER + INTRA:          -3.510
REMARK INTER:                  -3.483
REMARK INTRA:                  -0.027
REMARK UNBOUND:                -0.028
REMARK SMILES O=C([O-])c1ccc(O)cc1
REMARK SMILES IDX 7 1 6 2 9 3 5 4 10 5 4 6 8 7 2 9 1 10 3 11
REMARK H PARENT 8 8
REMARK Flexibility Score: inf
ROOT
ATOM      1  C   UNL     1     132.051 127.067 101.658  1.00  0.00     0.115 A 
ATOM      2  C   UNL     1     132.063 125.695 101.392  1.00  0.00     0.047 A 
ATOM      3  C   UNL     1     132.412 127.973 100.652  1.00  0.00     0.047 A 
ATOM      4  C   UNL     1     132.434 125.225 100.129  1.00  0.00     0.014 A 
ATOM      5  C   UNL     1     132.784 127.507  99.387  1.00  0.00     0.014 A 
ATOM      6  C   UNL     1     132.799 126.129  99.112  1.00  0.00    -0.003 A 
ENDROOT
BRANCH   1   7
ATOM      7  O   UNL     1     131.680 127.521 102.922  1.00  0.00    -0.508 OA
ATOM      8  H   UNL     1     132.326 127.504 103.702  1.00  0.00     0.293 HD
ENDBRANCH   1   7
BRANCH   6   9
ATOM      9  C   UNL     1     133.192 125.638  97.773  1.00  0.00     0.071 C 
ATOM     10  O   UNL     1     132.331 125.497  96.864  1.00  0.00    -0.545 OA
ATOM     11  O   UNL     1     134.518 125.323  97.499  1.00  0.00    -0.545 OA
ENDBRANCH   6   9
TORSDOF 2
ENDMDL
MODEL 5
REMARK VINA RESULT:    -3.182     13.824     14.734
REMARK INTER + INTRA:          -3.490
REMARK INTER:                  -3.454
REMARK INTRA:                  -0.036
REMARK UNBOUND:                -0.028
REMARK SMILES O=C([O-])c1ccc(O)cc1
REMARK SMILES IDX 7 1 6 2 9 3 5 4 10 5 4 6 8 7 2 9 1 10 3 11
REMARK H PARENT 8 8
REMARK Flexibility Score: inf
ROOT
ATOM      1  C   UNL     1     130.843 127.670 103.470  1.00  0.00     0.115 A 
ATOM      2  C   UNL     1     131.831 126.876 102.881  1.00  0.00     0.047 A 
ATOM      3  C   UNL     1     130.261 128.712 102.737  1.00  0.00     0.047 A 
ATOM      4  C   UNL     1     132.239 127.118 101.566  1.00  0.00     0.014 A 
ATOM      5  C   UNL     1     130.666 128.958 101.420  1.00  0.00     0.014 A 
ATOM      6  C   UNL     1     131.659 128.163 100.822  1.00  0.00    -0.003 A 
ENDROOT
BRANCH   1   7
ATOM      7  O   UNL     1     130.448 127.418 104.781  1.00  0.00    -0.508 OA
ATOM      8  H   UNL     1     130.738 128.014 105.547  1.00  0.00     0.293 HD
ENDBRANCH   1   7
BRANCH   6   9
ATOM      9  C   UNL     1     132.086 128.424  99.429  1.00  0.00     0.071 C 
ATOM     10  O   UNL     1     131.648 129.425  98.801  1.00  0.00    -0.545 OA
ATOM     11  O   UNL     1     132.976 127.567  98.793  1.00  0.00    -0.545 OA
ENDBRANCH   6   9
TORSDOF 2
ENDMDL
MODEL 6
REMARK VINA RESULT:    -3.171      2.144      4.837
REMARK INTER + INTRA:          -3.477
REMARK INTER:                  -3.447
REMARK INTRA:                  -0.031
REMARK UNBOUND:                -0.028
REMARK SMILES O=C([O-])c1ccc(O)cc1
REMARK SMILES IDX 7 1 6 2 9 3 5 4 10 5 4 6 8 7 2 9 1 10 3 11
REMARK H PARENT 8 8
REMARK Flexibility Score: inf
ROOT
ATOM      1  C   UNL     1     119.644 123.850 101.093  1.00  0.00     0.115 A 
ATOM      2  C   UNL     1     119.144 123.332  99.895  1.00  0.00     0.047 A 
ATOM      3  C   UNL     1     119.586 125.229 101.331  1.00  0.00     0.047 A 
ATOM      4  C   UNL     1     118.589 124.185  98.936  1.00  0.00     0.014 A 
ATOM      5  C   UNL     1     119.032 126.086 100.374  1.00  0.00     0.014 A 
ATOM      6  C   UNL     1     118.528 125.572  99.167  1.00  0.00    -0.003 A 
ENDROOT
BRANCH   1   7
ATOM      7  O   UNL     1     120.194 122.989 102.040  1.00  0.00    -0.508 OA
ATOM      8  H   UNL     1     121.018 122.435 101.838  1.00  0.00     0.293 HD
ENDBRANCH   1   7
BRANCH   6   9
ATOM      9  C   UNL     1     117.942 126.480  98.156  1.00  0.00     0.071 C 
ATOM     10  O   UNL     1     118.547 127.529  97.808  1.00  0.00    -0.545 OA
ATOM     11  O   UNL     1     116.713 126.188  97.575  1.00  0.00    -0.545 OA
ENDBRANCH   6   9
TORSDOF 2
ENDMDL
MODEL 7
REMARK VINA RESULT:    -3.064      3.097      4.537
REMARK INTER + INTRA:          -3.361
REMARK INTER:                  -3.332
REMARK INTRA:                  -0.030
REMARK UNBOUND:                -0.028
REMARK SMILES O=C([O-])c1ccc(O)cc1
REMARK SMILES IDX 7 1 6 2 9 3 5 4 10 5 4 6 8 7 2 9 1 10 3 11
REMARK H PARENT 8 8
REMARK Flexibility Score: inf
ROOT
ATOM      1  C   UNL     1     118.858 125.315  99.462  1.00  0.00     0.115 A 
ATOM      2  C   UNL     1     118.904 123.984  99.883  1.00  0.00     0.047 A 
ATOM      3  C   UNL     1     119.172 126.340 100.363  1.00  0.00     0.047 A 
ATOM      4  C   UNL     1     119.260 123.673 101.199  1.00  0.00     0.014 A 
ATOM      5  C   UNL     1     119.529 126.034 101.681  1.00  0.00     0.014 A 
ATOM      6  C   UNL     1     119.577 124.696 102.112  1.00  0.00    -0.003 A 
ENDROOT
BRANCH   1   7
ATOM      7  O   UNL     1     118.501 125.610  98.148  1.00  0.00    -0.508 OA
ATOM      8  H   UNL     1     118.028 126.473  97.908  1.00  0.00     0.293 HD
ENDBRANCH   1   7
BRANCH   6   9
ATOM      9  C   UNL     1     119.955 124.374 103.506  1.00  0.00     0.071 C 
ATOM     10  O   UNL     1     119.331 124.883 104.474  1.00  0.00    -0.545 OA
ATOM     11  O   UNL     1     121.007 123.504 103.766  1.00  0.00    -0.545 OA
ENDBRANCH   6   9
TORSDOF 2
ENDMDL
MODEL 8
REMARK VINA RESULT:    -3.042      3.498      4.698
REMARK INTER + INTRA:          -3.337
REMARK INTER:                  -3.307
REMARK INTRA:                  -0.030
REMARK UNBOUND:                -0.028
REMARK SMILES O=C([O-])c1ccc(O)cc1
REMARK SMILES IDX 7 1 6 2 9 3 5 4 10 5 4 6 8 7 2 9 1 10 3 11
REMARK H PARENT 8 8
REMARK Flexibility Score: inf
ROOT
ATOM      1  C   UNL     1     118.891 123.910  99.901  1.00  0.00     0.115 A 
ATOM      2  C   UNL     1     118.833 125.239  99.474  1.00  0.00     0.047 A 
ATOM      3  C   UNL     1     119.263 123.620 101.220  1.00  0.00     0.047 A 
ATOM      4  C   UNL     1     119.144 126.278 100.356  1.00  0.00     0.014 A 
ATOM      5  C   UNL     1     119.576 124.657 102.107  1.00  0.00     0.014 A 
ATOM      6  C   UNL     1     119.519 125.996 101.683  1.00  0.00    -0.003 A 
ENDROOT
BRANCH   1   7
ATOM      7  O   UNL     1     118.579 122.885  99.011  1.00  0.00    -0.508 OA
ATOM      8  H   UNL     1     117.650 122.482  98.971  1.00  0.00     0.293 HD
ENDBRANCH   1   7
BRANCH   6   9
ATOM      9  C   UNL     1     119.850 127.091 102.622  1.00  0.00     0.071 C 
ATOM     10  O   UNL     1     119.291 127.160 103.749  1.00  0.00    -0.545 OA
ATOM     11  O   UNL     1     120.782 128.061 102.273  1.00  0.00    -0.545 OA
ENDBRANCH   6   9
TORSDOF 2
ENDMDL
