MODEL 1
REMARK VINA RESULT:    91.824      0.000      0.000
REMARK INTER + INTRA:         137.254
REMARK INTER:                 134.768
REMARK INTRA:                   2.486
REMARK UNBOUND:                 2.486
REMARK SMILES Cc1cc2c(C(C)C)c(O)c(O)c(C=O)c2c(O)c1-c1c(C)cc2c(C(C)C)c(O)c(O)c(C=O)c2c1O
REMARK SMILES IDX 1 1 2 2 3 3 4 4 16 5 13 6 11 7 9 8 5 9 17 10 19 11 20 12
REMARK SMILES IDX 37 13 21 14 36 15 23 16 22 17 24 18 33 19 25 20 31 21 29 22
REMARK SMILES IDX 38 23 34 25 35 26 26 27 27 28 28 29 32 30 30 32 18 34 6 36
REMARK SMILES IDX 7 37 8 38 14 39 15 40 10 41 12 43
REMARK H PARENT 38 24 32 31 30 33 18 35 10 42 12 44
REMARK Flexibility Score: inf
ROOT
ATOM      1  C   UNL     1      22.112  18.179  18.026  1.00  0.00     0.045 C 
ATOM      2  C   UNL     1      20.656  17.913  18.322  1.00  0.00    -0.039 A 
ATOM      3  C   UNL     1      19.767  17.737  17.260  1.00  0.00     0.013 A 
ATOM      4  C   UNL     1      18.396  17.468  17.471  1.00  0.00    -0.006 A 
ATOM      5  C   UNL     1      17.898  17.451  18.809  1.00  0.00     0.039 A 
ATOM      6  C   UNL     1      16.512  17.193  19.026  1.00  0.00     0.072 A 
ATOM      7  C   UNL     1      15.628  17.156  17.933  1.00  0.00     0.169 A 
ATOM      8  C   UNL     1      16.116  17.278  16.619  1.00  0.00     0.162 A 
ATOM      9  C   UNL     1      17.506  17.263  16.372  1.00  0.00     0.008 A 
ATOM     10  C   UNL     1      18.791  17.739  19.884  1.00  0.00     0.132 A 
ATOM     11  C   UNL     1      20.168  17.925  19.639  1.00  0.00     0.031 A 
ENDROOT
BRANCH  11  12
ATOM     12  C   UNL     1      21.099  18.184  20.767  1.00  0.00     0.031 A 
ATOM     13  C   UNL     1      20.777  19.167  21.715  1.00  0.00     0.132 A 
ATOM     14  C   UNL     1      22.314  17.486  20.866  1.00  0.00    -0.039 A 
ATOM     15  C   UNL     1      21.628  19.387  22.834  1.00  0.00     0.039 A 
ATOM     16  C   UNL     1      23.241  17.863  21.842  1.00  0.00     0.013 A 
ATOM     17  C   UNL     1      22.669  16.400  19.881  1.00  0.00     0.045 C 
ATOM     18  C   UNL     1      22.952  18.865  22.790  1.00  0.00    -0.006 A 
ATOM     19  C   UNL     1      21.209  20.103  23.988  1.00  0.00     0.072 A 
ATOM     20  C   UNL     1      23.935  19.339  23.713  1.00  0.00     0.008 A 
ATOM     21  C   UNL     1      22.150  20.459  24.965  1.00  0.00     0.169 A 
ATOM     22  C   UNL     1      23.493  20.082  24.841  1.00  0.00     0.162 A 
BRANCH  13  23
ATOM     23  O   UNL     1      19.650  19.960  21.469  1.00  0.00    -0.507 OA
ATOM     24  H   UNL     1      19.365  20.233  20.538  1.00  0.00     0.293 HD
ENDBRANCH  13  23
BRANCH  19  25
ATOM     25  C   UNL     1      19.781  20.319  24.322  1.00  0.00     0.264 C 
ATOM     26  O   UNL     1      19.445  21.038  25.301  1.00  0.00    -0.298 OA
ENDBRANCH  19  25
BRANCH  20  27
ATOM     27  C   UNL     1      25.449  19.175  23.486  1.00  0.00     0.017 C 
ATOM     28  C   UNL     1      25.910  17.722  23.658  1.00  0.00     0.012 C 
ATOM     29  C   UNL     1      25.976  19.812  22.183  1.00  0.00     0.012 C 
ENDBRANCH  20  27
BRANCH  21  30
ATOM     30  O   UNL     1      21.726  21.171  26.093  1.00  0.00    -0.504 OA
ATOM     31  H   UNL     1      22.233  21.165  26.969  1.00  0.00     0.293 HD
ENDBRANCH  21  30
BRANCH  22  32
ATOM     32  O   UNL     1      24.358  20.430  25.885  1.00  0.00    -0.504 OA
ATOM     33  H   UNL     1      24.725  19.776  26.562  1.00  0.00     0.293 HD
ENDBRANCH  22  32
ENDBRANCH  11  12
BRANCH  10  34
ATOM     34  O   UNL     1      18.303  17.890  21.187  1.00  0.00    -0.507 OA
ATOM     35  H   UNL     1      18.637  17.359  21.981  1.00  0.00     0.293 HD
ENDBRANCH  10  34
BRANCH   9  36
ATOM     36  C   UNL     1      18.021  17.078  14.934  1.00  0.00     0.017 C 
ATOM     37  C   UNL     1      17.882  18.375  14.130  1.00  0.00     0.012 C 
ATOM     38  C   UNL     1      17.380  15.889  14.191  1.00  0.00     0.012 C 
ENDBRANCH   9  36
BRANCH   6  39
ATOM     39  C   UNL     1      15.974  16.864  20.369  1.00  0.00     0.264 C 
ATOM     40  O   UNL     1      15.491  15.729  20.619  1.00  0.00    -0.298 OA
ENDBRANCH   6  39
BRANCH   8  41
ATOM     41  O   UNL     1      15.233  17.427  15.546  1.00  0.00    -0.504 OA
ATOM     42  H   UNL     1      14.631  16.692  15.203  1.00  0.00     0.293 HD
ENDBRANCH   8  41
BRANCH   7  43
ATOM     43  O   UNL     1      14.266  16.941  18.173  1.00  0.00    -0.504 OA
ATOM     44  H   UNL     1      13.907  16.270  18.838  1.00  0.00     0.293 HD
ENDBRANCH   7  43
TORSDOF 11
ENDMDL
