MODEL 1
REMARK VINA RESULT:    -4.031      0.000      0.000
REMARK INTER + INTRA:          -8.088
REMARK INTER:                  -7.094
REMARK INTRA:                  -0.994
REMARK UNBOUND:                -0.994
REMARK SMILES CCCCCCC=CCCCCCCCC(=O)[O-]
REMARK SMILES IDX 10 1 11 2 12 3 13 4 14 5 15 6 16 7 17 8 18 9 9 10 8 11 7 12
REMARK SMILES IDX 6 13 5 14 4 15 3 16 2 17 1 18
REMARK H PARENT
REMARK Flexibility Score: inf
ROOT
ATOM      1  C   UNL     1      12.523   1.239 -17.612  1.00  0.00     0.004 C 
ENDROOT
BRANCH   1   2
ATOM      2  C   UNL     1      11.437   0.161 -17.438  1.00  0.00     0.000 C 
BRANCH   2   3
ATOM      3  C   UNL     1      10.310   0.201 -18.487  1.00  0.00     0.000 C 
BRANCH   3   4
ATOM      4  C   UNL     1      10.031  -1.164 -19.151  1.00  0.00     0.000 C 
BRANCH   4   5
ATOM      5  C   UNL     1      11.250  -1.704 -19.913  1.00  0.00     0.006 C 
BRANCH   5   6
ATOM      6  C   UNL     1      11.408  -1.005 -21.266  1.00  0.00     0.053 C 
BRANCH   6   7
ATOM      7  C   UNL     1      12.768  -1.261 -21.834  1.00  0.00     0.041 C 
ATOM      8  O   UNL     1      12.890  -1.720 -23.000  1.00  0.00    -0.550 OA
ATOM      9  O   UNL     1      13.901  -0.947 -21.096  1.00  0.00    -0.550 OA
ENDBRANCH   6   7
ENDBRANCH   5   6
ENDBRANCH   4   5
ENDBRANCH   3   4
ENDBRANCH   2   3
ENDBRANCH   1   2
BRANCH   1  10
ATOM     10  C   UNL     1      12.757   1.671 -19.068  1.00  0.00     0.027 C 
BRANCH  10  11
ATOM     11  C   UNL     1      12.899   3.165 -19.188  1.00  0.00    -0.031 C 
ATOM     12  C   UNL     1      13.339   3.743 -20.316  1.00  0.00    -0.031 C 
BRANCH  12  13
ATOM     13  C   UNL     1      13.422   5.238 -20.452  1.00  0.00     0.027 C 
BRANCH  13  14
ATOM     14  C   UNL     1      14.881   5.716 -20.439  1.00  0.00     0.004 C 
BRANCH  14  15
ATOM     15  C   UNL     1      15.585   5.519 -21.792  1.00  0.00     0.000 C 
BRANCH  15  16
ATOM     16  C   UNL     1      17.122   5.430 -21.684  1.00  0.00    -0.000 C 
BRANCH  16  17
ATOM     17  C   UNL     1      17.792   5.251 -23.054  1.00  0.00    -0.003 C 
ATOM     18  C   UNL     1      16.792   4.764 -24.098  1.00  0.00     0.004 C 
ENDBRANCH  16  17
ENDBRANCH  15  16
ENDBRANCH  14  15
ENDBRANCH  13  14
ENDBRANCH  12  13
ENDBRANCH  10  11
ENDBRANCH   1  10
TORSDOF 13
ENDMDL
MODEL 2
REMARK VINA RESULT:    -3.984      2.580      7.100
REMARK INTER + INTRA:          -8.005
REMARK INTER:                  -6.797
REMARK INTRA:                  -1.208
REMARK UNBOUND:                -0.994
REMARK SMILES CCCCCCC=CCCCCCCCC(=O)[O-]
REMARK SMILES IDX 10 1 11 2 12 3 13 4 14 5 15 6 16 7 17 8 18 9 9 10 8 11 7 12
REMARK SMILES IDX 6 13 5 14 4 15 3 16 2 17 1 18
REMARK H PARENT
REMARK Flexibility Score: inf
ROOT
ATOM      1  C   UNL     1      12.962   2.652 -19.634  1.00  0.00     0.004 C 
ENDROOT
BRANCH   1   2
ATOM      2  C   UNL     1      13.023   4.156 -19.964  1.00  0.00     0.000 C 
BRANCH   2   3
ATOM      3  C   UNL     1      14.173   4.568 -20.901  1.00  0.00     0.000 C 
BRANCH   3   4
ATOM      4  C   UNL     1      14.968   5.795 -20.407  1.00  0.00     0.000 C 
BRANCH   4   5
ATOM      5  C   UNL     1      16.257   6.020 -21.210  1.00  0.00     0.006 C 
BRANCH   5   6
ATOM      6  C   UNL     1      15.996   5.897 -22.715  1.00  0.00     0.053 C 
BRANCH   6   7
ATOM      7  C   UNL     1      17.106   5.146 -23.380  1.00  0.00     0.041 C 
ATOM      8  O   UNL     1      18.212   5.003 -22.796  1.00  0.00    -0.550 OA
ATOM      9  O   UNL     1      16.902   4.562 -24.624  1.00  0.00    -0.550 OA
ENDBRANCH   6   7
ENDBRANCH   5   6
ENDBRANCH   4   5
ENDBRANCH   3   4
ENDBRANCH   2   3
ENDBRANCH   1   2
BRANCH   1  10
ATOM     10  C   UNL     1      12.980   2.334 -18.131  1.00  0.00     0.027 C 
BRANCH  10  11
ATOM     11  C   UNL     1      12.217   1.075 -17.820  1.00  0.00    -0.031 C 
ATOM     12  C   UNL     1      11.028   0.814 -18.384  1.00  0.00    -0.031 C 
BRANCH  12  13
ATOM     13  C   UNL     1      10.296  -0.473 -18.117  1.00  0.00     0.027 C 
BRANCH  13  14
ATOM     14  C   UNL     1      10.018  -1.233 -19.422  1.00  0.00     0.004 C 
BRANCH  14  15
ATOM     15  C   UNL     1      11.297  -1.780 -20.078  1.00  0.00     0.000 C 
BRANCH  15  16
ATOM     16  C   UNL     1      11.452  -1.382 -21.561  1.00  0.00    -0.000 C 
BRANCH  16  17
ATOM     17  C   UNL     1      12.921  -1.160 -21.952  1.00  0.00    -0.003 C 
ATOM     18  C   UNL     1      13.770  -0.810 -20.734  1.00  0.00     0.004 C 
ENDBRANCH  16  17
ENDBRANCH  15  16
ENDBRANCH  14  15
ENDBRANCH  13  14
ENDBRANCH  12  13
ENDBRANCH  10  11
ENDBRANCH   1  10
TORSDOF 13
ENDMDL
MODEL 3
REMARK VINA RESULT:    -3.629      2.187      3.184
REMARK INTER + INTRA:          -7.381
REMARK INTER:                  -6.344
REMARK INTRA:                  -1.037
REMARK UNBOUND:                -0.994
REMARK SMILES CCCCCCC=CCCCCCCCC(=O)[O-]
REMARK SMILES IDX 10 1 11 2 12 3 13 4 14 5 15 6 16 7 17 8 18 9 9 10 8 11 7 12
REMARK SMILES IDX 6 13 5 14 4 15 3 16 2 17 1 18
REMARK H PARENT
REMARK Flexibility Score: inf
ROOT
ATOM      1  C   UNL     1      12.238  -0.186 -21.684  1.00  0.00     0.004 C 
ENDROOT
BRANCH   1   2
ATOM      2  C   UNL     1      11.982  -1.611 -21.159  1.00  0.00     0.000 C 
BRANCH   2   3
ATOM      3  C   UNL     1      11.601  -1.695 -19.669  1.00  0.00     0.000 C 
BRANCH   3   4
ATOM      4  C   UNL     1      10.225  -1.078 -19.344  1.00  0.00     0.000 C 
BRANCH   4   5
ATOM      5  C   UNL     1      10.254  -0.222 -18.069  1.00  0.00     0.006 C 
BRANCH   5   6
ATOM      6  C   UNL     1      11.287   0.903 -18.186  1.00  0.00     0.053 C 
BRANCH   6   7
ATOM      7  C   UNL     1      12.171   0.931 -16.979  1.00  0.00     0.041 C 
ATOM      8  O   UNL     1      11.942   0.161 -16.010  1.00  0.00    -0.550 OA
ATOM      9  O   UNL     1      13.277   1.770 -16.946  1.00  0.00    -0.550 OA
ENDBRANCH   6   7
ENDBRANCH   5   6
ENDBRANCH   4   5
ENDBRANCH   3   4
ENDBRANCH   2   3
ENDBRANCH   1   2
BRANCH   1  10
ATOM     10  C   UNL     1      13.240   0.625 -20.847  1.00  0.00     0.027 C 
BRANCH  10  11
ATOM     11  C   UNL     1      13.166   2.094 -21.163  1.00  0.00    -0.031 C 
ATOM     12  C   UNL     1      13.189   3.025 -20.198  1.00  0.00    -0.031 C 
BRANCH  12  13
ATOM     13  C   UNL     1      13.175   4.494 -20.521  1.00  0.00     0.027 C 
BRANCH  13  14
ATOM     14  C   UNL     1      14.511   5.155 -20.153  1.00  0.00     0.004 C 
BRANCH  14  15
ATOM     15  C   UNL     1      15.200   5.817 -21.358  1.00  0.00     0.000 C 
BRANCH  15  16
ATOM     16  C   UNL     1      16.742   5.775 -21.290  1.00  0.00    -0.000 C 
BRANCH  16  17
ATOM     17  C   UNL     1      17.378   5.545 -22.669  1.00  0.00    -0.003 C 
ATOM     18  C   UNL     1      16.544   4.583 -23.508  1.00  0.00     0.004 C 
ENDBRANCH  16  17
ENDBRANCH  15  16
ENDBRANCH  14  15
ENDBRANCH  13  14
ENDBRANCH  12  13
ENDBRANCH  10  11
ENDBRANCH   1  10
TORSDOF 13
ENDMDL
MODEL 4
REMARK VINA RESULT:    -3.585      2.823      6.846
REMARK INTER + INTRA:          -7.304
REMARK INTER:                  -6.180
REMARK INTRA:                  -1.124
REMARK UNBOUND:                -0.994
REMARK SMILES CCCCCCC=CCCCCCCCC(=O)[O-]
REMARK SMILES IDX 10 1 11 2 12 3 13 4 14 5 15 6 16 7 17 8 18 9 9 10 8 11 7 12
REMARK SMILES IDX 6 13 5 14 4 15 3 16 2 17 1 18
REMARK H PARENT
REMARK Flexibility Score: inf
ROOT
ATOM      1  C   UNL     1      12.819   2.146 -17.596  1.00  0.00     0.004 C 
ENDROOT
BRANCH   1   2
ATOM      2  C   UNL     1      12.940   2.391 -19.112  1.00  0.00     0.000 C 
BRANCH   2   3
ATOM      3  C   UNL     1      12.879   3.870 -19.537  1.00  0.00     0.000 C 
BRANCH   3   4
ATOM      4  C   UNL     1      13.915   4.249 -20.615  1.00  0.00     0.000 C 
BRANCH   4   5
ATOM      5  C   UNL     1      14.144   5.766 -20.700  1.00  0.00     0.006 C 
BRANCH   5   6
ATOM      6  C   UNL     1      15.627   6.108 -20.536  1.00  0.00     0.053 C 
BRANCH   6   7
ATOM      7  C   UNL     1      16.368   5.857 -21.812  1.00  0.00     0.041 C 
ATOM      8  O   UNL     1      17.524   5.362 -21.785  1.00  0.00    -0.550 OA
ATOM      9  O   UNL     1      15.761   6.125 -23.032  1.00  0.00    -0.550 OA
ENDBRANCH   6   7
ENDBRANCH   5   6
ENDBRANCH   4   5
ENDBRANCH   3   4
ENDBRANCH   2   3
ENDBRANCH   1   2
BRANCH   1  10
ATOM     10  C   UNL     1      12.152   0.812 -17.223  1.00  0.00     0.027 C 
BRANCH  10  11
ATOM     11  C   UNL     1      11.518   0.155 -18.419  1.00  0.00    -0.031 C 
ATOM     12  C   UNL     1      10.309  -0.420 -18.349  1.00  0.00    -0.031 C 
BRANCH  12  13
ATOM     13  C   UNL     1       9.653  -1.023 -19.561  1.00  0.00     0.027 C 
BRANCH  13  14
ATOM     14  C   UNL     1      10.578  -2.041 -20.243  1.00  0.00     0.004 C 
BRANCH  14  15
ATOM     15  C   UNL     1      10.702  -1.813 -21.759  1.00  0.00     0.000 C 
BRANCH  15  16
ATOM     16  C   UNL     1      12.140  -1.500 -22.223  1.00  0.00    -0.000 C 
BRANCH  16  17
ATOM     17  C   UNL     1      12.734  -0.286 -21.494  1.00  0.00    -0.003 C 
ATOM     18  C   UNL     1      14.003  -0.663 -20.736  1.00  0.00     0.004 C 
ENDBRANCH  16  17
ENDBRANCH  15  16
ENDBRANCH  14  15
ENDBRANCH  13  14
ENDBRANCH  12  13
ENDBRANCH  10  11
ENDBRANCH   1  10
TORSDOF 13
ENDMDL
MODEL 5
REMARK VINA RESULT:    -3.351      3.218      6.750
REMARK INTER + INTRA:          -6.893
REMARK INTER:                  -5.817
REMARK INTRA:                  -1.076
REMARK UNBOUND:                -0.994
REMARK SMILES CCCCCCC=CCCCCCCCC(=O)[O-]
REMARK SMILES IDX 10 1 11 2 12 3 13 4 14 5 15 6 16 7 17 8 18 9 9 10 8 11 7 12
REMARK SMILES IDX 6 13 5 14 4 15 3 16 2 17 1 18
REMARK H PARENT
REMARK Flexibility Score: inf
ROOT
ATOM      1  C   UNL     1      12.622  -1.516 -22.628  1.00  0.00     0.004 C 
ENDROOT
BRANCH   1   2
ATOM      2  C   UNL     1      13.278  -1.344 -21.245  1.00  0.00     0.000 C 
BRANCH   2   3
ATOM      3  C   UNL     1      13.891   0.044 -20.985  1.00  0.00     0.000 C 
BRANCH   3   4
ATOM      4  C   UNL     1      12.843   1.161 -20.798  1.00  0.00     0.000 C 
BRANCH   4   5
ATOM      5  C   UNL     1      13.409   2.554 -21.111  1.00  0.00     0.006 C 
BRANCH   5   6
ATOM      6  C   UNL     1      13.093   3.542 -19.984  1.00  0.00     0.053 C 
BRANCH   6   7
ATOM      7  C   UNL     1      13.429   4.939 -20.401  1.00  0.00     0.041 C 
ATOM      8  O   UNL     1      12.510   5.769 -20.630  1.00  0.00    -0.550 OA
ATOM      9  O   UNL     1      14.756   5.338 -20.490  1.00  0.00    -0.550 OA
ENDBRANCH   6   7
ENDBRANCH   5   6
ENDBRANCH   4   5
ENDBRANCH   3   4
ENDBRANCH   2   3
ENDBRANCH   1   2
BRANCH   1  10
ATOM     10  C   UNL     1      11.166  -2.006 -22.580  1.00  0.00     0.027 C 
BRANCH  10  11
ATOM     11  C   UNL     1      10.440  -1.472 -21.374  1.00  0.00    -0.031 C 
ATOM     12  C   UNL     1      10.271  -2.211 -20.268  1.00  0.00    -0.031 C 
BRANCH  12  13
ATOM     13  C   UNL     1       9.597  -1.653 -19.045  1.00  0.00     0.027 C 
BRANCH  13  14
ATOM     14  C   UNL     1      10.118  -0.247 -18.718  1.00  0.00     0.004 C 
BRANCH  14  15
ATOM     15  C   UNL     1      11.504  -0.263 -18.052  1.00  0.00     0.000 C 
BRANCH  15  16
ATOM     16  C   UNL     1      11.489   0.190 -16.577  1.00  0.00    -0.000 C 
BRANCH  16  17
ATOM     17  C   UNL     1      12.774   0.934 -16.184  1.00  0.00    -0.003 C 
ATOM     18  C   UNL     1      13.152   1.975 -17.232  1.00  0.00     0.004 C 
ENDBRANCH  16  17
ENDBRANCH  15  16
ENDBRANCH  14  15
ENDBRANCH  13  14
ENDBRANCH  12  13
ENDBRANCH  10  11
ENDBRANCH   1  10
TORSDOF 13
ENDMDL
MODEL 6
REMARK VINA RESULT:    -3.168      2.847      7.074
REMARK INTER + INTRA:          -6.569
REMARK INTER:                  -5.190
REMARK INTRA:                  -1.379
REMARK UNBOUND:                -0.994
REMARK SMILES CCCCCCC=CCCCCCCCC(=O)[O-]
REMARK SMILES IDX 10 1 11 2 12 3 13 4 14 5 15 6 16 7 17 8 18 9 9 10 8 11 7 12
REMARK SMILES IDX 6 13 5 14 4 15 3 16 2 17 1 18
REMARK H PARENT
REMARK Flexibility Score: inf
ROOT
ATOM      1  C   UNL     1      13.681   0.089 -21.011  1.00  0.00     0.004 C 
ENDROOT
BRANCH   1   2
ATOM      2  C   UNL     1      12.865   1.382 -20.825  1.00  0.00     0.000 C 
BRANCH   2   3
ATOM      3  C   UNL     1      13.639   2.684 -21.103  1.00  0.00     0.000 C 
BRANCH   3   4
ATOM      4  C   UNL     1      13.299   3.830 -20.128  1.00  0.00     0.000 C 
BRANCH   4   5
ATOM      5  C   UNL     1      13.611   5.213 -20.718  1.00  0.00     0.006 C 
BRANCH   5   6
ATOM      6  C   UNL     1      15.004   5.689 -20.295  1.00  0.00     0.053 C 
BRANCH   6   7
ATOM      7  C   UNL     1      15.908   5.788 -21.483  1.00  0.00     0.041 C 
ATOM      8  O   UNL     1      15.441   6.104 -22.609  1.00  0.00    -0.550 OA
ATOM      9  O   UNL     1      17.273   5.580 -21.337  1.00  0.00    -0.550 OA
ENDBRANCH   6   7
ENDBRANCH   5   6
ENDBRANCH   4   5
ENDBRANCH   3   4
ENDBRANCH   2   3
ENDBRANCH   1   2
BRANCH   1  10
ATOM     10  C   UNL     1      12.980  -0.983 -21.861  1.00  0.00     0.027 C 
BRANCH  10  11
ATOM     11  C   UNL     1      11.591  -1.271 -21.357  1.00  0.00    -0.031 C 
ATOM     12  C   UNL     1      11.374  -1.744 -20.121  1.00  0.00    -0.031 C 
BRANCH  12  13
ATOM     13  C   UNL     1       9.982  -1.975 -19.600  1.00  0.00     0.027 C 
BRANCH  13  14
ATOM     14  C   UNL     1       9.732  -1.175 -18.313  1.00  0.00     0.004 C 
BRANCH  14  15
ATOM     15  C   UNL     1      10.556   0.121 -18.247  1.00  0.00     0.000 C 
BRANCH  15  16
ATOM     16  C   UNL     1      11.382   0.266 -16.951  1.00  0.00    -0.000 C 
BRANCH  16  17
ATOM     17  C   UNL     1      12.864   0.551 -17.236  1.00  0.00    -0.003 C 
ATOM     18  C   UNL     1      13.170   2.041 -17.128  1.00  0.00     0.004 C 
ENDBRANCH  16  17
ENDBRANCH  15  16
ENDBRANCH  14  15
ENDBRANCH  13  14
ENDBRANCH  12  13
ENDBRANCH  10  11
ENDBRANCH   1  10
TORSDOF 13
ENDMDL
MODEL 7
REMARK VINA RESULT:    -3.149      2.909      7.754
REMARK INTER + INTRA:          -6.537
REMARK INTER:                  -5.460
REMARK INTRA:                  -1.077
REMARK UNBOUND:                -0.994
REMARK SMILES CCCCCCC=CCCCCCCCC(=O)[O-]
REMARK SMILES IDX 10 1 11 2 12 3 13 4 14 5 15 6 16 7 17 8 18 9 9 10 8 11 7 12
REMARK SMILES IDX 6 13 5 14 4 15 3 16 2 17 1 18
REMARK H PARENT
REMARK Flexibility Score: inf
ROOT
ATOM      1  C   UNL     1      12.893   3.874 -20.614  1.00  0.00     0.004 C 
ENDROOT
BRANCH   1   2
ATOM      2  C   UNL     1      13.644   5.128 -20.128  1.00  0.00     0.000 C 
BRANCH   2   3
ATOM      3  C   UNL     1      14.639   5.723 -21.142  1.00  0.00     0.000 C 
BRANCH   3   4
ATOM      4  C   UNL     1      16.009   6.083 -20.529  1.00  0.00     0.000 C 
BRANCH   4   5
ATOM      5  C   UNL     1      17.162   5.899 -21.526  1.00  0.00     0.006 C 
BRANCH   5   6
ATOM      6  C   UNL     1      16.710   5.089 -22.745  1.00  0.00     0.053 C 
BRANCH   6   7
ATOM      7  C   UNL     1      17.617   5.342 -23.908  1.00  0.00     0.041 C 
ATOM      8  O   UNL     1      18.791   5.755 -23.717  1.00  0.00    -0.550 OA
ATOM      9  O   UNL     1      17.183   5.074 -25.200  1.00  0.00    -0.550 OA
ENDBRANCH   6   7
ENDBRANCH   5   6
ENDBRANCH   4   5
ENDBRANCH   3   4
ENDBRANCH   2   3
ENDBRANCH   1   2
BRANCH   1  10
ATOM     10  C   UNL     1      13.226   2.595 -19.830  1.00  0.00     0.027 C 
BRANCH  10  11
ATOM     11  C   UNL     1      12.760   1.361 -20.556  1.00  0.00    -0.031 C 
ATOM     12  C   UNL     1      13.580   0.325 -20.784  1.00  0.00    -0.031 C 
BRANCH  12  13
ATOM     13  C   UNL     1      13.095  -0.929 -21.457  1.00  0.00     0.027 C 
BRANCH  13  14
ATOM     14  C   UNL     1      11.602  -1.162 -21.186  1.00  0.00     0.004 C 
BRANCH  14  15
ATOM     15  C   UNL     1      11.340  -1.819 -19.820  1.00  0.00     0.000 C 
BRANCH  15  16
ATOM     16  C   UNL     1      10.044  -1.332 -19.137  1.00  0.00    -0.000 C 
BRANCH  16  17
ATOM     17  C   UNL     1      10.203   0.065 -18.518  1.00  0.00    -0.003 C 
ATOM     18  C   UNL     1      11.375   0.107 -17.544  1.00  0.00     0.004 C 
ENDBRANCH  16  17
ENDBRANCH  15  16
ENDBRANCH  14  15
ENDBRANCH  13  14
ENDBRANCH  12  13
ENDBRANCH  10  11
ENDBRANCH   1  10
TORSDOF 13
ENDMDL
MODEL 8
REMARK VINA RESULT:    -2.816      1.994      2.740
REMARK INTER + INTRA:          -5.950
REMARK INTER:                  -5.071
REMARK INTRA:                  -0.880
REMARK UNBOUND:                -0.994
REMARK SMILES CCCCCCC=CCCCCCCCC(=O)[O-]
REMARK SMILES IDX 10 1 11 2 12 3 13 4 14 5 15 6 16 7 17 8 18 9 9 10 8 11 7 12
REMARK SMILES IDX 6 13 5 14 4 15 3 16 2 17 1 18
REMARK H PARENT
REMARK Flexibility Score: inf
ROOT
ATOM      1  C   UNL     1      13.254   1.073 -21.172  1.00  0.00     0.004 C 
ENDROOT
BRANCH   1   2
ATOM      2  C   UNL     1      13.830  -0.246 -20.624  1.00  0.00     0.000 C 
BRANCH   2   3
ATOM      3  C   UNL     1      12.850  -1.435 -20.635  1.00  0.00     0.000 C 
BRANCH   3   4
ATOM      4  C   UNL     1      11.491  -1.115 -21.292  1.00  0.00     0.000 C 
BRANCH   4   5
ATOM      5  C   UNL     1      10.313  -1.747 -20.537  1.00  0.00     0.006 C 
BRANCH   5   6
ATOM      6  C   UNL     1      10.560  -1.736 -19.025  1.00  0.00     0.053 C 
BRANCH   6   7
ATOM      7  C   UNL     1      10.578  -0.332 -18.506  1.00  0.00     0.041 C 
ATOM      8  O   UNL     1       9.624   0.448 -18.760  1.00  0.00    -0.550 OA
ATOM      9  O   UNL     1      11.625   0.098 -17.701  1.00  0.00    -0.550 OA
ENDBRANCH   6   7
ENDBRANCH   5   6
ENDBRANCH   4   5
ENDBRANCH   3   4
ENDBRANCH   2   3
ENDBRANCH   1   2
BRANCH   1  10
ATOM     10  C   UNL     1      12.906   2.108 -20.089  1.00  0.00     0.027 C 
BRANCH  10  11
ATOM     11  C   UNL     1      13.029   3.516 -20.607  1.00  0.00    -0.031 C 
ATOM     12  C   UNL     1      13.622   4.481 -19.890  1.00  0.00    -0.031 C 
BRANCH  12  13
ATOM     13  C   UNL     1      13.796   5.872 -20.435  1.00  0.00     0.027 C 
BRANCH  13  14
ATOM     14  C   UNL     1      14.838   5.900 -21.562  1.00  0.00     0.004 C 
BRANCH  14  15
ATOM     15  C   UNL     1      16.282   5.789 -21.042  1.00  0.00     0.000 C 
BRANCH  15  16
ATOM     16  C   UNL     1      17.348   5.844 -22.157  1.00  0.00    -0.000 C 
BRANCH  16  17
ATOM     17  C   UNL     1      16.732   6.122 -23.537  1.00  0.00    -0.003 C 
ATOM     18  C   UNL     1      16.936   4.942 -24.481  1.00  0.00     0.004 C 
ENDBRANCH  16  17
ENDBRANCH  15  16
ENDBRANCH  14  15
ENDBRANCH  13  14
ENDBRANCH  12  13
ENDBRANCH  10  11
ENDBRANCH   1  10
TORSDOF 13
ENDMDL
MODEL 9
REMARK VINA RESULT:    -2.801      2.977      6.564
REMARK INTER + INTRA:          -5.923
REMARK INTER:                  -4.416
REMARK INTRA:                  -1.507
REMARK UNBOUND:                -0.994
REMARK SMILES CCCCCCC=CCCCCCCCC(=O)[O-]
REMARK SMILES IDX 10 1 11 2 12 3 13 4 14 5 15 6 16 7 17 8 18 9 9 10 8 11 7 12
REMARK SMILES IDX 6 13 5 14 4 15 3 16 2 17 1 18
REMARK H PARENT
REMARK Flexibility Score: inf
ROOT
ATOM      1  C   UNL     1      11.775   0.548 -16.950  1.00  0.00     0.004 C 
ENDROOT
BRANCH   1   2
ATOM      2  C   UNL     1      12.863   1.561 -17.353  1.00  0.00     0.000 C 
BRANCH   2   3
ATOM      3  C   UNL     1      12.797   2.037 -18.817  1.00  0.00     0.000 C 
BRANCH   3   4
ATOM      4  C   UNL     1      13.222   3.507 -19.012  1.00  0.00     0.000 C 
BRANCH   4   5
ATOM      5  C   UNL     1      13.216   3.927 -20.488  1.00  0.00     0.006 C 
BRANCH   5   6
ATOM      6  C   UNL     1      13.335   5.448 -20.628  1.00  0.00     0.053 C 
BRANCH   6   7
ATOM      7  C   UNL     1      14.733   5.833 -20.997  1.00  0.00     0.041 C 
ATOM      8  O   UNL     1      15.637   5.849 -20.121  1.00  0.00    -0.550 OA
ATOM      9  O   UNL     1      15.048   6.125 -22.318  1.00  0.00    -0.550 OA
ENDBRANCH   6   7
ENDBRANCH   5   6
ENDBRANCH   4   5
ENDBRANCH   3   4
ENDBRANCH   2   3
ENDBRANCH   1   2
BRANCH   1  10
ATOM     10  C   UNL     1      10.569   0.504 -17.903  1.00  0.00     0.027 C 
BRANCH  10  11
ATOM     11  C   UNL     1      10.415  -0.851 -18.542  1.00  0.00    -0.031 C 
ATOM     12  C   UNL     1       9.878  -0.998 -19.762  1.00  0.00    -0.031 C 
BRANCH  12  13
ATOM     13  C   UNL     1       9.780  -2.347 -20.420  1.00  0.00     0.027 C 
BRANCH  13  14
ATOM     14  C   UNL     1      10.302  -2.298 -21.863  1.00  0.00     0.004 C 
BRANCH  14  15
ATOM     15  C   UNL     1      11.160  -1.053 -22.146  1.00  0.00     0.000 C 
BRANCH  15  16
ATOM     16  C   UNL     1      12.679  -1.322 -22.093  1.00  0.00    -0.000 C 
BRANCH  16  17
ATOM     17  C   UNL     1      13.406  -0.360 -21.141  1.00  0.00    -0.003 C 
ATOM     18  C   UNL     1      13.919  -1.090 -19.904  1.00  0.00     0.004 C 
ENDBRANCH  16  17
ENDBRANCH  15  16
ENDBRANCH  14  15
ENDBRANCH  13  14
ENDBRANCH  12  13
ENDBRANCH  10  11
ENDBRANCH   1  10
TORSDOF 13
ENDMDL
