MODEL 1
REMARK VINA RESULT:    -5.466      0.000      0.000
REMARK INTER + INTRA:          -8.267
REMARK INTER:                  -6.744
REMARK INTRA:                  -1.523
REMARK UNBOUND:                -1.523
REMARK SMILES CC(C)=CCC[C@@H](C)c1ccc(C)cc1
REMARK SMILES IDX 6 1 7 2 8 3 9 4 13 5 12 6 11 7 14 8 10 9 15 10 5 11 4 12
REMARK SMILES IDX 2 13 1 14 3 15
REMARK H PARENT
REMARK Flexibility Score: inf
ROOT
ATOM      1  C   UNL     1      -0.982  -9.644  27.869  1.00  0.00     0.012 C 
ENDROOT
BRANCH   1   2
ATOM      2  C   UNL     1      -1.579  -8.583  26.912  1.00  0.00     0.016 C 
ATOM      3  C   UNL     1      -3.112  -8.517  26.976  1.00  0.00     0.013 C 
BRANCH   2   4
ATOM      4  C   UNL     1      -0.981  -7.218  27.201  1.00  0.00    -0.045 A 
ATOM      5  C   UNL     1       0.750  -3.344  28.006  1.00  0.00     0.044 C 
ATOM      6  C   UNL     1       0.148  -4.694  27.757  1.00  0.00    -0.051 A 
ATOM      7  C   UNL     1       0.972  -5.812  27.571  1.00  0.00     0.004 A 
ATOM      8  C   UNL     1      -1.242  -4.836  27.642  1.00  0.00     0.004 A 
ATOM      9  C   UNL     1       0.413  -7.066  27.302  1.00  0.00     0.004 A 
ATOM     10  C   UNL     1      -1.803  -6.089  27.373  1.00  0.00     0.004 A 
ENDBRANCH   2   4
ENDBRANCH   1   2
BRANCH   1  11
ATOM     11  C   UNL     1      -1.634  -9.660  29.265  1.00  0.00     0.028 C 
BRANCH  11  12
ATOM     12  C   UNL     1      -0.990  -8.680  30.219  1.00  0.00    -0.028 C 
ATOM     13  C   UNL     1      -1.659  -7.657  30.790  1.00  0.00    -0.080 C 
ATOM     14  C   UNL     1      -0.919  -6.741  31.730  1.00  0.00     0.039 C 
ATOM     15  C   UNL     1      -3.123  -7.415  30.507  1.00  0.00     0.039 C 
ENDBRANCH  11  12
ENDBRANCH   1  11
TORSDOF 4
ENDMDL
MODEL 2
REMARK VINA RESULT:    -5.318      0.970      1.440
REMARK INTER + INTRA:          -8.084
REMARK INTER:                  -6.633
REMARK INTRA:                  -1.452
REMARK UNBOUND:                -1.523
REMARK SMILES CC(C)=CCC[C@@H](C)c1ccc(C)cc1
REMARK SMILES IDX 6 1 7 2 8 3 9 4 13 5 12 6 11 7 14 8 10 9 15 10 5 11 4 12
REMARK SMILES IDX 2 13 1 14 3 15
REMARK H PARENT
REMARK Flexibility Score: inf
ROOT
ATOM      1  C   UNL     1      -3.361  -8.818  28.175  1.00  0.00     0.012 C 
ENDROOT
BRANCH   1   2
ATOM      2  C   UNL     1      -2.138  -8.780  27.227  1.00  0.00     0.016 C 
ATOM      3  C   UNL     1      -2.521  -8.966  25.752  1.00  0.00     0.013 C 
BRANCH   2   4
ATOM      4  C   UNL     1      -1.369  -7.484  27.412  1.00  0.00    -0.045 A 
ATOM      5  C   UNL     1       0.846  -3.811  27.923  1.00  0.00     0.044 C 
ATOM      6  C   UNL     1       0.076  -5.089  27.776  1.00  0.00    -0.051 A 
ATOM      7  C   UNL     1       0.751  -6.310  27.643  1.00  0.00     0.004 A 
ATOM      8  C   UNL     1      -1.324  -5.066  27.704  1.00  0.00     0.004 A 
ATOM      9  C   UNL     1       0.035  -7.499  27.470  1.00  0.00     0.004 A 
ATOM     10  C   UNL     1      -2.042  -6.253  27.530  1.00  0.00     0.004 A 
ENDBRANCH   2   4
ENDBRANCH   1   2
BRANCH   1  11
ATOM     11  C   UNL     1      -2.995  -9.054  29.653  1.00  0.00     0.028 C 
BRANCH  11  12
ATOM     12  C   UNL     1      -3.459  -7.931  30.554  1.00  0.00    -0.028 C 
ATOM     13  C   UNL     1      -2.610  -7.104  31.199  1.00  0.00    -0.080 C 
ATOM     14  C   UNL     1      -3.180  -6.016  32.071  1.00  0.00     0.039 C 
ATOM     15  C   UNL     1      -1.112  -7.248  31.065  1.00  0.00     0.039 C 
ENDBRANCH  11  12
ENDBRANCH   1  11
TORSDOF 4
ENDMDL
MODEL 3
REMARK VINA RESULT:    -5.058     13.625     17.375
REMARK INTER + INTRA:          -7.764
REMARK INTER:                  -6.833
REMARK INTRA:                  -0.930
REMARK UNBOUND:                -1.523
REMARK SMILES CC(C)=CCC[C@@H](C)c1ccc(C)cc1
REMARK SMILES IDX 6 1 7 2 8 3 9 4 13 5 12 6 11 7 14 8 10 9 15 10 5 11 4 12
REMARK SMILES IDX 2 13 1 14 3 15
REMARK H PARENT
REMARK Flexibility Score: inf
ROOT
ATOM      1  C   UNL     1      10.145   6.582  35.309  1.00  0.00     0.012 C 
ENDROOT
BRANCH   1   2
ATOM      2  C   UNL     1      10.924   5.350  34.786  1.00  0.00     0.016 C 
ATOM      3  C   UNL     1      12.194   5.059  35.597  1.00  0.00     0.013 C 
BRANCH   2   4
ATOM      4  C   UNL     1      10.022   4.129  34.763  1.00  0.00    -0.045 A 
ATOM      5  C   UNL     1       7.485   0.634  34.698  1.00  0.00     0.044 C 
ATOM      6  C   UNL     1       8.354   1.856  34.694  1.00  0.00    -0.051 A 
ATOM      7  C   UNL     1       9.641   1.806  34.141  1.00  0.00     0.004 A 
ATOM      8  C   UNL     1       7.911   3.039  35.302  1.00  0.00     0.004 A 
ATOM      9  C   UNL     1      10.466   2.935  34.169  1.00  0.00     0.004 A 
ATOM     10  C   UNL     1       8.735   4.168  35.331  1.00  0.00     0.004 A 
ENDBRANCH   2   4
ENDBRANCH   1   2
BRANCH   1  11
ATOM     11  C   UNL     1       9.471   7.409  34.197  1.00  0.00     0.028 C 
BRANCH  11  12
ATOM     12  C   UNL     1       8.114   7.936  34.605  1.00  0.00    -0.028 C 
ATOM     13  C   UNL     1       6.957   7.481  34.079  1.00  0.00    -0.080 C 
ATOM     14  C   UNL     1       5.659   8.075  34.560  1.00  0.00     0.039 C 
ATOM     15  C   UNL     1       6.941   6.396  33.027  1.00  0.00     0.039 C 
ENDBRANCH  11  12
ENDBRANCH   1  11
TORSDOF 4
ENDMDL
MODEL 4
REMARK VINA RESULT:    -4.996     13.094     15.237
REMARK INTER + INTRA:          -7.687
REMARK INTER:                  -7.013
REMARK INTRA:                  -0.674
REMARK UNBOUND:                -1.523
REMARK SMILES CC(C)=CCC[C@@H](C)c1ccc(C)cc1
REMARK SMILES IDX 6 1 7 2 8 3 9 4 13 5 12 6 11 7 14 8 10 9 15 10 5 11 4 12
REMARK SMILES IDX 2 13 1 14 3 15
REMARK H PARENT
REMARK Flexibility Score: inf
ROOT
ATOM      1  C   UNL     1       5.155   7.755  31.666  1.00  0.00     0.012 C 
ENDROOT
BRANCH   1   2
ATOM      2  C   UNL     1       6.415   7.362  30.858  1.00  0.00     0.016 C 
ATOM      3  C   UNL     1       7.461   6.623  31.705  1.00  0.00     0.013 C 
BRANCH   2   4
ATOM      4  C   UNL     1       6.027   6.524  29.652  1.00  0.00    -0.045 A 
ATOM      5  C   UNL     1       4.913   4.118  26.244  1.00  0.00     0.044 C 
ATOM      6  C   UNL     1       5.329   4.952  27.418  1.00  0.00    -0.051 A 
ATOM      7  C   UNL     1       5.669   4.343  28.633  1.00  0.00     0.004 A 
ATOM      8  C   UNL     1       5.316   6.352  27.329  1.00  0.00     0.004 A 
ATOM      9  C   UNL     1       6.023   5.122  29.740  1.00  0.00     0.004 A 
ATOM     10  C   UNL     1       5.668   7.132  28.435  1.00  0.00     0.004 A 
ENDBRANCH   2   4
ENDBRANCH   1   2
BRANCH   1  11
ATOM     11  C   UNL     1       4.967   6.942  32.961  1.00  0.00     0.028 C 
BRANCH  11  12
ATOM     12  C   UNL     1       3.601   6.301  33.053  1.00  0.00    -0.028 C 
ATOM     13  C   UNL     1       2.680   6.656  33.974  1.00  0.00    -0.080 C 
ATOM     14  C   UNL     1       1.348   5.953  33.974  1.00  0.00     0.039 C 
ATOM     15  C   UNL     1       2.958   7.735  34.994  1.00  0.00     0.039 C 
ENDBRANCH  11  12
ENDBRANCH   1  11
TORSDOF 4
ENDMDL
MODEL 5
REMARK VINA RESULT:    -4.957     13.119     16.002
REMARK INTER + INTRA:          -7.639
REMARK INTER:                  -6.197
REMARK INTRA:                  -1.442
REMARK UNBOUND:                -1.523
REMARK SMILES CC(C)=CCC[C@@H](C)c1ccc(C)cc1
REMARK SMILES IDX 6 1 7 2 8 3 9 4 13 5 12 6 11 7 14 8 10 9 15 10 5 11 4 12
REMARK SMILES IDX 2 13 1 14 3 15
REMARK H PARENT
REMARK Flexibility Score: inf
ROOT
ATOM      1  C   UNL     1       5.623   4.530  28.698  1.00  0.00     0.012 C 
ENDROOT
BRANCH   1   2
ATOM      2  C   UNL     1       6.025   4.529  27.203  1.00  0.00     0.016 C 
ATOM      3  C   UNL     1       4.867   4.138  26.274  1.00  0.00     0.013 C 
BRANCH   2   4
ATOM      4  C   UNL     1       6.583   5.885  26.807  1.00  0.00    -0.045 A 
ATOM      5  C   UNL     1       8.148   9.756  25.703  1.00  0.00     0.044 C 
ATOM      6  C   UNL     1       7.595   8.408  26.057  1.00  0.00    -0.051 A 
ATOM      7  C   UNL     1       6.278   8.283  26.520  1.00  0.00     0.004 A 
ATOM      8  C   UNL     1       8.413   7.271  25.992  1.00  0.00     0.004 A 
ATOM      9  C   UNL     1       5.773   7.031  26.886  1.00  0.00     0.004 A 
ATOM     10  C   UNL     1       7.910   6.019  26.357  1.00  0.00     0.004 A 
ENDBRANCH   2   4
ENDBRANCH   1   2
BRANCH   1  11
ATOM     11  C   UNL     1       6.703   5.111  29.631  1.00  0.00     0.028 C 
BRANCH  11  12
ATOM     12  C   UNL     1       6.213   6.308  30.413  1.00  0.00    -0.028 C 
ATOM     13  C   UNL     1       6.875   7.483  30.455  1.00  0.00    -0.080 C 
ATOM     14  C   UNL     1       6.296   8.614  31.265  1.00  0.00     0.039 C 
ATOM     15  C   UNL     1       8.175   7.684  29.712  1.00  0.00     0.039 C 
ENDBRANCH  11  12
ENDBRANCH   1  11
TORSDOF 4
ENDMDL
MODEL 6
REMARK VINA RESULT:    -4.949     12.165     15.649
REMARK INTER + INTRA:          -7.630
REMARK INTER:                  -6.950
REMARK INTRA:                  -0.679
REMARK UNBOUND:                -1.523
REMARK SMILES CC(C)=CCC[C@@H](C)c1ccc(C)cc1
REMARK SMILES IDX 6 1 7 2 8 3 9 4 13 5 12 6 11 7 14 8 10 9 15 10 5 11 4 12
REMARK SMILES IDX 2 13 1 14 3 15
REMARK H PARENT
REMARK Flexibility Score: inf
ROOT
ATOM      1  C   UNL     1       7.868   6.019  30.142  1.00  0.00     0.012 C 
ENDROOT
BRANCH   1   2
ATOM      2  C   UNL     1       8.146   6.412  31.613  1.00  0.00     0.016 C 
ATOM      3  C   UNL     1       6.953   7.113  32.279  1.00  0.00     0.013 C 
BRANCH   2   4
ATOM      4  C   UNL     1       8.554   5.189  32.416  1.00  0.00    -0.045 A 
ATOM      5  C   UNL     1       9.745   1.726  34.706  1.00  0.00     0.044 C 
ATOM      6  C   UNL     1       9.328   2.911  33.887  1.00  0.00    -0.051 A 
ATOM      7  C   UNL     1      10.290   3.684  33.222  1.00  0.00     0.004 A 
ATOM      8  C   UNL     1       7.980   3.293  33.834  1.00  0.00     0.004 A 
ATOM      9  C   UNL     1       9.905   4.810  32.487  1.00  0.00     0.004 A 
ATOM     10  C   UNL     1       7.595   4.419  33.100  1.00  0.00     0.004 A 
ENDBRANCH   2   4
ENDBRANCH   1   2
BRANCH   1  11
ATOM     11  C   UNL     1       6.370   5.925  29.796  1.00  0.00     0.028 C 
BRANCH  11  12
ATOM     12  C   UNL     1       5.989   4.578  29.223  1.00  0.00    -0.028 C 
ATOM     13  C   UNL     1       5.470   4.422  27.987  1.00  0.00    -0.080 C 
ATOM     14  C   UNL     1       5.127   3.033  27.515  1.00  0.00     0.039 C 
ATOM     15  C   UNL     1       5.229   5.603  27.077  1.00  0.00     0.039 C 
ENDBRANCH  11  12
ENDBRANCH   1  11
TORSDOF 4
ENDMDL
MODEL 7
REMARK VINA RESULT:    -4.911     14.524     16.555
REMARK INTER + INTRA:          -7.582
REMARK INTER:                  -6.580
REMARK INTRA:                  -1.002
REMARK UNBOUND:                -1.523
REMARK SMILES CC(C)=CCC[C@@H](C)c1ccc(C)cc1
REMARK SMILES IDX 6 1 7 2 8 3 9 4 13 5 12 6 11 7 14 8 10 9 15 10 5 11 4 12
REMARK SMILES IDX 2 13 1 14 3 15
REMARK H PARENT
REMARK Flexibility Score: inf
ROOT
ATOM      1  C   UNL     1       7.446   7.472  34.144  1.00  0.00     0.012 C 
ENDROOT
BRANCH   1   2
ATOM      2  C   UNL     1       6.359   8.085  33.228  1.00  0.00     0.016 C 
ATOM      3  C   UNL     1       6.504   7.658  31.760  1.00  0.00     0.013 C 
BRANCH   2   4
ATOM      4  C   UNL     1       4.975   7.733  33.745  1.00  0.00    -0.045 A 
ATOM      5  C   UNL     1       1.043   6.699  35.202  1.00  0.00     0.044 C 
ATOM      6  C   UNL     1       2.395   7.080  34.679  1.00  0.00    -0.051 A 
ATOM      7  C   UNL     1       2.915   6.452  33.538  1.00  0.00     0.004 A 
ATOM      8  C   UNL     1       3.178   8.019  35.365  1.00  0.00     0.004 A 
ATOM      9  C   UNL     1       4.192   6.781  33.071  1.00  0.00     0.004 A 
ATOM     10  C   UNL     1       4.455   8.348  34.899  1.00  0.00     0.004 A 
ENDBRANCH   2   4
ENDBRANCH   1   2
BRANCH   1  11
ATOM     11  C   UNL     1       8.384   6.487  33.421  1.00  0.00     0.028 C 
BRANCH  11  12
ATOM     12  C   UNL     1       8.517   5.169  34.149  1.00  0.00    -0.028 C 
ATOM     13  C   UNL     1       7.750   4.093  33.875  1.00  0.00    -0.080 C 
ATOM     14  C   UNL     1       7.969   2.827  34.660  1.00  0.00     0.039 C 
ATOM     15  C   UNL     1       6.685   4.136  32.804  1.00  0.00     0.039 C 
ENDBRANCH  11  12
ENDBRANCH   1  11
TORSDOF 4
ENDMDL
MODEL 8
REMARK VINA RESULT:    -4.901     14.719     16.192
REMARK INTER + INTRA:          -7.570
REMARK INTER:                  -6.859
REMARK INTRA:                  -0.711
REMARK UNBOUND:                -1.523
REMARK SMILES CC(C)=CCC[C@@H](C)c1ccc(C)cc1
REMARK SMILES IDX 6 1 7 2 8 3 9 4 13 5 12 6 11 7 14 8 10 9 15 10 5 11 4 12
REMARK SMILES IDX 2 13 1 14 3 15
REMARK H PARENT
REMARK Flexibility Score: inf
ROOT
ATOM      1  C   UNL     1       5.259   6.009  32.730  1.00  0.00     0.012 C 
ENDROOT
BRANCH   1   2
ATOM      2  C   UNL     1       6.682   6.512  33.073  1.00  0.00     0.016 C 
ATOM      3  C   UNL     1       6.683   7.638  34.117  1.00  0.00     0.013 C 
BRANCH   2   4
ATOM      4  C   UNL     1       7.549   5.357  33.543  1.00  0.00    -0.045 A 
ATOM      5  C   UNL     1      10.029   2.093  34.904  1.00  0.00     0.044 C 
ATOM      6  C   UNL     1       9.181   3.225  34.404  1.00  0.00    -0.051 A 
ATOM      7  C   UNL     1       9.611   4.550  34.555  1.00  0.00     0.004 A 
ATOM      8  C   UNL     1       7.922   2.969  33.842  1.00  0.00     0.004 A 
ATOM      9  C   UNL     1       8.805   5.608  34.122  1.00  0.00     0.004 A 
ATOM     10  C   UNL     1       7.115   4.025  33.409  1.00  0.00     0.004 A 
ENDBRANCH   2   4
ENDBRANCH   1   2
BRANCH   1  11
ATOM     11  C   UNL     1       4.187   7.116  32.750  1.00  0.00     0.028 C 
BRANCH  11  12
ATOM     12  C   UNL     1       2.914   6.681  33.438  1.00  0.00    -0.028 C 
ATOM     13  C   UNL     1       2.478   7.222  34.595  1.00  0.00    -0.080 C 
ATOM     14  C   UNL     1       1.192   6.715  35.194  1.00  0.00     0.039 C 
ATOM     15  C   UNL     1       3.250   8.316  35.295  1.00  0.00     0.039 C 
ENDBRANCH  11  12
ENDBRANCH   1  11
TORSDOF 4
ENDMDL
MODEL 9
REMARK VINA RESULT:    -4.900      3.510      5.977
REMARK INTER + INTRA:          -7.569
REMARK INTER:                  -6.588
REMARK INTRA:                  -0.981
REMARK UNBOUND:                -1.523
REMARK SMILES CC(C)=CCC[C@@H](C)c1ccc(C)cc1
REMARK SMILES IDX 6 1 7 2 8 3 9 4 13 5 12 6 11 7 14 8 10 9 15 10 5 11 4 12
REMARK SMILES IDX 2 13 1 14 3 15
REMARK H PARENT
REMARK Flexibility Score: inf
ROOT
ATOM      1  C   UNL     1      -4.105  -7.162  30.594  1.00  0.00     0.012 C 
ENDROOT
BRANCH   1   2
ATOM      2  C   UNL     1      -4.148  -7.045  32.137  1.00  0.00     0.016 C 
ATOM      3  C   UNL     1      -2.871  -7.568  32.811  1.00  0.00     0.013 C 
BRANCH   2   4
ATOM      4  C   UNL     1      -4.409  -5.607  32.548  1.00  0.00    -0.045 A 
ATOM      5  C   UNL     1      -5.184  -1.523  33.723  1.00  0.00     0.044 C 
ATOM      6  C   UNL     1      -4.906  -2.931  33.288  1.00  0.00    -0.051 A 
ATOM      7  C   UNL     1      -5.917  -3.702  32.699  1.00  0.00     0.004 A 
ATOM      8  C   UNL     1      -3.651  -3.508  33.527  1.00  0.00     0.004 A 
ATOM      9  C   UNL     1      -5.669  -5.027  32.325  1.00  0.00     0.004 A 
ATOM     10  C   UNL     1      -3.401  -4.833  33.155  1.00  0.00     0.004 A 
ENDBRANCH   2   4
ENDBRANCH   1   2
BRANCH   1  11
ATOM     11  C   UNL     1      -2.788  -7.747  30.051  1.00  0.00     0.028 C 
BRANCH  11  12
ATOM     12  C   UNL     1      -2.210  -6.929  28.919  1.00  0.00    -0.028 C 
ATOM     13  C   UNL     1      -1.293  -5.956  29.104  1.00  0.00    -0.080 C 
ATOM     14  C   UNL     1      -0.781  -5.204  27.904  1.00  0.00     0.039 C 
ATOM     15  C   UNL     1      -0.775  -5.612  30.481  1.00  0.00     0.039 C 
ENDBRANCH  11  12
ENDBRANCH   1  11
TORSDOF 4
ENDMDL
