MODEL 1
REMARK VINA RESULT:    -4.504      0.000      0.000
REMARK INTER + INTRA:          -4.504
REMARK INTER:                  -4.504
REMARK INTRA:                   0.000
REMARK UNBOUND:                 0.000
REMARK SMILES CC(C)=C1CC[C@@H](C)CC1=O
REMARK SMILES IDX 8 1 7 2 6 3 5 4 4 5 2 6 1 7 3 8 10 9 11 10 9 11
REMARK H PARENT
REMARK Flexibility Score: inf
ROOT
ATOM      1  C   UNL     1     212.826 206.123 217.024  1.00  0.00     0.008 C 
ATOM      2  C   UNL     1     212.038 204.850 217.375  1.00  0.00    -0.006 C 
ATOM      3  C   UNL     1     212.929 203.771 218.018  1.00  0.00     0.008 C 
ATOM      4  C   UNL     1     213.976 203.201 217.049  1.00  0.00     0.039 C 
ATOM      5  C   UNL     1     213.382 202.783 215.710  1.00  0.00    -0.006 C 
ATOM      6  C   UNL     1     213.928 201.763 214.983  1.00  0.00    -0.070 C 
ATOM      7  C   UNL     1     215.153 201.022 215.469  1.00  0.00     0.039 C 
ATOM      8  C   UNL     1     213.318 201.299 213.681  1.00  0.00     0.039 C 
ATOM      9  C   UNL     1     212.261 203.621 215.194  1.00  0.00     0.159 C 
ATOM     10  O   UNL     1     212.096 203.805 213.957  1.00  0.00    -0.295 OA
ATOM     11  C   UNL     1     211.308 204.276 216.150  1.00  0.00     0.084 C 
ENDROOT
TORSDOF 0
ENDMDL
MODEL 2
REMARK VINA RESULT:    -4.462      1.654      4.210
REMARK INTER + INTRA:          -4.462
REMARK INTER:                  -4.462
REMARK INTRA:                   0.000
REMARK UNBOUND:                 0.000
REMARK SMILES CC(C)=C1CC[C@@H](C)CC1=O
REMARK SMILES IDX 8 1 7 2 6 3 5 4 4 5 2 6 1 7 3 8 10 9 11 10 9 11
REMARK H PARENT
REMARK Flexibility Score: inf
ROOT
ATOM      1  C   UNL     1     214.910 200.994 214.646  1.00  0.00     0.008 C 
ATOM      2  C   UNL     1     213.548 201.539 214.187  1.00  0.00    -0.006 C 
ATOM      3  C   UNL     1     213.618 203.023 213.786  1.00  0.00     0.008 C 
ATOM      4  C   UNL     1     213.912 203.954 214.973  1.00  0.00     0.039 C 
ATOM      5  C   UNL     1     213.012 203.688 216.173  1.00  0.00    -0.006 C 
ATOM      6  C   UNL     1     212.672 204.691 217.036  1.00  0.00    -0.070 C 
ATOM      7  C   UNL     1     213.190 206.098 216.845  1.00  0.00     0.039 C 
ATOM      8  C   UNL     1     211.736 204.457 218.199  1.00  0.00     0.039 C 
ATOM      9  C   UNL     1     212.631 202.265 216.412  1.00  0.00     0.159 C 
ATOM     10  O   UNL     1     212.455 201.821 217.578  1.00  0.00    -0.295 OA
ATOM     11  C   UNL     1     212.461 201.327 215.253  1.00  0.00     0.084 C 
ENDROOT
TORSDOF 0
ENDMDL
MODEL 3
REMARK VINA RESULT:    -4.458     13.291     15.406
REMARK INTER + INTRA:          -4.458
REMARK INTER:                  -4.458
REMARK INTRA:                   0.000
REMARK UNBOUND:                 0.000
REMARK SMILES CC(C)=C1CC[C@@H](C)CC1=O
REMARK SMILES IDX 8 1 7 2 6 3 5 4 4 5 2 6 1 7 3 8 10 9 11 10 9 11
REMARK H PARENT
REMARK Flexibility Score: inf
ROOT
ATOM      1  C   UNL     1     199.252 206.058 216.811  1.00  0.00     0.008 C 
ATOM      2  C   UNL     1     200.065 207.297 217.219  1.00  0.00    -0.006 C 
ATOM      3  C   UNL     1     199.194 208.368 217.900  1.00  0.00     0.008 C 
ATOM      4  C   UNL     1     198.167 209.002 216.949  1.00  0.00     0.039 C 
ATOM      5  C   UNL     1     198.780 209.461 215.633  1.00  0.00    -0.006 C 
ATOM      6  C   UNL     1     198.263 210.522 214.945  1.00  0.00    -0.070 C 
ATOM      7  C   UNL     1     197.051 211.270 215.453  1.00  0.00     0.039 C 
ATOM      8  C   UNL     1     198.892 211.025 213.667  1.00  0.00     0.039 C 
ATOM      9  C   UNL     1     199.886 208.620 215.089  1.00  0.00     0.159 C 
ATOM     10  O   UNL     1     200.055 208.483 213.848  1.00  0.00    -0.295 OA
ATOM     11  C   UNL     1     200.817 207.905 216.024  1.00  0.00     0.084 C 
ENDROOT
TORSDOF 0
ENDMDL
MODEL 4
REMARK VINA RESULT:    -4.448      2.053      4.500
REMARK INTER + INTRA:          -4.448
REMARK INTER:                  -4.448
REMARK INTRA:                   0.000
REMARK UNBOUND:                 0.000
REMARK SMILES CC(C)=C1CC[C@@H](C)CC1=O
REMARK SMILES IDX 8 1 7 2 6 3 5 4 4 5 2 6 1 7 3 8 10 9 11 10 9 11
REMARK H PARENT
REMARK Flexibility Score: inf
ROOT
ATOM      1  C   UNL     1     214.895 198.734 216.319  1.00  0.00     0.008 C 
ATOM      2  C   UNL     1     214.201 199.561 215.224  1.00  0.00    -0.006 C 
ATOM      3  C   UNL     1     215.024 200.796 214.815  1.00  0.00     0.008 C 
ATOM      4  C   UNL     1     215.137 201.842 215.935  1.00  0.00     0.039 C 
ATOM      5  C   UNL     1     213.792 202.186 216.564  1.00  0.00    -0.006 C 
ATOM      6  C   UNL     1     213.555 203.424 217.090  1.00  0.00    -0.070 C 
ATOM      7  C   UNL     1     214.623 204.495 217.086  1.00  0.00     0.039 C 
ATOM      8  C   UNL     1     212.210 203.800 217.667  1.00  0.00     0.039 C 
ATOM      9  C   UNL     1     212.810 201.069 216.677  1.00  0.00     0.159 C 
ATOM     10  O   UNL     1     211.997 201.007 217.638  1.00  0.00    -0.295 OA
ATOM     11  C   UNL     1     212.783 199.983 215.642  1.00  0.00     0.084 C 
ENDROOT
TORSDOF 0
ENDMDL
MODEL 5
REMARK VINA RESULT:    -4.418     14.559     16.493
REMARK INTER + INTRA:          -4.418
REMARK INTER:                  -4.418
REMARK INTRA:                   0.000
REMARK UNBOUND:                 0.000
REMARK SMILES CC(C)=C1CC[C@@H](C)CC1=O
REMARK SMILES IDX 8 1 7 2 6 3 5 4 4 5 2 6 1 7 3 8 10 9 11 10 9 11
REMARK H PARENT
REMARK Flexibility Score: inf
ROOT
ATOM      1  C   UNL     1     197.483 213.605 216.347  1.00  0.00     0.008 C 
ATOM      2  C   UNL     1     198.210 212.776 215.276  1.00  0.00    -0.006 C 
ATOM      3  C   UNL     1     197.392 211.550 214.832  1.00  0.00     0.008 C 
ATOM      4  C   UNL     1     197.228 210.502 215.943  1.00  0.00     0.039 C 
ATOM      5  C   UNL     1     198.544 210.143 216.621  1.00  0.00    -0.006 C 
ATOM      6  C   UNL     1     198.750 208.901 217.151  1.00  0.00    -0.070 C 
ATOM      7  C   UNL     1     197.674 207.840 217.103  1.00  0.00     0.039 C 
ATOM      8  C   UNL     1     200.069 208.511 217.777  1.00  0.00     0.039 C 
ATOM      9  C   UNL     1     199.532 211.251 216.775  1.00  0.00     0.159 C 
ATOM     10  O   UNL     1     200.309 211.302 217.766  1.00  0.00    -0.295 OA
ATOM     11  C   UNL     1     199.607 212.340 215.746  1.00  0.00     0.084 C 
ENDROOT
TORSDOF 0
ENDMDL
MODEL 6
REMARK VINA RESULT:    -4.404     13.921     15.254
REMARK INTER + INTRA:          -4.404
REMARK INTER:                  -4.404
REMARK INTRA:                   0.000
REMARK UNBOUND:                 0.000
REMARK SMILES CC(C)=C1CC[C@@H](C)CC1=O
REMARK SMILES IDX 8 1 7 2 6 3 5 4 4 5 2 6 1 7 3 8 10 9 11 10 9 11
REMARK H PARENT
REMARK Flexibility Score: inf
ROOT
ATOM      1  C   UNL     1     197.634 211.237 214.268  1.00  0.00     0.008 C 
ATOM      2  C   UNL     1     199.047 210.703 213.980  1.00  0.00    -0.006 C 
ATOM      3  C   UNL     1     199.040 209.214 213.592  1.00  0.00     0.008 C 
ATOM      4  C   UNL     1     198.616 208.293 214.746  1.00  0.00     0.039 C 
ATOM      5  C   UNL     1     199.364 208.581 216.042  1.00  0.00    -0.006 C 
ATOM      6  C   UNL     1     199.610 207.592 216.951  1.00  0.00    -0.070 C 
ATOM      7  C   UNL     1     199.132 206.176 216.717  1.00  0.00     0.039 C 
ATOM      8  C   UNL     1     200.398 207.849 218.214  1.00  0.00     0.039 C 
ATOM      9  C   UNL     1     199.700 210.011 216.307  1.00  0.00     0.159 C 
ATOM     10  O   UNL     1     199.731 210.469 217.481  1.00  0.00    -0.295 OA
ATOM     11  C   UNL     1     199.997 210.938 215.165  1.00  0.00     0.084 C 
ENDROOT
TORSDOF 0
ENDMDL
MODEL 7
REMARK VINA RESULT:    -4.339     14.099     16.280
REMARK INTER + INTRA:          -4.339
REMARK INTER:                  -4.339
REMARK INTRA:                   0.000
REMARK UNBOUND:                 0.000
REMARK SMILES CC(C)=C1CC[C@@H](C)CC1=O
REMARK SMILES IDX 8 1 7 2 6 3 5 4 4 5 2 6 1 7 3 8 10 9 11 10 9 11
REMARK H PARENT
REMARK Flexibility Score: inf
ROOT
ATOM      1  C   UNL     1     200.768 207.877 216.080  1.00  0.00     0.008 C 
ATOM      2  C   UNL     1     199.578 208.084 217.032  1.00  0.00    -0.006 C 
ATOM      3  C   UNL     1     198.232 208.108 216.286  1.00  0.00     0.008 C 
ATOM      4  C   UNL     1     198.076 209.327 215.364  1.00  0.00     0.039 C 
ATOM      5  C   UNL     1     198.413 210.642 216.056  1.00  0.00    -0.006 C 
ATOM      6  C   UNL     1     197.807 211.810 215.687  1.00  0.00    -0.070 C 
ATOM      7  C   UNL     1     196.792 211.846 214.567  1.00  0.00     0.039 C 
ATOM      8  C   UNL     1     198.088 213.112 216.400  1.00  0.00     0.039 C 
ATOM      9  C   UNL     1     199.516 210.597 217.060  1.00  0.00     0.159 C 
ATOM     10  O   UNL     1     200.281 211.583 217.237  1.00  0.00    -0.295 OA
ATOM     11  C   UNL     1     199.740 209.358 217.877  1.00  0.00     0.084 C 
ENDROOT
TORSDOF 0
ENDMDL
MODEL 8
REMARK VINA RESULT:    -4.287      1.831      2.394
REMARK INTER + INTRA:          -4.287
REMARK INTER:                  -4.287
REMARK INTRA:                   0.000
REMARK UNBOUND:                 0.000
REMARK SMILES CC(C)=C1CC[C@@H](C)CC1=O
REMARK SMILES IDX 8 1 7 2 6 3 5 4 4 5 2 6 1 7 3 8 10 9 11 10 9 11
REMARK H PARENT
REMARK Flexibility Score: inf
ROOT
ATOM      1  C   UNL     1     211.602 204.504 216.070  1.00  0.00     0.008 C 
ATOM      2  C   UNL     1     212.765 204.238 217.040  1.00  0.00    -0.006 C 
ATOM      3  C   UNL     1     214.126 204.206 216.322  1.00  0.00     0.008 C 
ATOM      4  C   UNL     1     214.274 203.013 215.365  1.00  0.00     0.039 C 
ATOM      5  C   UNL     1     213.891 201.685 216.007  1.00  0.00    -0.006 C 
ATOM      6  C   UNL     1     214.478 200.516 215.614  1.00  0.00    -0.070 C 
ATOM      7  C   UNL     1     215.516 200.490 214.515  1.00  0.00     0.039 C 
ATOM      8  C   UNL     1     214.151 199.199 216.278  1.00  0.00     0.039 C 
ATOM      9  C   UNL     1     212.768 201.725 216.989  1.00  0.00     0.159 C 
ATOM     10  O   UNL     1     211.976 200.753 217.117  1.00  0.00    -0.295 OA
ATOM     11  C   UNL     1     212.555 202.942 217.840  1.00  0.00     0.084 C 
ENDROOT
TORSDOF 0
ENDMDL
MODEL 9
REMARK VINA RESULT:    -4.274      1.877      3.782
REMARK INTER + INTRA:          -4.274
REMARK INTER:                  -4.274
REMARK INTRA:                   0.000
REMARK UNBOUND:                 0.000
REMARK SMILES CC(C)=C1CC[C@@H](C)CC1=O
REMARK SMILES IDX 8 1 7 2 6 3 5 4 4 5 2 6 1 7 3 8 10 9 11 10 9 11
REMARK H PARENT
REMARK Flexibility Score: inf
ROOT
ATOM      1  C   UNL     1     212.739 203.747 218.617  1.00  0.00     0.008 C 
ATOM      2  C   UNL     1     213.596 203.519 217.362  1.00  0.00    -0.006 C 
ATOM      3  C   UNL     1     214.587 204.672 217.115  1.00  0.00     0.008 C 
ATOM      4  C   UNL     1     213.893 205.994 216.751  1.00  0.00     0.039 C 
ATOM      5  C   UNL     1     212.854 205.835 215.648  1.00  0.00    -0.006 C 
ATOM      6  C   UNL     1     212.578 206.859 214.786  1.00  0.00    -0.070 C 
ATOM      7  C   UNL     1     213.279 208.194 214.905  1.00  0.00     0.039 C 
ATOM      8  C   UNL     1     211.592 206.701 213.653  1.00  0.00     0.039 C 
ATOM      9  C   UNL     1     212.083 204.558 215.644  1.00  0.00     0.159 C 
ATOM     10  O   UNL     1     210.883 204.519 215.260  1.00  0.00    -0.295 OA
ATOM     11  C   UNL     1     212.729 203.288 216.114  1.00  0.00     0.084 C 
ENDROOT
TORSDOF 0
ENDMDL
