MODEL 1
REMARK VINA RESULT:    -4.119      0.000      0.000
REMARK INTER + INTRA:          -8.500
REMARK INTER:                  -7.130
REMARK INTRA:                  -1.370
REMARK UNBOUND:                -1.370
REMARK SMILES CCCCCCCCCCCCCCO
REMARK SMILES IDX 8 1 7 2 6 3 5 4 4 5 3 6 2 7 1 8 9 9 10 10 11 11 12 12 13 13
REMARK SMILES IDX 14 14 15 15
REMARK H PARENT 15 16
REMARK Flexibility Score: inf
ROOT
ATOM      1  C   UNL     1     161.660 162.884 182.994  1.00  0.00     0.000 C 
ENDROOT
BRANCH   1   2
ATOM      2  C   UNL     1     163.153 162.727 183.324  1.00  0.00    -0.000 C 
BRANCH   2   3
ATOM      3  C   UNL     1     163.876 161.789 182.345  1.00  0.00    -0.000 C 
BRANCH   3   4
ATOM      4  C   UNL     1     163.928 160.357 182.891  1.00  0.00    -0.000 C 
BRANCH   4   5
ATOM      5  C   UNL     1     165.378 159.876 183.037  1.00  0.00    -0.000 C 
BRANCH   5   6
ATOM      6  C   UNL     1     166.390 161.034 183.106  1.00  0.00    -0.000 C 
BRANCH   6   7
ATOM      7  C   UNL     1     167.063 161.225 184.478  1.00  0.00    -0.003 C 
ATOM      8  C   UNL     1     167.445 162.677 184.759  1.00  0.00     0.004 C 
ENDBRANCH   6   7
ENDBRANCH   5   6
ENDBRANCH   4   5
ENDBRANCH   3   4
ENDBRANCH   2   3
ENDBRANCH   1   2
BRANCH   1   9
ATOM      9  C   UNL     1     160.785 161.851 183.726  1.00  0.00     0.000 C 
BRANCH   9  10
ATOM     10  C   UNL     1     160.231 160.769 182.784  1.00  0.00     0.000 C 
BRANCH  10  11
ATOM     11  C   UNL     1     160.032 161.224 181.325  1.00  0.00     0.000 C 
BRANCH  11  12
ATOM     12  C   UNL     1     160.882 160.435 180.306  1.00  0.00     0.002 C 
BRANCH  12  13
ATOM     13  C   UNL     1     161.599 161.358 179.306  1.00  0.00     0.028 C 
BRANCH  13  14
ATOM     14  C   UNL     1     160.902 162.715 179.176  1.00  0.00     0.156 C 
BRANCH  14  15
ATOM     15  O   UNL     1     160.110 162.758 178.019  1.00  0.00    -0.396 OA
ATOM     16  H   UNL     1     160.665 163.166 177.304  1.00  0.00     0.210 HD
ENDBRANCH  14  15
ENDBRANCH  13  14
ENDBRANCH  12  13
ENDBRANCH  11  12
ENDBRANCH  10  11
ENDBRANCH   9  10
ENDBRANCH   1   9
TORSDOF 13
ENDMDL
MODEL 2
REMARK VINA RESULT:    -3.974      2.481      6.001
REMARK INTER + INTRA:          -8.249
REMARK INTER:                  -6.673
REMARK INTRA:                  -1.576
REMARK UNBOUND:                -1.370
REMARK SMILES CCCCCCCCCCCCCCO
REMARK SMILES IDX 8 1 7 2 6 3 5 4 4 5 3 6 2 7 1 8 9 9 10 10 11 11 12 12 13 13
REMARK SMILES IDX 14 14 15 15
REMARK H PARENT 15 16
REMARK Flexibility Score: inf
ROOT
ATOM      1  C   UNL     1     163.573 162.354 182.681  1.00  0.00     0.000 C 
ENDROOT
BRANCH   1   2
ATOM      2  C   UNL     1     162.272 162.955 183.235  1.00  0.00    -0.000 C 
BRANCH   2   3
ATOM      3  C   UNL     1     161.253 161.878 183.639  1.00  0.00    -0.000 C 
BRANCH   3   4
ATOM      4  C   UNL     1     160.104 161.801 182.628  1.00  0.00    -0.000 C 
BRANCH   4   5
ATOM      5  C   UNL     1     159.936 160.371 182.094  1.00  0.00    -0.000 C 
BRANCH   5   6
ATOM      6  C   UNL     1     160.196 160.260 180.582  1.00  0.00    -0.000 C 
BRANCH   6   7
ATOM      7  C   UNL     1     161.196 161.287 180.020  1.00  0.00    -0.003 C 
ATOM      8  C   UNL     1     162.471 160.644 179.475  1.00  0.00     0.004 C 
ENDBRANCH   6   7
ENDBRANCH   5   6
ENDBRANCH   4   5
ENDBRANCH   3   4
ENDBRANCH   2   3
ENDBRANCH   1   2
BRANCH   1   9
ATOM      9  C   UNL     1     163.754 160.878 183.077  1.00  0.00     0.000 C 
BRANCH   9  10
ATOM     10  C   UNL     1     164.842 160.172 182.251  1.00  0.00     0.000 C 
BRANCH  10  11
ATOM     11  C   UNL     1     166.282 160.632 182.552  1.00  0.00     0.000 C 
BRANCH  11  12
ATOM     12  C   UNL     1     166.739 160.338 183.997  1.00  0.00     0.002 C 
BRANCH  12  13
ATOM     13  C   UNL     1     167.295 161.588 184.698  1.00  0.00     0.028 C 
BRANCH  13  14
ATOM     14  C   UNL     1     166.922 162.876 183.958  1.00  0.00     0.156 C 
BRANCH  14  15
ATOM     15  O   UNL     1     166.056 163.661 184.733  1.00  0.00    -0.396 OA
ATOM     16  H   UNL     1     165.384 163.046 185.128  1.00  0.00     0.210 HD
ENDBRANCH  14  15
ENDBRANCH  13  14
ENDBRANCH  12  13
ENDBRANCH  11  12
ENDBRANCH  10  11
ENDBRANCH   9  10
ENDBRANCH   1   9
TORSDOF 13
ENDMDL
MODEL 3
REMARK VINA RESULT:    -3.935      2.660      6.265
REMARK INTER + INTRA:          -8.180
REMARK INTER:                  -6.867
REMARK INTRA:                  -1.313
REMARK UNBOUND:                -1.370
REMARK SMILES CCCCCCCCCCCCCCO
REMARK SMILES IDX 8 1 7 2 6 3 5 4 4 5 3 6 2 7 1 8 9 9 10 10 11 11 12 12 13 13
REMARK SMILES IDX 14 14 15 15
REMARK H PARENT 15 16
REMARK Flexibility Score: inf
ROOT
ATOM      1  C   UNL     1     163.862 161.975 182.415  1.00  0.00     0.000 C 
ENDROOT
BRANCH   1   2
ATOM      2  C   UNL     1     162.914 162.819 183.281  1.00  0.00    -0.000 C 
BRANCH   2   3
ATOM      3  C   UNL     1     161.851 163.550 182.447  1.00  0.00    -0.000 C 
BRANCH   3   4
ATOM      4  C   UNL     1     160.446 163.019 182.757  1.00  0.00    -0.000 C 
BRANCH   4   5
ATOM      5  C   UNL     1     160.517 161.654 183.457  1.00  0.00    -0.000 C 
BRANCH   5   6
ATOM      6  C   UNL     1     160.021 160.498 182.570  1.00  0.00    -0.000 C 
BRANCH   6   7
ATOM      7  C   UNL     1     159.970 160.815 181.064  1.00  0.00    -0.003 C 
ATOM      8  C   UNL     1     161.216 160.348 180.312  1.00  0.00     0.004 C 
ENDBRANCH   6   7
ENDBRANCH   5   6
ENDBRANCH   4   5
ENDBRANCH   3   4
ENDBRANCH   2   3
ENDBRANCH   1   2
BRANCH   1   9
ATOM      9  C   UNL     1     163.931 160.508 182.877  1.00  0.00     0.000 C 
BRANCH   9  10
ATOM     10  C   UNL     1     165.365 159.953 182.876  1.00  0.00     0.000 C 
BRANCH  10  11
ATOM     11  C   UNL     1     166.471 161.020 182.994  1.00  0.00     0.000 C 
BRANCH  11  12
ATOM     12  C   UNL     1     167.307 160.909 184.287  1.00  0.00     0.002 C 
BRANCH  12  13
ATOM     13  C   UNL     1     167.356 162.233 185.066  1.00  0.00     0.028 C 
BRANCH  13  14
ATOM     14  C   UNL     1     166.487 163.314 184.416  1.00  0.00     0.156 C 
BRANCH  14  15
ATOM     15  O   UNL     1     167.058 164.583 184.594  1.00  0.00    -0.396 OA
ATOM     16  H   UNL     1     166.418 165.115 185.135  1.00  0.00     0.210 HD
ENDBRANCH  14  15
ENDBRANCH  13  14
ENDBRANCH  12  13
ENDBRANCH  11  12
ENDBRANCH  10  11
ENDBRANCH   9  10
ENDBRANCH   1   9
TORSDOF 13
ENDMDL
MODEL 4
REMARK VINA RESULT:    -3.906      2.702      5.618
REMARK INTER + INTRA:          -8.131
REMARK INTER:                  -6.336
REMARK INTRA:                  -1.794
REMARK UNBOUND:                -1.370
REMARK SMILES CCCCCCCCCCCCCCO
REMARK SMILES IDX 8 1 7 2 6 3 5 4 4 5 3 6 2 7 1 8 9 9 10 10 11 11 12 12 13 13
REMARK SMILES IDX 14 14 15 15
REMARK H PARENT 15 16
REMARK Flexibility Score: inf
ROOT
ATOM      1  C   UNL     1     160.337 162.914 182.150  1.00  0.00     0.000 C 
ENDROOT
BRANCH   1   2
ATOM      2  C   UNL     1     160.235 161.550 182.851  1.00  0.00    -0.000 C 
BRANCH   2   3
ATOM      3  C   UNL     1     159.943 160.405 181.870  1.00  0.00    -0.000 C 
BRANCH   3   4
ATOM      4  C   UNL     1     160.268 160.818 180.430  1.00  0.00    -0.000 C 
BRANCH   4   5
ATOM      5  C   UNL     1     161.659 160.317 180.015  1.00  0.00    -0.000 C 
BRANCH   5   6
ATOM      6  C   UNL     1     162.531 161.418 179.386  1.00  0.00    -0.000 C 
BRANCH   6   7
ATOM      7  C   UNL     1     161.747 162.550 178.697  1.00  0.00    -0.003 C 
ATOM      8  C   UNL     1     161.544 162.314 177.201  1.00  0.00     0.004 C 
ENDBRANCH   6   7
ENDBRANCH   5   6
ENDBRANCH   4   5
ENDBRANCH   3   4
ENDBRANCH   2   3
ENDBRANCH   1   2
BRANCH   1   9
ATOM      9  C   UNL     1     161.700 163.591 182.378  1.00  0.00     0.000 C 
BRANCH   9  10
ATOM     10  C   UNL     1     162.563 162.853 183.416  1.00  0.00     0.000 C 
BRANCH  10  11
ATOM     11  C   UNL     1     163.803 162.143 182.836  1.00  0.00     0.000 C 
BRANCH  11  12
ATOM     12  C   UNL     1     163.762 160.607 182.977  1.00  0.00     0.002 C 
BRANCH  12  13
ATOM     13  C   UNL     1     165.107 159.952 182.622  1.00  0.00     0.028 C 
BRANCH  13  14
ATOM     14  C   UNL     1     166.289 160.688 183.258  1.00  0.00     0.156 C 
BRANCH  14  15
ATOM     15  O   UNL     1     166.753 160.000 184.388  1.00  0.00    -0.396 OA
ATOM     16  H   UNL     1     167.745 160.007 184.344  1.00  0.00     0.210 HD
ENDBRANCH  14  15
ENDBRANCH  13  14
ENDBRANCH  12  13
ENDBRANCH  11  12
ENDBRANCH  10  11
ENDBRANCH   9  10
ENDBRANCH   1   9
TORSDOF 13
ENDMDL
MODEL 5
REMARK VINA RESULT:    -3.906      1.456      2.159
REMARK INTER + INTRA:          -8.130
REMARK INTER:                  -6.902
REMARK INTRA:                  -1.229
REMARK UNBOUND:                -1.370
REMARK SMILES CCCCCCCCCCCCCCO
REMARK SMILES IDX 8 1 7 2 6 3 5 4 4 5 3 6 2 7 1 8 9 9 10 10 11 11 12 12 13 13
REMARK SMILES IDX 14 14 15 15
REMARK H PARENT 15 16
REMARK Flexibility Score: inf
ROOT
ATOM      1  C   UNL     1     163.260 163.030 183.366  1.00  0.00     0.000 C 
ENDROOT
BRANCH   1   2
ATOM      2  C   UNL     1     164.011 162.031 182.472  1.00  0.00    -0.000 C 
BRANCH   2   3
ATOM      3  C   UNL     1     163.807 160.575 182.916  1.00  0.00    -0.000 C 
BRANCH   3   4
ATOM      4  C   UNL     1     165.144 159.919 183.285  1.00  0.00    -0.000 C 
BRANCH   4   5
ATOM      5  C   UNL     1     166.254 160.972 183.420  1.00  0.00    -0.000 C 
BRANCH   5   6
ATOM      6  C   UNL     1     167.613 160.363 183.809  1.00  0.00    -0.000 C 
BRANCH   6   7
ATOM      7  C   UNL     1     168.652 160.323 182.675  1.00  0.00    -0.003 C 
ATOM      8  C   UNL     1     168.246 161.157 181.460  1.00  0.00     0.004 C 
ENDBRANCH   6   7
ENDBRANCH   5   6
ENDBRANCH   4   5
ENDBRANCH   3   4
ENDBRANCH   2   3
ENDBRANCH   1   2
BRANCH   1   9
ATOM      9  C   UNL     1     161.801 163.234 182.920  1.00  0.00     0.000 C 
BRANCH   9  10
ATOM     10  C   UNL     1     160.810 162.376 183.724  1.00  0.00     0.000 C 
BRANCH  10  11
ATOM     11  C   UNL     1     160.134 161.246 182.920  1.00  0.00     0.000 C 
BRANCH  11  12
ATOM     12  C   UNL     1     160.102 161.500 181.398  1.00  0.00     0.002 C 
BRANCH  12  13
ATOM     13  C   UNL     1     160.861 160.419 180.611  1.00  0.00     0.028 C 
BRANCH  13  14
ATOM     14  C   UNL     1     161.866 161.023 179.627  1.00  0.00     0.156 C 
BRANCH  14  15
ATOM     15  O   UNL     1     162.921 160.132 179.384  1.00  0.00    -0.396 OA
ATOM     16  H   UNL     1     162.897 159.912 178.416  1.00  0.00     0.210 HD
ENDBRANCH  14  15
ENDBRANCH  13  14
ENDBRANCH  12  13
ENDBRANCH  11  12
ENDBRANCH  10  11
ENDBRANCH   9  10
ENDBRANCH   1   9
TORSDOF 13
ENDMDL
MODEL 6
REMARK VINA RESULT:    -3.886      2.818      6.030
REMARK INTER + INTRA:          -8.097
REMARK INTER:                  -6.720
REMARK INTRA:                  -1.377
REMARK UNBOUND:                -1.370
REMARK SMILES CCCCCCCCCCCCCCO
REMARK SMILES IDX 8 1 7 2 6 3 5 4 4 5 3 6 2 7 1 8 9 9 10 10 11 11 12 12 13 13
REMARK SMILES IDX 14 14 15 15
REMARK H PARENT 15 16
REMARK Flexibility Score: inf
ROOT
ATOM      1  C   UNL     1     163.327 163.012 183.204  1.00  0.00     0.000 C 
ENDROOT
BRANCH   1   2
ATOM      2  C   UNL     1     162.245 163.831 182.483  1.00  0.00    -0.000 C 
BRANCH   2   3
ATOM      3  C   UNL     1     160.830 163.292 182.741  1.00  0.00    -0.000 C 
BRANCH   3   4
ATOM      4  C   UNL     1     160.868 162.054 183.646  1.00  0.00    -0.000 C 
BRANCH   4   5
ATOM      5  C   UNL     1     160.296 160.827 182.923  1.00  0.00    -0.000 C 
BRANCH   5   6
ATOM      6  C   UNL     1     160.123 161.048 181.410  1.00  0.00    -0.000 C 
BRANCH   6   7
ATOM      7  C   UNL     1     161.186 160.366 180.530  1.00  0.00    -0.003 C 
ATOM      8  C   UNL     1     161.813 161.312 179.507  1.00  0.00     0.004 C 
ENDBRANCH   6   7
ENDBRANCH   5   6
ENDBRANCH   4   5
ENDBRANCH   3   4
ENDBRANCH   2   3
ENDBRANCH   1   2
BRANCH   1   9
ATOM      9  C   UNL     1     164.145 162.138 182.236  1.00  0.00     0.000 C 
BRANCH   9  10
ATOM     10  C   UNL     1     164.504 160.767 182.834  1.00  0.00     0.000 C 
BRANCH  10  11
ATOM     11  C   UNL     1     165.838 160.175 182.337  1.00  0.00     0.000 C 
BRANCH  11  12
ATOM     12  C   UNL     1     167.061 160.617 183.168  1.00  0.00     0.002 C 
BRANCH  12  13
ATOM     13  C   UNL     1     168.390 160.315 182.455  1.00  0.00     0.028 C 
BRANCH  13  14
ATOM     14  C   UNL     1     168.221 160.236 180.935  1.00  0.00     0.156 C 
BRANCH  14  15
ATOM     15  O   UNL     1     169.429 159.875 180.319  1.00  0.00    -0.396 OA
ATOM     16  H   UNL     1     169.874 159.220 180.918  1.00  0.00     0.210 HD
ENDBRANCH  14  15
ENDBRANCH  13  14
ENDBRANCH  12  13
ENDBRANCH  11  12
ENDBRANCH  10  11
ENDBRANCH   9  10
ENDBRANCH   1   9
TORSDOF 13
ENDMDL
MODEL 7
REMARK VINA RESULT:    -3.793      1.655      3.434
REMARK INTER + INTRA:          -7.935
REMARK INTER:                  -6.169
REMARK INTRA:                  -1.766
REMARK UNBOUND:                -1.370
REMARK SMILES CCCCCCCCCCCCCCO
REMARK SMILES IDX 8 1 7 2 6 3 5 4 4 5 3 6 2 7 1 8 9 9 10 10 11 11 12 12 13 13
REMARK SMILES IDX 14 14 15 15
REMARK H PARENT 15 16
REMARK Flexibility Score: inf
ROOT
ATOM      1  C   UNL     1     160.370 160.631 182.347  1.00  0.00     0.000 C 
ENDROOT
BRANCH   1   2
ATOM      2  C   UNL     1     159.918 161.512 181.171  1.00  0.00    -0.000 C 
BRANCH   2   3
ATOM      3  C   UNL     1     160.869 161.419 179.968  1.00  0.00    -0.000 C 
BRANCH   3   4
ATOM      4  C   UNL     1     162.070 160.520 180.283  1.00  0.00    -0.000 C 
BRANCH   4   5
ATOM      5  C   UNL     1     163.377 161.153 179.784  1.00  0.00    -0.000 C 
BRANCH   5   6
ATOM      6  C   UNL     1     164.473 161.197 180.863  1.00  0.00    -0.000 C 
BRANCH   6   7
ATOM      7  C   UNL     1     164.079 160.570 182.212  1.00  0.00    -0.003 C 
ATOM      8  C   UNL     1     165.246 159.875 182.913  1.00  0.00     0.004 C 
ENDBRANCH   6   7
ENDBRANCH   5   6
ENDBRANCH   4   5
ENDBRANCH   3   4
ENDBRANCH   2   3
ENDBRANCH   1   2
BRANCH   1   9
ATOM      9  C   UNL     1     160.643 161.448 183.622  1.00  0.00     0.000 C 
BRANCH   9  10
ATOM     10  C   UNL     1     160.870 162.941 183.333  1.00  0.00     0.000 C 
BRANCH  10  11
ATOM     11  C   UNL     1     162.332 163.324 183.028  1.00  0.00     0.000 C 
BRANCH  11  12
ATOM     12  C   UNL     1     162.495 164.749 182.457  1.00  0.00     0.002 C 
BRANCH  12  13
ATOM     13  C   UNL     1     162.290 164.794 180.934  1.00  0.00     0.028 C 
BRANCH  13  14
ATOM     14  C   UNL     1     160.837 165.094 180.558  1.00  0.00     0.156 C 
BRANCH  14  15
ATOM     15  O   UNL     1     160.611 164.832 179.199  1.00  0.00    -0.396 OA
ATOM     16  H   UNL     1     161.324 164.208 178.902  1.00  0.00     0.210 HD
ENDBRANCH  14  15
ENDBRANCH  13  14
ENDBRANCH  12  13
ENDBRANCH  11  12
ENDBRANCH  10  11
ENDBRANCH   9  10
ENDBRANCH   1   9
TORSDOF 13
ENDMDL
MODEL 8
REMARK VINA RESULT:    -3.767      1.740      3.615
REMARK INTER + INTRA:          -7.890
REMARK INTER:                  -5.857
REMARK INTRA:                  -2.033
REMARK UNBOUND:                -1.370
REMARK SMILES CCCCCCCCCCCCCCO
REMARK SMILES IDX 8 1 7 2 6 3 5 4 4 5 3 6 2 7 1 8 9 9 10 10 11 11 12 12 13 13
REMARK SMILES IDX 14 14 15 15
REMARK H PARENT 15 16
REMARK Flexibility Score: inf
ROOT
ATOM      1  C   UNL     1     160.252 161.109 181.192  1.00  0.00     0.000 C 
ENDROOT
BRANCH   1   2
ATOM      2  C   UNL     1     160.226 160.693 182.670  1.00  0.00    -0.000 C 
BRANCH   2   3
ATOM      3  C   UNL     1     160.621 161.841 183.611  1.00  0.00    -0.000 C 
BRANCH   3   4
ATOM      4  C   UNL     1     161.225 163.012 182.827  1.00  0.00    -0.000 C 
BRANCH   4   5
ATOM      5  C   UNL     1     162.649 163.322 183.311  1.00  0.00    -0.000 C 
BRANCH   5   6
ATOM      6  C   UNL     1     163.735 162.784 182.363  1.00  0.00    -0.000 C 
BRANCH   6   7
ATOM      7  C   UNL     1     164.641 161.697 182.968  1.00  0.00    -0.003 C 
ATOM      8  C   UNL     1     164.005 160.307 182.946  1.00  0.00     0.004 C 
ENDBRANCH   6   7
ENDBRANCH   5   6
ENDBRANCH   4   5
ENDBRANCH   3   4
ENDBRANCH   2   3
ENDBRANCH   1   2
BRANCH   1   9
ATOM      9  C   UNL     1     161.166 160.207 180.343  1.00  0.00     0.000 C 
BRANCH   9  10
ATOM     10  C   UNL     1     162.159 161.009 179.485  1.00  0.00     0.000 C 
BRANCH  10  11
ATOM     11  C   UNL     1     161.769 162.483 179.255  1.00  0.00     0.000 C 
BRANCH  11  12
ATOM     12  C   UNL     1     162.949 163.377 178.818  1.00  0.00     0.002 C 
BRANCH  12  13
ATOM     13  C   UNL     1     162.769 164.838 179.260  1.00  0.00     0.028 C 
BRANCH  13  14
ATOM     14  C   UNL     1     161.314 165.154 179.621  1.00  0.00     0.156 C 
BRANCH  14  15
ATOM     15  O   UNL     1     160.983 166.465 179.247  1.00  0.00    -0.396 OA
ATOM     16  H   UNL     1     161.828 166.985 179.239  1.00  0.00     0.210 HD
ENDBRANCH  14  15
ENDBRANCH  13  14
ENDBRANCH  12  13
ENDBRANCH  11  12
ENDBRANCH  10  11
ENDBRANCH   9  10
ENDBRANCH   1   9
TORSDOF 13
ENDMDL
