MODEL 1
REMARK VINA RESULT:    -6.287      0.000      0.000
REMARK INTER + INTRA:          -6.471
REMARK INTER:                  -6.471
REMARK INTRA:                   0.000
REMARK UNBOUND:                 0.000
REMARK SMILES O=c1ccc2ccc(O)cc2o1
REMARK SMILES IDX 6 1 7 2 8 3 10 4 11 5 5 6 4 7 3 8 2 9 1 10 12 11 9 12
REMARK H PARENT 9 13
REMARK Flexibility Score: inf
ROOT
ATOM      1  C   UNL     1      29.506  24.766  47.088  1.00  0.00     0.016 A 
ATOM      2  C   UNL     1      29.010  25.105  45.825  1.00  0.00     0.047 A 
ATOM      3  C   UNL     1      27.726  24.697  45.435  1.00  0.00     0.119 A 
ATOM      4  C   UNL     1      26.936  23.945  46.313  1.00  0.00     0.094 A 
ATOM      5  C   UNL     1      27.423  23.601  47.578  1.00  0.00     0.142 A 
ATOM      6  C   UNL     1      28.717  24.013  47.968  1.00  0.00     0.018 A 
ATOM      7  C   UNL     1      29.176  23.653  49.239  1.00  0.00     0.019 A 
ATOM      8  C   UNL     1      28.351  22.903  50.078  1.00  0.00     0.094 A 
ATOM      9  C   UNL     1      27.081  22.531  49.624  1.00  0.00     0.336 A 
ATOM     10  O   UNL     1      26.323  21.854  50.366  1.00  0.00    -0.246 OA
ATOM     11  O   UNL     1      26.669  22.886  48.410  1.00  0.00    -0.423 OA
ENDROOT
BRANCH   3  12
ATOM     12  O   UNL     1      27.227  25.032  44.178  1.00  0.00    -0.508 OA
ATOM     13  H   UNL     1      27.814  25.017  43.354  1.00  0.00     0.293 HD
ENDBRANCH   3  12
TORSDOF 1
ENDMDL
MODEL 2
REMARK VINA RESULT:    -6.185      1.206      4.238
REMARK INTER + INTRA:          -6.366
REMARK INTER:                  -6.366
REMARK INTRA:                   0.000
REMARK UNBOUND:                 0.000
REMARK SMILES O=c1ccc2ccc(O)cc2o1
REMARK SMILES IDX 6 1 7 2 8 3 10 4 11 5 5 6 4 7 3 8 2 9 1 10 12 11 9 12
REMARK H PARENT 9 13
REMARK Flexibility Score: inf
ROOT
ATOM      1  C   UNL     1      29.413  24.401  49.348  1.00  0.00     0.016 A 
ATOM      2  C   UNL     1      28.836  24.014  50.561  1.00  0.00     0.047 A 
ATOM      3  C   UNL     1      27.474  23.684  50.625  1.00  0.00     0.119 A 
ATOM      4  C   UNL     1      26.687  23.742  49.468  1.00  0.00     0.094 A 
ATOM      5  C   UNL     1      27.255  24.127  48.249  1.00  0.00     0.142 A 
ATOM      6  C   UNL     1      28.627  24.460  48.188  1.00  0.00     0.018 A 
ATOM      7  C   UNL     1      29.167  24.842  46.956  1.00  0.00     0.019 A 
ATOM      8  C   UNL     1      28.342  24.884  45.831  1.00  0.00     0.094 A 
ATOM      9  C   UNL     1      26.992  24.541  45.967  1.00  0.00     0.336 A 
ATOM     10  O   UNL     1      26.232  24.573  44.964  1.00  0.00    -0.246 OA
ATOM     11  O   UNL     1      26.504  24.181  47.152  1.00  0.00    -0.423 OA
ENDROOT
BRANCH   3  12
ATOM     12  O   UNL     1      26.893  23.298  51.831  1.00  0.00    -0.508 OA
ATOM     13  H   UNL     1      27.452  23.142  52.661  1.00  0.00     0.293 HD
ENDBRANCH   3  12
TORSDOF 1
ENDMDL
MODEL 3
REMARK VINA RESULT:    -6.091      1.804      4.837
REMARK INTER + INTRA:          -6.269
REMARK INTER:                  -6.269
REMARK INTRA:                   0.000
REMARK UNBOUND:                 0.000
REMARK SMILES O=c1ccc2ccc(O)cc2o1
REMARK SMILES IDX 6 1 7 2 8 3 10 4 11 5 5 6 4 7 3 8 2 9 1 10 12 11 9 12
REMARK H PARENT 9 13
REMARK Flexibility Score: inf
ROOT
ATOM      1  C   UNL     1      26.519  22.826  49.164  1.00  0.00     0.016 A 
ATOM      2  C   UNL     1      26.951  22.076  50.263  1.00  0.00     0.047 A 
ATOM      3  C   UNL     1      28.319  21.959  50.547  1.00  0.00     0.119 A 
ATOM      4  C   UNL     1      29.260  22.596  49.729  1.00  0.00     0.094 A 
ATOM      5  C   UNL     1      28.838  23.350  48.628  1.00  0.00     0.142 A 
ATOM      6  C   UNL     1      27.459  23.465  48.343  1.00  0.00     0.018 A 
ATOM      7  C   UNL     1      27.068  24.224  47.235  1.00  0.00     0.019 A 
ATOM      8  C   UNL     1      28.043  24.840  46.449  1.00  0.00     0.094 A 
ATOM      9  C   UNL     1      29.391  24.682  46.792  1.00  0.00     0.336 A 
ATOM     10  O   UNL     1      30.284  25.229  46.096  1.00  0.00    -0.246 OA
ATOM     11  O   UNL     1      29.735  23.954  47.852  1.00  0.00    -0.423 OA
ENDROOT
BRANCH   3  12
ATOM     12  O   UNL     1      28.755  21.213  51.640  1.00  0.00    -0.508 OA
ATOM     13  H   UNL     1      28.742  21.592  52.579  1.00  0.00     0.293 HD
ENDBRANCH   3  12
TORSDOF 1
ENDMDL
MODEL 4
REMARK VINA RESULT:    -5.786      1.317      1.524
REMARK INTER + INTRA:          -5.955
REMARK INTER:                  -5.955
REMARK INTRA:                   0.000
REMARK UNBOUND:                 0.000
REMARK SMILES O=c1ccc2ccc(O)cc2o1
REMARK SMILES IDX 6 1 7 2 8 3 10 4 11 5 5 6 4 7 3 8 2 9 1 10 12 11 9 12
REMARK H PARENT 9 13
REMARK Flexibility Score: inf
ROOT
ATOM      1  C   UNL     1      28.938  25.082  47.912  1.00  0.00     0.016 A 
ATOM      2  C   UNL     1      28.297  24.880  46.685  1.00  0.00     0.047 A 
ATOM      3  C   UNL     1      27.244  23.959  46.579  1.00  0.00     0.119 A 
ATOM      4  C   UNL     1      26.831  23.238  47.705  1.00  0.00     0.094 A 
ATOM      5  C   UNL     1      27.465  23.433  48.937  1.00  0.00     0.142 A 
ATOM      6  C   UNL     1      28.526  24.360  49.041  1.00  0.00     0.018 A 
ATOM      7  C   UNL     1      29.141  24.533  50.285  1.00  0.00     0.019 A 
ATOM      8  C   UNL     1      28.694  23.790  51.379  1.00  0.00     0.094 A 
ATOM      9  C   UNL     1      27.637  22.890  51.201  1.00  0.00     0.336 A 
ATOM     10  O   UNL     1      27.220  22.212  52.175  1.00  0.00    -0.246 OA
ATOM     11  O   UNL     1      27.070  22.745  50.006  1.00  0.00    -0.423 OA
ENDROOT
BRANCH   3  12
ATOM     12  O   UNL     1      26.602  23.754  45.360  1.00  0.00    -0.508 OA
ATOM     13  H   UNL     1      27.092  23.858  44.480  1.00  0.00     0.293 HD
ENDBRANCH   3  12
TORSDOF 1
ENDMDL
MODEL 5
REMARK VINA RESULT:    -5.717      1.778      2.460
REMARK INTER + INTRA:          -5.884
REMARK INTER:                  -5.884
REMARK INTRA:                   0.000
REMARK UNBOUND:                 0.000
REMARK SMILES O=c1ccc2ccc(O)cc2o1
REMARK SMILES IDX 6 1 7 2 8 3 10 4 11 5 5 6 4 7 3 8 2 9 1 10 12 11 9 12
REMARK H PARENT 9 13
REMARK Flexibility Score: inf
ROOT
ATOM      1  C   UNL     1      27.002  24.310  47.486  1.00  0.00     0.016 A 
ATOM      2  C   UNL     1      27.943  24.891  46.629  1.00  0.00     0.047 A 
ATOM      3  C   UNL     1      29.315  24.741  46.878  1.00  0.00     0.119 A 
ATOM      4  C   UNL     1      29.747  24.006  47.989  1.00  0.00     0.094 A 
ATOM      5  C   UNL     1      28.813  23.420  48.851  1.00  0.00     0.142 A 
ATOM      6  C   UNL     1      27.432  23.573  48.598  1.00  0.00     0.018 A 
ATOM      7  C   UNL     1      26.523  22.977  49.478  1.00  0.00     0.019 A 
ATOM      8  C   UNL     1      27.002  22.254  50.571  1.00  0.00     0.094 A 
ATOM      9  C   UNL     1      28.384  22.144  50.758  1.00  0.00     0.336 A 
ATOM     10  O   UNL     1      28.836  21.497  51.738  1.00  0.00    -0.246 OA
ATOM     11  O   UNL     1      29.227  22.722  49.906  1.00  0.00    -0.423 OA
ENDROOT
BRANCH   3  12
ATOM     12  O   UNL     1      30.257  25.318  46.029  1.00  0.00    -0.508 OA
ATOM     13  H   UNL     1      30.881  24.751  45.469  1.00  0.00     0.293 HD
ENDBRANCH   3  12
TORSDOF 1
ENDMDL
MODEL 6
REMARK VINA RESULT:    -5.535      1.864      4.242
REMARK INTER + INTRA:          -5.697
REMARK INTER:                  -5.697
REMARK INTRA:                   0.000
REMARK UNBOUND:                 0.000
REMARK SMILES O=c1ccc2ccc(O)cc2o1
REMARK SMILES IDX 6 1 7 2 8 3 10 4 11 5 5 6 4 7 3 8 2 9 1 10 12 11 9 12
REMARK H PARENT 9 13
REMARK Flexibility Score: inf
ROOT
ATOM      1  C   UNL     1      29.137  22.245  49.445  1.00  0.00     0.016 A 
ATOM      2  C   UNL     1      27.781  22.221  49.787  1.00  0.00     0.047 A 
ATOM      3  C   UNL     1      26.873  23.071  49.139  1.00  0.00     0.119 A 
ATOM      4  C   UNL     1      27.324  23.947  48.144  1.00  0.00     0.094 A 
ATOM      5  C   UNL     1      28.678  23.978  47.795  1.00  0.00     0.142 A 
ATOM      6  C   UNL     1      29.591  23.122  48.450  1.00  0.00     0.018 A 
ATOM      7  C   UNL     1      30.939  23.175  48.080  1.00  0.00     0.019 A 
ATOM      8  C   UNL     1      31.340  24.066  47.083  1.00  0.00     0.094 A 
ATOM      9  C   UNL     1      30.379  24.884  46.478  1.00  0.00     0.336 A 
ATOM     10  O   UNL     1      30.722  25.694  45.578  1.00  0.00    -0.246 OA
ATOM     11  O   UNL     1      29.104  24.813  46.850  1.00  0.00    -0.423 OA
ENDROOT
BRANCH   3  12
ATOM     12  O   UNL     1      25.521  23.052  49.475  1.00  0.00    -0.508 OA
ATOM     13  H   UNL     1      24.951  22.228  49.328  1.00  0.00     0.293 HD
ENDBRANCH   3  12
TORSDOF 1
ENDMDL
MODEL 7
REMARK VINA RESULT:    -5.511      1.754      4.924
REMARK INTER + INTRA:          -5.672
REMARK INTER:                  -5.672
REMARK INTRA:                   0.000
REMARK UNBOUND:                 0.000
REMARK SMILES O=c1ccc2ccc(O)cc2o1
REMARK SMILES IDX 6 1 7 2 8 3 10 4 11 5 5 6 4 7 3 8 2 9 1 10 12 11 9 12
REMARK H PARENT 9 13
REMARK Flexibility Score: inf
ROOT
ATOM      1  C   UNL     1      29.899  22.323  50.880  1.00  0.00     0.016 A 
ATOM      2  C   UNL     1      29.257  21.846  52.028  1.00  0.00     0.047 A 
ATOM      3  C   UNL     1      27.879  22.044  52.203  1.00  0.00     0.119 A 
ATOM      4  C   UNL     1      27.142  22.722  51.224  1.00  0.00     0.094 A 
ATOM      5  C   UNL     1      27.775  23.202  50.073  1.00  0.00     0.142 A 
ATOM      6  C   UNL     1      29.163  23.002  49.899  1.00  0.00     0.018 A 
ATOM      7  C   UNL     1      29.768  23.493  48.738  1.00  0.00     0.019 A 
ATOM      8  C   UNL     1      28.990  24.162  47.792  1.00  0.00     0.094 A 
ATOM      9  C   UNL     1      27.621  24.323  48.031  1.00  0.00     0.336 A 
ATOM     10  O   UNL     1      26.904  24.924  47.190  1.00  0.00    -0.246 OA
ATOM     11  O   UNL     1      27.071  23.846  49.145  1.00  0.00    -0.423 OA
ENDROOT
BRANCH   3  12
ATOM     12  O   UNL     1      27.234  21.572  53.344  1.00  0.00    -0.508 OA
ATOM     13  H   UNL     1      26.883  20.624  53.399  1.00  0.00     0.293 HD
ENDBRANCH   3  12
TORSDOF 1
ENDMDL
MODEL 8
REMARK VINA RESULT:    -5.388     12.276     13.209
REMARK INTER + INTRA:          -5.545
REMARK INTER:                  -5.545
REMARK INTRA:                   0.000
REMARK UNBOUND:                 0.000
REMARK SMILES O=c1ccc2ccc(O)cc2o1
REMARK SMILES IDX 6 1 7 2 8 3 10 4 11 5 5 6 4 7 3 8 2 9 1 10 12 11 9 12
REMARK H PARENT 9 13
REMARK Flexibility Score: inf
ROOT
ATOM      1  C   UNL     1      17.500  20.680  43.485  1.00  0.00     0.016 A 
ATOM      2  C   UNL     1      17.047  21.927  43.041  1.00  0.00     0.047 A 
ATOM      3  C   UNL     1      15.712  22.309  43.243  1.00  0.00     0.119 A 
ATOM      4  C   UNL     1      14.827  21.438  43.891  1.00  0.00     0.094 A 
ATOM      5  C   UNL     1      15.271  20.189  44.339  1.00  0.00     0.142 A 
ATOM      6  C   UNL     1      16.616  19.807  44.134  1.00  0.00     0.018 A 
ATOM      7  C   UNL     1      17.029  18.553  44.593  1.00  0.00     0.019 A 
ATOM      8  C   UNL     1      16.110  17.720  45.233  1.00  0.00     0.094 A 
ATOM      9  C   UNL     1      14.794  18.166  45.401  1.00  0.00     0.336 A 
ATOM     10  O   UNL     1      13.951  17.430  45.976  1.00  0.00    -0.246 OA
ATOM     11  O   UNL     1      14.427  19.365  44.955  1.00  0.00    -0.423 OA
ENDROOT
BRANCH   3  12
ATOM     12  O   UNL     1      15.256  23.549  42.803  1.00  0.00    -0.508 OA
ATOM     13  H   UNL     1      14.694  23.640  41.966  1.00  0.00     0.293 HD
ENDBRANCH   3  12
TORSDOF 1
ENDMDL
MODEL 9
REMARK VINA RESULT:    -5.306      2.821      4.284
REMARK INTER + INTRA:          -5.461
REMARK INTER:                  -5.461
REMARK INTRA:                   0.000
REMARK UNBOUND:                 0.000
REMARK SMILES O=c1ccc2ccc(O)cc2o1
REMARK SMILES IDX 6 1 7 2 8 3 10 4 11 5 5 6 4 7 3 8 2 9 1 10 12 11 9 12
REMARK H PARENT 9 13
REMARK Flexibility Score: inf
ROOT
ATOM      1  C   UNL     1      26.951  22.141  50.582  1.00  0.00     0.016 A 
ATOM      2  C   UNL     1      26.415  22.905  49.540  1.00  0.00     0.047 A 
ATOM      3  C   UNL     1      27.077  24.059  49.095  1.00  0.00     0.119 A 
ATOM      4  C   UNL     1      28.279  24.451  49.698  1.00  0.00     0.094 A 
ATOM      5  C   UNL     1      28.823  23.693  50.741  1.00  0.00     0.142 A 
ATOM      6  C   UNL     1      28.154  22.531  51.187  1.00  0.00     0.018 A 
ATOM      7  C   UNL     1      28.721  21.794  52.231  1.00  0.00     0.019 A 
ATOM      8  C   UNL     1      29.921  22.225  52.800  1.00  0.00     0.094 A 
ATOM      9  C   UNL     1      30.527  23.386  52.306  1.00  0.00     0.336 A 
ATOM     10  O   UNL     1      31.609  23.790  52.806  1.00  0.00    -0.246 OA
ATOM     11  O   UNL     1      29.965  24.068  51.311  1.00  0.00    -0.423 OA
ENDROOT
BRANCH   3  12
ATOM     12  O   UNL     1      26.549  24.824  48.058  1.00  0.00    -0.508 OA
ATOM     13  H   UNL     1      25.833  24.459  47.443  1.00  0.00     0.293 HD
ENDBRANCH   3  12
TORSDOF 1
ENDMDL
