MODEL 1
REMARK VINA RESULT:    -3.895      0.000      0.000
REMARK INTER + INTRA:          -5.246
REMARK INTER:                  -5.033
REMARK INTRA:                  -0.213
REMARK UNBOUND:                -0.213
REMARK SMILES CCCCCCC(=O)[O-]
REMARK SMILES IDX 5 1 6 2 7 3 8 4 9 5 4 6 3 7 2 8 1 9
REMARK H PARENT
REMARK Flexibility Score: inf
ROOT
ATOM      1  C   UNL     1     -36.939  83.555 -17.983  1.00  0.00     0.006 C 
ENDROOT
BRANCH   1   2
ATOM      2  C   UNL     1     -36.119  84.693 -17.367  1.00  0.00     0.053 C 
BRANCH   2   3
ATOM      3  C   UNL     1     -34.982  85.064 -18.265  1.00  0.00     0.041 C 
ATOM      4  O   UNL     1     -35.086  84.923 -19.512  1.00  0.00    -0.550 OA
ATOM      5  O   UNL     1     -33.788  85.521 -17.722  1.00  0.00    -0.550 OA
ENDBRANCH   2   3
ENDBRANCH   1   2
BRANCH   1   6
ATOM      6  C   UNL     1     -36.230  82.208 -17.809  1.00  0.00     0.000 C 
BRANCH   6   7
ATOM      7  C   UNL     1     -36.403  81.330 -19.057  1.00  0.00    -0.000 C 
BRANCH   7   8
ATOM      8  C   UNL     1     -37.749  81.562 -19.762  1.00  0.00    -0.003 C 
ATOM      9  C   UNL     1     -38.599  80.294 -19.847  1.00  0.00     0.004 C 
ENDBRANCH   7   8
ENDBRANCH   6   7
ENDBRANCH   1   6
TORSDOF 5
ENDMDL
MODEL 2
REMARK VINA RESULT:    -3.719      3.324      5.084
REMARK INTER + INTRA:          -5.018
REMARK INTER:                  -4.807
REMARK INTRA:                  -0.212
REMARK UNBOUND:                -0.213
REMARK SMILES CCCCCCC(=O)[O-]
REMARK SMILES IDX 5 1 6 2 7 3 8 4 9 5 4 6 3 7 2 8 1 9
REMARK H PARENT
REMARK Flexibility Score: inf
ROOT
ATOM      1  C   UNL     1     -36.165  81.423 -19.088  1.00  0.00     0.006 C 
ENDROOT
BRANCH   1   2
ATOM      2  C   UNL     1     -37.552  81.503 -19.734  1.00  0.00     0.053 C 
BRANCH   2   3
ATOM      3  C   UNL     1     -38.150  80.138 -19.863  1.00  0.00     0.041 C 
ATOM      4  O   UNL     1     -37.431  79.161 -20.202  1.00  0.00    -0.550 OA
ATOM      5  O   UNL     1     -39.511  79.953 -19.656  1.00  0.00    -0.550 OA
ENDBRANCH   2   3
ENDBRANCH   1   2
BRANCH   1   6
ATOM      6  C   UNL     1     -36.115  82.237 -17.790  1.00  0.00     0.000 C 
BRANCH   6   7
ATOM      7  C   UNL     1     -36.872  83.565 -17.944  1.00  0.00    -0.000 C 
BRANCH   7   8
ATOM      8  C   UNL     1     -36.086  84.762 -17.385  1.00  0.00    -0.003 C 
ATOM      9  C   UNL     1     -34.882  85.134 -18.250  1.00  0.00     0.004 C 
ENDBRANCH   7   8
ENDBRANCH   6   7
ENDBRANCH   1   6
TORSDOF 5
ENDMDL
MODEL 3
REMARK VINA RESULT:    -3.682      1.018      2.166
REMARK INTER + INTRA:          -4.971
REMARK INTER:                  -4.570
REMARK INTRA:                  -0.401
REMARK UNBOUND:                -0.213
REMARK SMILES CCCCCCC(=O)[O-]
REMARK SMILES IDX 5 1 6 2 7 3 8 4 9 5 4 6 3 7 2 8 1 9
REMARK H PARENT
REMARK Flexibility Score: inf
ROOT
ATOM      1  C   UNL     1     -36.983  83.636 -17.948  1.00  0.00     0.006 C 
ENDROOT
BRANCH   1   2
ATOM      2  C   UNL     1     -35.993  84.723 -17.518  1.00  0.00     0.053 C 
BRANCH   2   3
ATOM      3  C   UNL     1     -34.886  84.849 -18.516  1.00  0.00     0.041 C 
ATOM      4  O   UNL     1     -33.698  85.010 -18.129  1.00  0.00    -0.550 OA
ATOM      5  O   UNL     1     -35.171  84.835 -19.876  1.00  0.00    -0.550 OA
ENDBRANCH   2   3
ENDBRANCH   1   2
BRANCH   1   6
ATOM      6  C   UNL     1     -36.350  82.244 -17.847  1.00  0.00     0.000 C 
BRANCH   6   7
ATOM      7  C   UNL     1     -36.450  81.496 -19.185  1.00  0.00    -0.000 C 
BRANCH   7   8
ATOM      8  C   UNL     1     -35.150  80.763 -19.552  1.00  0.00    -0.003 C 
ATOM      9  C   UNL     1     -33.957  81.219 -18.712  1.00  0.00     0.004 C 
ENDBRANCH   7   8
ENDBRANCH   6   7
ENDBRANCH   1   6
TORSDOF 5
ENDMDL
MODEL 4
REMARK VINA RESULT:    -3.663      2.083      3.664
REMARK INTER + INTRA:          -4.946
REMARK INTER:                  -4.603
REMARK INTRA:                  -0.343
REMARK UNBOUND:                -0.213
REMARK SMILES CCCCCCC(=O)[O-]
REMARK SMILES IDX 5 1 6 2 7 3 8 4 9 5 4 6 3 7 2 8 1 9
REMARK H PARENT
REMARK Flexibility Score: inf
ROOT
ATOM      1  C   UNL     1     -35.406  81.461 -18.897  1.00  0.00     0.006 C 
ENDROOT
BRANCH   1   2
ATOM      2  C   UNL     1     -33.889  81.325 -18.732  1.00  0.00     0.053 C 
BRANCH   2   3
ATOM      3  C   UNL     1     -33.181  82.404 -19.489  1.00  0.00     0.041 C 
ATOM      4  O   UNL     1     -33.582  82.742 -20.634  1.00  0.00    -0.550 OA
ATOM      5  O   UNL     1     -32.048  83.002 -18.951  1.00  0.00    -0.550 OA
ENDBRANCH   2   3
ENDBRANCH   1   2
BRANCH   1   6
ATOM      6  C   UNL     1     -36.035  82.139 -17.674  1.00  0.00     0.000 C 
BRANCH   6   7
ATOM      7  C   UNL     1     -36.748  83.440 -18.072  1.00  0.00    -0.000 C 
BRANCH   7   8
ATOM      8  C   UNL     1     -36.132  84.680 -17.405  1.00  0.00    -0.003 C 
ATOM      9  C   UNL     1     -34.945  85.243 -18.187  1.00  0.00     0.004 C 
ENDBRANCH   7   8
ENDBRANCH   6   7
ENDBRANCH   1   6
TORSDOF 5
ENDMDL
MODEL 5
REMARK VINA RESULT:    -3.571     17.746     19.684
REMARK INTER + INTRA:          -4.827
REMARK INTER:                  -4.649
REMARK INTRA:                  -0.178
REMARK UNBOUND:                -0.213
REMARK SMILES CCCCCCC(=O)[O-]
REMARK SMILES IDX 5 1 6 2 7 3 8 4 9 5 4 6 3 7 2 8 1 9
REMARK H PARENT
REMARK Flexibility Score: inf
ROOT
ATOM      1  C   UNL     1     -25.027  96.022 -28.155  1.00  0.00     0.006 C 
ENDROOT
BRANCH   1   2
ATOM      2  C   UNL     1     -25.888  94.757 -28.209  1.00  0.00     0.053 C 
BRANCH   2   3
ATOM      3  C   UNL     1     -26.354  94.381 -26.838  1.00  0.00     0.041 C 
ATOM      4  O   UNL     1     -26.700  93.196 -26.589  1.00  0.00    -0.550 OA
ATOM      5  O   UNL     1     -26.454  95.350 -25.848  1.00  0.00    -0.550 OA
ENDBRANCH   2   3
ENDBRANCH   1   2
BRANCH   1   6
ATOM      6  C   UNL     1     -24.410  96.328 -29.525  1.00  0.00     0.000 C 
BRANCH   6   7
ATOM      7  C   UNL     1     -24.269  95.048 -30.362  1.00  0.00    -0.000 C 
BRANCH   7   8
ATOM      8  C   UNL     1     -23.437  95.265 -31.637  1.00  0.00    -0.003 C 
ATOM      9  C   UNL     1     -23.459  96.715 -32.117  1.00  0.00     0.004 C 
ENDBRANCH   7   8
ENDBRANCH   6   7
ENDBRANCH   1   6
TORSDOF 5
ENDMDL
MODEL 6
REMARK VINA RESULT:    -3.511     18.573     20.367
REMARK INTER + INTRA:          -4.750
REMARK INTER:                  -4.546
REMARK INTRA:                  -0.204
REMARK UNBOUND:                -0.213
REMARK SMILES CCCCCCC(=O)[O-]
REMARK SMILES IDX 5 1 6 2 7 3 8 4 9 5 4 6 3 7 2 8 1 9
REMARK H PARENT
REMARK Flexibility Score: inf
ROOT
ATOM      1  C   UNL     1     -24.373  96.283 -29.762  1.00  0.00     0.006 C 
ENDROOT
BRANCH   1   2
ATOM      2  C   UNL     1     -24.159  95.054 -30.650  1.00  0.00     0.053 C 
BRANCH   2   3
ATOM      3  C   UNL     1     -23.442  95.433 -31.907  1.00  0.00     0.041 C 
ATOM      4  O   UNL     1     -23.002  94.542 -32.680  1.00  0.00    -0.550 OA
ATOM      5  O   UNL     1     -23.217  96.772 -32.201  1.00  0.00    -0.550 OA
ENDBRANCH   2   3
ENDBRANCH   1   2
BRANCH   1   6
ATOM      6  C   UNL     1     -24.854  95.877 -28.364  1.00  0.00     0.000 C 
BRANCH   6   7
ATOM      7  C   UNL     1     -24.811  94.351 -28.191  1.00  0.00    -0.000 C 
BRANCH   7   8
ATOM      8  C   UNL     1     -25.993  93.817 -27.365  1.00  0.00    -0.003 C 
ATOM      9  C   UNL     1     -26.543  94.852 -26.383  1.00  0.00     0.004 C 
ENDBRANCH   7   8
ENDBRANCH   6   7
ENDBRANCH   1   6
TORSDOF 5
ENDMDL
MODEL 7
REMARK VINA RESULT:    -3.492     13.885     14.677
REMARK INTER + INTRA:          -4.726
REMARK INTER:                  -4.270
REMARK INTRA:                  -0.456
REMARK UNBOUND:                -0.213
REMARK SMILES CCCCCCC(=O)[O-]
REMARK SMILES IDX 5 1 6 2 7 3 8 4 9 5 4 6 3 7 2 8 1 9
REMARK H PARENT
REMARK Flexibility Score: inf
ROOT
ATOM      1  C   UNL     1     -22.521  84.380 -22.101  1.00  0.00     0.006 C 
ENDROOT
BRANCH   1   2
ATOM      2  C   UNL     1     -22.322  84.575 -20.595  1.00  0.00     0.053 C 
BRANCH   2   3
ATOM      3  C   UNL     1     -22.418  83.265 -19.880  1.00  0.00     0.041 C 
ATOM      4  O   UNL     1     -21.423  82.808 -19.258  1.00  0.00    -0.550 OA
ATOM      5  O   UNL     1     -23.591  82.524 -19.941  1.00  0.00    -0.550 OA
ENDBRANCH   2   3
ENDBRANCH   1   2
BRANCH   1   6
ATOM      6  C   UNL     1     -21.291  83.725 -22.739  1.00  0.00     0.000 C 
BRANCH   6   7
ATOM      7  C   UNL     1     -21.706  82.691 -23.797  1.00  0.00    -0.000 C 
BRANCH   7   8
ATOM      8  C   UNL     1     -22.374  81.451 -23.182  1.00  0.00    -0.003 C 
ATOM      9  C   UNL     1     -21.418  80.633 -22.315  1.00  0.00     0.004 C 
ENDBRANCH   7   8
ENDBRANCH   6   7
ENDBRANCH   1   6
TORSDOF 5
ENDMDL
MODEL 8
REMARK VINA RESULT:    -3.471     17.694     18.710
REMARK INTER + INTRA:          -4.698
REMARK INTER:                  -4.478
REMARK INTRA:                  -0.219
REMARK UNBOUND:                -0.213
REMARK SMILES CCCCCCC(=O)[O-]
REMARK SMILES IDX 5 1 6 2 7 3 8 4 9 5 4 6 3 7 2 8 1 9
REMARK H PARENT
REMARK Flexibility Score: inf
ROOT
ATOM      1  C   UNL     1     -24.953  93.109 -28.421  1.00  0.00     0.006 C 
ENDROOT
BRANCH   1   2
ATOM      2  C   UNL     1     -24.600  94.490 -28.982  1.00  0.00     0.053 C 
BRANCH   2   3
ATOM      3  C   UNL     1     -25.261  95.565 -28.179  1.00  0.00     0.041 C 
ATOM      4  O   UNL     1     -25.140  96.773 -28.516  1.00  0.00    -0.550 OA
ATOM      5  O   UNL     1     -25.971  95.239 -27.030  1.00  0.00    -0.550 OA
ENDBRANCH   2   3
ENDBRANCH   1   2
BRANCH   1   6
ATOM      6  C   UNL     1     -23.688  92.299 -28.115  1.00  0.00     0.000 C 
BRANCH   6   7
ATOM      7  C   UNL     1     -23.893  90.813 -28.446  1.00  0.00    -0.000 C 
BRANCH   7   8
ATOM      8  C   UNL     1     -22.822  90.267 -29.403  1.00  0.00    -0.003 C 
ATOM      9  C   UNL     1     -22.717  91.075 -30.696  1.00  0.00     0.004 C 
ENDBRANCH   7   8
ENDBRANCH   6   7
ENDBRANCH   1   6
TORSDOF 5
ENDMDL
MODEL 9
REMARK VINA RESULT:    -3.466     13.483     14.745
REMARK INTER + INTRA:          -4.692
REMARK INTER:                  -4.334
REMARK INTRA:                  -0.357
REMARK UNBOUND:                -0.213
REMARK SMILES CCCCCCC(=O)[O-]
REMARK SMILES IDX 5 1 6 2 7 3 8 4 9 5 4 6 3 7 2 8 1 9
REMARK H PARENT
REMARK Flexibility Score: inf
ROOT
ATOM      1  C   UNL     1     -21.707  83.096 -23.334  1.00  0.00     0.006 C 
ENDROOT
BRANCH   1   2
ATOM      2  C   UNL     1     -21.268  84.518 -22.971  1.00  0.00     0.053 C 
BRANCH   2   3
ATOM      3  C   UNL     1     -22.289  85.513 -23.425  1.00  0.00     0.041 C 
ATOM      4  O   UNL     1     -21.939  86.681 -23.740  1.00  0.00    -0.550 OA
ATOM      5  O   UNL     1     -23.633  85.166 -23.454  1.00  0.00    -0.550 OA
ENDBRANCH   2   3
ENDBRANCH   1   2
BRANCH   1   6
ATOM      6  C   UNL     1     -21.749  82.199 -22.092  1.00  0.00     0.000 C 
BRANCH   6   7
ATOM      7  C   UNL     1     -23.117  82.286 -21.397  1.00  0.00    -0.000 C 
BRANCH   7   8
ATOM      8  C   UNL     1     -23.046  82.998 -20.037  1.00  0.00    -0.003 C 
ATOM      9  C   UNL     1     -21.614  83.145 -19.522  1.00  0.00     0.004 C 
ENDBRANCH   7   8
ENDBRANCH   6   7
ENDBRANCH   1   6
TORSDOF 5
ENDMDL
