MODEL 1
REMARK VINA RESULT:    -4.179      0.000      0.000
REMARK INTER + INTRA:         -10.724
REMARK INTER:                  -8.087
REMARK INTRA:                  -2.636
REMARK UNBOUND:                -2.636
REMARK SMILES CCCCCC=CCC=CCCCCCCCCOC(C)=O
REMARK SMILES IDX 12 1 11 2 10 3 9 4 8 5 7 6 6 7 5 8 4 9 3 10 2 11 1 12 13 13
REMARK SMILES IDX 14 14 15 15 16 16 17 17 18 18 19 19 20 20 22 21 21 22
REMARK H PARENT
REMARK Flexibility Score: inf
ROOT
ATOM      1  C   UNL     1      67.329  51.583  18.857  1.00  0.00     0.004 C 
ENDROOT
BRANCH   1   2
ATOM      2  C   UNL     1      65.898  52.112  19.036  1.00  0.00     0.027 C 
BRANCH   2   3
ATOM      3  C   UNL     1      65.832  53.134  20.136  1.00  0.00    -0.031 C 
ATOM      4  C   UNL     1      66.858  53.963  20.387  1.00  0.00    -0.027 C 
BRANCH   4   5
ATOM      5  C   UNL     1      66.807  54.964  21.505  1.00  0.00     0.054 C 
BRANCH   5   6
ATOM      6  C   UNL     1      67.946  54.751  22.461  1.00  0.00    -0.027 C 
ATOM      7  C   UNL     1      68.650  53.610  22.473  1.00  0.00    -0.031 C 
BRANCH   7   8
ATOM      8  C   UNL     1      69.798  53.399  23.423  1.00  0.00     0.027 C 
BRANCH   8   9
ATOM      9  C   UNL     1      70.347  51.965  23.367  1.00  0.00     0.004 C 
BRANCH   9  10
ATOM     10  C   UNL     1      69.527  51.067  22.430  1.00  0.00     0.000 C 
BRANCH  10  11
ATOM     11  C   UNL     1      69.700  49.588  22.796  1.00  0.00    -0.003 C 
ATOM     12  C   UNL     1      68.466  48.777  22.413  1.00  0.00     0.004 C 
ENDBRANCH  10  11
ENDBRANCH   9  10
ENDBRANCH   8   9
ENDBRANCH   7   8
ENDBRANCH   5   6
ENDBRANCH   4   5
ENDBRANCH   2   3
ENDBRANCH   1   2
BRANCH   1  13
ATOM     13  C   UNL     1      67.945  51.992  17.510  1.00  0.00     0.000 C 
BRANCH  13  14
ATOM     14  C   UNL     1      69.345  52.610  17.664  1.00  0.00     0.000 C 
BRANCH  14  15
ATOM     15  C   UNL     1      69.912  52.461  19.087  1.00  0.00     0.000 C 
BRANCH  15  16
ATOM     16  C   UNL     1      71.129  53.349  19.397  1.00  0.00     0.003 C 
BRANCH  16  17
ATOM     17  C   UNL     1      70.749  54.811  19.672  1.00  0.00     0.042 C 
BRANCH  17  18
ATOM     18  C   UNL     1      71.615  55.768  18.857  1.00  0.00     0.233 C 
BRANCH  18  19
ATOM     19  O   UNL     1      72.259  55.049  17.808  1.00  0.00    -0.466 OA
BRANCH  19  20
ATOM     20  C   UNL     1      73.612  55.213  17.502  1.00  0.00     0.302 C 
ATOM     21  O   UNL     1      74.015  56.239  16.890  1.00  0.00    -0.253 OA
ATOM     22  C   UNL     1      74.582  54.139  17.860  1.00  0.00     0.139 C 
ENDBRANCH  19  20
ENDBRANCH  18  19
ENDBRANCH  17  18
ENDBRANCH  16  17
ENDBRANCH  15  16
ENDBRANCH  14  15
ENDBRANCH  13  14
ENDBRANCH   1  13
TORSDOF 16
ENDMDL
MODEL 2
REMARK VINA RESULT:    -4.118      1.988      2.233
REMARK INTER + INTRA:         -10.607
REMARK INTER:                  -8.292
REMARK INTRA:                  -2.315
REMARK UNBOUND:                -2.636
REMARK SMILES CCCCCC=CCC=CCCCCCCCCOC(C)=O
REMARK SMILES IDX 12 1 11 2 10 3 9 4 8 5 7 6 6 7 5 8 4 9 3 10 2 11 1 12 13 13
REMARK SMILES IDX 14 14 15 15 16 16 17 17 18 18 19 19 20 20 22 21 21 22
REMARK H PARENT
REMARK Flexibility Score: inf
ROOT
ATOM      1  C   UNL     1      67.250  51.561  18.021  1.00  0.00     0.004 C 
ENDROOT
BRANCH   1   2
ATOM      2  C   UNL     1      66.138  52.140  18.909  1.00  0.00     0.027 C 
BRANCH   2   3
ATOM      3  C   UNL     1      66.709  52.992  20.008  1.00  0.00    -0.031 C 
ATOM      4  C   UNL     1      66.101  54.118  20.410  1.00  0.00    -0.027 C 
BRANCH   4   5
ATOM      5  C   UNL     1      66.686  54.988  21.486  1.00  0.00     0.054 C 
BRANCH   5   6
ATOM      6  C   UNL     1      67.973  54.407  21.997  1.00  0.00    -0.027 C 
ATOM      7  C   UNL     1      68.366  54.576  23.269  1.00  0.00    -0.031 C 
BRANCH   7   8
ATOM      8  C   UNL     1      69.651  53.986  23.784  1.00  0.00     0.027 C 
BRANCH   8   9
ATOM      9  C   UNL     1      70.403  53.191  22.706  1.00  0.00     0.004 C 
BRANCH   9  10
ATOM     10  C   UNL     1      70.129  51.684  22.802  1.00  0.00     0.000 C 
BRANCH  10  11
ATOM     11  C   UNL     1      69.795  51.098  21.424  1.00  0.00    -0.003 C 
ATOM     12  C   UNL     1      68.653  50.091  21.516  1.00  0.00     0.004 C 
ENDBRANCH  10  11
ENDBRANCH   9  10
ENDBRANCH   8   9
ENDBRANCH   7   8
ENDBRANCH   5   6
ENDBRANCH   4   5
ENDBRANCH   2   3
ENDBRANCH   1   2
BRANCH   1  13
ATOM     13  C   UNL     1      68.226  52.638  17.523  1.00  0.00     0.000 C 
BRANCH  13  14
ATOM     14  C   UNL     1      69.678  52.363  17.949  1.00  0.00     0.000 C 
BRANCH  14  15
ATOM     15  C   UNL     1      70.319  53.550  18.690  1.00  0.00     0.000 C 
BRANCH  15  16
ATOM     16  C   UNL     1      71.777  53.848  18.298  1.00  0.00     0.003 C 
BRANCH  16  17
ATOM     17  C   UNL     1      71.954  54.091  16.792  1.00  0.00     0.042 C 
BRANCH  17  18
ATOM     18  C   UNL     1      71.312  55.411  16.369  1.00  0.00     0.233 C 
BRANCH  18  19
ATOM     19  O   UNL     1      72.154  56.067  15.426  1.00  0.00    -0.466 OA
BRANCH  19  20
ATOM     20  C   UNL     1      71.700  56.481  14.170  1.00  0.00     0.302 C 
ATOM     21  O   UNL     1      71.536  57.706  13.917  1.00  0.00    -0.253 OA
ATOM     22  C   UNL     1      71.360  55.461  13.139  1.00  0.00     0.139 C 
ENDBRANCH  19  20
ENDBRANCH  18  19
ENDBRANCH  17  18
ENDBRANCH  16  17
ENDBRANCH  15  16
ENDBRANCH  14  15
ENDBRANCH  13  14
ENDBRANCH   1  13
TORSDOF 16
ENDMDL
MODEL 3
REMARK VINA RESULT:    -4.039      1.406      3.220
REMARK INTER + INTRA:         -10.453
REMARK INTER:                  -7.617
REMARK INTRA:                  -2.836
REMARK UNBOUND:                -2.636
REMARK SMILES CCCCCC=CCC=CCCCCCCCCOC(C)=O
REMARK SMILES IDX 12 1 11 2 10 3 9 4 8 5 7 6 6 7 5 8 4 9 3 10 2 11 1 12 13 13
REMARK SMILES IDX 14 14 15 15 16 16 17 17 18 18 19 19 20 20 22 21 21 22
REMARK H PARENT
REMARK Flexibility Score: inf
ROOT
ATOM      1  C   UNL     1      67.118  52.220  18.109  1.00  0.00     0.004 C 
ENDROOT
BRANCH   1   2
ATOM      2  C   UNL     1      66.906  51.414  19.400  1.00  0.00     0.027 C 
BRANCH   2   3
ATOM      3  C   UNL     1      68.061  51.594  20.346  1.00  0.00    -0.031 C 
ATOM      4  C   UNL     1      68.584  50.557  21.019  1.00  0.00    -0.027 C 
BRANCH   4   5
ATOM      5  C   UNL     1      69.717  50.738  21.987  1.00  0.00     0.054 C 
BRANCH   5   6
ATOM      6  C   UNL     1      69.879  52.187  22.350  1.00  0.00    -0.027 C 
ATOM      7  C   UNL     1      69.298  52.708  23.441  1.00  0.00    -0.031 C 
BRANCH   7   8
ATOM      8  C   UNL     1      69.468  54.157  23.811  1.00  0.00     0.027 C 
BRANCH   8   9
ATOM      9  C   UNL     1      69.123  55.101  22.649  1.00  0.00     0.004 C 
BRANCH   9  10
ATOM     10  C   UNL     1      67.633  55.470  22.627  1.00  0.00     0.000 C 
BRANCH  10  11
ATOM     11  C   UNL     1      66.943  54.895  21.384  1.00  0.00    -0.003 C 
ATOM     12  C   UNL     1      67.677  55.300  20.109  1.00  0.00     0.004 C 
ENDBRANCH  10  11
ENDBRANCH   9  10
ENDBRANCH   8   9
ENDBRANCH   7   8
ENDBRANCH   5   6
ENDBRANCH   4   5
ENDBRANCH   2   3
ENDBRANCH   1   2
BRANCH   1  13
ATOM     13  C   UNL     1      68.499  51.975  17.482  1.00  0.00     0.000 C 
BRANCH  13  14
ATOM     14  C   UNL     1      69.415  53.207  17.572  1.00  0.00     0.000 C 
BRANCH  14  15
ATOM     15  C   UNL     1      70.780  52.892  18.212  1.00  0.00     0.000 C 
BRANCH  15  16
ATOM     16  C   UNL     1      71.238  53.894  19.285  1.00  0.00     0.003 C 
BRANCH  16  17
ATOM     17  C   UNL     1      72.677  54.384  19.071  1.00  0.00     0.042 C 
BRANCH  17  18
ATOM     18  C   UNL     1      73.113  54.192  17.619  1.00  0.00     0.233 C 
BRANCH  18  19
ATOM     19  O   UNL     1      73.217  55.463  16.983  1.00  0.00    -0.466 OA
BRANCH  19  20
ATOM     20  C   UNL     1      72.272  55.923  16.062  1.00  0.00     0.302 C 
ATOM     21  O   UNL     1      71.977  57.148  15.998  1.00  0.00    -0.253 OA
ATOM     22  C   UNL     1      71.569  54.949  15.181  1.00  0.00     0.139 C 
ENDBRANCH  19  20
ENDBRANCH  18  19
ENDBRANCH  17  18
ENDBRANCH  16  17
ENDBRANCH  15  16
ENDBRANCH  14  15
ENDBRANCH  13  14
ENDBRANCH   1  13
TORSDOF 16
ENDMDL
MODEL 4
REMARK VINA RESULT:    -4.031      1.439      3.478
REMARK INTER + INTRA:         -10.437
REMARK INTER:                  -8.320
REMARK INTRA:                  -2.118
REMARK UNBOUND:                -2.636
REMARK SMILES CCCCCC=CCC=CCCCCCCCCOC(C)=O
REMARK SMILES IDX 12 1 11 2 10 3 9 4 8 5 7 6 6 7 5 8 4 9 3 10 2 11 1 12 13 13
REMARK SMILES IDX 14 14 15 15 16 16 17 17 18 18 19 19 20 20 22 21 21 22
REMARK H PARENT
REMARK Flexibility Score: inf
ROOT
ATOM      1  C   UNL     1      66.178  56.123  20.595  1.00  0.00     0.004 C 
ENDROOT
BRANCH   1   2
ATOM      2  C   UNL     1      66.351  57.138  21.735  1.00  0.00     0.027 C 
BRANCH   2   3
ATOM      3  C   UNL     1      66.600  56.444  23.045  1.00  0.00    -0.031 C 
ATOM      4  C   UNL     1      67.833  56.350  23.566  1.00  0.00    -0.027 C 
BRANCH   4   5
ATOM      5  C   UNL     1      68.088  55.631  24.860  1.00  0.00     0.054 C 
BRANCH   5   6
ATOM      6  C   UNL     1      68.972  54.436  24.637  1.00  0.00    -0.027 C 
ATOM      7  C   UNL     1      68.784  53.606  23.600  1.00  0.00    -0.031 C 
BRANCH   7   8
ATOM      8  C   UNL     1      69.674  52.414  23.370  1.00  0.00     0.027 C 
BRANCH   8   9
ATOM      9  C   UNL     1      69.989  52.199  21.882  1.00  0.00     0.004 C 
BRANCH   9  10
ATOM     10  C   UNL     1      69.509  50.829  21.382  1.00  0.00     0.000 C 
BRANCH  10  11
ATOM     11  C   UNL     1      69.506  49.799  22.518  1.00  0.00    -0.003 C 
ATOM     12  C   UNL     1      68.545  48.652  22.221  1.00  0.00     0.004 C 
ENDBRANCH  10  11
ENDBRANCH   9  10
ENDBRANCH   8   9
ENDBRANCH   7   8
ENDBRANCH   5   6
ENDBRANCH   4   5
ENDBRANCH   2   3
ENDBRANCH   1   2
BRANCH   1  13
ATOM     13  C   UNL     1      66.196  54.670  21.092  1.00  0.00     0.000 C 
BRANCH  13  14
ATOM     14  C   UNL     1      67.071  53.757  20.216  1.00  0.00     0.000 C 
BRANCH  14  15
ATOM     15  C   UNL     1      66.265  52.643  19.522  1.00  0.00     0.000 C 
BRANCH  15  16
ATOM     16  C   UNL     1      67.110  51.630  18.730  1.00  0.00     0.003 C 
BRANCH  16  17
ATOM     17  C   UNL     1      67.845  52.265  17.540  1.00  0.00     0.042 C 
BRANCH  17  18
ATOM     18  C   UNL     1      69.353  52.293  17.778  1.00  0.00     0.233 C 
BRANCH  18  19
ATOM     19  O   UNL     1      69.894  53.501  17.249  1.00  0.00    -0.466 OA
BRANCH  19  20
ATOM     20  C   UNL     1      70.996  54.145  17.817  1.00  0.00     0.302 C 
ATOM     21  O   UNL     1      72.056  54.315  17.154  1.00  0.00    -0.253 OA
ATOM     22  C   UNL     1      70.935  54.591  19.237  1.00  0.00     0.139 C 
ENDBRANCH  19  20
ENDBRANCH  18  19
ENDBRANCH  17  18
ENDBRANCH  16  17
ENDBRANCH  15  16
ENDBRANCH  14  15
ENDBRANCH  13  14
ENDBRANCH   1  13
TORSDOF 16
ENDMDL
MODEL 5
REMARK VINA RESULT:    -4.030      2.525      5.372
REMARK INTER + INTRA:         -10.435
REMARK INTER:                  -7.598
REMARK INTRA:                  -2.838
REMARK UNBOUND:                -2.636
REMARK SMILES CCCCCC=CCC=CCCCCCCCCOC(C)=O
REMARK SMILES IDX 12 1 11 2 10 3 9 4 8 5 7 6 6 7 5 8 4 9 3 10 2 11 1 12 13 13
REMARK SMILES IDX 14 14 15 15 16 16 17 17 18 18 19 19 20 20 22 21 21 22
REMARK H PARENT
REMARK Flexibility Score: inf
ROOT
ATOM      1  C   UNL     1      67.658  51.628  18.874  1.00  0.00     0.004 C 
ENDROOT
BRANCH   1   2
ATOM      2  C   UNL     1      66.143  51.681  19.119  1.00  0.00     0.027 C 
BRANCH   2   3
ATOM      3  C   UNL     1      65.738  52.996  19.726  1.00  0.00    -0.031 C 
ATOM      4  C   UNL     1      66.601  53.733  20.442  1.00  0.00    -0.027 C 
BRANCH   4   5
ATOM      5  C   UNL     1      66.191  55.032  21.075  1.00  0.00     0.054 C 
BRANCH   5   6
ATOM      6  C   UNL     1      66.776  56.196  20.325  1.00  0.00    -0.027 C 
ATOM      7  C   UNL     1      67.915  56.081  19.627  1.00  0.00    -0.031 C 
BRANCH   7   8
ATOM      8  C   UNL     1      68.497  57.243  18.867  1.00  0.00     0.027 C 
BRANCH   8   9
ATOM      9  C   UNL     1      69.911  56.951  18.345  1.00  0.00     0.004 C 
BRANCH   9  10
ATOM     10  C   UNL     1      70.000  57.070  16.817  1.00  0.00     0.000 C 
BRANCH  10  11
ATOM     11  C   UNL     1      71.313  56.474  16.295  1.00  0.00    -0.003 C 
ATOM     12  C   UNL     1      71.053  55.435  15.208  1.00  0.00     0.004 C 
ENDBRANCH  10  11
ENDBRANCH   9  10
ENDBRANCH   8   9
ENDBRANCH   7   8
ENDBRANCH   5   6
ENDBRANCH   4   5
ENDBRANCH   2   3
ENDBRANCH   1   2
BRANCH   1  13
ATOM     13  C   UNL     1      68.052  52.184  17.497  1.00  0.00     0.000 C 
BRANCH  13  14
ATOM     14  C   UNL     1      69.046  53.354  17.595  1.00  0.00     0.000 C 
BRANCH  14  15
ATOM     15  C   UNL     1      70.507  52.887  17.725  1.00  0.00     0.000 C 
BRANCH  15  16
ATOM     16  C   UNL     1      71.291  53.529  18.883  1.00  0.00     0.003 C 
BRANCH  16  17
ATOM     17  C   UNL     1      70.458  53.665  20.166  1.00  0.00     0.042 C 
BRANCH  17  18
ATOM     18  C   UNL     1      70.933  52.685  21.237  1.00  0.00     0.233 C 
BRANCH  18  19
ATOM     19  O   UNL     1      70.207  51.464  21.117  1.00  0.00    -0.466 OA
BRANCH  19  20
ATOM     20  C   UNL     1      69.476  50.916  22.175  1.00  0.00     0.302 C 
ATOM     21  O   UNL     1      69.146  51.623  23.165  1.00  0.00    -0.253 OA
ATOM     22  C   UNL     1      69.127  49.468  22.153  1.00  0.00     0.139 C 
ENDBRANCH  19  20
ENDBRANCH  18  19
ENDBRANCH  17  18
ENDBRANCH  16  17
ENDBRANCH  15  16
ENDBRANCH  14  15
ENDBRANCH  13  14
ENDBRANCH   1  13
TORSDOF 16
ENDMDL
MODEL 6
REMARK VINA RESULT:    -3.964      2.452      5.868
REMARK INTER + INTRA:         -10.307
REMARK INTER:                  -7.478
REMARK INTRA:                  -2.829
REMARK UNBOUND:                -2.636
REMARK SMILES CCCCCC=CCC=CCCCCCCCCOC(C)=O
REMARK SMILES IDX 12 1 11 2 10 3 9 4 8 5 7 6 6 7 5 8 4 9 3 10 2 11 1 12 13 13
REMARK SMILES IDX 14 14 15 15 16 16 17 17 18 18 19 19 20 20 22 21 21 22
REMARK H PARENT
REMARK Flexibility Score: inf
ROOT
ATOM      1  C   UNL     1      66.549  53.168  19.863  1.00  0.00     0.004 C 
ENDROOT
BRANCH   1   2
ATOM      2  C   UNL     1      67.468  53.969  20.798  1.00  0.00     0.027 C 
BRANCH   2   3
ATOM      3  C   UNL     1      67.725  55.347  20.256  1.00  0.00    -0.031 C 
ATOM      4  C   UNL     1      68.929  55.702  19.783  1.00  0.00    -0.027 C 
BRANCH   4   5
ATOM      5  C   UNL     1      69.196  57.088  19.269  1.00  0.00     0.054 C 
BRANCH   5   6
ATOM      6  C   UNL     1      69.640  57.046  17.834  1.00  0.00    -0.027 C 
ATOM      7  C   UNL     1      70.266  55.976  17.323  1.00  0.00    -0.031 C 
BRANCH   7   8
ATOM      8  C   UNL     1      70.703  55.929  15.883  1.00  0.00     0.027 C 
BRANCH   8   9
ATOM      9  C   UNL     1      72.108  55.329  15.718  1.00  0.00     0.004 C 
BRANCH   9  10
ATOM     10  C   UNL     1      72.424  54.289  16.803  1.00  0.00     0.000 C 
BRANCH  10  11
ATOM     11  C   UNL     1      73.791  54.560  17.442  1.00  0.00    -0.003 C 
ATOM     12  C   UNL     1      74.142  56.044  17.384  1.00  0.00     0.004 C 
ENDBRANCH  10  11
ENDBRANCH   9  10
ENDBRANCH   8   9
ENDBRANCH   7   8
ENDBRANCH   5   6
ENDBRANCH   4   5
ENDBRANCH   2   3
ENDBRANCH   1   2
BRANCH   1  13
ATOM     13  C   UNL     1      67.312  52.109  19.052  1.00  0.00     0.000 C 
BRANCH  13  14
ATOM     14  C   UNL     1      67.805  52.645  17.697  1.00  0.00     0.000 C 
BRANCH  14  15
ATOM     15  C   UNL     1      69.336  52.590  17.553  1.00  0.00     0.000 C 
BRANCH  15  16
ATOM     16  C   UNL     1      70.071  51.896  18.713  1.00  0.00     0.003 C 
BRANCH  16  17
ATOM     17  C   UNL     1      70.876  52.873  19.582  1.00  0.00     0.042 C 
BRANCH  17  18
ATOM     18  C   UNL     1      70.733  52.537  21.065  1.00  0.00     0.233 C 
BRANCH  18  19
ATOM     19  O   UNL     1      70.017  51.313  21.207  1.00  0.00    -0.466 OA
BRANCH  19  20
ATOM     20  C   UNL     1      69.421  50.924  22.410  1.00  0.00     0.302 C 
ATOM     21  O   UNL     1      69.106  51.781  23.280  1.00  0.00    -0.253 OA
ATOM     22  C   UNL     1      69.204  49.476  22.687  1.00  0.00     0.139 C 
ENDBRANCH  19  20
ENDBRANCH  18  19
ENDBRANCH  17  18
ENDBRANCH  16  17
ENDBRANCH  15  16
ENDBRANCH  14  15
ENDBRANCH  13  14
ENDBRANCH   1  13
TORSDOF 16
ENDMDL
MODEL 7
REMARK VINA RESULT:    -3.946      3.178      5.268
REMARK INTER + INTRA:         -10.273
REMARK INTER:                  -8.273
REMARK INTRA:                  -2.000
REMARK UNBOUND:                -2.636
REMARK SMILES CCCCCC=CCC=CCCCCCCCCOC(C)=O
REMARK SMILES IDX 12 1 11 2 10 3 9 4 8 5 7 6 6 7 5 8 4 9 3 10 2 11 1 12 13 13
REMARK SMILES IDX 14 14 15 15 16 16 17 17 18 18 19 19 20 20 22 21 21 22
REMARK H PARENT
REMARK Flexibility Score: inf
ROOT
ATOM      1  C   UNL     1      65.596  52.047  18.877  1.00  0.00     0.004 C 
ENDROOT
BRANCH   1   2
ATOM      2  C   UNL     1      66.470  51.230  17.914  1.00  0.00     0.027 C 
BRANCH   2   3
ATOM      3  C   UNL     1      67.910  51.653  17.997  1.00  0.00    -0.031 C 
ATOM      4  C   UNL     1      68.360  52.742  17.354  1.00  0.00    -0.027 C 
BRANCH   4   5
ATOM      5  C   UNL     1      69.804  53.150  17.411  1.00  0.00     0.054 C 
BRANCH   5   6
ATOM      6  C   UNL     1      70.435  52.693  18.696  1.00  0.00    -0.027 C 
ATOM      7  C   UNL     1      70.283  53.381  19.837  1.00  0.00    -0.031 C 
BRANCH   7   8
ATOM      8  C   UNL     1      70.906  52.919  21.127  1.00  0.00     0.027 C 
BRANCH   8   9
ATOM      9  C   UNL     1      69.900  52.200  22.038  1.00  0.00     0.004 C 
BRANCH   9  10
ATOM     10  C   UNL     1      69.358  50.913  21.399  1.00  0.00     0.000 C 
BRANCH  10  11
ATOM     11  C   UNL     1      69.653  49.695  22.284  1.00  0.00    -0.003 C 
ATOM     12  C   UNL     1      68.408  48.833  22.467  1.00  0.00     0.004 C 
ENDBRANCH  10  11
ENDBRANCH   9  10
ENDBRANCH   8   9
ENDBRANCH   7   8
ENDBRANCH   5   6
ENDBRANCH   4   5
ENDBRANCH   2   3
ENDBRANCH   1   2
BRANCH   1  13
ATOM     13  C   UNL     1      66.407  52.670  20.024  1.00  0.00     0.000 C 
BRANCH  13  14
ATOM     14  C   UNL     1      65.855  54.039  20.461  1.00  0.00     0.000 C 
BRANCH  14  15
ATOM     15  C   UNL     1      66.946  55.120  20.556  1.00  0.00     0.000 C 
BRANCH  15  16
ATOM     16  C   UNL     1      67.054  55.812  21.926  1.00  0.00     0.003 C 
BRANCH  16  17
ATOM     17  C   UNL     1      68.336  55.439  22.686  1.00  0.00     0.042 C 
BRANCH  17  18
ATOM     18  C   UNL     1      68.120  55.509  24.196  1.00  0.00     0.233 C 
BRANCH  18  19
ATOM     19  O   UNL     1      68.707  54.367  24.812  1.00  0.00    -0.466 OA
BRANCH  19  20
ATOM     20  C   UNL     1      69.467  54.449  25.982  1.00  0.00     0.302 C 
ATOM     21  O   UNL     1      70.527  53.776  26.111  1.00  0.00    -0.253 OA
ATOM     22  C   UNL     1      68.994  55.302  27.108  1.00  0.00     0.139 C 
ENDBRANCH  19  20
ENDBRANCH  18  19
ENDBRANCH  17  18
ENDBRANCH  16  17
ENDBRANCH  15  16
ENDBRANCH  14  15
ENDBRANCH  13  14
ENDBRANCH   1  13
TORSDOF 16
ENDMDL
MODEL 8
REMARK VINA RESULT:    -3.883      2.861      6.810
REMARK INTER + INTRA:         -10.151
REMARK INTER:                  -7.886
REMARK INTRA:                  -2.265
REMARK UNBOUND:                -2.636
REMARK SMILES CCCCCC=CCC=CCCCCCCCCOC(C)=O
REMARK SMILES IDX 12 1 11 2 10 3 9 4 8 5 7 6 6 7 5 8 4 9 3 10 2 11 1 12 13 13
REMARK SMILES IDX 14 14 15 15 16 16 17 17 18 18 19 19 20 20 22 21 21 22
REMARK H PARENT
REMARK Flexibility Score: inf
ROOT
ATOM      1  C   UNL     1      74.736  55.907  19.566  1.00  0.00     0.004 C 
ENDROOT
BRANCH   1   2
ATOM      2  C   UNL     1      75.173  55.391  18.187  1.00  0.00     0.027 C 
BRANCH   2   3
ATOM      3  C   UNL     1      73.999  54.866  17.408  1.00  0.00    -0.031 C 
ATOM      4  C   UNL     1      73.184  55.687  16.728  1.00  0.00    -0.027 C 
BRANCH   4   5
ATOM      5  C   UNL     1      71.993  55.169  15.974  1.00  0.00     0.054 C 
BRANCH   5   6
ATOM      6  C   UNL     1      71.486  53.897  16.592  1.00  0.00    -0.027 C 
ATOM      7  C   UNL     1      70.260  53.817  17.132  1.00  0.00    -0.031 C 
BRANCH   7   8
ATOM      8  C   UNL     1      69.748  52.540  17.743  1.00  0.00     0.027 C 
BRANCH   8   9
ATOM      9  C   UNL     1      68.213  52.487  17.782  1.00  0.00     0.004 C 
BRANCH   9  10
ATOM     10  C   UNL     1      67.648  53.058  19.091  1.00  0.00     0.000 C 
BRANCH  10  11
ATOM     11  C   UNL     1      66.404  52.280  19.537  1.00  0.00    -0.003 C 
ATOM     12  C   UNL     1      66.016  51.223  18.507  1.00  0.00     0.004 C 
ENDBRANCH  10  11
ENDBRANCH   9  10
ENDBRANCH   8   9
ENDBRANCH   7   8
ENDBRANCH   5   6
ENDBRANCH   4   5
ENDBRANCH   2   3
ENDBRANCH   1   2
BRANCH   1  13
ATOM     13  C   UNL     1      73.705  54.988  20.239  1.00  0.00     0.000 C 
BRANCH  13  14
ATOM     14  C   UNL     1      72.424  55.737  20.646  1.00  0.00     0.000 C 
BRANCH  14  15
ATOM     15  C   UNL     1      71.147  54.912  20.403  1.00  0.00     0.000 C 
BRANCH  15  16
ATOM     16  C   UNL     1      71.197  53.469  20.934  1.00  0.00     0.003 C 
BRANCH  16  17
ATOM     17  C   UNL     1      70.089  53.168  21.954  1.00  0.00     0.042 C 
BRANCH  17  18
ATOM     18  C   UNL     1      70.549  52.129  22.975  1.00  0.00     0.233 C 
BRANCH  18  19
ATOM     19  O   UNL     1      69.480  51.227  23.248  1.00  0.00    -0.466 OA
BRANCH  19  20
ATOM     20  C   UNL     1      69.505  49.887  22.850  1.00  0.00     0.302 C 
ATOM     21  O   UNL     1      70.359  49.090  23.325  1.00  0.00    -0.253 OA
ATOM     22  C   UNL     1      68.543  49.410  21.818  1.00  0.00     0.139 C 
ENDBRANCH  19  20
ENDBRANCH  18  19
ENDBRANCH  17  18
ENDBRANCH  16  17
ENDBRANCH  15  16
ENDBRANCH  14  15
ENDBRANCH  13  14
ENDBRANCH   1  13
TORSDOF 16
ENDMDL
MODEL 9
REMARK VINA RESULT:    -3.875      3.349      5.696
REMARK INTER + INTRA:         -10.135
REMARK INTER:                  -7.974
REMARK INTRA:                  -2.162
REMARK UNBOUND:                -2.636
REMARK SMILES CCCCCC=CCC=CCCCCCCCCOC(C)=O
REMARK SMILES IDX 12 1 11 2 10 3 9 4 8 5 7 6 6 7 5 8 4 9 3 10 2 11 1 12 13 13
REMARK SMILES IDX 14 14 15 15 16 16 17 17 18 18 19 19 20 20 22 21 21 22
REMARK H PARENT
REMARK Flexibility Score: inf
ROOT
ATOM      1  C   UNL     1      66.583  55.038  21.391  1.00  0.00     0.004 C 
ENDROOT
BRANCH   1   2
ATOM      2  C   UNL     1      66.278  56.458  20.891  1.00  0.00     0.027 C 
BRANCH   2   3
ATOM      3  C   UNL     1      66.174  57.425  22.037  1.00  0.00    -0.031 C 
ATOM      4  C   UNL     1      65.583  57.084  23.192  1.00  0.00    -0.027 C 
BRANCH   4   5
ATOM      5  C   UNL     1      65.451  58.058  24.328  1.00  0.00     0.054 C 
BRANCH   5   6
ATOM      6  C   UNL     1      66.200  57.570  25.536  1.00  0.00    -0.027 C 
ATOM      7  C   UNL     1      67.489  57.207  25.465  1.00  0.00    -0.031 C 
BRANCH   7   8
ATOM      8  C   UNL     1      68.243  56.728  26.676  1.00  0.00     0.027 C 
BRANCH   8   9
ATOM      9  C   UNL     1      68.112  55.211  26.883  1.00  0.00     0.004 C 
BRANCH   9  10
ATOM     10  C   UNL     1      69.358  54.607  27.547  1.00  0.00     0.000 C 
BRANCH  10  11
ATOM     11  C   UNL     1      70.540  54.580  26.571  1.00  0.00    -0.003 C 
ATOM     12  C   UNL     1      71.767  55.260  27.173  1.00  0.00     0.004 C 
ENDBRANCH  10  11
ENDBRANCH   9  10
ENDBRANCH   8   9
ENDBRANCH   7   8
ENDBRANCH   5   6
ENDBRANCH   4   5
ENDBRANCH   2   3
ENDBRANCH   1   2
BRANCH   1  13
ATOM     13  C   UNL     1      68.059  54.851  21.771  1.00  0.00     0.000 C 
BRANCH  13  14
ATOM     14  C   UNL     1      68.242  54.407  23.233  1.00  0.00     0.000 C 
BRANCH  14  15
ATOM     15  C   UNL     1      69.065  53.113  23.366  1.00  0.00     0.000 C 
BRANCH  15  16
ATOM     16  C   UNL     1      69.832  52.700  22.098  1.00  0.00     0.003 C 
BRANCH  16  17
ATOM     17  C   UNL     1      69.698  51.205  21.777  1.00  0.00     0.042 C 
BRANCH  17  18
ATOM     18  C   UNL     1      68.505  50.944  20.859  1.00  0.00     0.233 C 
BRANCH  18  19
ATOM     19  O   UNL     1      68.382  52.014  19.927  1.00  0.00    -0.466 OA
BRANCH  19  20
ATOM     20  C   UNL     1      67.452  52.000  18.883  1.00  0.00     0.302 C 
ATOM     21  O   UNL     1      67.832  52.029  17.681  1.00  0.00    -0.253 OA
ATOM     22  C   UNL     1      65.995  52.001  19.197  1.00  0.00     0.139 C 
ENDBRANCH  19  20
ENDBRANCH  18  19
ENDBRANCH  17  18
ENDBRANCH  16  17
ENDBRANCH  15  16
ENDBRANCH  14  15
ENDBRANCH  13  14
ENDBRANCH   1  13
TORSDOF 16
ENDMDL
