MODEL 1
REMARK VINA RESULT:    -6.515      0.000      0.000
REMARK INTER + INTRA:          -8.278
REMARK INTER:                  -7.848
REMARK INTRA:                  -0.430
REMARK UNBOUND:                -0.430
REMARK SMILES O=c1c(O)c(-c2ccc(O)cc2O)oc2cc(O)cc(O)c12
REMARK SMILES IDX 5 1 3 2 2 3 1 4 22 5 20 6 19 7 17 8 16 9 15 10 14 11 6 12
REMARK SMILES IDX 8 13 7 14 9 15 11 16 12 17 10 18 13 20 4 22 21 24 18 26
REMARK H PARENT 10 19 13 21 4 23 21 25 18 27
REMARK Flexibility Score: inf
ROOT
ATOM      1  C   UNL     1      72.230  46.340   5.256  1.00  0.00     0.184 A 
ATOM      2  C   UNL     1      71.798  47.044   6.390  1.00  0.00     0.208 A 
ATOM      3  C   UNL     1      71.110  48.255   6.217  1.00  0.00     0.238 A 
ATOM      4  O   UNL     1      70.661  48.844   7.234  1.00  0.00    -0.285 OA
ATOM      5  C   UNL     1      70.912  48.773   4.914  1.00  0.00     0.111 A 
ATOM      6  C   UNL     1      70.266  50.013   4.622  1.00  0.00     0.134 A 
ATOM      7  C   UNL     1      70.033  50.373   3.289  1.00  0.00     0.093 A 
ATOM      8  C   UNL     1      70.478  49.569   2.237  1.00  0.00     0.123 A 
ATOM      9  C   UNL     1      71.157  48.385   2.510  1.00  0.00     0.094 A 
ATOM     10  C   UNL     1      71.371  47.979   3.830  1.00  0.00     0.146 A 
ATOM     11  O   UNL     1      72.004  46.831   4.045  1.00  0.00    -0.451 OA
ENDROOT
BRANCH   1  12
ATOM     12  C   UNL     1      72.953  45.056   5.368  1.00  0.00     0.063 A 
ATOM     13  C   UNL     1      75.008  43.870   5.901  1.00  0.00     0.047 A 
ATOM     14  C   UNL     1      74.292  45.065   5.790  1.00  0.00     0.020 A 
ATOM     15  C   UNL     1      74.400  42.654   5.580  1.00  0.00     0.119 A 
ATOM     16  C   UNL     1      73.071  42.637   5.135  1.00  0.00     0.093 A 
ATOM     17  C   UNL     1      72.348  43.832   5.014  1.00  0.00     0.130 A 
BRANCH  15  18
ATOM     18  O   UNL     1      75.124  41.470   5.699  1.00  0.00    -0.508 OA
ATOM     19  H   UNL     1      75.082  40.749   4.989  1.00  0.00     0.293 HD
ENDBRANCH  15  18
BRANCH  17  20
ATOM     20  O   UNL     1      71.042  43.808   4.525  1.00  0.00    -0.507 OA
ATOM     21  H   UNL     1      70.766  44.360   3.721  1.00  0.00     0.293 HD
ENDBRANCH  17  20
ENDBRANCH   1  12
BRANCH   2  22
ATOM     22  O   UNL     1      72.070  46.547   7.668  1.00  0.00    -0.502 OA
ATOM     23  H   UNL     1      71.421  45.951   8.167  1.00  0.00     0.293 HD
ENDBRANCH   2  22
BRANCH   6  24
ATOM     24  O   UNL     1      69.861  50.933   5.594  1.00  0.00    -0.507 OA
ATOM     25  H   UNL     1      68.971  51.408   5.605  1.00  0.00     0.293 HD
ENDBRANCH   6  24
BRANCH   8  26
ATOM     26  O   UNL     1      70.256  49.944   0.913  1.00  0.00    -0.508 OA
ATOM     27  H   UNL     1      69.428  49.647   0.409  1.00  0.00     0.293 HD
ENDBRANCH   8  26
TORSDOF 6
ENDMDL
MODEL 2
REMARK VINA RESULT:    -6.462      5.458      7.566
REMARK INTER + INTRA:          -8.214
REMARK INTER:                  -7.817
REMARK INTRA:                  -0.397
REMARK UNBOUND:                -0.430
REMARK SMILES O=c1c(O)c(-c2ccc(O)cc2O)oc2cc(O)cc(O)c12
REMARK SMILES IDX 5 1 3 2 2 3 1 4 22 5 20 6 19 7 17 8 16 9 15 10 14 11 6 12
REMARK SMILES IDX 8 13 7 14 9 15 11 16 12 17 10 18 13 20 4 22 21 24 18 26
REMARK H PARENT 10 19 13 21 4 23 21 25 18 27
REMARK Flexibility Score: inf
ROOT
ATOM      1  C   UNL     1      67.915  48.053   8.994  1.00  0.00     0.184 A 
ATOM      2  C   UNL     1      66.922  48.875   9.549  1.00  0.00     0.208 A 
ATOM      3  C   UNL     1      65.593  48.425   9.559  1.00  0.00     0.238 A 
ATOM      4  O   UNL     1      64.720  49.135  10.124  1.00  0.00    -0.285 OA
ATOM      5  C   UNL     1      65.265  47.183   8.964  1.00  0.00     0.111 A 
ATOM      6  C   UNL     1      63.944  46.646   8.877  1.00  0.00     0.134 A 
ATOM      7  C   UNL     1      63.754  45.359   8.360  1.00  0.00     0.093 A 
ATOM      8  C   UNL     1      64.828  44.614   7.869  1.00  0.00     0.123 A 
ATOM      9  C   UNL     1      66.113  45.150   7.899  1.00  0.00     0.094 A 
ATOM     10  C   UNL     1      66.341  46.416   8.443  1.00  0.00     0.146 A 
ATOM     11  O   UNL     1      67.585  46.879   8.472  1.00  0.00    -0.451 OA
ENDROOT
BRANCH   1  12
ATOM     12  C   UNL     1      69.333  48.464   8.960  1.00  0.00     0.063 A 
ATOM     13  C   UNL     1      71.454  48.706  10.125  1.00  0.00     0.047 A 
ATOM     14  C   UNL     1      70.110  48.320  10.121  1.00  0.00     0.020 A 
ATOM     15  C   UNL     1      72.033  49.251   8.976  1.00  0.00     0.119 A 
ATOM     16  C   UNL     1      71.259  49.421   7.821  1.00  0.00     0.093 A 
ATOM     17  C   UNL     1      69.908  49.042   7.809  1.00  0.00     0.130 A 
BRANCH  15  18
ATOM     18  O   UNL     1      73.374  49.627   8.994  1.00  0.00    -0.508 OA
ATOM     19  H   UNL     1      74.081  49.047   9.430  1.00  0.00     0.293 HD
ENDBRANCH  15  18
BRANCH  17  20
ATOM     20  O   UNL     1      69.135  49.260   6.669  1.00  0.00    -0.507 OA
ATOM     21  H   UNL     1      69.396  48.874   5.769  1.00  0.00     0.293 HD
ENDBRANCH  17  20
ENDBRANCH   1  12
BRANCH   2  22
ATOM     22  O   UNL     1      67.261  50.129  10.066  1.00  0.00    -0.502 OA
ATOM     23  H   UNL     1      67.756  50.239  10.942  1.00  0.00     0.293 HD
ENDBRANCH   2  22
BRANCH   6  24
ATOM     24  O   UNL     1      62.790  47.340   9.256  1.00  0.00    -0.507 OA
ATOM     25  H   UNL     1      62.393  47.338  10.183  1.00  0.00     0.293 HD
ENDBRANCH   6  24
BRANCH   8  26
ATOM     26  O   UNL     1      64.627  43.340   7.341  1.00  0.00    -0.508 OA
ATOM     27  H   UNL     1      63.748  43.076   6.912  1.00  0.00     0.293 HD
ENDBRANCH   8  26
TORSDOF 6
ENDMDL
MODEL 3
REMARK VINA RESULT:    -6.334      3.843      7.283
REMARK INTER + INTRA:          -8.061
REMARK INTER:                  -7.814
REMARK INTRA:                  -0.247
REMARK UNBOUND:                -0.430
REMARK SMILES O=c1c(O)c(-c2ccc(O)cc2O)oc2cc(O)cc(O)c12
REMARK SMILES IDX 5 1 3 2 2 3 1 4 22 5 20 6 19 7 17 8 16 9 15 10 14 11 6 12
REMARK SMILES IDX 8 13 7 14 9 15 11 16 12 17 10 18 13 20 4 22 21 24 18 26
REMARK H PARENT 10 19 13 21 4 23 21 25 18 27
REMARK Flexibility Score: inf
ROOT
ATOM      1  C   UNL     1      69.419  48.190   7.989  1.00  0.00     0.184 A 
ATOM      2  C   UNL     1      69.743  48.454   6.650  1.00  0.00     0.208 A 
ATOM      3  C   UNL     1      71.074  48.303   6.230  1.00  0.00     0.238 A 
ATOM      4  O   UNL     1      71.344  48.469   5.012  1.00  0.00    -0.285 OA
ATOM      5  C   UNL     1      72.072  47.945   7.168  1.00  0.00     0.111 A 
ATOM      6  C   UNL     1      73.461  47.806   6.864  1.00  0.00     0.134 A 
ATOM      7  C   UNL     1      74.341  47.344   7.849  1.00  0.00     0.093 A 
ATOM      8  C   UNL     1      73.895  47.075   9.146  1.00  0.00     0.123 A 
ATOM      9  C   UNL     1      72.553  47.260   9.467  1.00  0.00     0.094 A 
ATOM     10  C   UNL     1      71.642  47.683   8.496  1.00  0.00     0.146 A 
ATOM     11  O   UNL     1      70.368  47.825   8.840  1.00  0.00    -0.451 OA
ENDROOT
BRANCH   1  12
ATOM     12  C   UNL     1      68.036  48.322   8.493  1.00  0.00     0.063 A 
ATOM     13  C   UNL     1      66.479  49.383  10.030  1.00  0.00     0.047 A 
ATOM     14  C   UNL     1      67.774  49.238   9.525  1.00  0.00     0.020 A 
ATOM     15  C   UNL     1      65.434  48.607   9.522  1.00  0.00     0.119 A 
ATOM     16  C   UNL     1      65.691  47.673   8.510  1.00  0.00     0.093 A 
ATOM     17  C   UNL     1      66.989  47.516   8.001  1.00  0.00     0.130 A 
BRANCH  15  18
ATOM     18  O   UNL     1      64.148  48.766  10.032  1.00  0.00    -0.508 OA
ATOM     19  H   UNL     1      63.536  47.973  10.184  1.00  0.00     0.293 HD
ENDBRANCH  15  18
BRANCH  17  20
ATOM     20  O   UNL     1      67.241  46.550   7.027  1.00  0.00    -0.507 OA
ATOM     21  H   UNL     1      67.709  46.781   6.158  1.00  0.00     0.293 HD
ENDBRANCH  17  20
ENDBRANCH   1  12
BRANCH   2  22
ATOM     22  O   UNL     1      68.751  48.876   5.760  1.00  0.00    -0.502 OA
ATOM     23  H   UNL     1      68.225  48.228   5.187  1.00  0.00     0.293 HD
ENDBRANCH   2  22
BRANCH   6  24
ATOM     24  O   UNL     1      74.028  48.131   5.627  1.00  0.00    -0.507 OA
ATOM     25  H   UNL     1      74.968  47.901   5.344  1.00  0.00     0.293 HD
ENDBRANCH   6  24
BRANCH   8  26
ATOM     26  O   UNL     1      74.782  46.631  10.125  1.00  0.00    -0.508 OA
ATOM     27  H   UNL     1      75.758  46.902  10.118  1.00  0.00     0.293 HD
ENDBRANCH   8  26
TORSDOF 6
ENDMDL
MODEL 4
REMARK VINA RESULT:    -5.921      4.471      7.215
REMARK INTER + INTRA:          -7.563
REMARK INTER:                  -7.256
REMARK INTRA:                  -0.307
REMARK UNBOUND:                -0.430
REMARK SMILES O=c1c(O)c(-c2ccc(O)cc2O)oc2cc(O)cc(O)c12
REMARK SMILES IDX 5 1 3 2 2 3 1 4 22 5 20 6 19 7 17 8 16 9 15 10 14 11 6 12
REMARK SMILES IDX 8 13 7 14 9 15 11 16 12 17 10 18 13 20 4 22 21 24 18 26
REMARK H PARENT 10 19 13 21 4 23 21 25 18 27
REMARK Flexibility Score: inf
ROOT
ATOM      1  C   UNL     1      68.276  47.910   8.583  1.00  0.00     0.184 A 
ATOM      2  C   UNL     1      68.828  49.086   9.113  1.00  0.00     0.208 A 
ATOM      3  C   UNL     1      70.205  49.318   8.963  1.00  0.00     0.238 A 
ATOM      4  O   UNL     1      70.680  50.408   9.374  1.00  0.00    -0.285 OA
ATOM      5  C   UNL     1      71.019  48.345   8.336  1.00  0.00     0.111 A 
ATOM      6  C   UNL     1      72.434  48.454   8.168  1.00  0.00     0.134 A 
ATOM      7  C   UNL     1      73.120  47.476   7.438  1.00  0.00     0.093 A 
ATOM      8  C   UNL     1      72.455  46.361   6.923  1.00  0.00     0.123 A 
ATOM      9  C   UNL     1      71.085  46.218   7.127  1.00  0.00     0.094 A 
ATOM     10  C   UNL     1      70.365  47.195   7.819  1.00  0.00     0.146 A 
ATOM     11  O   UNL     1      69.056  47.029   7.972  1.00  0.00    -0.451 OA
ENDROOT
BRANCH   1  12
ATOM     12  C   UNL     1      66.834  47.609   8.700  1.00  0.00     0.063 A 
ATOM     13  C   UNL     1      64.901  47.226  10.125  1.00  0.00     0.047 A 
ATOM     14  C   UNL     1      66.261  47.516   9.978  1.00  0.00     0.020 A 
ATOM     15  C   UNL     1      64.102  47.013   8.999  1.00  0.00     0.119 A 
ATOM     16  C   UNL     1      64.670  47.080   7.720  1.00  0.00     0.093 A 
ATOM     17  C   UNL     1      66.035  47.364   7.564  1.00  0.00     0.130 A 
BRANCH  15  18
ATOM     18  O   UNL     1      62.748  46.729   9.161  1.00  0.00    -0.508 OA
ATOM     19  H   UNL     1      62.402  45.777   9.156  1.00  0.00     0.293 HD
ENDBRANCH  15  18
BRANCH  17  20
ATOM     20  O   UNL     1      66.600  47.381   6.289  1.00  0.00    -0.507 OA
ATOM     21  H   UNL     1      67.291  46.696   6.005  1.00  0.00     0.293 HD
ENDBRANCH  17  20
ENDBRANCH   1  12
BRANCH   2  22
ATOM     22  O   UNL     1      68.014  49.998   9.791  1.00  0.00    -0.502 OA
ATOM     23  H   UNL     1      67.249  50.483   9.338  1.00  0.00     0.293 HD
ENDBRANCH   2  22
BRANCH   6  24
ATOM     24  O   UNL     1      73.211  49.479   8.717  1.00  0.00    -0.507 OA
ATOM     25  H   UNL     1      73.420  49.583   9.697  1.00  0.00     0.293 HD
ENDBRANCH   6  24
BRANCH   8  26
ATOM     26  O   UNL     1      73.149  45.385   6.211  1.00  0.00    -0.508 OA
ATOM     27  H   UNL     1      73.121  44.409   6.484  1.00  0.00     0.293 HD
ENDBRANCH   8  26
TORSDOF 6
ENDMDL
MODEL 5
REMARK VINA RESULT:    -5.871      2.683      6.615
REMARK INTER + INTRA:          -7.503
REMARK INTER:                  -7.224
REMARK INTRA:                  -0.278
REMARK UNBOUND:                -0.430
REMARK SMILES O=c1c(O)c(-c2ccc(O)cc2O)oc2cc(O)cc(O)c12
REMARK SMILES IDX 5 1 3 2 2 3 1 4 22 5 20 6 19 7 17 8 16 9 15 10 14 11 6 12
REMARK SMILES IDX 8 13 7 14 9 15 11 16 12 17 10 18 13 20 4 22 21 24 18 26
REMARK H PARENT 10 19 13 21 4 23 21 25 18 27
REMARK Flexibility Score: inf
ROOT
ATOM      1  C   UNL     1      71.427  47.656   6.000  1.00  0.00     0.184 A 
ATOM      2  C   UNL     1      72.757  47.503   6.419  1.00  0.00     0.208 A 
ATOM      3  C   UNL     1      73.029  46.711   7.546  1.00  0.00     0.238 A 
ATOM      4  O   UNL     1      74.229  46.517   7.872  1.00  0.00    -0.285 OA
ATOM      5  C   UNL     1      71.961  46.128   8.271  1.00  0.00     0.111 A 
ATOM      6  C   UNL     1      72.115  45.342   9.454  1.00  0.00     0.134 A 
ATOM      7  C   UNL     1      70.995  44.729  10.027  1.00  0.00     0.093 A 
ATOM      8  C   UNL     1      69.717  44.924   9.497  1.00  0.00     0.123 A 
ATOM      9  C   UNL     1      69.549  45.732   8.376  1.00  0.00     0.094 A 
ATOM     10  C   UNL     1      70.651  46.327   7.759  1.00  0.00     0.146 A 
ATOM     11  O   UNL     1      70.448  47.073   6.679  1.00  0.00    -0.451 OA
ENDROOT
BRANCH   1  12
ATOM     12  C   UNL     1      71.074  48.469   4.818  1.00  0.00     0.063 A 
ATOM     13  C   UNL     1      71.367  48.921   2.447  1.00  0.00     0.047 A 
ATOM     14  C   UNL     1      71.673  48.167   3.584  1.00  0.00     0.020 A 
ATOM     15  C   UNL     1      70.473  49.991   2.532  1.00  0.00     0.119 A 
ATOM     16  C   UNL     1      69.890  50.315   3.764  1.00  0.00     0.093 A 
ATOM     17  C   UNL     1      70.196  49.568   4.911  1.00  0.00     0.130 A 
BRANCH  15  18
ATOM     18  O   UNL     1      70.175  50.731   1.389  1.00  0.00    -0.508 OA
ATOM     19  H   UNL     1      69.273  51.173   1.265  1.00  0.00     0.293 HD
ENDBRANCH  15  18
BRANCH  17  20
ATOM     20  O   UNL     1      69.647  49.928   6.141  1.00  0.00    -0.507 OA
ATOM     21  H   UNL     1      70.197  50.398   6.852  1.00  0.00     0.293 HD
ENDBRANCH  17  20
ENDBRANCH   1  12
BRANCH   2  22
ATOM     22  O   UNL     1      73.787  48.147   5.728  1.00  0.00    -0.502 OA
ATOM     23  H   UNL     1      74.200  47.762   4.887  1.00  0.00     0.293 HD
ENDBRANCH   2  22
BRANCH   6  24
ATOM     24  O   UNL     1      73.333  45.156  10.117  1.00  0.00    -0.507 OA
ATOM     25  H   UNL     1      73.462  45.215  11.115  1.00  0.00     0.293 HD
ENDBRANCH   6  24
BRANCH   8  26
ATOM     26  O   UNL     1      68.605  44.322  10.084  1.00  0.00    -0.508 OA
ATOM     27  H   UNL     1      68.606  43.342  10.340  1.00  0.00     0.293 HD
ENDBRANCH   8  26
TORSDOF 6
ENDMDL
MODEL 6
REMARK VINA RESULT:    -5.861      2.319      6.709
REMARK INTER + INTRA:          -7.490
REMARK INTER:                  -7.073
REMARK INTRA:                  -0.417
REMARK UNBOUND:                -0.430
REMARK SMILES O=c1c(O)c(-c2ccc(O)cc2O)oc2cc(O)cc(O)c12
REMARK SMILES IDX 5 1 3 2 2 3 1 4 22 5 20 6 19 7 17 8 16 9 15 10 14 11 6 12
REMARK SMILES IDX 8 13 7 14 9 15 11 16 12 17 10 18 13 20 4 22 21 24 18 26
REMARK H PARENT 10 19 13 21 4 23 21 25 18 27
REMARK Flexibility Score: inf
ROOT
ATOM      1  C   UNL     1      72.184  47.059   6.480  1.00  0.00     0.184 A 
ATOM      2  C   UNL     1      73.170  47.468   7.390  1.00  0.00     0.208 A 
ATOM      3  C   UNL     1      73.746  46.514   8.244  1.00  0.00     0.238 A 
ATOM      4  O   UNL     1      74.681  46.873   9.005  1.00  0.00    -0.285 OA
ATOM      5  C   UNL     1      73.288  45.175   8.214  1.00  0.00     0.111 A 
ATOM      6  C   UNL     1      73.768  44.132   9.065  1.00  0.00     0.134 A 
ATOM      7  C   UNL     1      73.316  42.822   8.873  1.00  0.00     0.093 A 
ATOM      8  C   UNL     1      72.354  42.525   7.905  1.00  0.00     0.123 A 
ATOM      9  C   UNL     1      71.839  43.543   7.107  1.00  0.00     0.094 A 
ATOM     10  C   UNL     1      72.298  44.855   7.247  1.00  0.00     0.146 A 
ATOM     11  O   UNL     1      71.795  45.791   6.451  1.00  0.00    -0.451 OA
ENDROOT
BRANCH   1  12
ATOM     12  C   UNL     1      71.544  48.011   5.549  1.00  0.00     0.063 A 
ATOM     13  C   UNL     1      70.008  49.865   5.205  1.00  0.00     0.047 A 
ATOM     14  C   UNL     1      70.637  48.954   6.059  1.00  0.00     0.020 A 
ATOM     15  C   UNL     1      70.267  49.836   3.833  1.00  0.00     0.119 A 
ATOM     16  C   UNL     1      71.152  48.883   3.311  1.00  0.00     0.093 A 
ATOM     17  C   UNL     1      71.782  47.961   4.160  1.00  0.00     0.130 A 
BRANCH  15  18
ATOM     18  O   UNL     1      69.636  50.754   2.995  1.00  0.00    -0.508 OA
ATOM     19  H   UNL     1      68.628  50.783   2.906  1.00  0.00     0.293 HD
ENDBRANCH  15  18
BRANCH  17  20
ATOM     20  O   UNL     1      72.624  46.987   3.624  1.00  0.00    -0.507 OA
ATOM     21  H   UNL     1      72.692  46.835   2.624  1.00  0.00     0.293 HD
ENDBRANCH  17  20
ENDBRANCH   1  12
BRANCH   2  22
ATOM     22  O   UNL     1      73.553  48.811   7.449  1.00  0.00    -0.502 OA
ATOM     23  H   UNL     1      73.028  49.546   6.990  1.00  0.00     0.293 HD
ENDBRANCH   2  22
BRANCH   6  24
ATOM     24  O   UNL     1      74.662  44.333  10.121  1.00  0.00    -0.507 OA
ATOM     25  H   UNL     1      75.031  43.605  10.712  1.00  0.00     0.293 HD
ENDBRANCH   6  24
BRANCH   8  26
ATOM     26  O   UNL     1      71.898  41.219   7.733  1.00  0.00    -0.508 OA
ATOM     27  H   UNL     1      71.399  40.731   8.467  1.00  0.00     0.293 HD
ENDBRANCH   8  26
TORSDOF 6
ENDMDL
MODEL 7
REMARK VINA RESULT:    -5.844      3.703      6.592
REMARK INTER + INTRA:          -7.470
REMARK INTER:                  -7.103
REMARK INTRA:                  -0.367
REMARK UNBOUND:                -0.430
REMARK SMILES O=c1c(O)c(-c2ccc(O)cc2O)oc2cc(O)cc(O)c12
REMARK SMILES IDX 5 1 3 2 2 3 1 4 22 5 20 6 19 7 17 8 16 9 15 10 14 11 6 12
REMARK SMILES IDX 8 13 7 14 9 15 11 16 12 17 10 18 13 20 4 22 21 24 18 26
REMARK H PARENT 10 19 13 21 4 23 21 25 18 27
REMARK Flexibility Score: inf
ROOT
ATOM      1  C   UNL     1      69.270  47.541   8.059  1.00  0.00     0.184 A 
ATOM      2  C   UNL     1      70.111  46.764   8.871  1.00  0.00     0.208 A 
ATOM      3  C   UNL     1      71.409  46.472   8.424  1.00  0.00     0.238 A 
ATOM      4  O   UNL     1      72.182  45.838   9.188  1.00  0.00    -0.285 OA
ATOM      5  C   UNL     1      71.830  46.915   7.146  1.00  0.00     0.111 A 
ATOM      6  C   UNL     1      73.109  46.640   6.572  1.00  0.00     0.134 A 
ATOM      7  C   UNL     1      73.453  47.219   5.345  1.00  0.00     0.093 A 
ATOM      8  C   UNL     1      72.543  48.012   4.641  1.00  0.00     0.123 A 
ATOM      9  C   UNL     1      71.274  48.241   5.166  1.00  0.00     0.094 A 
ATOM     10  C   UNL     1      70.914  47.709   6.407  1.00  0.00     0.146 A 
ATOM     11  O   UNL     1      69.701  47.970   6.881  1.00  0.00    -0.451 OA
ENDROOT
BRANCH   1  12
ATOM     12  C   UNL     1      67.896  47.890   8.475  1.00  0.00     0.063 A 
ATOM     13  C   UNL     1      66.428  49.046  10.031  1.00  0.00     0.047 A 
ATOM     14  C   UNL     1      67.715  48.702   9.606  1.00  0.00     0.020 A 
ATOM     15  C   UNL     1      65.309  48.573   9.341  1.00  0.00     0.119 A 
ATOM     16  C   UNL     1      65.480  47.742   8.226  1.00  0.00     0.093 A 
ATOM     17  C   UNL     1      66.767  47.387   7.796  1.00  0.00     0.130 A 
BRANCH  15  18
ATOM     18  O   UNL     1      64.033  48.927   9.774  1.00  0.00    -0.508 OA
ATOM     19  H   UNL     1      63.895  49.520  10.583  1.00  0.00     0.293 HD
ENDBRANCH  15  18
BRANCH  17  20
ATOM     20  O   UNL     1      66.924  46.521   6.714  1.00  0.00    -0.507 OA
ATOM     21  H   UNL     1      66.586  45.566   6.744  1.00  0.00     0.293 HD
ENDBRANCH  17  20
ENDBRANCH   1  12
BRANCH   2  22
ATOM     22  O   UNL     1      69.646  46.278  10.097  1.00  0.00    -0.502 OA
ATOM     23  H   UNL     1      68.832  45.680  10.169  1.00  0.00     0.293 HD
ENDBRANCH   2  22
BRANCH   6  24
ATOM     24  O   UNL     1      74.060  45.791   7.147  1.00  0.00    -0.507 OA
ATOM     25  H   UNL     1      74.800  45.328   6.643  1.00  0.00     0.293 HD
ENDBRANCH   6  24
BRANCH   8  26
ATOM     26  O   UNL     1      72.889  48.570   3.412  1.00  0.00    -0.508 OA
ATOM     27  H   UNL     1      72.779  48.056   2.546  1.00  0.00     0.293 HD
ENDBRANCH   8  26
TORSDOF 6
ENDMDL
MODEL 8
REMARK VINA RESULT:    -5.747      6.744      8.406
REMARK INTER + INTRA:          -7.353
REMARK INTER:                  -6.974
REMARK INTRA:                  -0.379
REMARK UNBOUND:                -0.430
REMARK SMILES O=c1c(O)c(-c2ccc(O)cc2O)oc2cc(O)cc(O)c12
REMARK SMILES IDX 5 1 3 2 2 3 1 4 22 5 20 6 19 7 17 8 16 9 15 10 14 11 6 12
REMARK SMILES IDX 8 13 7 14 9 15 11 16 12 17 10 18 13 20 4 22 21 24 18 26
REMARK H PARENT 10 19 13 21 4 23 21 25 18 27
REMARK Flexibility Score: inf
ROOT
ATOM      1  C   UNL     1      65.875  45.252   8.597  1.00  0.00     0.184 A 
ATOM      2  C   UNL     1      67.059  44.766   8.021  1.00  0.00     0.208 A 
ATOM      3  C   UNL     1      68.183  45.606   7.964  1.00  0.00     0.238 A 
ATOM      4  O   UNL     1      69.262  45.140   7.514  1.00  0.00    -0.285 OA
ATOM      5  C   UNL     1      68.090  46.939   8.433  1.00  0.00     0.111 A 
ATOM      6  C   UNL     1      69.152  47.893   8.384  1.00  0.00     0.134 A 
ATOM      7  C   UNL     1      68.978  49.151   8.974  1.00  0.00     0.093 A 
ATOM      8  C   UNL     1      67.760  49.512   9.555  1.00  0.00     0.123 A 
ATOM      9  C   UNL     1      66.701  48.609   9.559  1.00  0.00     0.094 A 
ATOM     10  C   UNL     1      66.855  47.333   9.013  1.00  0.00     0.146 A 
ATOM     11  O   UNL     1      65.825  46.495   9.058  1.00  0.00    -0.451 OA
ENDROOT
BRANCH   1  12
ATOM     12  C   UNL     1      64.661  44.417   8.695  1.00  0.00     0.063 A 
ATOM     13  C   UNL     1      63.547  42.476   9.646  1.00  0.00     0.047 A 
ATOM     14  C   UNL     1      64.677  43.292   9.535  1.00  0.00     0.020 A 
ATOM     15  C   UNL     1      62.395  42.766   8.911  1.00  0.00     0.119 A 
ATOM     16  C   UNL     1      62.378  43.873   8.052  1.00  0.00     0.093 A 
ATOM     17  C   UNL     1      63.509  44.693   7.930  1.00  0.00     0.130 A 
BRANCH  15  18
ATOM     18  O   UNL     1      61.275  41.946   9.035  1.00  0.00    -0.508 OA
ATOM     19  H   UNL     1      61.359  40.972   9.301  1.00  0.00     0.293 HD
ENDBRANCH  15  18
BRANCH  17  20
ATOM     20  O   UNL     1      63.497  45.764   7.037  1.00  0.00    -0.507 OA
ATOM     21  H   UNL     1      64.294  45.972   6.446  1.00  0.00     0.293 HD
ENDBRANCH  17  20
ENDBRANCH   1  12
BRANCH   2  22
ATOM     22  O   UNL     1      67.103  43.470   7.501  1.00  0.00    -0.502 OA
ATOM     23  H   UNL     1      67.582  42.712   7.972  1.00  0.00     0.293 HD
ENDBRANCH   2  22
BRANCH   6  24
ATOM     24  O   UNL     1      70.379  47.669   7.751  1.00  0.00    -0.507 OA
ATOM     25  H   UNL     1      70.562  46.926   7.094  1.00  0.00     0.293 HD
ENDBRANCH   6  24
BRANCH   8  26
ATOM     26  O   UNL     1      67.591  50.773  10.125  1.00  0.00    -0.508 OA
ATOM     27  H   UNL     1      68.367  51.416  10.231  1.00  0.00     0.293 HD
ENDBRANCH   8  26
TORSDOF 6
ENDMDL
MODEL 9
REMARK VINA RESULT:    -5.698      4.316      7.241
REMARK INTER + INTRA:          -7.294
REMARK INTER:                  -6.966
REMARK INTRA:                  -0.329
REMARK UNBOUND:                -0.430
REMARK SMILES O=c1c(O)c(-c2ccc(O)cc2O)oc2cc(O)cc(O)c12
REMARK SMILES IDX 5 1 3 2 2 3 1 4 22 5 20 6 19 7 17 8 16 9 15 10 14 11 6 12
REMARK SMILES IDX 8 13 7 14 9 15 11 16 12 17 10 18 13 20 4 22 21 24 18 26
REMARK H PARENT 10 19 13 21 4 23 21 25 18 27
REMARK Flexibility Score: inf
ROOT
ATOM      1  C   UNL     1      68.602  46.886   8.143  1.00  0.00     0.184 A 
ATOM      2  C   UNL     1      69.109  45.768   7.462  1.00  0.00     0.208 A 
ATOM      3  C   UNL     1      70.485  45.699   7.197  1.00  0.00     0.238 A 
ATOM      4  O   UNL     1      70.943  44.661   6.653  1.00  0.00    -0.285 OA
ATOM      5  C   UNL     1      71.329  46.774   7.567  1.00  0.00     0.111 A 
ATOM      6  C   UNL     1      72.733  46.832   7.310  1.00  0.00     0.134 A 
ATOM      7  C   UNL     1      73.484  47.899   7.816  1.00  0.00     0.093 A 
ATOM      8  C   UNL     1      72.874  48.943   8.516  1.00  0.00     0.123 A 
ATOM      9  C   UNL     1      71.498  48.923   8.725  1.00  0.00     0.094 A 
ATOM     10  C   UNL     1      70.725  47.854   8.266  1.00  0.00     0.146 A 
ATOM     11  O   UNL     1      69.419  47.865   8.507  1.00  0.00    -0.451 OA
ENDROOT
BRANCH   1  12
ATOM     12  C   UNL     1      67.165  47.016   8.459  1.00  0.00     0.063 A 
ATOM     13  C   UNL     1      65.391  46.952  10.121  1.00  0.00     0.047 A 
ATOM     14  C   UNL     1      66.744  46.842   9.788  1.00  0.00     0.020 A 
ATOM     15  C   UNL     1      64.442  47.222   9.131  1.00  0.00     0.119 A 
ATOM     16  C   UNL     1      64.850  47.373   7.800  1.00  0.00     0.093 A 
ATOM     17  C   UNL     1      66.205  47.259   7.455  1.00  0.00     0.130 A 
BRANCH  15  18
ATOM     18  O   UNL     1      63.098  47.333   9.480  1.00  0.00    -0.508 OA
ATOM     19  H   UNL     1      62.504  46.517   9.563  1.00  0.00     0.293 HD
ENDBRANCH  15  18
BRANCH  17  20
ATOM     20  O   UNL     1      66.594  47.364   6.120  1.00  0.00    -0.507 OA
ATOM     21  H   UNL     1      66.046  47.887   5.447  1.00  0.00     0.293 HD
ENDBRANCH  17  20
ENDBRANCH   1  12
BRANCH   2  22
ATOM     22  O   UNL     1      68.243  44.753   7.044  1.00  0.00    -0.502 OA
ATOM     23  H   UNL     1      67.308  44.649   7.418  1.00  0.00     0.293 HD
ENDBRANCH   2  22
BRANCH   6  24
ATOM     24  O   UNL     1      73.428  45.889   6.546  1.00  0.00    -0.507 OA
ATOM     25  H   UNL     1      74.413  45.929   6.336  1.00  0.00     0.293 HD
ENDBRANCH   6  24
BRANCH   8  26
ATOM     26  O   UNL     1      73.628  50.009   9.002  1.00  0.00    -0.508 OA
ATOM     27  H   UNL     1      74.610  49.904   9.231  1.00  0.00     0.293 HD
ENDBRANCH   8  26
TORSDOF 6
ENDMDL
