MODEL 1
REMARK VINA RESULT:    -4.314      0.000      0.000
REMARK INTER + INTRA:          -5.291
REMARK INTER:                  -6.079
REMARK INTRA:                   0.789
REMARK UNBOUND:                 0.789
REMARK SMILES CC1=CCC(=C(C)C)C(=O)CC(C)=CCC1
REMARK SMILES IDX 12 1 14 2 13 3 15 4 16 5 2 6 1 7 3 8 11 10 9 11 10 12 5 13
REMARK SMILES IDX 6 14 7 15 8 16 4 17
REMARK H PARENT
REMARK Flexibility Score: 60.00
ROOT
ATOM      1  C   UNL     1     -13.088 -16.697  31.302  1.00  0.00    -0.070 C 
ATOM      2  C   UNL     1     -13.610 -17.931  31.525  1.00  0.00    -0.027 C 
ATOM      3  C   UNL     1     -13.988 -15.511  31.553  1.00  0.00     0.039 C 
ENDROOT
BRANCH   2   4
ATOM      4  C   UNL     1     -12.929 -19.249  31.245  1.00  0.00     0.032 C 
BRANCH   4   5
ATOM      5  C   UNL     1     -12.134 -19.255  29.933  1.00  0.00     0.034 C 
BRANCH   5   6
ATOM      6  C   UNL     1     -13.078 -19.240  28.747  1.00  0.00    -0.077 C 
ATOM      7  C   UNL     1     -14.203 -20.242  28.717  1.00  0.00     0.039 C 
ATOM      8  C   UNL     1     -13.012 -18.324  27.753  1.00  0.00    -0.023 CG0
ATOM      9  G   UNL     1     -11.951 -17.257  27.606  1.00  0.00     0.000 G0
ENDBRANCH   5   6
ENDBRANCH   4   5
ENDBRANCH   2   4
BRANCH   1  10
ATOM     10  C   UNL     1     -11.643 -16.432  30.894  1.00  0.00     0.111 C 
BRANCH  10  11
ATOM     11  C   UNL     1     -11.500 -15.664  29.604  1.00  0.00     0.163 C 
ATOM     12  O   UNL     1     -10.636 -14.745  29.563  1.00  0.00    -0.294 OA
BRANCH  11  13
ATOM     13  C   UNL     1     -12.295 -15.991  28.374  1.00  0.00    -0.002 C 
ATOM     14  C   UNL     1     -13.342 -15.196  27.986  1.00  0.00    -0.069 C 
ATOM     15  C   UNL     1     -14.220 -15.557  26.807  1.00  0.00     0.039 C 
ATOM     16  C   UNL     1     -13.650 -13.888  28.680  1.00  0.00     0.039 C 
BRANCH  13  17
ATOM     17  C   UNL     1     -11.952 -17.259  27.593  1.00  0.00     0.066 CG0
ATOM     18  G   UNL     1     -13.010 -18.328  27.749  1.00  0.00     0.000 G0
ENDBRANCH  13  17
ENDBRANCH  11  13
ENDBRANCH  10  11
ENDBRANCH   1  10
TORSDOF 0
ENDMDL
MODEL 2
REMARK VINA RESULT:    -4.233      1.746      3.566
REMARK INTER + INTRA:          -5.177
REMARK INTER:                  -5.816
REMARK INTRA:                   0.639
REMARK UNBOUND:                 0.789
REMARK SMILES CC1=CCC(=C(C)C)C(=O)CC(C)=CCC1
REMARK SMILES IDX 12 1 14 2 13 3 15 4 16 5 2 6 1 7 3 8 11 10 9 11 10 12 5 13
REMARK SMILES IDX 6 14 7 15 8 16 4 17
REMARK H PARENT
REMARK Flexibility Score: 60.00
ROOT
ATOM      1  C   UNL     1     -12.401 -17.102  27.466  1.00  0.00    -0.070 C 
ATOM      2  C   UNL     1     -12.496 -18.347  28.002  1.00  0.00    -0.027 C 
ATOM      3  C   UNL     1     -11.361 -16.891  26.392  1.00  0.00     0.039 C 
ENDROOT
BRANCH   2   4
ATOM      4  C   UNL     1     -13.389 -18.756  29.149  1.00  0.00     0.032 C 
BRANCH   4   5
ATOM      5  C   UNL     1     -12.611 -19.181  30.401  1.00  0.00     0.034 C 
BRANCH   5   6
ATOM      6  C   UNL     1     -11.562 -18.141  30.744  1.00  0.00    -0.077 C 
ATOM      7  C   UNL     1     -10.110 -18.512  30.586  1.00  0.00     0.039 C 
ATOM      8  C   UNL     1     -11.861 -16.873  31.111  1.00  0.00    -0.023 CG0
ATOM      9  G   UNL     1     -13.252 -16.324  31.335  1.00  0.00     0.000 G0
ENDBRANCH   5   6
ENDBRANCH   4   5
ENDBRANCH   2   4
BRANCH   1  10
ATOM     10  C   UNL     1     -13.319 -15.938  27.820  1.00  0.00     0.111 C 
BRANCH  10  11
ATOM     11  C   UNL     1     -12.877 -15.154  29.030  1.00  0.00     0.163 C 
ATOM     12  O   UNL     1     -11.882 -14.389  28.900  1.00  0.00    -0.294 OA
BRANCH  11  13
ATOM     13  C   UNL     1     -13.605 -15.208  30.342  1.00  0.00    -0.002 C 
ATOM     14  C   UNL     1     -14.536 -14.255  30.664  1.00  0.00    -0.069 C 
ATOM     15  C   UNL     1     -15.213 -14.231  32.018  1.00  0.00     0.039 C 
ATOM     16  C   UNL     1     -14.979 -13.204  29.670  1.00  0.00     0.039 C 
BRANCH  13  17
ATOM     17  C   UNL     1     -13.249 -16.313  31.335  1.00  0.00     0.066 CG0
ATOM     18  G   UNL     1     -11.869 -16.878  31.088  1.00  0.00     0.000 G0
ENDBRANCH  13  17
ENDBRANCH  11  13
ENDBRANCH  10  11
ENDBRANCH   1  10
TORSDOF 0
ENDMDL
MODEL 3
REMARK VINA RESULT:    -4.001      1.807      3.872
REMARK INTER + INTRA:          -4.850
REMARK INTER:                  -5.175
REMARK INTRA:                   0.326
REMARK UNBOUND:                 0.789
REMARK SMILES CC1=CCC(=C(C)C)C(=O)CC(C)=CCC1
REMARK SMILES IDX 12 1 14 2 13 3 15 4 16 5 2 6 1 7 3 8 11 10 9 11 10 12 5 13
REMARK SMILES IDX 6 14 7 15 8 16 4 17
REMARK H PARENT
REMARK Flexibility Score: 60.00
ROOT
ATOM      1  C   UNL     1     -14.170 -14.080  28.593  1.00  0.00    -0.070 C 
ATOM      2  C   UNL     1     -14.602 -14.637  27.432  1.00  0.00    -0.027 C 
ATOM      3  C   UNL     1     -15.138 -13.184  29.331  1.00  0.00     0.039 C 
ENDROOT
BRANCH   2   4
ATOM      4  C   UNL     1     -13.776 -15.477  26.487  1.00  0.00     0.032 C 
BRANCH   4   5
ATOM      5  C   UNL     1     -13.662 -16.944  26.920  1.00  0.00     0.034 C 
BRANCH   5   6
ATOM      6  C   UNL     1     -12.204 -17.346  27.030  1.00  0.00    -0.077 C 
ATOM      7  C   UNL     1     -11.352 -17.289  25.788  1.00  0.00     0.039 C 
ATOM      8  C   UNL     1     -11.608 -17.678  28.199  1.00  0.00    -0.023 CG0
ATOM      9  G   UNL     1     -12.300 -17.803  29.537  1.00  0.00     0.000 G0
ENDBRANCH   5   6
ENDBRANCH   4   5
ENDBRANCH   2   4
BRANCH   1  10
ATOM     10  C   UNL     1     -12.815 -14.359  29.234  1.00  0.00     0.111 C 
BRANCH  10  11
ATOM     11  C   UNL     1     -12.865 -15.359  30.362  1.00  0.00     0.163 C 
ATOM     12  O   UNL     1     -13.736 -15.186  31.257  1.00  0.00    -0.294 OA
BRANCH  11  13
ATOM     13  C   UNL     1     -11.969 -16.561  30.420  1.00  0.00    -0.002 C 
ATOM     14  C   UNL     1     -10.848 -16.561  31.208  1.00  0.00    -0.069 C 
ATOM     15  C   UNL     1      -9.876 -17.722  31.209  1.00  0.00     0.039 C 
ATOM     16  C   UNL     1     -10.542 -15.424  32.158  1.00  0.00     0.039 C 
BRANCH  13  17
ATOM     17  C   UNL     1     -12.298 -17.766  29.540  1.00  0.00     0.066 CG0
ATOM     18  G   UNL     1     -11.625 -17.686  28.189  1.00  0.00     0.000 G0
ENDBRANCH  13  17
ENDBRANCH  11  13
ENDBRANCH  10  11
ENDBRANCH   1  10
TORSDOF 0
ENDMDL
MODEL 4
REMARK VINA RESULT:    -3.615      1.758      4.376
REMARK INTER + INTRA:          -4.305
REMARK INTER:                  -5.884
REMARK INTRA:                   1.579
REMARK UNBOUND:                 0.789
REMARK SMILES CC1=CCC(=C(C)C)C(=O)CC(C)=CCC1
REMARK SMILES IDX 12 1 14 2 13 3 15 4 16 5 2 6 1 7 3 8 11 10 9 11 10 12 5 13
REMARK SMILES IDX 6 14 7 15 8 16 4 17
REMARK H PARENT
REMARK Flexibility Score: 60.00
ROOT
ATOM      1  C   UNL     1     -13.563 -15.666  28.145  1.00  0.00    -0.070 C 
ATOM      2  C   UNL     1     -13.243 -15.065  29.321  1.00  0.00    -0.027 C 
ATOM      3  C   UNL     1     -13.823 -14.768  26.959  1.00  0.00     0.039 C 
ENDROOT
BRANCH   2   4
ATOM      4  C   UNL     1     -13.044 -15.757  30.648  1.00  0.00     0.032 C 
BRANCH   4   5
ATOM      5  C   UNL     1     -11.662 -15.501  31.264  1.00  0.00     0.034 C 
BRANCH   5   6
ATOM      6  C   UNL     1     -10.579 -15.701  30.222  1.00  0.00    -0.077 C 
ATOM      7  C   UNL     1      -9.890 -14.482  29.664  1.00  0.00     0.039 C 
ATOM      8  C   UNL     1     -10.144 -16.920  29.823  1.00  0.00    -0.023 CG0
ATOM      9  G   UNL     1     -10.719 -18.248  30.258  1.00  0.00     0.000 G0
ENDBRANCH   5   6
ENDBRANCH   4   5
ENDBRANCH   2   4
BRANCH   1  10
ATOM     10  C   UNL     1     -13.598 -17.175  27.928  1.00  0.00     0.111 C 
BRANCH  10  11
ATOM     11  C   UNL     1     -12.280 -17.862  28.186  1.00  0.00     0.163 C 
ATOM     12  O   UNL     1     -11.383 -17.754  27.305  1.00  0.00    -0.294 OA
BRANCH  11  13
ATOM     13  C   UNL     1     -11.986 -18.603  29.458  1.00  0.00    -0.002 C 
ATOM     14  C   UNL     1     -12.858 -19.547  29.934  1.00  0.00    -0.069 C 
ATOM     15  C   UNL     1     -12.634 -20.237  31.263  1.00  0.00     0.039 C 
ATOM     16  C   UNL     1     -14.066 -19.990  29.138  1.00  0.00     0.039 C 
BRANCH  13  17
ATOM     17  C   UNL     1     -10.725 -18.244  30.242  1.00  0.00     0.066 CG0
ATOM     18  G   UNL     1     -10.151 -16.911  29.821  1.00  0.00     0.000 G0
ENDBRANCH  13  17
ENDBRANCH  11  13
ENDBRANCH  10  11
ENDBRANCH   1  10
TORSDOF 0
ENDMDL
MODEL 5
REMARK VINA RESULT:    -3.414      1.295      3.707
REMARK INTER + INTRA:          -4.023
REMARK INTER:                  -4.548
REMARK INTRA:                   0.525
REMARK UNBOUND:                 0.789
REMARK SMILES CC1=CCC(=C(C)C)C(=O)CC(C)=CCC1
REMARK SMILES IDX 12 1 14 2 13 3 15 4 16 5 2 6 1 7 3 8 11 10 9 11 10 12 5 13
REMARK SMILES IDX 6 14 7 15 8 16 4 17
REMARK H PARENT
REMARK Flexibility Score: 60.00
ROOT
ATOM      1  C   UNL     1     -13.095 -15.629  30.758  1.00  0.00    -0.070 C 
ATOM      2  C   UNL     1     -13.641 -15.112  29.627  1.00  0.00    -0.027 C 
ATOM      3  C   UNL     1     -14.013 -15.819  31.943  1.00  0.00     0.039 C 
ENDROOT
BRANCH   2   4
ATOM      4  C   UNL     1     -12.895 -14.746  28.366  1.00  0.00     0.032 C 
BRANCH   4   5
ATOM      5  C   UNL     1     -13.415 -15.474  27.120  1.00  0.00     0.034 C 
BRANCH   5   6
ATOM      6  C   UNL     1     -12.449 -16.569  26.711  1.00  0.00    -0.077 C 
ATOM      7  C   UNL     1     -11.500 -16.298  25.572  1.00  0.00     0.039 C 
ATOM      8  C   UNL     1     -12.340 -17.749  27.366  1.00  0.00    -0.023 CG0
ATOM      9  G   UNL     1     -13.210 -18.204  28.515  1.00  0.00     0.000 G0
ENDBRANCH   5   6
ENDBRANCH   4   5
ENDBRANCH   2   4
BRANCH   1  10
ATOM     10  C   UNL     1     -11.650 -16.099  30.883  1.00  0.00     0.111 C 
BRANCH  10  11
ATOM     11  C   UNL     1     -11.355 -17.378  30.141  1.00  0.00     0.163 C 
ATOM     12  O   UNL     1     -10.152 -17.617  29.844  1.00  0.00    -0.294 OA
BRANCH  11  13
ATOM     13  C   UNL     1     -12.416 -18.385  29.806  1.00  0.00    -0.002 C 
ATOM     14  C   UNL     1     -12.642 -19.461  30.623  1.00  0.00    -0.069 C 
ATOM     15  C   UNL     1     -13.638 -20.542  30.258  1.00  0.00     0.039 C 
ATOM     16  C   UNL     1     -11.947 -19.608  31.959  1.00  0.00     0.039 C 
BRANCH  13  17
ATOM     17  C   UNL     1     -13.203 -18.218  28.507  1.00  0.00     0.066 CG0
ATOM     18  G   UNL     1     -12.329 -17.741  27.369  1.00  0.00     0.000 G0
ENDBRANCH  13  17
ENDBRANCH  11  13
ENDBRANCH  10  11
ENDBRANCH   1  10
TORSDOF 0
ENDMDL
MODEL 6
REMARK VINA RESULT:    -3.288      1.787      4.789
REMARK INTER + INTRA:          -3.845
REMARK INTER:                  -4.022
REMARK INTRA:                   0.178
REMARK UNBOUND:                 0.789
REMARK SMILES CC1=CCC(=C(C)C)C(=O)CC(C)=CCC1
REMARK SMILES IDX 12 1 14 2 13 3 15 4 16 5 2 6 1 7 3 8 11 10 9 11 10 12 5 13
REMARK SMILES IDX 6 14 7 15 8 16 4 17
REMARK H PARENT
REMARK Flexibility Score: 60.00
ROOT
ATOM      1  C   UNL     1     -13.972 -15.763  27.074  1.00  0.00    -0.070 C 
ATOM      2  C   UNL     1     -13.994 -14.503  27.582  1.00  0.00    -0.027 C 
ATOM      3  C   UNL     1     -13.732 -15.906  25.590  1.00  0.00     0.039 C 
ENDROOT
BRANCH   2   4
ATOM      4  C   UNL     1     -14.315 -14.123  29.007  1.00  0.00     0.032 C 
BRANCH   4   5
ATOM      5  C   UNL     1     -13.170 -14.411  29.985  1.00  0.00     0.034 C 
BRANCH   5   6
ATOM      6  C   UNL     1     -13.680 -15.209  31.170  1.00  0.00    -0.077 C 
ATOM      7  C   UNL     1     -14.827 -14.646  31.969  1.00  0.00     0.039 C 
ATOM      8  C   UNL     1     -13.212 -16.435  31.500  1.00  0.00    -0.023 CG0
ATOM      9  G   UNL     1     -12.063 -17.152  30.828  1.00  0.00     0.000 G0
ENDBRANCH   5   6
ENDBRANCH   4   5
ENDBRANCH   2   4
BRANCH   1  10
ATOM     10  C   UNL     1     -14.095 -17.033  27.911  1.00  0.00     0.111 C 
BRANCH  10  11
ATOM     11  C   UNL     1     -12.773 -17.600  28.362  1.00  0.00     0.163 C 
ATOM     12  O   UNL     1     -11.815 -17.574  27.540  1.00  0.00    -0.294 OA
BRANCH  11  13
ATOM     13  C   UNL     1     -12.547 -18.128  29.749  1.00  0.00    -0.002 C 
ATOM     14  C   UNL     1     -12.814 -19.438  30.050  1.00  0.00    -0.069 C 
ATOM     15  C   UNL     1     -12.689 -19.970  31.461  1.00  0.00     0.039 C 
ATOM     16  C   UNL     1     -13.200 -20.438  28.983  1.00  0.00     0.039 C 
BRANCH  13  17
ATOM     17  C   UNL     1     -12.069 -17.164  30.833  1.00  0.00     0.066 CG0
ATOM     18  G   UNL     1     -13.216 -16.424  31.484  1.00  0.00     0.000 G0
ENDBRANCH  13  17
ENDBRANCH  11  13
ENDBRANCH  10  11
ENDBRANCH   1  10
TORSDOF 0
ENDMDL
MODEL 7
REMARK VINA RESULT:    -3.131      1.546      2.866
REMARK INTER + INTRA:          -3.623
REMARK INTER:                  -6.260
REMARK INTRA:                   2.637
REMARK UNBOUND:                 0.789
REMARK SMILES CC1=CCC(=C(C)C)C(=O)CC(C)=CCC1
REMARK SMILES IDX 12 1 14 2 13 3 15 4 16 5 2 6 1 7 3 8 11 10 9 11 10 12 5 13
REMARK SMILES IDX 6 14 7 15 8 16 4 17
REMARK H PARENT
REMARK Flexibility Score: 60.00
ROOT
ATOM      1  C   UNL     1     -14.068 -14.376  30.136  1.00  0.00    -0.070 C 
ATOM      2  C   UNL     1     -14.028 -15.250  31.175  1.00  0.00    -0.027 C 
ATOM      3  C   UNL     1     -15.117 -13.291  30.186  1.00  0.00     0.039 C 
ENDROOT
BRANCH   2   4
ATOM      4  C   UNL     1     -13.135 -16.463  31.284  1.00  0.00     0.032 C 
BRANCH   4   5
ATOM      5  C   UNL     1     -13.874 -17.785  31.041  1.00  0.00     0.034 C 
BRANCH   5   6
ATOM      6  C   UNL     1     -12.886 -18.884  30.704  1.00  0.00    -0.077 C 
ATOM      7  C   UNL     1     -12.498 -19.854  31.790  1.00  0.00     0.039 C 
ATOM      8  C   UNL     1     -12.393 -19.088  29.460  1.00  0.00    -0.023 CG0
ATOM      9  G   UNL     1     -12.655 -18.215  28.254  1.00  0.00     0.000 G0
ENDBRANCH   5   6
ENDBRANCH   4   5
ENDBRANCH   2   4
BRANCH   1  10
ATOM     10  C   UNL     1     -13.081 -14.372  28.973  1.00  0.00     0.111 C 
BRANCH  10  11
ATOM     11  C   UNL     1     -13.071 -15.650  28.173  1.00  0.00     0.163 C 
ATOM     12  O   UNL     1     -13.845 -15.723  27.180  1.00  0.00    -0.294 OA
BRANCH  11  13
ATOM     13  C   UNL     1     -12.144 -16.790  28.478  1.00  0.00    -0.002 C 
ATOM     14  C   UNL     1     -10.860 -16.555  28.894  1.00  0.00    -0.069 C 
ATOM     15  C   UNL     1      -9.876 -17.685  29.113  1.00  0.00     0.039 C 
ATOM     16  C   UNL     1     -10.365 -15.160  29.206  1.00  0.00     0.039 C 
BRANCH  13  17
ATOM     17  C   UNL     1     -12.641 -18.219  28.261  1.00  0.00     0.066 CG0
ATOM     18  G   UNL     1     -12.373 -19.103  29.458  1.00  0.00     0.000 G0
ENDBRANCH  13  17
ENDBRANCH  11  13
ENDBRANCH  10  11
ENDBRANCH   1  10
TORSDOF 0
ENDMDL
MODEL 8
REMARK VINA RESULT:    -3.011      1.484      3.502
REMARK INTER + INTRA:          -3.455
REMARK INTER:                  -4.999
REMARK INTRA:                   1.544
REMARK UNBOUND:                 0.789
REMARK SMILES CC1=CCC(=C(C)C)C(=O)CC(C)=CCC1
REMARK SMILES IDX 12 1 14 2 13 3 15 4 16 5 2 6 1 7 3 8 11 10 9 11 10 12 5 13
REMARK SMILES IDX 6 14 7 15 8 16 4 17
REMARK H PARENT
REMARK Flexibility Score: 60.00
ROOT
ATOM      1  C   UNL     1     -13.202 -18.704  29.433  1.00  0.00    -0.070 C 
ATOM      2  C   UNL     1     -12.513 -18.473  28.285  1.00  0.00    -0.027 C 
ATOM      3  C   UNL     1     -14.388 -19.635  29.350  1.00  0.00     0.039 C 
ENDROOT
BRANCH   2   4
ATOM      4  C   UNL     1     -11.365 -17.506  28.116  1.00  0.00     0.032 C 
BRANCH   4   5
ATOM      5  C   UNL     1     -11.597 -16.477  27.003  1.00  0.00     0.034 C 
BRANCH   5   6
ATOM      6  C   UNL     1     -13.031 -15.983  27.036  1.00  0.00    -0.077 C 
ATOM      7  C   UNL     1     -13.958 -16.405  25.926  1.00  0.00     0.039 C 
ATOM      8  C   UNL     1     -13.542 -15.248  28.051  1.00  0.00    -0.023 CG0
ATOM      9  G   UNL     1     -12.767 -14.721  29.237  1.00  0.00     0.000 G0
ENDBRANCH   5   6
ENDBRANCH   4   5
ENDBRANCH   2   4
BRANCH   1  10
ATOM     10  C   UNL     1     -12.812 -18.153  30.800  1.00  0.00     0.111 C 
BRANCH  10  11
ATOM     11  C   UNL     1     -12.219 -16.766  30.756  1.00  0.00     0.163 C 
ATOM     12  O   UNL     1     -10.969 -16.662  30.885  1.00  0.00    -0.294 OA
BRANCH  11  13
ATOM     13  C   UNL     1     -13.046 -15.539  30.507  1.00  0.00    -0.002 C 
ATOM     14  C   UNL     1     -14.052 -15.187  31.368  1.00  0.00    -0.069 C 
ATOM     15  C   UNL     1     -14.963 -14.011  31.089  1.00  0.00     0.039 C 
ATOM     16  C   UNL     1     -14.279 -15.922  32.671  1.00  0.00     0.039 C 
BRANCH  13  17
ATOM     17  C   UNL     1     -12.783 -14.719  29.245  1.00  0.00     0.066 CG0
ATOM     18  G   UNL     1     -13.542 -15.251  28.051  1.00  0.00     0.000 G0
ENDBRANCH  13  17
ENDBRANCH  11  13
ENDBRANCH  10  11
ENDBRANCH   1  10
TORSDOF 0
ENDMDL
MODEL 9
REMARK VINA RESULT:    -2.962      1.900      3.312
REMARK INTER + INTRA:          -3.385
REMARK INTER:                  -5.341
REMARK INTRA:                   1.956
REMARK UNBOUND:                 0.789
REMARK SMILES CC1=CCC(=C(C)C)C(=O)CC(C)=CCC1
REMARK SMILES IDX 12 1 14 2 13 3 15 4 16 5 2 6 1 7 3 8 11 10 9 11 10 12 5 13
REMARK SMILES IDX 6 14 7 15 8 16 4 17
REMARK H PARENT
REMARK Flexibility Score: 60.00
ROOT
ATOM      1  C   UNL     1     -14.545 -13.813  29.737  1.00  0.00    -0.070 C 
ATOM      2  C   UNL     1     -14.482 -14.428  30.946  1.00  0.00    -0.027 C 
ATOM      3  C   UNL     1     -15.713 -12.887  29.493  1.00  0.00     0.039 C 
ENDROOT
BRANCH   2   4
ATOM      4  C   UNL     1     -13.466 -15.463  31.366  1.00  0.00     0.032 C 
BRANCH   4   5
ATOM      5  C   UNL     1     -14.054 -16.874  31.492  1.00  0.00     0.034 C 
BRANCH   5   6
ATOM      6  C   UNL     1     -13.004 -17.912  31.146  1.00  0.00    -0.077 C 
ATOM      7  C   UNL     1     -13.209 -19.325  31.629  1.00  0.00     0.039 C 
ATOM      8  C   UNL     1     -11.932 -17.655  30.360  1.00  0.00    -0.023 CG0
ATOM      9  G   UNL     1     -11.554 -16.304  29.798  1.00  0.00     0.000 G0
ENDBRANCH   5   6
ENDBRANCH   4   5
ENDBRANCH   2   4
BRANCH   1  10
ATOM     10  C   UNL     1     -13.482 -13.933  28.650  1.00  0.00     0.111 C 
BRANCH  10  11
ATOM     11  C   UNL     1     -13.305 -15.333  28.118  1.00  0.00     0.163 C 
ATOM     12  O   UNL     1     -14.240 -15.814  27.419  1.00  0.00    -0.294 OA
BRANCH  11  13
ATOM     13  C   UNL     1     -12.055 -16.133  28.337  1.00  0.00    -0.002 C 
ATOM     14  C   UNL     1     -11.412 -16.728  27.284  1.00  0.00    -0.069 C 
ATOM     15  C   UNL     1     -10.206 -17.620  27.489  1.00  0.00     0.039 C 
ATOM     16  C   UNL     1     -11.838 -16.490  25.852  1.00  0.00     0.039 C 
BRANCH  13  17
ATOM     17  C   UNL     1     -11.543 -16.319  29.764  1.00  0.00     0.066 CG0
ATOM     18  G   UNL     1     -11.950 -17.653  30.347  1.00  0.00     0.000 G0
ENDBRANCH  13  17
ENDBRANCH  11  13
ENDBRANCH  10  11
ENDBRANCH   1  10
TORSDOF 0
ENDMDL
