MODEL 1
REMARK VINA RESULT:    -4.054      0.000      0.000
REMARK INTER + INTRA:         -10.320
REMARK INTER:                  -7.846
REMARK INTRA:                  -2.474
REMARK UNBOUND:                -2.474
REMARK SMILES CCCCCCCCCCCCCCCCCC(=O)[O-]
REMARK SMILES IDX 10 1 11 2 12 3 13 4 14 5 15 6 16 7 17 8 18 9 19 10 20 11
REMARK SMILES IDX 9 12 8 13 7 14 6 15 5 16 4 17 3 18 2 19 1 20
REMARK H PARENT
REMARK Flexibility Score: inf
ROOT
ATOM      1  C   UNL     1      29.521   8.776 -12.460  1.00  0.00     0.000 C 
ENDROOT
BRANCH   1   2
ATOM      2  C   UNL     1      30.923   8.928 -11.841  1.00  0.00     0.000 C 
BRANCH   2   3
ATOM      3  C   UNL     1      30.938   9.392 -10.372  1.00  0.00     0.000 C 
BRANCH   3   4
ATOM      4  C   UNL     1      29.746  10.277  -9.958  1.00  0.00     0.000 C 
BRANCH   4   5
ATOM      5  C   UNL     1      29.840  11.727 -10.480  1.00  0.00     0.000 C 
BRANCH   5   6
ATOM      6  C   UNL     1      28.535  12.196 -11.145  1.00  0.00     0.000 C 
BRANCH   6   7
ATOM      7  C   UNL     1      28.762  13.249 -12.245  1.00  0.00     0.006 C 
BRANCH   7   8
ATOM      8  C   UNL     1      27.472  13.708 -12.948  1.00  0.00     0.053 C 
BRANCH   8   9
ATOM      9  C   UNL     1      26.841  14.893 -12.285  1.00  0.00     0.041 C 
ATOM     10  O   UNL     1      25.596  15.075 -12.355  1.00  0.00    -0.550 OA
ATOM     11  O   UNL     1      27.624  15.786 -11.564  1.00  0.00    -0.550 OA
ENDBRANCH   8   9
ENDBRANCH   7   8
ENDBRANCH   6   7
ENDBRANCH   5   6
ENDBRANCH   4   5
ENDBRANCH   3   4
ENDBRANCH   2   3
ENDBRANCH   1   2
BRANCH   1  12
ATOM     12  C   UNL     1      29.328   9.627 -13.725  1.00  0.00     0.000 C 
BRANCH  12  13
ATOM     13  C   UNL     1      30.554  10.516 -13.978  1.00  0.00    -0.000 C 
BRANCH  13  14
ATOM     14  C   UNL     1      30.364  11.458 -15.178  1.00  0.00    -0.000 C 
BRANCH  14  15
ATOM     15  C   UNL     1      28.892  11.569 -15.615  1.00  0.00    -0.000 C 
BRANCH  15  16
ATOM     16  C   UNL     1      28.655  12.728 -16.596  1.00  0.00    -0.000 C 
BRANCH  16  17
ATOM     17  C   UNL     1      29.934  13.532 -16.879  1.00  0.00    -0.000 C 
BRANCH  17  18
ATOM     18  C   UNL     1      29.649  14.997 -17.253  1.00  0.00    -0.000 C 
BRANCH  18  19
ATOM     19  C   UNL     1      30.291  16.016 -16.288  1.00  0.00    -0.003 C 
ATOM     20  C   UNL     1      29.760  15.880 -14.862  1.00  0.00     0.004 C 
ENDBRANCH  18  19
ENDBRANCH  17  18
ENDBRANCH  16  17
ENDBRANCH  15  16
ENDBRANCH  14  15
ENDBRANCH  13  14
ENDBRANCH  12  13
ENDBRANCH   1  12
TORSDOF 16
ENDMDL
MODEL 2
REMARK VINA RESULT:    -3.986      3.472      6.642
REMARK INTER + INTRA:         -10.188
REMARK INTER:                  -8.301
REMARK INTRA:                  -1.887
REMARK UNBOUND:                -2.474
REMARK SMILES CCCCCCCCCCCCCCCCCC(=O)[O-]
REMARK SMILES IDX 10 1 11 2 12 3 13 4 14 5 15 6 16 7 17 8 18 9 19 10 20 11
REMARK SMILES IDX 9 12 8 13 7 14 6 15 5 16 4 17 3 18 2 19 1 20
REMARK H PARENT
REMARK Flexibility Score: inf
ROOT
ATOM      1  C   UNL     1      28.742  12.928 -14.726  1.00  0.00     0.000 C 
ENDROOT
BRANCH   1   2
ATOM      2  C   UNL     1      28.481  12.518 -16.187  1.00  0.00     0.000 C 
BRANCH   2   3
ATOM      3  C   UNL     1      28.832  13.591 -17.236  1.00  0.00     0.000 C 
BRANCH   3   4
ATOM      4  C   UNL     1      29.813  13.132 -18.333  1.00  0.00     0.000 C 
BRANCH   4   5
ATOM      5  C   UNL     1      30.762  12.001 -17.881  1.00  0.00     0.000 C 
BRANCH   5   6
ATOM      6  C   UNL     1      30.812  10.841 -18.889  1.00  0.00     0.000 C 
BRANCH   6   7
ATOM      7  C   UNL     1      30.778   9.456 -18.217  1.00  0.00     0.006 C 
BRANCH   7   8
ATOM      8  C   UNL     1      30.075   9.443 -16.847  1.00  0.00     0.053 C 
BRANCH   8   9
ATOM      9  C   UNL     1      29.338   8.166 -16.586  1.00  0.00     0.041 C 
ATOM     10  O   UNL     1      28.651   7.630 -17.495  1.00  0.00    -0.550 OA
ATOM     11  O   UNL     1      29.431   7.551 -15.344  1.00  0.00    -0.550 OA
ENDBRANCH   8   9
ENDBRANCH   7   8
ENDBRANCH   6   7
ENDBRANCH   5   6
ENDBRANCH   4   5
ENDBRANCH   3   4
ENDBRANCH   2   3
ENDBRANCH   1   2
BRANCH   1  12
ATOM     12  C   UNL     1      30.229  12.867 -14.342  1.00  0.00     0.000 C 
BRANCH  12  13
ATOM     13  C   UNL     1      30.555  11.550 -13.623  1.00  0.00    -0.000 C 
BRANCH  13  14
ATOM     14  C   UNL     1      30.328  11.633 -12.106  1.00  0.00    -0.000 C 
BRANCH  14  15
ATOM     15  C   UNL     1      29.253  10.648 -11.614  1.00  0.00    -0.000 C 
BRANCH  15  16
ATOM     16  C   UNL     1      28.122  11.348 -10.843  1.00  0.00    -0.000 C 
BRANCH  16  17
ATOM     17  C   UNL     1      27.945  12.816 -11.261  1.00  0.00    -0.000 C 
BRANCH  17  18
ATOM     18  C   UNL     1      26.486  13.294 -11.159  1.00  0.00    -0.000 C 
BRANCH  18  19
ATOM     19  C   UNL     1      26.111  14.356 -12.215  1.00  0.00    -0.003 C 
ATOM     20  C   UNL     1      27.187  15.430 -12.366  1.00  0.00     0.004 C 
ENDBRANCH  18  19
ENDBRANCH  17  18
ENDBRANCH  16  17
ENDBRANCH  15  16
ENDBRANCH  14  15
ENDBRANCH  13  14
ENDBRANCH  12  13
ENDBRANCH   1  12
TORSDOF 16
ENDMDL
MODEL 3
REMARK VINA RESULT:    -3.949      2.038      4.622
REMARK INTER + INTRA:         -10.116
REMARK INTER:                  -7.730
REMARK INTRA:                  -2.386
REMARK UNBOUND:                -2.474
REMARK SMILES CCCCCCCCCCCCCCCCCC(=O)[O-]
REMARK SMILES IDX 10 1 11 2 12 3 13 4 14 5 15 6 16 7 17 8 18 9 19 10 20 11
REMARK SMILES IDX 9 12 8 13 7 14 6 15 5 16 4 17 3 18 2 19 1 20
REMARK H PARENT
REMARK Flexibility Score: inf
ROOT
ATOM      1  C   UNL     1      28.498  12.376 -16.135  1.00  0.00     0.000 C 
ENDROOT
BRANCH   1   2
ATOM      2  C   UNL     1      28.988  12.406 -14.676  1.00  0.00     0.000 C 
BRANCH   2   3
ATOM      3  C   UNL     1      30.433  11.913 -14.465  1.00  0.00     0.000 C 
BRANCH   3   4
ATOM      4  C   UNL     1      30.582  10.742 -13.474  1.00  0.00     0.000 C 
BRANCH   4   5
ATOM      5  C   UNL     1      29.258  10.334 -12.792  1.00  0.00     0.000 C 
BRANCH   5   6
ATOM      6  C   UNL     1      29.227  10.711 -11.301  1.00  0.00     0.000 C 
BRANCH   6   7
ATOM      7  C   UNL     1      28.633  12.108 -11.045  1.00  0.00     0.006 C 
BRANCH   7   8
ATOM      8  C   UNL     1      27.102  12.115 -10.875  1.00  0.00     0.053 C 
BRANCH   8   9
ATOM      9  C   UNL     1      26.483  13.423 -11.258  1.00  0.00     0.041 C 
ATOM     10  O   UNL     1      25.678  13.999 -10.478  1.00  0.00    -0.550 OA
ATOM     11  O   UNL     1      26.813  14.021 -12.467  1.00  0.00    -0.550 OA
ENDBRANCH   8   9
ENDBRANCH   7   8
ENDBRANCH   6   7
ENDBRANCH   5   6
ENDBRANCH   4   5
ENDBRANCH   3   4
ENDBRANCH   2   3
ENDBRANCH   1   2
BRANCH   1  12
ATOM     12  C   UNL     1      28.956  13.599 -16.947  1.00  0.00     0.000 C 
BRANCH  12  13
ATOM     13  C   UNL     1      29.580  13.167 -18.282  1.00  0.00    -0.000 C 
BRANCH  13  14
ATOM     14  C   UNL     1      30.921  12.440 -18.100  1.00  0.00    -0.000 C 
BRANCH  14  15
ATOM     15  C   UNL     1      30.889  10.997 -18.633  1.00  0.00    -0.000 C 
BRANCH  15  16
ATOM     16  C   UNL     1      31.091   9.954 -17.522  1.00  0.00    -0.000 C 
BRANCH  16  17
ATOM     17  C   UNL     1      30.053   8.822 -17.580  1.00  0.00    -0.000 C 
BRANCH  17  18
ATOM     18  C   UNL     1      29.250   8.681 -16.275  1.00  0.00    -0.000 C 
BRANCH  18  19
ATOM     19  C   UNL     1      29.482   7.337 -15.552  1.00  0.00    -0.003 C 
ATOM     20  C   UNL     1      30.876   7.243 -14.933  1.00  0.00     0.004 C 
ENDBRANCH  18  19
ENDBRANCH  17  18
ENDBRANCH  16  17
ENDBRANCH  15  16
ENDBRANCH  14  15
ENDBRANCH  13  14
ENDBRANCH  12  13
ENDBRANCH   1  12
TORSDOF 16
ENDMDL
MODEL 4
REMARK VINA RESULT:    -3.931      4.065      7.188
REMARK INTER + INTRA:         -10.081
REMARK INTER:                  -7.982
REMARK INTRA:                  -2.099
REMARK UNBOUND:                -2.474
REMARK SMILES CCCCCCCCCCCCCCCCCC(=O)[O-]
REMARK SMILES IDX 10 1 11 2 12 3 13 4 14 5 15 6 16 7 17 8 18 9 19 10 20 11
REMARK SMILES IDX 9 12 8 13 7 14 6 15 5 16 4 17 3 18 2 19 1 20
REMARK H PARENT
REMARK Flexibility Score: inf
ROOT
ATOM      1  C   UNL     1      28.704  13.596 -17.197  1.00  0.00     0.000 C 
ENDROOT
BRANCH   1   2
ATOM      2  C   UNL     1      29.612  13.158 -18.361  1.00  0.00     0.000 C 
BRANCH   2   3
ATOM      3  C   UNL     1      30.699  12.132 -17.987  1.00  0.00     0.000 C 
BRANCH   3   4
ATOM      4  C   UNL     1      30.816  10.931 -18.946  1.00  0.00     0.000 C 
BRANCH   4   5
ATOM      5  C   UNL     1      31.042   9.583 -18.226  1.00  0.00     0.000 C 
BRANCH   5   6
ATOM      6  C   UNL     1      30.459   9.575 -16.803  1.00  0.00     0.000 C 
BRANCH   6   7
ATOM      7  C   UNL     1      29.281   8.597 -16.639  1.00  0.00     0.006 C 
BRANCH   7   8
ATOM      8  C   UNL     1      29.208   7.518 -17.735  1.00  0.00     0.053 C 
BRANCH   8   9
ATOM      9  C   UNL     1      27.993   6.651 -17.615  1.00  0.00     0.041 C 
ATOM     10  O   UNL     1      28.063   5.534 -17.036  1.00  0.00    -0.550 OA
ATOM     11  O   UNL     1      26.774   7.087 -18.118  1.00  0.00    -0.550 OA
ENDBRANCH   8   9
ENDBRANCH   7   8
ENDBRANCH   6   7
ENDBRANCH   5   6
ENDBRANCH   4   5
ENDBRANCH   3   4
ENDBRANCH   2   3
ENDBRANCH   1   2
BRANCH   1  12
ATOM     12  C   UNL     1      28.482  12.485 -16.158  1.00  0.00     0.000 C 
BRANCH  12  13
ATOM     13  C   UNL     1      28.777  12.994 -14.740  1.00  0.00    -0.000 C 
BRANCH  13  14
ATOM     14  C   UNL     1      30.259  12.853 -14.358  1.00  0.00    -0.000 C 
BRANCH  14  15
ATOM     15  C   UNL     1      30.456  12.165 -12.996  1.00  0.00    -0.000 C 
BRANCH  15  16
ATOM     16  C   UNL     1      30.110  10.668 -13.036  1.00  0.00    -0.000 C 
BRANCH  16  17
ATOM     17  C   UNL     1      29.066  10.276 -11.979  1.00  0.00    -0.000 C 
BRANCH  17  18
ATOM     18  C   UNL     1      28.833  11.378 -10.932  1.00  0.00    -0.000 C 
BRANCH  18  19
ATOM     19  C   UNL     1      27.363  11.839 -10.838  1.00  0.00    -0.003 C 
ATOM     20  C   UNL     1      27.171  13.271 -11.335  1.00  0.00     0.004 C 
ENDBRANCH  18  19
ENDBRANCH  17  18
ENDBRANCH  16  17
ENDBRANCH  15  16
ENDBRANCH  14  15
ENDBRANCH  13  14
ENDBRANCH  12  13
ENDBRANCH   1  12
TORSDOF 16
ENDMDL
MODEL 5
REMARK VINA RESULT:    -3.894      2.446      5.435
REMARK INTER + INTRA:         -10.010
REMARK INTER:                  -7.730
REMARK INTRA:                  -2.281
REMARK UNBOUND:                -2.474
REMARK SMILES CCCCCCCCCCCCCCCCCC(=O)[O-]
REMARK SMILES IDX 10 1 11 2 12 3 13 4 14 5 15 6 16 7 17 8 18 9 19 10 20 11
REMARK SMILES IDX 9 12 8 13 7 14 6 15 5 16 4 17 3 18 2 19 1 20
REMARK H PARENT
REMARK Flexibility Score: inf
ROOT
ATOM      1  C   UNL     1      27.973  11.822 -10.953  1.00  0.00     0.000 C 
ENDROOT
BRANCH   1   2
ATOM      2  C   UNL     1      26.973  12.981 -11.126  1.00  0.00     0.000 C 
BRANCH   2   3
ATOM      3  C   UNL     1      26.969  13.632 -12.522  1.00  0.00     0.000 C 
BRANCH   3   4
ATOM      4  C   UNL     1      27.611  15.032 -12.588  1.00  0.00     0.000 C 
BRANCH   4   5
ATOM      5  C   UNL     1      28.770  15.135 -13.603  1.00  0.00     0.000 C 
BRANCH   5   6
ATOM      6  C   UNL     1      29.088  13.784 -14.266  1.00  0.00     0.000 C 
BRANCH   6   7
ATOM      7  C   UNL     1      30.575  13.629 -14.635  1.00  0.00     0.006 C 
BRANCH   7   8
ATOM      8  C   UNL     1      31.060  14.619 -15.710  1.00  0.00     0.053 C 
BRANCH   8   9
ATOM      9  C   UNL     1      30.365  14.434 -17.023  1.00  0.00     0.041 C 
ATOM     10  O   UNL     1      30.465  13.344 -17.649  1.00  0.00    -0.550 OA
ATOM     11  O   UNL     1      29.584  15.456 -17.547  1.00  0.00    -0.550 OA
ENDBRANCH   8   9
ENDBRANCH   7   8
ENDBRANCH   6   7
ENDBRANCH   5   6
ENDBRANCH   4   5
ENDBRANCH   3   4
ENDBRANCH   2   3
ENDBRANCH   1   2
BRANCH   1  12
ATOM     12  C   UNL     1      29.435  12.292 -10.914  1.00  0.00     0.000 C 
BRANCH  12  13
ATOM     13  C   UNL     1      30.309  11.299 -10.134  1.00  0.00    -0.000 C 
BRANCH  13  14
ATOM     14  C   UNL     1      29.776   9.860 -10.204  1.00  0.00    -0.000 C 
BRANCH  14  15
ATOM     15  C   UNL     1      30.717   8.917 -10.975  1.00  0.00    -0.000 C 
BRANCH  15  16
ATOM     16  C   UNL     1      29.999   8.162 -12.104  1.00  0.00    -0.000 C 
BRANCH  16  17
ATOM     17  C   UNL     1      29.151   9.090 -12.988  1.00  0.00    -0.000 C 
BRANCH  17  18
ATOM     18  C   UNL     1      29.995  10.131 -13.743  1.00  0.00    -0.000 C 
BRANCH  18  19
ATOM     19  C   UNL     1      30.267   9.753 -15.215  1.00  0.00    -0.003 C 
ATOM     20  C   UNL     1      29.276  10.408 -16.175  1.00  0.00     0.004 C 
ENDBRANCH  18  19
ENDBRANCH  17  18
ENDBRANCH  16  17
ENDBRANCH  15  16
ENDBRANCH  14  15
ENDBRANCH  13  14
ENDBRANCH  12  13
ENDBRANCH   1  12
TORSDOF 16
ENDMDL
MODEL 6
REMARK VINA RESULT:    -3.862      1.776      5.758
REMARK INTER + INTRA:          -9.948
REMARK INTER:                  -8.142
REMARK INTRA:                  -1.806
REMARK UNBOUND:                -2.474
REMARK SMILES CCCCCCCCCCCCCCCCCC(=O)[O-]
REMARK SMILES IDX 10 1 11 2 12 3 13 4 14 5 15 6 16 7 17 8 18 9 19 10 20 11
REMARK SMILES IDX 9 12 8 13 7 14 6 15 5 16 4 17 3 18 2 19 1 20
REMARK H PARENT
REMARK Flexibility Score: inf
ROOT
ATOM      1  C   UNL     1      29.439  10.487 -15.449  1.00  0.00     0.000 C 
ENDROOT
BRANCH   1   2
ATOM      2  C   UNL     1      30.710  10.343 -16.307  1.00  0.00     0.000 C 
BRANCH   2   3
ATOM      3  C   UNL     1      30.462   9.963 -17.779  1.00  0.00     0.000 C 
BRANCH   3   4
ATOM      4  C   UNL     1      30.644  11.114 -18.787  1.00  0.00     0.000 C 
BRANCH   4   5
ATOM      5  C   UNL     1      30.764  12.504 -18.126  1.00  0.00     0.000 C 
BRANCH   5   6
ATOM      6  C   UNL     1      29.444  13.291 -18.175  1.00  0.00     0.000 C 
BRANCH   6   7
ATOM      7  C   UNL     1      29.496  14.606 -17.375  1.00  0.00     0.006 C 
BRANCH   7   8
ATOM      8  C   UNL     1      30.342  14.524 -16.092  1.00  0.00     0.053 C 
BRANCH   8   9
ATOM      9  C   UNL     1      29.540  14.767 -14.851  1.00  0.00     0.041 C 
ATOM     10  O   UNL     1      29.275  15.943 -14.483  1.00  0.00    -0.550 OA
ATOM     11  O   UNL     1      29.059  13.693 -14.113  1.00  0.00    -0.550 OA
ENDBRANCH   8   9
ENDBRANCH   7   8
ENDBRANCH   6   7
ENDBRANCH   5   6
ENDBRANCH   4   5
ENDBRANCH   3   4
ENDBRANCH   2   3
ENDBRANCH   1   2
BRANCH   1  12
ATOM     12  C   UNL     1      29.666  10.126 -13.973  1.00  0.00     0.000 C 
BRANCH  12  13
ATOM     13  C   UNL     1      29.590   8.606 -13.763  1.00  0.00    -0.000 C 
BRANCH  13  14
ATOM     14  C   UNL     1      29.540   8.217 -12.277  1.00  0.00    -0.000 C 
BRANCH  14  15
ATOM     15  C   UNL     1      30.678   8.853 -11.460  1.00  0.00    -0.000 C 
BRANCH  15  16
ATOM     16  C   UNL     1      30.161   9.654 -10.255  1.00  0.00    -0.000 C 
BRANCH  16  17
ATOM     17  C   UNL     1      30.602  11.126 -10.293  1.00  0.00    -0.000 C 
BRANCH  17  18
ATOM     18  C   UNL     1      29.551  12.047 -10.937  1.00  0.00    -0.000 C 
BRANCH  18  19
ATOM     19  C   UNL     1      28.117  11.479 -10.881  1.00  0.00    -0.003 C 
ATOM     20  C   UNL     1      27.055  12.561 -11.069  1.00  0.00     0.004 C 
ENDBRANCH  18  19
ENDBRANCH  17  18
ENDBRANCH  16  17
ENDBRANCH  15  16
ENDBRANCH  14  15
ENDBRANCH  13  14
ENDBRANCH  12  13
ENDBRANCH   1  12
TORSDOF 16
ENDMDL
MODEL 7
REMARK VINA RESULT:    -3.852     15.831     17.591
REMARK INTER + INTRA:          -9.929
REMARK INTER:                  -7.746
REMARK INTRA:                  -2.183
REMARK UNBOUND:                -2.474
REMARK SMILES CCCCCCCCCCCCCCCCCC(=O)[O-]
REMARK SMILES IDX 10 1 11 2 12 3 13 4 14 5 15 6 16 7 17 8 18 9 19 10 20 11
REMARK SMILES IDX 9 12 8 13 7 14 6 15 5 16 4 17 3 18 2 19 1 20
REMARK H PARENT
REMARK Flexibility Score: inf
ROOT
ATOM      1  C   UNL     1      17.036  -1.805 -11.612  1.00  0.00     0.000 C 
ENDROOT
BRANCH   1   2
ATOM      2  C   UNL     1      16.149  -0.552 -11.486  1.00  0.00     0.000 C 
BRANCH   2   3
ATOM      3  C   UNL     1      15.790   0.126 -12.821  1.00  0.00     0.000 C 
BRANCH   3   4
ATOM      4  C   UNL     1      15.255  -0.825 -13.911  1.00  0.00     0.000 C 
BRANCH   4   5
ATOM      5  C   UNL     1      16.106  -0.833 -15.199  1.00  0.00     0.000 C 
BRANCH   5   6
ATOM      6  C   UNL     1      16.366   0.584 -15.738  1.00  0.00     0.000 C 
BRANCH   6   7
ATOM      7  C   UNL     1      15.986   0.744 -17.221  1.00  0.00     0.006 C 
BRANCH   7   8
ATOM      8  C   UNL     1      16.891   1.718 -17.997  1.00  0.00     0.053 C 
BRANCH   8   9
ATOM      9  C   UNL     1      16.263   3.064 -18.189  1.00  0.00     0.041 C 
ATOM     10  O   UNL     1      15.275   3.412 -17.488  1.00  0.00    -0.550 OA
ATOM     11  O   UNL     1      16.786   3.948 -19.124  1.00  0.00    -0.550 OA
ENDBRANCH   8   9
ENDBRANCH   7   8
ENDBRANCH   6   7
ENDBRANCH   5   6
ENDBRANCH   4   5
ENDBRANCH   3   4
ENDBRANCH   2   3
ENDBRANCH   1   2
BRANCH   1  12
ATOM     12  C   UNL     1      18.343  -1.698 -10.811  1.00  0.00     0.000 C 
BRANCH  12  13
ATOM     13  C   UNL     1      19.555  -1.615 -11.751  1.00  0.00    -0.000 C 
BRANCH  13  14
ATOM     14  C   UNL     1      19.155  -1.627 -13.235  1.00  0.00    -0.000 C 
BRANCH  14  15
ATOM     15  C   UNL     1      19.542  -0.327 -13.962  1.00  0.00    -0.000 C 
BRANCH  15  16
ATOM     16  C   UNL     1      20.724  -0.522 -14.926  1.00  0.00    -0.000 C 
BRANCH  16  17
ATOM     17  C   UNL     1      20.415  -0.020 -16.345  1.00  0.00    -0.000 C 
BRANCH  17  18
ATOM     18  C   UNL     1      19.488  -0.967 -17.125  1.00  0.00    -0.000 C 
BRANCH  18  19
ATOM     19  C   UNL     1      20.039  -1.366 -18.511  1.00  0.00    -0.003 C 
ATOM     20  C   UNL     1      19.053  -1.063 -19.637  1.00  0.00     0.004 C 
ENDBRANCH  18  19
ENDBRANCH  17  18
ENDBRANCH  16  17
ENDBRANCH  15  16
ENDBRANCH  14  15
ENDBRANCH  13  14
ENDBRANCH  12  13
ENDBRANCH   1  12
TORSDOF 16
ENDMDL
MODEL 8
REMARK VINA RESULT:    -3.788      1.428      5.148
REMARK INTER + INTRA:          -9.805
REMARK INTER:                  -7.595
REMARK INTRA:                  -2.210
REMARK UNBOUND:                -2.474
REMARK SMILES CCCCCCCCCCCCCCCCCC(=O)[O-]
REMARK SMILES IDX 10 1 11 2 12 3 13 4 14 5 15 6 16 7 17 8 18 9 19 10 20 11
REMARK SMILES IDX 9 12 8 13 7 14 6 15 5 16 4 17 3 18 2 19 1 20
REMARK H PARENT
REMARK Flexibility Score: inf
ROOT
ATOM      1  C   UNL     1      29.551  13.151 -18.220  1.00  0.00     0.000 C 
ENDROOT
BRANCH   1   2
ATOM      2  C   UNL     1      29.260  14.469 -17.479  1.00  0.00     0.000 C 
BRANCH   2   3
ATOM      3  C   UNL     1      30.247  14.810 -16.347  1.00  0.00     0.000 C 
BRANCH   3   4
ATOM      4  C   UNL     1      29.649  14.761 -14.927  1.00  0.00     0.000 C 
BRANCH   4   5
ATOM      5  C   UNL     1      29.878  13.416 -14.204  1.00  0.00     0.000 C 
BRANCH   5   6
ATOM      6  C   UNL     1      28.584  12.855 -13.589  1.00  0.00     0.000 C 
BRANCH   6   7
ATOM      7  C   UNL     1      28.393  13.258 -12.115  1.00  0.00     0.006 C 
BRANCH   7   8
ATOM      8  C   UNL     1      26.929  13.536 -11.727  1.00  0.00     0.053 C 
BRANCH   8   9
ATOM      9  C   UNL     1      26.497  14.932 -12.055  1.00  0.00     0.041 C 
ATOM     10  O   UNL     1      27.330  15.877 -12.037  1.00  0.00    -0.550 OA
ATOM     11  O   UNL     1      25.178  15.187 -12.406  1.00  0.00    -0.550 OA
ENDBRANCH   8   9
ENDBRANCH   7   8
ENDBRANCH   6   7
ENDBRANCH   5   6
ENDBRANCH   4   5
ENDBRANCH   3   4
ENDBRANCH   2   3
ENDBRANCH   1   2
BRANCH   1  12
ATOM     12  C   UNL     1      30.978  12.632 -17.983  1.00  0.00     0.000 C 
BRANCH  12  13
ATOM     13  C   UNL     1      30.985  11.105 -17.815  1.00  0.00    -0.000 C 
BRANCH  13  14
ATOM     14  C   UNL     1      30.898  10.672 -16.343  1.00  0.00    -0.000 C 
BRANCH  14  15
ATOM     15  C   UNL     1      29.511  10.120 -15.970  1.00  0.00    -0.000 C 
BRANCH  15  16
ATOM     16  C   UNL     1      29.535   8.610 -15.686  1.00  0.00    -0.000 C 
BRANCH  16  17
ATOM     17  C   UNL     1      30.000   8.286 -14.257  1.00  0.00    -0.000 C 
BRANCH  17  18
ATOM     18  C   UNL     1      29.177   9.015 -13.182  1.00  0.00    -0.000 C 
BRANCH  18  19
ATOM     19  C   UNL     1      30.037   9.835 -12.197  1.00  0.00    -0.003 C 
ATOM     20  C   UNL     1      29.581   9.669 -10.749  1.00  0.00     0.004 C 
ENDBRANCH  18  19
ENDBRANCH  17  18
ENDBRANCH  16  17
ENDBRANCH  15  16
ENDBRANCH  14  15
ENDBRANCH  13  14
ENDBRANCH  12  13
ENDBRANCH   1  12
TORSDOF 16
ENDMDL
MODEL 9
REMARK VINA RESULT:    -3.734      3.022      5.237
REMARK INTER + INTRA:          -9.701
REMARK INTER:                  -7.826
REMARK INTRA:                  -1.875
REMARK UNBOUND:                -2.474
REMARK SMILES CCCCCCCCCCCCCCCCCC(=O)[O-]
REMARK SMILES IDX 10 1 11 2 12 3 13 4 14 5 15 6 16 7 17 8 18 9 19 10 20 11
REMARK SMILES IDX 9 12 8 13 7 14 6 15 5 16 4 17 3 18 2 19 1 20
REMARK H PARENT
REMARK Flexibility Score: inf
ROOT
ATOM      1  C   UNL     1      26.117  14.896 -12.251  1.00  0.00     0.000 C 
ENDROOT
BRANCH   1   2
ATOM      2  C   UNL     1      26.159  14.013 -10.989  1.00  0.00     0.000 C 
BRANCH   2   3
ATOM      3  C   UNL     1      26.233  12.498 -11.258  1.00  0.00     0.000 C 
BRANCH   3   4
ATOM      4  C   UNL     1      27.352  11.757 -10.500  1.00  0.00     0.000 C 
BRANCH   4   5
ATOM      5  C   UNL     1      28.661  11.618 -11.308  1.00  0.00     0.000 C 
BRANCH   5   6
ATOM      6  C   UNL     1      29.626  10.595 -10.685  1.00  0.00     0.000 C 
BRANCH   6   7
ATOM      7  C   UNL     1      29.676   9.264 -11.458  1.00  0.00     0.006 C 
BRANCH   7   8
ATOM      8  C   UNL     1      29.250   9.381 -12.933  1.00  0.00     0.053 C 
BRANCH   8   9
ATOM      9  C   UNL     1      29.406   8.095 -13.684  1.00  0.00     0.041 C 
ATOM     10  O   UNL     1      30.380   7.927 -14.465  1.00  0.00    -0.550 OA
ATOM     11  O   UNL     1      28.487   7.069 -13.504  1.00  0.00    -0.550 OA
ENDBRANCH   8   9
ENDBRANCH   7   8
ENDBRANCH   6   7
ENDBRANCH   5   6
ENDBRANCH   4   5
ENDBRANCH   3   4
ENDBRANCH   2   3
ENDBRANCH   1   2
BRANCH   1  12
ATOM     12  C   UNL     1      27.418  15.683 -12.475  1.00  0.00     0.000 C 
BRANCH  12  13
ATOM     13  C   UNL     1      28.498  14.790 -13.103  1.00  0.00    -0.000 C 
BRANCH  13  14
ATOM     14  C   UNL     1      29.250  15.487 -14.247  1.00  0.00    -0.000 C 
BRANCH  14  15
ATOM     15  C   UNL     1      30.427  14.649 -14.779  1.00  0.00    -0.000 C 
BRANCH  15  16
ATOM     16  C   UNL     1      30.399  13.201 -14.262  1.00  0.00    -0.000 C 
BRANCH  16  17
ATOM     17  C   UNL     1      30.077  12.186 -15.370  1.00  0.00    -0.000 C 
BRANCH  17  18
ATOM     18  C   UNL     1      28.626  12.290 -15.871  1.00  0.00    -0.000 C 
BRANCH  18  19
ATOM     19  C   UNL     1      28.498  12.971 -17.250  1.00  0.00    -0.003 C 
ATOM     20  C   UNL     1      29.830  13.026 -17.997  1.00  0.00     0.004 C 
ENDBRANCH  18  19
ENDBRANCH  17  18
ENDBRANCH  16  17
ENDBRANCH  15  16
ENDBRANCH  14  15
ENDBRANCH  13  14
ENDBRANCH  12  13
ENDBRANCH   1  12
TORSDOF 16
ENDMDL
