MODEL 1
REMARK VINA RESULT:    -5.261      0.000      0.000
REMARK INTER + INTRA:          -6.435
REMARK INTER:                  -6.338
REMARK INTRA:                  -0.097
REMARK UNBOUND:                -0.097
REMARK SMILES COC(=O)c1cc(O)c(O)c(O)c1
REMARK SMILES IDX 5 1 13 2 11 3 9 4 7 5 6 6 3 7 4 8 2 9 1 10 12 11 8 13 10 15
REMARK H PARENT 12 12 8 14 10 16
REMARK Flexibility Score: inf
ROOT
ATOM      1  C   UNL     1     -14.564 -27.990 -33.546  1.00  0.00     0.067 A 
ATOM      2  C   UNL     1     -15.504 -27.519 -32.612  1.00  0.00     0.066 A 
ATOM      3  C   UNL     1     -16.696 -26.917 -33.042  1.00  0.00     0.162 A 
ATOM      4  C   UNL     1     -16.957 -26.782 -34.415  1.00  0.00     0.200 A 
ATOM      5  C   UNL     1     -16.026 -27.249 -35.350  1.00  0.00     0.162 A 
ATOM      6  C   UNL     1     -14.836 -27.850 -34.917  1.00  0.00     0.066 A 
ENDROOT
BRANCH   1   7
ATOM      7  C   UNL     1     -13.307 -28.627 -33.096  1.00  0.00     0.338 C 
ATOM      8  O   UNL     1     -13.337 -29.556 -32.242  1.00  0.00    -0.246 OA
BRANCH   7   9
ATOM      9  O   UNL     1     -12.081 -28.197 -33.617  1.00  0.00    -0.465 OA
ATOM     10  C   UNL     1     -11.343 -28.954 -34.569  1.00  0.00     0.282 C 
ENDBRANCH   7   9
ENDBRANCH   1   7
BRANCH   3  11
ATOM     11  O   UNL     1     -17.621 -26.452 -32.107  1.00  0.00    -0.504 OA
ATOM     12  H   UNL     1     -18.554 -26.167 -32.380  1.00  0.00     0.293 HD
ENDBRANCH   3  11
BRANCH   5  13
ATOM     13  O   UNL     1     -16.290 -27.112 -36.713  1.00  0.00    -0.504 OA
ATOM     14  H   UNL     1     -16.593 -27.899 -37.276  1.00  0.00     0.293 HD
ENDBRANCH   5  13
BRANCH   4  15
ATOM     15  O   UNL     1     -18.136 -26.185 -34.866  1.00  0.00    -0.502 OA
ATOM     16  H   UNL     1     -19.049 -26.545 -34.620  1.00  0.00     0.293 HD
ENDBRANCH   4  15
TORSDOF 5
ENDMDL
MODEL 2
REMARK VINA RESULT:    -5.206      0.025      2.326
REMARK INTER + INTRA:          -6.369
REMARK INTER:                  -6.272
REMARK INTRA:                  -0.097
REMARK UNBOUND:                -0.097
REMARK SMILES COC(=O)c1cc(O)c(O)c(O)c1
REMARK SMILES IDX 5 1 13 2 11 3 9 4 7 5 6 6 3 7 4 8 2 9 1 10 12 11 8 13 10 15
REMARK H PARENT 12 12 8 14 10 16
REMARK Flexibility Score: inf
ROOT
ATOM      1  C   UNL     1     -14.545 -27.992 -33.548  1.00  0.00     0.067 A 
ATOM      2  C   UNL     1     -14.822 -27.854 -34.920  1.00  0.00     0.066 A 
ATOM      3  C   UNL     1     -16.014 -27.253 -35.350  1.00  0.00     0.162 A 
ATOM      4  C   UNL     1     -16.942 -26.785 -34.405  1.00  0.00     0.200 A 
ATOM      5  C   UNL     1     -16.673 -26.919 -33.038  1.00  0.00     0.162 A 
ATOM      6  C   UNL     1     -15.480 -27.520 -32.612  1.00  0.00     0.066 A 
ENDROOT
BRANCH   1   7
ATOM      7  C   UNL     1     -13.287 -28.625 -33.092  1.00  0.00     0.338 C 
ATOM      8  O   UNL     1     -13.317 -29.552 -32.236  1.00  0.00    -0.246 OA
BRANCH   7   9
ATOM      9  O   UNL     1     -12.061 -28.192 -33.611  1.00  0.00    -0.465 OA
ATOM     10  C   UNL     1     -11.325 -28.942 -34.570  1.00  0.00     0.282 C 
ENDBRANCH   7   9
ENDBRANCH   1   7
BRANCH   3  11
ATOM     11  O   UNL     1     -16.279 -27.121 -36.712  1.00  0.00    -0.504 OA
ATOM     12  H   UNL     1     -16.784 -27.834 -37.227  1.00  0.00     0.293 HD
ENDBRANCH   3  11
BRANCH   5  13
ATOM     13  O   UNL     1     -17.598 -26.452 -32.104  1.00  0.00    -0.504 OA
ATOM     14  H   UNL     1     -17.641 -25.473 -31.844  1.00  0.00     0.293 HD
ENDBRANCH   5  13
BRANCH   4  15
ATOM     15  O   UNL     1     -18.136 -26.184 -34.809  1.00  0.00    -0.502 OA
ATOM     16  H   UNL     1     -18.433 -26.175 -35.777  1.00  0.00     0.293 HD
ENDBRANCH   4  15
TORSDOF 5
ENDMDL
MODEL 3
REMARK VINA RESULT:    -4.777      1.670      2.997
REMARK INTER + INTRA:          -5.852
REMARK INTER:                  -5.838
REMARK INTRA:                  -0.014
REMARK UNBOUND:                -0.097
REMARK SMILES COC(=O)c1cc(O)c(O)c(O)c1
REMARK SMILES IDX 5 1 13 2 11 3 9 4 7 5 6 6 3 7 4 8 2 9 1 10 12 11 8 13 10 15
REMARK H PARENT 12 12 8 14 10 16
REMARK Flexibility Score: inf
ROOT
ATOM      1  C   UNL     1     -14.197 -27.904 -35.385  1.00  0.00     0.067 A 
ATOM      2  C   UNL     1     -15.452 -27.593 -35.937  1.00  0.00     0.066 A 
ATOM      3  C   UNL     1     -16.508 -27.171 -35.116  1.00  0.00     0.162 A 
ATOM      4  C   UNL     1     -16.313 -27.055 -33.730  1.00  0.00     0.200 A 
ATOM      5  C   UNL     1     -15.066 -27.362 -33.173  1.00  0.00     0.162 A 
ATOM      6  C   UNL     1     -14.014 -27.785 -33.997  1.00  0.00     0.066 A 
ENDROOT
BRANCH   1   7
ATOM      7  C   UNL     1     -13.081 -28.349 -36.250  1.00  0.00     0.338 C 
ATOM      8  O   UNL     1     -13.135 -28.167 -37.498  1.00  0.00    -0.246 OA
BRANCH   7   9
ATOM      9  O   UNL     1     -11.965 -28.974 -35.682  1.00  0.00    -0.465 OA
ATOM     10  C   UNL     1     -10.812 -28.253 -35.262  1.00  0.00     0.282 C 
ENDBRANCH   7   9
ENDBRANCH   1   7
BRANCH   3  11
ATOM     11  O   UNL     1     -17.749 -26.866 -35.674  1.00  0.00    -0.504 OA
ATOM     12  H   UNL     1     -18.024 -25.910 -35.867  1.00  0.00     0.293 HD
ENDBRANCH   3  11
BRANCH   5  13
ATOM     13  O   UNL     1     -14.879 -27.246 -31.796  1.00  0.00    -0.504 OA
ATOM     14  H   UNL     1     -14.414 -27.970 -31.261  1.00  0.00     0.293 HD
ENDBRANCH   5  13
BRANCH   4  15
ATOM     15  O   UNL     1     -17.349 -26.637 -32.892  1.00  0.00    -0.502 OA
ATOM     16  H   UNL     1     -17.239 -25.870 -32.241  1.00  0.00     0.293 HD
ENDBRANCH   4  15
TORSDOF 5
ENDMDL
MODEL 4
REMARK VINA RESULT:    -4.734     14.464     15.909
REMARK INTER + INTRA:          -5.799
REMARK INTER:                  -5.664
REMARK INTRA:                  -0.135
REMARK UNBOUND:                -0.097
REMARK SMILES COC(=O)c1cc(O)c(O)c(O)c1
REMARK SMILES IDX 5 1 13 2 11 3 9 4 7 5 6 6 3 7 4 8 2 9 1 10 12 11 8 13 10 15
REMARK H PARENT 12 12 8 14 10 16
REMARK Flexibility Score: inf
ROOT
ATOM      1  C   UNL     1      -6.890 -22.309 -22.628  1.00  0.00     0.067 A 
ATOM      2  C   UNL     1      -5.917 -23.147 -22.054  1.00  0.00     0.066 A 
ATOM      3  C   UNL     1      -4.641 -23.255 -22.626  1.00  0.00     0.162 A 
ATOM      4  C   UNL     1      -4.328 -22.521 -23.782  1.00  0.00     0.200 A 
ATOM      5  C   UNL     1      -5.291 -21.684 -24.358  1.00  0.00     0.162 A 
ATOM      6  C   UNL     1      -6.565 -21.580 -23.784  1.00  0.00     0.066 A 
ENDROOT
BRANCH   1   7
ATOM      7  C   UNL     1      -8.237 -22.193 -22.026  1.00  0.00     0.338 C 
ATOM      8  O   UNL     1      -9.266 -22.384 -22.731  1.00  0.00    -0.246 OA
BRANCH   7   9
ATOM      9  O   UNL     1      -8.369 -21.870 -20.670  1.00  0.00    -0.465 OA
ATOM     10  C   UNL     1      -8.054 -20.582 -20.153  1.00  0.00     0.282 C 
ENDBRANCH   7   9
ENDBRANCH   1   7
BRANCH   3  11
ATOM     11  O   UNL     1      -3.685 -24.089 -22.049  1.00  0.00    -0.504 OA
ATOM     12  H   UNL     1      -3.215 -24.809 -22.585  1.00  0.00     0.293 HD
ENDBRANCH   3  11
BRANCH   5  13
ATOM     13  O   UNL     1      -4.974 -20.958 -25.506  1.00  0.00    -0.504 OA
ATOM     14  H   UNL     1      -5.349 -21.210 -26.414  1.00  0.00     0.293 HD
ENDBRANCH   5  13
BRANCH   4  15
ATOM     15  O   UNL     1      -3.065 -22.612 -24.369  1.00  0.00    -0.502 OA
ATOM     16  H   UNL     1      -2.286 -23.061 -23.904  1.00  0.00     0.293 HD
ENDBRANCH   4  15
TORSDOF 5
ENDMDL
MODEL 5
REMARK VINA RESULT:    -4.733     14.477     16.015
REMARK INTER + INTRA:          -5.798
REMARK INTER:                  -5.663
REMARK INTRA:                  -0.134
REMARK UNBOUND:                -0.097
REMARK SMILES COC(=O)c1cc(O)c(O)c(O)c1
REMARK SMILES IDX 5 1 13 2 11 3 9 4 7 5 6 6 3 7 4 8 2 9 1 10 12 11 8 13 10 15
REMARK H PARENT 12 12 8 14 10 16
REMARK Flexibility Score: inf
ROOT
ATOM      1  C   UNL     1      -6.881 -22.308 -22.627  1.00  0.00     0.067 A 
ATOM      2  C   UNL     1      -6.521 -21.588 -23.780  1.00  0.00     0.066 A 
ATOM      3  C   UNL     1      -5.241 -21.724 -24.336  1.00  0.00     0.162 A 
ATOM      4  C   UNL     1      -4.307 -22.587 -23.739  1.00  0.00     0.200 A 
ATOM      5  C   UNL     1      -4.658 -23.307 -22.591  1.00  0.00     0.162 A 
ATOM      6  C   UNL     1      -5.939 -23.168 -22.038  1.00  0.00     0.066 A 
ENDROOT
BRANCH   1   7
ATOM      7  C   UNL     1      -8.232 -22.166 -22.039  1.00  0.00     0.338 C 
ATOM      8  O   UNL     1      -9.257 -22.333 -22.756  1.00  0.00    -0.246 OA
BRANCH   7   9
ATOM      9  O   UNL     1      -8.372 -21.844 -20.684  1.00  0.00    -0.465 OA
ATOM     10  C   UNL     1      -8.044 -20.562 -20.160  1.00  0.00     0.282 C 
ENDBRANCH   7   9
ENDBRANCH   1   7
BRANCH   3  11
ATOM     11  O   UNL     1      -4.895 -21.005 -25.479  1.00  0.00    -0.504 OA
ATOM     12  H   UNL     1      -5.319 -21.201 -26.379  1.00  0.00     0.293 HD
ENDBRANCH   3  11
BRANCH   5  13
ATOM     13  O   UNL     1      -3.727 -24.162 -22.003  1.00  0.00    -0.504 OA
ATOM     14  H   UNL     1      -3.594 -25.111 -22.335  1.00  0.00     0.293 HD
ENDBRANCH   5  13
BRANCH   4  15
ATOM     15  O   UNL     1      -3.027 -22.739 -24.274  1.00  0.00    -0.502 OA
ATOM     16  H   UNL     1      -2.847 -23.320 -25.083  1.00  0.00     0.293 HD
ENDBRANCH   4  15
TORSDOF 5
ENDMDL
MODEL 6
REMARK VINA RESULT:    -4.688      1.634      2.495
REMARK INTER + INTRA:          -5.744
REMARK INTER:                  -5.765
REMARK INTRA:                   0.021
REMARK UNBOUND:                -0.097
REMARK SMILES COC(=O)c1cc(O)c(O)c(O)c1
REMARK SMILES IDX 5 1 13 2 11 3 9 4 7 5 6 6 3 7 4 8 2 9 1 10 12 11 8 13 10 15
REMARK H PARENT 12 12 8 14 10 16
REMARK Flexibility Score: inf
ROOT
ATOM      1  C   UNL     1     -14.208 -27.904 -35.404  1.00  0.00     0.067 A 
ATOM      2  C   UNL     1     -13.969 -27.856 -34.019  1.00  0.00     0.066 A 
ATOM      3  C   UNL     1     -14.978 -27.448 -33.135  1.00  0.00     0.162 A 
ATOM      4  C   UNL     1     -16.240 -27.085 -33.632  1.00  0.00     0.200 A 
ATOM      5  C   UNL     1     -16.486 -27.131 -35.010  1.00  0.00     0.162 A 
ATOM      6  C   UNL     1     -15.474 -27.538 -35.891  1.00  0.00     0.066 A 
ENDROOT
BRANCH   1   7
ATOM      7  C   UNL     1     -13.145 -28.334 -36.340  1.00  0.00     0.338 C 
ATOM      8  O   UNL     1     -13.259 -28.108 -37.576  1.00  0.00    -0.246 OA
BRANCH   7   9
ATOM      9  O   UNL     1     -12.012 -28.994 -35.851  1.00  0.00    -0.465 OA
ATOM     10  C   UNL     1     -10.862 -28.301 -35.380  1.00  0.00     0.282 C 
ENDBRANCH   7   9
ENDBRANCH   1   7
BRANCH   3  11
ATOM     11  O   UNL     1     -14.729 -27.404 -31.764  1.00  0.00    -0.504 OA
ATOM     12  H   UNL     1     -15.425 -27.698 -31.088  1.00  0.00     0.293 HD
ENDBRANCH   3  11
BRANCH   5  13
ATOM     13  O   UNL     1     -17.741 -26.769 -35.498  1.00  0.00    -0.504 OA
ATOM     14  H   UNL     1     -18.200 -25.915 -35.200  1.00  0.00     0.293 HD
ENDBRANCH   5  13
BRANCH   4  15
ATOM     15  O   UNL     1     -17.260 -26.676 -32.771  1.00  0.00    -0.502 OA
ATOM     16  H   UNL     1     -17.235 -25.785 -32.292  1.00  0.00     0.293 HD
ENDBRANCH   4  15
TORSDOF 5
ENDMDL
MODEL 7
REMARK VINA RESULT:    -4.497     15.045     16.665
REMARK INTER + INTRA:          -5.514
REMARK INTER:                  -5.381
REMARK INTRA:                  -0.133
REMARK UNBOUND:                -0.097
REMARK SMILES COC(=O)c1cc(O)c(O)c(O)c1
REMARK SMILES IDX 5 1 13 2 11 3 9 4 7 5 6 6 3 7 4 8 2 9 1 10 12 11 8 13 10 15
REMARK H PARENT 12 12 8 14 10 16
REMARK Flexibility Score: inf
ROOT
ATOM      1  C   UNL     1      -7.201 -22.448 -21.855  1.00  0.00     0.067 A 
ATOM      2  C   UNL     1      -7.559 -21.887 -20.616  1.00  0.00     0.066 A 
ATOM      3  C   UNL     1      -6.800 -22.154 -19.466  1.00  0.00     0.162 A 
ATOM      4  C   UNL     1      -5.672 -22.987 -19.550  1.00  0.00     0.200 A 
ATOM      5  C   UNL     1      -5.310 -23.549 -20.780  1.00  0.00     0.162 A 
ATOM      6  C   UNL     1      -6.071 -23.280 -21.926  1.00  0.00     0.066 A 
ENDROOT
BRANCH   1   7
ATOM      7  C   UNL     1      -8.000 -22.167 -23.069  1.00  0.00     0.338 C 
ATOM      8  O   UNL     1      -9.156 -22.658 -23.195  1.00  0.00    -0.246 OA
BRANCH   7   9
ATOM      9  O   UNL     1      -7.471 -21.356 -24.079  1.00  0.00    -0.465 OA
ATOM     10  C   UNL     1      -6.827 -20.115 -23.811  1.00  0.00     0.282 C 
ENDBRANCH   7   9
ENDBRANCH   1   7
BRANCH   3  11
ATOM     11  O   UNL     1      -7.164 -21.593 -18.243  1.00  0.00    -0.504 OA
ATOM     12  H   UNL     1      -6.484 -21.436 -17.508  1.00  0.00     0.293 HD
ENDBRANCH   3  11
BRANCH   5  13
ATOM     13  O   UNL     1      -4.190 -24.375 -20.857  1.00  0.00    -0.504 OA
ATOM     14  H   UNL     1      -3.914 -24.968 -20.083  1.00  0.00     0.293 HD
ENDBRANCH   5  13
BRANCH   4  15
ATOM     15  O   UNL     1      -4.902 -23.267 -18.420  1.00  0.00    -0.502 OA
ATOM     16  H   UNL     1      -5.308 -23.640 -17.570  1.00  0.00     0.293 HD
ENDBRANCH   4  15
TORSDOF 5
ENDMDL
MODEL 8
REMARK VINA RESULT:    -4.485     14.987     16.748
REMARK INTER + INTRA:          -5.499
REMARK INTER:                  -5.360
REMARK INTRA:                  -0.139
REMARK UNBOUND:                -0.097
REMARK SMILES COC(=O)c1cc(O)c(O)c(O)c1
REMARK SMILES IDX 5 1 13 2 11 3 9 4 7 5 6 6 3 7 4 8 2 9 1 10 12 11 8 13 10 15
REMARK H PARENT 12 12 8 14 10 16
REMARK Flexibility Score: inf
ROOT
ATOM      1  C   UNL     1      -7.176 -22.540 -21.879  1.00  0.00     0.067 A 
ATOM      2  C   UNL     1      -6.026 -23.344 -21.973  1.00  0.00     0.066 A 
ATOM      3  C   UNL     1      -5.274 -23.651 -20.829  1.00  0.00     0.162 A 
ATOM      4  C   UNL     1      -5.672 -23.154 -19.577  1.00  0.00     0.200 A 
ATOM      5  C   UNL     1      -6.816 -22.354 -19.475  1.00  0.00     0.162 A 
ATOM      6  C   UNL     1      -7.564 -22.049 -20.621  1.00  0.00     0.066 A 
ENDROOT
BRANCH   1   7
ATOM      7  C   UNL     1      -7.971 -22.216 -23.084  1.00  0.00     0.338 C 
ATOM      8  O   UNL     1      -9.144 -22.665 -23.210  1.00  0.00    -0.246 OA
BRANCH   7   9
ATOM      9  O   UNL     1      -7.419 -21.411 -24.087  1.00  0.00    -0.465 OA
ATOM     10  C   UNL     1      -6.822 -20.148 -23.817  1.00  0.00     0.282 C 
ENDBRANCH   7   9
ENDBRANCH   1   7
BRANCH   3  11
ATOM     11  O   UNL     1      -4.135 -24.448 -20.934  1.00  0.00    -0.504 OA
ATOM     12  H   UNL     1      -4.189 -25.459 -20.893  1.00  0.00     0.293 HD
ENDBRANCH   3  11
BRANCH   5  13
ATOM     13  O   UNL     1      -7.205 -21.863 -18.229  1.00  0.00    -0.504 OA
ATOM     14  H   UNL     1      -8.121 -21.455 -18.082  1.00  0.00     0.293 HD
ENDBRANCH   5  13
BRANCH   4  15
ATOM     15  O   UNL     1      -4.939 -23.445 -18.424  1.00  0.00    -0.502 OA
ATOM     16  H   UNL     1      -4.783 -22.759 -17.697  1.00  0.00     0.293 HD
ENDBRANCH   4  15
TORSDOF 5
ENDMDL
