MODEL 1
REMARK VINA RESULT:    -3.678      0.000      0.000
REMARK INTER + INTRA:          -4.443
REMARK INTER:                  -5.183
REMARK INTRA:                   0.739
REMARK UNBOUND:                 0.739
REMARK SMILES CC1=CCCC(C)=CCC(C)(C)C=CC1
REMARK SMILES IDX 2 1 3 2 1 3 4 4 5 5 6 6 7 7 8 8 15 10 14 11 13 12 10 13
REMARK SMILES IDX 11 14 12 15 9 16
REMARK H PARENT
REMARK Flexibility Score: 60.00
ROOT
ATOM      1  C   UNL     1     166.776 169.834 199.055  1.00  0.00    -0.074 C 
ATOM      2  C   UNL     1     167.698 169.427 199.964  1.00  0.00    -0.027 C 
ATOM      3  C   UNL     1     167.295 170.449 197.777  1.00  0.00     0.039 C 
ENDROOT
BRANCH   2   4
ATOM      4  C   UNL     1     167.415 168.822 201.321  1.00  0.00     0.032 C 
BRANCH   4   5
ATOM      5  C   UNL     1     167.785 167.327 201.414  1.00  0.00     0.034 C 
BRANCH   5   6
ATOM      6  C   UNL     1     167.311 166.479 200.243  1.00  0.00    -0.077 C 
ATOM      7  C   UNL     1     168.331 165.964 199.259  1.00  0.00     0.039 C 
ATOM      8  C   UNL     1     166.017 166.145 200.045  1.00  0.00    -0.027 CG0
ATOM      9  G   UNL     1     164.865 166.580 200.923  1.00  0.00     0.000 G0
ENDBRANCH   5   6
ENDBRANCH   4   5
ENDBRANCH   2   4
BRANCH   1  10
ATOM     10  C   UNL     1     165.269 169.760 199.258  1.00  0.00     0.057 C 
BRANCH  10  11
ATOM     11  C   UNL     1     164.651 168.712 198.364  1.00  0.00    -0.026 C 
ATOM     12  C   UNL     1     163.955 167.612 198.730  1.00  0.00    -0.024 C 
BRANCH  12  13
ATOM     13  C   UNL     1     163.620 167.105 200.142  1.00  0.00    -0.014 C 
ATOM     14  C   UNL     1     162.916 168.221 200.944  1.00  0.00     0.016 C 
ATOM     15  C   UNL     1     162.608 165.941 199.997  1.00  0.00     0.016 C 
BRANCH  13  16
ATOM     16  C   UNL     1     164.863 166.573 200.924  1.00  0.00     0.038 CG0
ATOM     17  G   UNL     1     166.005 166.175 200.014  1.00  0.00     0.000 G0
ENDBRANCH  13  16
ENDBRANCH  12  13
ENDBRANCH  10  11
ENDBRANCH   1  10
TORSDOF 0
ENDMDL
MODEL 2
REMARK VINA RESULT:    -3.583      3.333      5.284
REMARK INTER + INTRA:          -4.311
REMARK INTER:                  -5.206
REMARK INTRA:                   0.895
REMARK UNBOUND:                 0.739
REMARK SMILES CC1=CCCC(C)=CCC(C)(C)C=CC1
REMARK SMILES IDX 2 1 3 2 1 3 4 4 5 5 6 6 7 7 8 8 15 10 14 11 13 12 10 13
REMARK SMILES IDX 11 14 12 15 9 16
REMARK H PARENT
REMARK Flexibility Score: 60.00
ROOT
ATOM      1  C   UNL     1     168.082 163.050 201.085  1.00  0.00    -0.074 C 
ATOM      2  C   UNL     1     169.024 163.337 200.151  1.00  0.00    -0.027 C 
ATOM      3  C   UNL     1     168.396 163.416 202.515  1.00  0.00     0.039 C 
ENDROOT
BRANCH   2   4
ATOM      4  C   UNL     1     168.948 163.030 198.672  1.00  0.00     0.032 C 
BRANCH   4   5
ATOM      5  C   UNL     1     168.888 164.292 197.787  1.00  0.00     0.034 C 
BRANCH   5   6
ATOM      6  C   UNL     1     167.818 165.299 198.184  1.00  0.00    -0.077 C 
ATOM      7  C   UNL     1     168.243 166.686 198.595  1.00  0.00     0.039 C 
ATOM      8  C   UNL     1     166.497 165.020 198.170  1.00  0.00    -0.027 CG0
ATOM      9  G   UNL     1     165.896 163.683 197.796  1.00  0.00     0.000 G0
ENDBRANCH   5   6
ENDBRANCH   4   5
ENDBRANCH   2   4
BRANCH   1  10
ATOM     10  C   UNL     1     166.764 162.344 200.794  1.00  0.00     0.057 C 
BRANCH  10  11
ATOM     11  C   UNL     1     165.592 163.273 201.003  1.00  0.00    -0.026 C 
ATOM     12  C   UNL     1     164.679 163.679 200.091  1.00  0.00    -0.024 C 
BRANCH  12  13
ATOM     13  C   UNL     1     164.588 163.336 198.596  1.00  0.00    -0.014 C 
ATOM     14  C   UNL     1     164.211 161.849 198.422  1.00  0.00     0.016 C 
ATOM     15  C   UNL     1     163.433 164.173 197.991  1.00  0.00     0.016 C 
BRANCH  13  16
ATOM     16  C   UNL     1     165.893 163.664 197.801  1.00  0.00     0.038 CG0
ATOM     17  G   UNL     1     166.492 165.001 198.178  1.00  0.00     0.000 G0
ENDBRANCH  13  16
ENDBRANCH  12  13
ENDBRANCH  10  11
ENDBRANCH   1  10
TORSDOF 0
ENDMDL
MODEL 3
REMARK VINA RESULT:    -3.552      2.011      4.274
REMARK INTER + INTRA:          -4.267
REMARK INTER:                  -5.001
REMARK INTRA:                   0.734
REMARK UNBOUND:                 0.739
REMARK SMILES CC1=CCCC(C)=CCC(C)(C)C=CC1
REMARK SMILES IDX 2 1 3 2 1 3 4 4 5 5 6 6 7 7 8 8 15 10 14 11 13 12 10 13
REMARK SMILES IDX 11 14 12 15 9 16
REMARK H PARENT
REMARK Flexibility Score: 60.00
ROOT
ATOM      1  C   UNL     1     163.736 168.621 201.046  1.00  0.00    -0.074 C 
ATOM      2  C   UNL     1     163.158 167.392 201.055  1.00  0.00    -0.027 C 
ATOM      3  C   UNL     1     164.141 169.201 202.379  1.00  0.00     0.039 C 
ENDROOT
BRANCH   2   4
ATOM      4  C   UNL     1     162.640 166.634 199.853  1.00  0.00     0.032 C 
BRANCH   4   5
ATOM      5  C   UNL     1     163.633 165.582 199.319  1.00  0.00     0.034 C 
BRANCH   5   6
ATOM      6  C   UNL     1     164.008 165.745 197.853  1.00  0.00    -0.077 C 
ATOM      7  C   UNL     1     163.154 165.076 196.806  1.00  0.00     0.039 C 
ATOM      8  C   UNL     1     165.063 166.478 197.435  1.00  0.00    -0.027 CG0
ATOM      9  G   UNL     1     166.029 167.205 198.344  1.00  0.00     0.000 G0
ENDBRANCH   5   6
ENDBRANCH   4   5
ENDBRANCH   2   4
BRANCH   1  10
ATOM     10  C   UNL     1     163.954 169.465 199.797  1.00  0.00     0.057 C 
BRANCH  10  11
ATOM     11  C   UNL     1     165.346 170.047 199.771  1.00  0.00    -0.026 C 
ATOM     12  C   UNL     1     166.373 169.714 198.955  1.00  0.00    -0.024 C 
BRANCH  12  13
ATOM     13  C   UNL     1     166.423 168.644 197.853  1.00  0.00    -0.014 C 
ATOM     14  C   UNL     1     165.521 169.066 196.674  1.00  0.00     0.016 C 
ATOM     15  C   UNL     1     167.876 168.589 197.318  1.00  0.00     0.016 C 
BRANCH  13  16
ATOM     16  C   UNL     1     166.036 167.216 198.353  1.00  0.00     0.038 CG0
ATOM     17  G   UNL     1     165.069 166.510 197.428  1.00  0.00     0.000 G0
ENDBRANCH  13  16
ENDBRANCH  12  13
ENDBRANCH  10  11
ENDBRANCH   1  10
TORSDOF 0
ENDMDL
MODEL 4
REMARK VINA RESULT:    -3.545      0.935      1.587
REMARK INTER + INTRA:          -4.257
REMARK INTER:                  -5.111
REMARK INTRA:                   0.854
REMARK UNBOUND:                 0.739
REMARK SMILES CC1=CCCC(C)=CCC(C)(C)C=CC1
REMARK SMILES IDX 2 1 3 2 1 3 4 4 5 5 6 6 7 7 8 8 15 10 14 11 13 12 10 13
REMARK SMILES IDX 11 14 12 15 9 16
REMARK H PARENT
REMARK Flexibility Score: 60.00
ROOT
ATOM      1  C   UNL     1     166.954 169.757 199.118  1.00  0.00    -0.074 C 
ATOM      2  C   UNL     1     167.932 169.405 199.991  1.00  0.00    -0.027 C 
ATOM      3  C   UNL     1     167.388 170.225 197.750  1.00  0.00     0.039 C 
ENDROOT
BRANCH   2   4
ATOM      4  C   UNL     1     167.740 168.946 201.419  1.00  0.00     0.032 C 
BRANCH   4   5
ATOM      5  C   UNL     1     167.550 167.421 201.551  1.00  0.00     0.034 C 
BRANCH   5   6
ATOM      6  C   UNL     1     166.389 166.998 202.441  1.00  0.00    -0.077 C 
ATOM      7  C   UNL     1     166.524 167.155 203.934  1.00  0.00     0.039 C 
ATOM      8  C   UNL     1     165.230 166.501 201.959  1.00  0.00    -0.027 CG0
ATOM      9  G   UNL     1     164.927 166.266 200.495  1.00  0.00     0.000 G0
ENDBRANCH   5   6
ENDBRANCH   4   5
ENDBRANCH   2   4
BRANCH   1  10
ATOM     10  C   UNL     1     165.466 169.761 199.441  1.00  0.00     0.057 C 
BRANCH  10  11
ATOM     11  C   UNL     1     164.690 168.940 198.440  1.00  0.00    -0.026 C 
ATOM     12  C   UNL     1     163.940 167.838 198.669  1.00  0.00    -0.024 C 
BRANCH  12  13
ATOM     13  C   UNL     1     163.685 167.101 199.994  1.00  0.00    -0.014 C 
ATOM     14  C   UNL     1     163.224 168.106 201.071  1.00  0.00     0.016 C 
ATOM     15  C   UNL     1     162.516 166.111 199.764  1.00  0.00     0.016 C 
BRANCH  13  16
ATOM     16  C   UNL     1     164.919 166.286 200.500  1.00  0.00     0.038 CG0
ATOM     17  G   UNL     1     165.210 166.512 201.968  1.00  0.00     0.000 G0
ENDBRANCH  13  16
ENDBRANCH  12  13
ENDBRANCH  10  11
ENDBRANCH   1  10
TORSDOF 0
ENDMDL
MODEL 5
REMARK VINA RESULT:    -3.422      1.815      3.911
REMARK INTER + INTRA:          -4.084
REMARK INTER:                  -5.066
REMARK INTRA:                   0.983
REMARK UNBOUND:                 0.739
REMARK SMILES CC1=CCCC(C)=CCC(C)(C)C=CC1
REMARK SMILES IDX 2 1 3 2 1 3 4 4 5 5 6 6 7 7 8 8 15 10 14 11 13 12 10 13
REMARK SMILES IDX 11 14 12 15 9 16
REMARK H PARENT
REMARK Flexibility Score: 60.00
ROOT
ATOM      1  C   UNL     1     162.738 167.791 200.222  1.00  0.00    -0.074 C 
ATOM      2  C   UNL     1     162.641 166.441 200.121  1.00  0.00    -0.027 C 
ATOM      3  C   UNL     1     162.204 168.608 199.070  1.00  0.00     0.039 C 
ENDROOT
BRANCH   2   4
ATOM      4  C   UNL     1     163.139 165.427 201.126  1.00  0.00     0.032 C 
BRANCH   4   5
ATOM      5  C   UNL     1     164.304 164.564 200.601  1.00  0.00     0.034 C 
BRANCH   5   6
ATOM      6  C   UNL     1     165.387 165.338 199.863  1.00  0.00    -0.077 C 
ATOM      7  C   UNL     1     165.643 165.024 198.410  1.00  0.00     0.039 C 
ATOM      8  C   UNL     1     166.127 166.310 200.439  1.00  0.00    -0.027 CG0
ATOM      9  G   UNL     1     166.013 166.746 201.883  1.00  0.00     0.000 G0
ENDBRANCH   5   6
ENDBRANCH   4   5
ENDBRANCH   2   4
BRANCH   1  10
ATOM     10  C   UNL     1     163.388 168.527 201.386  1.00  0.00     0.057 C 
BRANCH  10  11
ATOM     11  C   UNL     1     164.530 169.394 200.912  1.00  0.00    -0.026 C 
ATOM     12  C   UNL     1     165.846 169.266 201.198  1.00  0.00    -0.024 C 
BRANCH  12  13
ATOM     13  C   UNL     1     166.544 168.231 202.095  1.00  0.00    -0.014 C 
ATOM     14  C   UNL     1     168.071 168.300 201.882  1.00  0.00     0.016 C 
ATOM     15  C   UNL     1     166.271 168.626 203.568  1.00  0.00     0.016 C 
BRANCH  13  16
ATOM     16  C   UNL     1     166.029 166.772 201.880  1.00  0.00     0.038 CG0
ATOM     17  G   UNL     1     166.143 166.312 200.443  1.00  0.00     0.000 G0
ENDBRANCH  13  16
ENDBRANCH  12  13
ENDBRANCH  10  11
ENDBRANCH   1  10
TORSDOF 0
ENDMDL
MODEL 6
REMARK VINA RESULT:    -3.417      1.964      3.395
REMARK INTER + INTRA:          -4.076
REMARK INTER:                  -4.875
REMARK INTRA:                   0.799
REMARK UNBOUND:                 0.739
REMARK SMILES CC1=CCCC(C)=CCC(C)(C)C=CC1
REMARK SMILES IDX 2 1 3 2 1 3 4 4 5 5 6 6 7 7 8 8 15 10 14 11 13 12 10 13
REMARK SMILES IDX 11 14 12 15 9 16
REMARK H PARENT
REMARK Flexibility Score: 60.00
ROOT
ATOM      1  C   UNL     1     163.376 167.749 200.250  1.00  0.00    -0.074 C 
ATOM      2  C   UNL     1     164.606 168.323 200.280  1.00  0.00    -0.027 C 
ATOM      3  C   UNL     1     162.282 168.504 199.535  1.00  0.00     0.039 C 
ENDROOT
BRANCH   2   4
ATOM      4  C   UNL     1     165.837 167.774 200.966  1.00  0.00     0.032 C 
BRANCH   4   5
ATOM      5  C   UNL     1     166.847 167.135 199.991  1.00  0.00     0.034 C 
BRANCH   5   6
ATOM      6  C   UNL     1     167.156 165.670 200.263  1.00  0.00    -0.077 C 
ATOM      7  C   UNL     1     168.349 165.326 201.117  1.00  0.00     0.039 C 
ATOM      8  C   UNL     1     166.403 164.654 199.791  1.00  0.00    -0.027 CG0
ATOM      9  G   UNL     1     165.181 164.814 198.912  1.00  0.00     0.000 G0
ENDBRANCH   5   6
ENDBRANCH   4   5
ENDBRANCH   2   4
BRANCH   1  10
ATOM     10  C   UNL     1     163.019 166.432 200.925  1.00  0.00     0.057 C 
BRANCH  10  11
ATOM     11  C   UNL     1     162.217 165.547 200.002  1.00  0.00    -0.026 C 
ATOM     12  C   UNL     1     162.631 164.445 199.337  1.00  0.00    -0.024 C 
BRANCH  12  13
ATOM     13  C   UNL     1     164.026 163.800 199.310  1.00  0.00    -0.014 C 
ATOM     14  C   UNL     1     164.324 163.141 200.674  1.00  0.00     0.016 C 
ATOM     15  C   UNL     1     164.000 162.667 198.254  1.00  0.00     0.016 C 
BRANCH  13  16
ATOM     16  C   UNL     1     165.166 164.796 198.925  1.00  0.00     0.038 CG0
ATOM     17  G   UNL     1     166.402 164.636 199.783  1.00  0.00     0.000 G0
ENDBRANCH  13  16
ENDBRANCH  12  13
ENDBRANCH  10  11
ENDBRANCH   1  10
TORSDOF 0
ENDMDL
MODEL 7
REMARK VINA RESULT:    -3.404      2.047      4.172
REMARK INTER + INTRA:          -4.058
REMARK INTER:                  -4.835
REMARK INTRA:                   0.777
REMARK UNBOUND:                 0.739
REMARK SMILES CC1=CCCC(C)=CCC(C)(C)C=CC1
REMARK SMILES IDX 2 1 3 2 1 3 4 4 5 5 6 6 7 7 8 8 15 10 14 11 13 12 10 13
REMARK SMILES IDX 11 14 12 15 9 16
REMARK H PARENT
REMARK Flexibility Score: 60.00
ROOT
ATOM      1  C   UNL     1     165.828 169.385 200.427  1.00  0.00    -0.074 C 
ATOM      2  C   UNL     1     165.994 170.135 199.308  1.00  0.00    -0.027 C 
ATOM      3  C   UNL     1     164.534 169.556 201.185  1.00  0.00     0.039 C 
ENDROOT
BRANCH   2   4
ATOM      4  C   UNL     1     167.214 170.159 198.415  1.00  0.00     0.032 C 
BRANCH   4   5
ATOM      5  C   UNL     1     166.987 169.479 197.050  1.00  0.00     0.034 C 
BRANCH   5   6
ATOM      6  C   UNL     1     166.244 168.152 197.114  1.00  0.00    -0.077 C 
ATOM      7  C   UNL     1     164.816 168.096 196.633  1.00  0.00     0.039 C 
ATOM      8  C   UNL     1     166.803 167.010 197.567  1.00  0.00    -0.027 CG0
ATOM      9  G   UNL     1     168.215 166.886 198.096  1.00  0.00     0.000 G0
ENDBRANCH   5   6
ENDBRANCH   4   5
ENDBRANCH   2   4
BRANCH   1  10
ATOM     10  C   UNL     1     166.871 168.429 200.990  1.00  0.00     0.057 C 
BRANCH  10  11
ATOM     11  C   UNL     1     166.413 166.995 200.877  1.00  0.00    -0.026 C 
ATOM     12  C   UNL     1     167.017 165.977 200.223  1.00  0.00    -0.024 C 
BRANCH  12  13
ATOM     13  C   UNL     1     168.313 165.993 199.396  1.00  0.00    -0.014 C 
ATOM     14  C   UNL     1     169.489 166.465 200.278  1.00  0.00     0.016 C 
ATOM     15  C   UNL     1     168.618 164.535 198.972  1.00  0.00     0.016 C 
BRANCH  13  16
ATOM     16  C   UNL     1     168.216 166.865 198.104  1.00  0.00     0.038 CG0
ATOM     17  G   UNL     1     166.802 166.991 197.582  1.00  0.00     0.000 G0
ENDBRANCH  13  16
ENDBRANCH  12  13
ENDBRANCH  10  11
ENDBRANCH   1  10
TORSDOF 0
ENDMDL
MODEL 8
REMARK VINA RESULT:    -3.383      1.280      3.269
REMARK INTER + INTRA:          -4.028
REMARK INTER:                  -4.836
REMARK INTRA:                   0.808
REMARK UNBOUND:                 0.739
REMARK SMILES CC1=CCCC(C)=CCC(C)(C)C=CC1
REMARK SMILES IDX 2 1 3 2 1 3 4 4 5 5 6 6 7 7 8 8 15 10 14 11 13 12 10 13
REMARK SMILES IDX 11 14 12 15 9 16
REMARK H PARENT
REMARK Flexibility Score: 60.00
ROOT
ATOM      1  C   UNL     1     167.048 169.644 199.858  1.00  0.00    -0.074 C 
ATOM      2  C   UNL     1     165.797 170.110 199.615  1.00  0.00    -0.027 C 
ATOM      3  C   UNL     1     168.114 169.972 198.840  1.00  0.00     0.039 C 
ENDROOT
BRANCH   2   4
ATOM      4  C   UNL     1     164.570 169.876 200.468  1.00  0.00     0.032 C 
BRANCH   4   5
ATOM      5  C   UNL     1     163.494 169.019 199.771  1.00  0.00     0.034 C 
BRANCH   5   6
ATOM      6  C   UNL     1     164.012 167.732 199.144  1.00  0.00    -0.077 C 
ATOM      7  C   UNL     1     164.050 167.621 197.641  1.00  0.00     0.039 C 
ATOM      8  C   UNL     1     164.458 166.683 199.867  1.00  0.00    -0.027 CG0
ATOM      9  G   UNL     1     164.481 166.617 201.378  1.00  0.00     0.000 G0
ENDBRANCH   5   6
ENDBRANCH   4   5
ENDBRANCH   2   4
BRANCH   1  10
ATOM     10  C   UNL     1     167.433 168.779 201.050  1.00  0.00     0.057 C 
BRANCH  10  11
ATOM     11  C   UNL     1     167.687 167.352 200.627  1.00  0.00    -0.026 C 
ATOM     12  C   UNL     1     167.013 166.240 201.002  1.00  0.00    -0.024 C 
BRANCH  12  13
ATOM     13  C   UNL     1     165.827 166.109 201.972  1.00  0.00    -0.014 C 
ATOM     14  C   UNL     1     165.696 164.645 202.443  1.00  0.00     0.016 C 
ATOM     15  C   UNL     1     166.149 166.963 203.224  1.00  0.00     0.016 C 
BRANCH  13  16
ATOM     16  C   UNL     1     164.475 166.614 201.375  1.00  0.00     0.038 CG0
ATOM     17  G   UNL     1     164.483 166.667 199.863  1.00  0.00     0.000 G0
ENDBRANCH  13  16
ENDBRANCH  12  13
ENDBRANCH  10  11
ENDBRANCH   1  10
TORSDOF 0
ENDMDL
MODEL 9
REMARK VINA RESULT:    -3.316      2.336      5.425
REMARK INTER + INTRA:          -3.933
REMARK INTER:                  -4.704
REMARK INTRA:                   0.770
REMARK UNBOUND:                 0.739
REMARK SMILES CC1=CCCC(C)=CCC(C)(C)C=CC1
REMARK SMILES IDX 2 1 3 2 1 3 4 4 5 5 6 6 7 7 8 8 15 10 14 11 13 12 10 13
REMARK SMILES IDX 11 14 12 15 9 16
REMARK H PARENT
REMARK Flexibility Score: 60.00
ROOT
ATOM      1  C   UNL     1     163.557 163.357 199.279  1.00  0.00    -0.074 C 
ATOM      2  C   UNL     1     162.708 164.402 199.103  1.00  0.00    -0.027 C 
ATOM      3  C   UNL     1     163.506 162.249 198.255  1.00  0.00     0.039 C 
ENDROOT
BRANCH   2   4
ATOM      4  C   UNL     1     162.556 165.599 200.014  1.00  0.00     0.032 C 
BRANCH   4   5
ATOM      5  C   UNL     1     163.553 166.734 199.705  1.00  0.00     0.034 C 
BRANCH   5   6
ATOM      6  C   UNL     1     164.491 167.088 200.851  1.00  0.00    -0.077 C 
ATOM      7  C   UNL     1     163.972 167.948 201.975  1.00  0.00     0.039 C 
ATOM      8  C   UNL     1     165.768 166.655 200.924  1.00  0.00    -0.027 CG0
ATOM      9  G   UNL     1     166.454 165.796 199.885  1.00  0.00     0.000 G0
ENDBRANCH   5   6
ENDBRANCH   4   5
ENDBRANCH   2   4
BRANCH   1  10
ATOM     10  C   UNL     1     164.510 163.206 200.456  1.00  0.00     0.057 C 
BRANCH  10  11
ATOM     11  C   UNL     1     165.845 162.659 200.009  1.00  0.00    -0.026 C 
ATOM     12  C   UNL     1     167.048 163.277 200.034  1.00  0.00    -0.024 C 
BRANCH  12  13
ATOM     13  C   UNL     1     167.394 164.702 200.495  1.00  0.00    -0.014 C 
ATOM     14  C   UNL     1     167.369 164.773 202.036  1.00  0.00     0.016 C 
ATOM     15  C   UNL     1     168.846 165.002 200.047  1.00  0.00     0.016 C 
BRANCH  13  16
ATOM     16  C   UNL     1     166.462 165.797 199.884  1.00  0.00     0.038 CG0
ATOM     17  G   UNL     1     165.778 166.642 200.937  1.00  0.00     0.000 G0
ENDBRANCH  13  16
ENDBRANCH  12  13
ENDBRANCH  10  11
ENDBRANCH   1  10
TORSDOF 0
ENDMDL
