MODEL 1
REMARK VINA RESULT:    -4.280      0.000      0.000
REMARK INTER + INTRA:          -7.100
REMARK INTER:                  -6.282
REMARK INTRA:                  -0.818
REMARK UNBOUND:                -0.818
REMARK SMILES O=C([O-])CCCCCCCC(=O)[O-]
REMARK SMILES IDX 7 1 6 2 5 3 4 4 2 5 1 6 3 7 8 8 9 9 10 10 11 11 12 12 13 13
REMARK H PARENT
REMARK Flexibility Score: inf
ROOT
ATOM      1  C   UNL     1     180.863 179.381 180.989  1.00  0.00     0.000 C 
ENDROOT
BRANCH   1   2
ATOM      2  C   UNL     1     180.303 180.752 181.395  1.00  0.00     0.000 C 
BRANCH   2   3
ATOM      3  C   UNL     1     180.137 181.702 180.198  1.00  0.00     0.006 C 
BRANCH   3   4
ATOM      4  C   UNL     1     181.357 182.607 179.988  1.00  0.00     0.053 C 
BRANCH   4   5
ATOM      5  C   UNL     1     182.150 182.148 178.804  1.00  0.00     0.041 C 
ATOM      6  O   UNL     1     181.613 181.426 177.923  1.00  0.00    -0.550 OA
ATOM      7  O   UNL     1     183.468 182.558 178.649  1.00  0.00    -0.550 OA
ENDBRANCH   4   5
ENDBRANCH   3   4
ENDBRANCH   2   3
ENDBRANCH   1   2
BRANCH   1   8
ATOM      8  C   UNL     1     182.331 179.242 181.408  1.00  0.00     0.000 C 
BRANCH   8   9
ATOM      9  C   UNL     1     182.689 180.255 182.506  1.00  0.00     0.006 C 
BRANCH   9  10
ATOM     10  C   UNL     1     184.204 180.396 182.694  1.00  0.00     0.053 C 
BRANCH  10  11
ATOM     11  C   UNL     1     184.782 181.438 181.787  1.00  0.00     0.041 C 
ATOM     12  O   UNL     1     184.400 182.635 181.871  1.00  0.00    -0.550 OA
ATOM     13  O   UNL     1     185.719 181.081 180.825  1.00  0.00    -0.550 OA
ENDBRANCH  10  11
ENDBRANCH   9  10
ENDBRANCH   8   9
ENDBRANCH   1   8
TORSDOF 8
ENDMDL
MODEL 2
REMARK VINA RESULT:    -4.260      2.378      4.963
REMARK INTER + INTRA:          -7.070
REMARK INTER:                  -6.297
REMARK INTRA:                  -0.774
REMARK UNBOUND:                -0.818
REMARK SMILES O=C([O-])CCCCCCCC(=O)[O-]
REMARK SMILES IDX 7 1 6 2 5 3 4 4 2 5 1 6 3 7 8 8 9 9 10 10 11 11 12 12 13 13
REMARK H PARENT
REMARK Flexibility Score: inf
ROOT
ATOM      1  C   UNL     1     183.066 183.835 181.125  1.00  0.00     0.000 C 
ENDROOT
BRANCH   1   2
ATOM      2  C   UNL     1     183.296 182.730 180.084  1.00  0.00     0.000 C 
BRANCH   2   3
ATOM      3  C   UNL     1     184.173 181.587 180.618  1.00  0.00     0.006 C 
BRANCH   3   4
ATOM      4  C   UNL     1     183.371 180.549 181.413  1.00  0.00     0.053 C 
BRANCH   4   5
ATOM      5  C   UNL     1     183.789 180.555 182.850  1.00  0.00     0.041 C 
ATOM      6  O   UNL     1     182.963 180.861 183.750  1.00  0.00    -0.550 OA
ATOM      7  O   UNL     1     185.078 180.173 183.201  1.00  0.00    -0.550 OA
ENDBRANCH   4   5
ENDBRANCH   3   4
ENDBRANCH   2   3
ENDBRANCH   1   2
BRANCH   1   8
ATOM      8  C   UNL     1     181.605 184.303 181.115  1.00  0.00     0.000 C 
BRANCH   8   9
ATOM      9  C   UNL     1     180.860 183.808 182.364  1.00  0.00     0.006 C 
BRANCH   9  10
ATOM     10  C   UNL     1     180.222 182.430 182.151  1.00  0.00     0.053 C 
BRANCH  10  11
ATOM     11  C   UNL     1     179.401 182.385 180.900  1.00  0.00     0.041 C 
ATOM     12  O   UNL     1     178.315 183.017 180.830  1.00  0.00    -0.550 OA
ATOM     13  O   UNL     1     179.821 181.616 179.821  1.00  0.00    -0.550 OA
ENDBRANCH  10  11
ENDBRANCH   9  10
ENDBRANCH   8   9
ENDBRANCH   1   8
TORSDOF 8
ENDMDL
MODEL 3
REMARK VINA RESULT:    -4.259      2.539      3.569
REMARK INTER + INTRA:          -7.069
REMARK INTER:                  -6.157
REMARK INTRA:                  -0.913
REMARK UNBOUND:                -0.818
REMARK SMILES O=C([O-])CCCCCCCC(=O)[O-]
REMARK SMILES IDX 7 1 6 2 5 3 4 4 2 5 1 6 3 7 8 8 9 9 10 10 11 11 12 12 13 13
REMARK H PARENT
REMARK Flexibility Score: inf
ROOT
ATOM      1  C   UNL     1     181.639 184.482 181.247  1.00  0.00     0.000 C 
ENDROOT
BRANCH   1   2
ATOM      2  C   UNL     1     181.135 183.770 182.511  1.00  0.00     0.000 C 
BRANCH   2   3
ATOM      3  C   UNL     1     179.630 183.464 182.458  1.00  0.00     0.006 C 
BRANCH   3   4
ATOM      4  C   UNL     1     179.195 182.868 181.113  1.00  0.00     0.053 C 
BRANCH   4   5
ATOM      5  C   UNL     1     179.705 181.468 180.972  1.00  0.00     0.041 C 
ATOM      6  O   UNL     1     180.428 181.152 179.990  1.00  0.00    -0.550 OA
ATOM      7  O   UNL     1     179.425 180.524 181.952  1.00  0.00    -0.550 OA
ENDBRANCH   4   5
ENDBRANCH   3   4
ENDBRANCH   2   3
ENDBRANCH   1   2
BRANCH   1   8
ATOM      8  C   UNL     1     182.857 183.759 180.659  1.00  0.00     0.000 C 
BRANCH   8   9
ATOM      9  C   UNL     1     183.561 182.908 181.727  1.00  0.00     0.006 C 
BRANCH   9  10
ATOM     10  C   UNL     1     183.732 181.449 181.285  1.00  0.00     0.053 C 
BRANCH  10  11
ATOM     11  C   UNL     1     183.130 180.496 182.271  1.00  0.00     0.041 C 
ATOM     12  O   UNL     1     182.627 179.411 181.880  1.00  0.00    -0.550 OA
ATOM     13  O   UNL     1     183.095 180.823 183.621  1.00  0.00    -0.550 OA
ENDBRANCH  10  11
ENDBRANCH   9  10
ENDBRANCH   8   9
ENDBRANCH   1   8
TORSDOF 8
ENDMDL
MODEL 4
REMARK VINA RESULT:    -4.249      2.373      3.864
REMARK INTER + INTRA:          -7.055
REMARK INTER:                  -6.163
REMARK INTRA:                  -0.892
REMARK UNBOUND:                -0.818
REMARK SMILES O=C([O-])CCCCCCCC(=O)[O-]
REMARK SMILES IDX 7 1 6 2 5 3 4 4 2 5 1 6 3 7 8 8 9 9 10 10 11 11 12 12 13 13
REMARK H PARENT
REMARK Flexibility Score: inf
ROOT
ATOM      1  C   UNL     1     182.017 179.331 181.260  1.00  0.00     0.000 C 
ENDROOT
BRANCH   1   2
ATOM      2  C   UNL     1     182.989 180.141 182.130  1.00  0.00     0.000 C 
BRANCH   2   3
ATOM      3  C   UNL     1     183.982 180.966 181.297  1.00  0.00     0.006 C 
BRANCH   3   4
ATOM      4  C   UNL     1     184.039 182.437 181.729  1.00  0.00     0.053 C 
BRANCH   4   5
ATOM      5  C   UNL     1     183.364 183.306 180.715  1.00  0.00     0.041 C 
ATOM      6  O   UNL     1     183.057 184.493 181.002  1.00  0.00    -0.550 OA
ATOM      7  O   UNL     1     183.117 182.821 179.437  1.00  0.00    -0.550 OA
ENDBRANCH   4   5
ENDBRANCH   3   4
ENDBRANCH   2   3
ENDBRANCH   1   2
BRANCH   1   8
ATOM      8  C   UNL     1     180.942 180.238 180.648  1.00  0.00     0.000 C 
BRANCH   8   9
ATOM      9  C   UNL     1     180.103 180.914 181.743  1.00  0.00     0.006 C 
BRANCH   9  10
ATOM     10  C   UNL     1     179.884 182.407 181.468  1.00  0.00     0.053 C 
BRANCH  10  11
ATOM     11  C   UNL     1     179.922 183.216 182.727  1.00  0.00     0.041 C 
ATOM     12  O   UNL     1     178.905 183.856 183.101  1.00  0.00    -0.550 OA
ATOM     13  O   UNL     1     181.093 183.290 183.471  1.00  0.00    -0.550 OA
ENDBRANCH  10  11
ENDBRANCH   9  10
ENDBRANCH   8   9
ENDBRANCH   1   8
TORSDOF 8
ENDMDL
MODEL 5
REMARK VINA RESULT:    -4.249      1.985      2.777
REMARK INTER + INTRA:          -7.055
REMARK INTER:                  -6.296
REMARK INTRA:                  -0.759
REMARK UNBOUND:                -0.818
REMARK SMILES O=C([O-])CCCCCCCC(=O)[O-]
REMARK SMILES IDX 7 1 6 2 5 3 4 4 2 5 1 6 3 7 8 8 9 9 10 10 11 11 12 12 13 13
REMARK H PARENT
REMARK Flexibility Score: inf
ROOT
ATOM      1  C   UNL     1     181.622 180.297 180.692  1.00  0.00     0.000 C 
ENDROOT
BRANCH   1   2
ATOM      2  C   UNL     1     180.243 180.665 181.258  1.00  0.00     0.000 C 
BRANCH   2   3
ATOM      3  C   UNL     1     179.778 182.063 180.821  1.00  0.00     0.006 C 
BRANCH   3   4
ATOM      4  C   UNL     1     179.380 182.951 182.007  1.00  0.00     0.053 C 
BRANCH   4   5
ATOM      5  C   UNL     1     180.589 183.608 182.597  1.00  0.00     0.041 C 
ATOM      6  O   UNL     1     181.316 184.351 181.886  1.00  0.00    -0.550 OA
ATOM      7  O   UNL     1     180.885 183.440 183.943  1.00  0.00    -0.550 OA
ENDBRANCH   4   5
ENDBRANCH   3   4
ENDBRANCH   2   3
ENDBRANCH   1   2
BRANCH   1   8
ATOM      8  C   UNL     1     182.467 179.563 181.741  1.00  0.00     0.000 C 
BRANCH   8   9
ATOM      9  C   UNL     1     183.004 180.541 182.798  1.00  0.00     0.006 C 
BRANCH   9  10
ATOM     10  C   UNL     1     183.799 181.693 182.171  1.00  0.00     0.053 C 
BRANCH  10  11
ATOM     11  C   UNL     1     185.147 181.245 181.696  1.00  0.00     0.041 C 
ATOM     12  O   UNL     1     185.408 181.216 180.465  1.00  0.00    -0.550 OA
ATOM     13  O   UNL     1     186.103 180.827 182.613  1.00  0.00    -0.550 OA
ENDBRANCH  10  11
ENDBRANCH   9  10
ENDBRANCH   8   9
ENDBRANCH   1   8
TORSDOF 8
ENDMDL
MODEL 6
REMARK VINA RESULT:    -4.244      2.353      3.317
REMARK INTER + INTRA:          -7.047
REMARK INTER:                  -6.111
REMARK INTRA:                  -0.936
REMARK UNBOUND:                -0.818
REMARK SMILES O=C([O-])CCCCCCCC(=O)[O-]
REMARK SMILES IDX 7 1 6 2 5 3 4 4 2 5 1 6 3 7 8 8 9 9 10 10 11 11 12 12 13 13
REMARK H PARENT
REMARK Flexibility Score: inf
ROOT
ATOM      1  C   UNL     1     182.089 179.395 181.015  1.00  0.00     0.000 C 
ENDROOT
BRANCH   1   2
ATOM      2  C   UNL     1     180.877 180.234 180.583  1.00  0.00     0.000 C 
BRANCH   2   3
ATOM      3  C   UNL     1     180.196 180.943 181.765  1.00  0.00     0.006 C 
BRANCH   3   4
ATOM      4  C   UNL     1     179.955 182.434 181.499  1.00  0.00     0.053 C 
BRANCH   4   5
ATOM      5  C   UNL     1     180.023 183.210 182.778  1.00  0.00     0.041 C 
ATOM      6  O   UNL     1     179.025 183.869 183.174  1.00  0.00    -0.550 OA
ATOM      7  O   UNL     1     181.172 183.166 183.557  1.00  0.00    -0.550 OA
ENDBRANCH   4   5
ENDBRANCH   3   4
ENDBRANCH   2   3
ENDBRANCH   1   2
BRANCH   1   8
ATOM      8  C   UNL     1     182.920 180.134 182.071  1.00  0.00     0.000 C 
BRANCH   8   9
ATOM      9  C   UNL     1     184.095 180.882 181.421  1.00  0.00     0.006 C 
BRANCH   9  10
ATOM     10  C   UNL     1     184.108 182.371 181.789  1.00  0.00     0.053 C 
BRANCH  10  11
ATOM     11  C   UNL     1     183.413 183.205 180.758  1.00  0.00     0.041 C 
ATOM     12  O   UNL     1     183.202 182.744 179.606  1.00  0.00    -0.550 OA
ATOM     13  O   UNL     1     183.027 184.505 181.060  1.00  0.00    -0.550 OA
ENDBRANCH  10  11
ENDBRANCH   9  10
ENDBRANCH   8   9
ENDBRANCH   1   8
TORSDOF 8
ENDMDL
MODEL 7
REMARK VINA RESULT:    -4.235      1.948      3.983
REMARK INTER + INTRA:          -7.033
REMARK INTER:                  -6.223
REMARK INTRA:                  -0.810
REMARK UNBOUND:                -0.818
REMARK SMILES O=C([O-])CCCCCCCC(=O)[O-]
REMARK SMILES IDX 7 1 6 2 5 3 4 4 2 5 1 6 3 7 8 8 9 9 10 10 11 11 12 12 13 13
REMARK H PARENT
REMARK Flexibility Score: inf
ROOT
ATOM      1  C   UNL     1     180.488 180.780 180.611  1.00  0.00     0.000 C 
ENDROOT
BRANCH   1   2
ATOM      2  C   UNL     1     180.648 179.304 181.004  1.00  0.00     0.000 C 
BRANCH   2   3
ATOM      3  C   UNL     1     182.093 178.946 181.384  1.00  0.00     0.006 C 
BRANCH   3   4
ATOM      4  C   UNL     1     183.062 180.121 181.199  1.00  0.00     0.053 C 
BRANCH   4   5
ATOM      5  C   UNL     1     183.643 180.532 182.516  1.00  0.00     0.041 C 
ATOM      6  O   UNL     1     184.887 180.478 182.704  1.00  0.00    -0.550 OA
ATOM      7  O   UNL     1     182.815 181.022 183.518  1.00  0.00    -0.550 OA
ENDBRANCH   4   5
ENDBRANCH   3   4
ENDBRANCH   2   3
ENDBRANCH   1   2
BRANCH   1   8
ATOM      8  C   UNL     1     179.782 181.570 181.720  1.00  0.00     0.000 C 
BRANCH   8   9
ATOM      9  C   UNL     1     180.255 183.032 181.740  1.00  0.00     0.006 C 
BRANCH   9  10
ATOM     10  C   UNL     1     181.287 183.323 180.644  1.00  0.00     0.053 C 
BRANCH  10  11
ATOM     11  C   UNL     1     182.352 184.264 181.119  1.00  0.00     0.041 C 
ATOM     12  O   UNL     1     183.526 183.851 181.306  1.00  0.00    -0.550 OA
ATOM     13  O   UNL     1     182.037 185.590 181.388  1.00  0.00    -0.550 OA
ENDBRANCH  10  11
ENDBRANCH   9  10
ENDBRANCH   8   9
ENDBRANCH   1   8
TORSDOF 8
ENDMDL
MODEL 8
REMARK VINA RESULT:    -4.219      2.860      4.052
REMARK INTER + INTRA:          -7.011
REMARK INTER:                  -6.291
REMARK INTRA:                  -0.720
REMARK UNBOUND:                -0.818
REMARK SMILES O=C([O-])CCCCCCCC(=O)[O-]
REMARK SMILES IDX 7 1 6 2 5 3 4 4 2 5 1 6 3 7 8 8 9 9 10 10 11 11 12 12 13 13
REMARK H PARENT
REMARK Flexibility Score: inf
ROOT
ATOM      1  C   UNL     1     183.968 183.074 181.750  1.00  0.00     0.000 C 
ENDROOT
BRANCH   1   2
ATOM      2  C   UNL     1     183.112 183.753 180.671  1.00  0.00     0.000 C 
BRANCH   2   3
ATOM      3  C   UNL     1     181.857 184.426 181.247  1.00  0.00     0.006 C 
BRANCH   3   4
ATOM      4  C   UNL     1     180.655 183.476 181.315  1.00  0.00     0.053 C 
BRANCH   4   5
ATOM      5  C   UNL     1     180.042 183.506 182.680  1.00  0.00     0.041 C 
ATOM      6  O   UNL     1     178.789 183.501 182.813  1.00  0.00    -0.550 OA
ATOM      7  O   UNL     1     180.853 183.489 183.807  1.00  0.00    -0.550 OA
ENDBRANCH   4   5
ENDBRANCH   3   4
ENDBRANCH   2   3
ENDBRANCH   1   2
BRANCH   1   8
ATOM      8  C   UNL     1     184.505 181.726 181.256  1.00  0.00     0.000 C 
BRANCH   8   9
ATOM      9  C   UNL     1     184.146 180.598 182.237  1.00  0.00     0.006 C 
BRANCH   9  10
ATOM     10  C   UNL     1     182.631 180.449 182.420  1.00  0.00     0.053 C 
BRANCH  10  11
ATOM     11  C   UNL     1     182.015 179.645 181.317  1.00  0.00     0.041 C 
ATOM     12  O   UNL     1     181.510 180.220 180.318  1.00  0.00    -0.550 OA
ATOM     13  O   UNL     1     181.968 178.259 181.411  1.00  0.00    -0.550 OA
ENDBRANCH  10  11
ENDBRANCH   9  10
ENDBRANCH   8   9
ENDBRANCH   1   8
TORSDOF 8
ENDMDL
MODEL 9
REMARK VINA RESULT:    -4.216      1.971      4.484
REMARK INTER + INTRA:          -7.007
REMARK INTER:                  -6.207
REMARK INTRA:                  -0.799
REMARK UNBOUND:                -0.818
REMARK SMILES O=C([O-])CCCCCCCC(=O)[O-]
REMARK SMILES IDX 7 1 6 2 5 3 4 4 2 5 1 6 3 7 8 8 9 9 10 10 11 11 12 12 13 13
REMARK H PARENT
REMARK Flexibility Score: inf
ROOT
ATOM      1  C   UNL     1     181.638 184.653 181.143  1.00  0.00     0.000 C 
ENDROOT
BRANCH   1   2
ATOM      2  C   UNL     1     183.014 184.164 180.665  1.00  0.00     0.000 C 
BRANCH   2   3
ATOM      3  C   UNL     1     183.608 183.082 181.580  1.00  0.00     0.006 C 
BRANCH   3   4
ATOM      4  C   UNL     1     184.348 181.988 180.800  1.00  0.00     0.053 C 
BRANCH   4   5
ATOM      5  C   UNL     1     185.111 181.104 181.736  1.00  0.00     0.041 C 
ATOM      6  O   UNL     1     184.502 180.433 182.612  1.00  0.00    -0.550 OA
ATOM      7  O   UNL     1     186.488 180.981 181.610  1.00  0.00    -0.550 OA
ENDBRANCH   4   5
ENDBRANCH   3   4
ENDBRANCH   2   3
ENDBRANCH   1   2
BRANCH   1   8
ATOM      8  C   UNL     1     181.050 183.700 182.190  1.00  0.00     0.000 C 
BRANCH   8   9
ATOM      9  C   UNL     1     179.788 183.005 181.655  1.00  0.00     0.006 C 
BRANCH   9  10
ATOM     10  C   UNL     1     179.882 181.477 181.753  1.00  0.00     0.053 C 
BRANCH  10  11
ATOM     11  C   UNL     1     180.733 180.902 180.663  1.00  0.00     0.041 C 
ATOM     12  O   UNL     1     180.685 181.382 179.500  1.00  0.00    -0.550 OA
ATOM     13  O   UNL     1     181.555 179.812 180.924  1.00  0.00    -0.550 OA
ENDBRANCH  10  11
ENDBRANCH   9  10
ENDBRANCH   8   9
ENDBRANCH   1   8
TORSDOF 8
ENDMDL
