MODEL 1
REMARK VINA RESULT:     9.768      0.000      0.000
REMARK INTER + INTRA:          13.948
REMARK INTER:                  13.766
REMARK INTRA:                   0.182
REMARK UNBOUND:                 0.182
REMARK SMILES COc1ccc(-c2cc(=O)c3c(OC)c(OC)c(OC)c(OC)c3o2)cc1OC
REMARK SMILES IDX 7 1 8 2 9 3 10 4 11 5 24 6 25 7 21 8 18 9 15 10 12 11 6 12
REMARK SMILES IDX 3 13 27 14 4 15 26 16 5 17 2 18 1 19 28 20 29 21 22 22 23 23
REMARK SMILES IDX 13 24 14 25 19 26 20 27 16 28 17 29
REMARK H PARENT
REMARK Flexibility Score: inf
ROOT
ATOM      1  C   UNL     1     155.833 165.145 154.777  1.00  0.00     0.138 A 
ATOM      2  C   UNL     1     154.717 164.701 155.493  1.00  0.00     0.100 A 
ATOM      3  C   UNL     1     154.841 163.602 156.337  1.00  0.00     0.197 A 
ATOM      4  O   UNL     1     153.818 163.193 156.949  1.00  0.00    -0.289 OA
ATOM      5  C   UNL     1     156.093 162.960 156.472  1.00  0.00     0.115 A 
ATOM      6  C   UNL     1     157.173 163.452 155.703  1.00  0.00     0.188 A 
ATOM      7  O   UNL     1     156.991 164.501 154.903  1.00  0.00    -0.452 OA
ATOM      8  C   UNL     1     158.442 162.836 155.790  1.00  0.00     0.209 A 
ATOM      9  C   UNL     1     158.623 161.713 156.611  1.00  0.00     0.211 A 
ATOM     10  C   UNL     1     157.541 161.192 157.361  1.00  0.00     0.208 A 
ATOM     11  C   UNL     1     156.296 161.862 157.339  1.00  0.00     0.179 A 
ENDROOT
BRANCH   1  12
ATOM     12  C   UNL     1     155.753 166.314 153.868  1.00  0.00     0.021 A 
ATOM     13  C   UNL     1     155.640 168.518 152.107  1.00  0.00     0.160 A 
ATOM     14  C   UNL     1     155.508 168.720 153.489  1.00  0.00     0.161 A 
ATOM     15  C   UNL     1     155.835 167.216 151.612  1.00  0.00     0.051 A 
ATOM     16  C   UNL     1     155.567 167.617 154.364  1.00  0.00     0.062 A 
ATOM     17  C   UNL     1     155.895 166.129 152.485  1.00  0.00     0.016 A 
BRANCH  13  18
ATOM     18  O   UNL     1     155.575 169.636 151.260  1.00  0.00    -0.493 OA
ATOM     19  C   UNL     1     156.580 169.992 150.315  1.00  0.00     0.278 C 
ENDBRANCH  13  18
BRANCH  14  20
ATOM     20  O   UNL     1     155.319 170.032 153.954  1.00  0.00    -0.493 OA
ATOM     21  C   UNL     1     156.232 170.732 154.793  1.00  0.00     0.278 C 
ENDBRANCH  14  20
ENDBRANCH   1  12
BRANCH   8  22
ATOM     22  O   UNL     1     159.578 163.287 155.087  1.00  0.00    -0.490 OA
ATOM     23  C   UNL     1     159.793 163.218 153.681  1.00  0.00     0.278 C 
ENDBRANCH   8  22
BRANCH  11  24
ATOM     24  O   UNL     1     155.278 161.462 158.207  1.00  0.00    -0.492 OA
ATOM     25  C   UNL     1     154.389 160.406 157.859  1.00  0.00     0.278 C 
ENDBRANCH  11  24
BRANCH   9  26
ATOM     26  O   UNL     1     159.918 161.153 156.622  1.00  0.00    -0.490 OA
ATOM     27  C   UNL     1     160.979 161.463 157.520  1.00  0.00     0.279 C 
ENDBRANCH   9  26
BRANCH  10  28
ATOM     28  O   UNL     1     157.736 160.021 158.113  1.00  0.00    -0.490 OA
ATOM     29  C   UNL     1     158.721 159.832 159.125  1.00  0.00     0.278 C 
ENDBRANCH  10  28
TORSDOF 7
ENDMDL
MODEL 2
REMARK VINA RESULT:    10.345      9.408     13.284
REMARK INTER + INTRA:          14.761
REMARK INTER:                  14.792
REMARK INTRA:                  -0.031
REMARK UNBOUND:                 0.182
REMARK SMILES COc1ccc(-c2cc(=O)c3c(OC)c(OC)c(OC)c(OC)c3o2)cc1OC
REMARK SMILES IDX 7 1 8 2 9 3 10 4 11 5 24 6 25 7 21 8 18 9 15 10 12 11 6 12
REMARK SMILES IDX 3 13 27 14 4 15 26 16 5 17 2 18 1 19 28 20 29 21 22 22 23 23
REMARK SMILES IDX 13 24 14 25 19 26 20 27 16 28 17 29
REMARK H PARENT
REMARK Flexibility Score: inf
ROOT
ATOM      1  C   UNL     1     167.449 163.772 152.245  1.00  0.00     0.138 A 
ATOM      2  C   UNL     1     168.405 162.979 151.603  1.00  0.00     0.100 A 
ATOM      3  C   UNL     1     168.447 162.954 150.212  1.00  0.00     0.197 A 
ATOM      4  O   UNL     1     169.292 162.208 149.647  1.00  0.00    -0.289 OA
ATOM      5  C   UNL     1     167.536 163.739 149.469  1.00  0.00     0.115 A 
ATOM      6  C   UNL     1     166.585 164.501 150.186  1.00  0.00     0.188 A 
ATOM      7  O   UNL     1     166.586 164.477 151.518  1.00  0.00    -0.452 OA
ATOM      8  C   UNL     1     165.642 165.292 149.491  1.00  0.00     0.209 A 
ATOM      9  C   UNL     1     165.624 165.292 148.088  1.00  0.00     0.211 A 
ATOM     10  C   UNL     1     166.552 164.508 147.360  1.00  0.00     0.208 A 
ATOM     11  C   UNL     1     167.548 163.787 148.056  1.00  0.00     0.179 A 
ENDROOT
BRANCH   1  12
ATOM     12  C   UNL     1     167.366 163.835 153.725  1.00  0.00     0.021 A 
ATOM     13  C   UNL     1     167.173 163.917 156.541  1.00  0.00     0.160 A 
ATOM     14  C   UNL     1     167.293 165.111 155.813  1.00  0.00     0.161 A 
ATOM     15  C   UNL     1     167.143 162.689 155.856  1.00  0.00     0.051 A 
ATOM     16  C   UNL     1     167.387 165.065 154.408  1.00  0.00     0.062 A 
ATOM     17  C   UNL     1     167.235 162.651 154.464  1.00  0.00     0.016 A 
BRANCH  13  18
ATOM     18  O   UNL     1     167.082 163.995 157.939  1.00  0.00    -0.493 OA
ATOM     19  C   UNL     1     167.197 162.880 158.818  1.00  0.00     0.278 C 
ENDBRANCH  13  18
BRANCH  14  20
ATOM     20  O   UNL     1     167.315 166.322 156.523  1.00  0.00    -0.493 OA
ATOM     21  C   UNL     1     166.877 167.574 156.002  1.00  0.00     0.278 C 
ENDBRANCH  14  20
ENDBRANCH   1  12
BRANCH   8  22
ATOM     22  O   UNL     1     164.686 166.108 150.129  1.00  0.00    -0.490 OA
ATOM     23  C   UNL     1     163.272 165.941 150.109  1.00  0.00     0.278 C 
ENDBRANCH   8  22
BRANCH  11  24
ATOM     24  O   UNL     1     168.571 163.155 147.346  1.00  0.00    -0.492 OA
ATOM     25  C   UNL     1     169.331 163.859 146.370  1.00  0.00     0.278 C 
ENDBRANCH  11  24
BRANCH   9  26
ATOM     26  O   UNL     1     164.638 166.097 147.480  1.00  0.00    -0.490 OA
ATOM     27  C   UNL     1     164.699 167.500 147.245  1.00  0.00     0.279 C 
ENDBRANCH   9  26
BRANCH  10  28
ATOM     28  O   UNL     1     166.458 164.471 145.958  1.00  0.00    -0.490 OA
ATOM     29  C   UNL     1     165.892 163.415 145.187  1.00  0.00     0.278 C 
ENDBRANCH  10  28
TORSDOF 7
ENDMDL
MODEL 3
REMARK VINA RESULT:    10.993      9.151     13.496
REMARK INTER + INTRA:          15.674
REMARK INTER:                  14.991
REMARK INTRA:                   0.683
REMARK UNBOUND:                 0.182
REMARK SMILES COc1ccc(-c2cc(=O)c3c(OC)c(OC)c(OC)c(OC)c3o2)cc1OC
REMARK SMILES IDX 7 1 8 2 9 3 10 4 11 5 24 6 25 7 21 8 18 9 15 10 12 11 6 12
REMARK SMILES IDX 3 13 27 14 4 15 26 16 5 17 2 18 1 19 28 20 29 21 22 22 23 23
REMARK SMILES IDX 13 24 14 25 19 26 20 27 16 28 17 29
REMARK H PARENT
REMARK Flexibility Score: inf
ROOT
ATOM      1  C   UNL     1     167.461 163.593 152.543  1.00  0.00     0.138 A 
ATOM      2  C   UNL     1     168.503 162.908 151.909  1.00  0.00     0.100 A 
ATOM      3  C   UNL     1     168.600 162.949 150.521  1.00  0.00     0.197 A 
ATOM      4  O   UNL     1     169.524 162.298 149.962  1.00  0.00    -0.289 OA
ATOM      5  C   UNL     1     167.658 163.692 149.774  1.00  0.00     0.115 A 
ATOM      6  C   UNL     1     166.621 164.344 150.482  1.00  0.00     0.188 A 
ATOM      7  O   UNL     1     166.573 164.260 151.810  1.00  0.00    -0.452 OA
ATOM      8  C   UNL     1     165.645 165.088 149.781  1.00  0.00     0.209 A 
ATOM      9  C   UNL     1     165.681 165.150 148.380  1.00  0.00     0.211 A 
ATOM     10  C   UNL     1     166.697 164.475 147.659  1.00  0.00     0.208 A 
ATOM     11  C   UNL     1     167.721 163.805 148.366  1.00  0.00     0.179 A 
ENDROOT
BRANCH   1  12
ATOM     12  C   UNL     1     167.316 163.583 154.019  1.00  0.00     0.021 A 
ATOM     13  C   UNL     1     167.080 163.600 156.833  1.00  0.00     0.160 A 
ATOM     14  C   UNL     1     166.940 162.396 156.127  1.00  0.00     0.161 A 
ATOM     15  C   UNL     1     167.344 164.789 156.129  1.00  0.00     0.051 A 
ATOM     16  C   UNL     1     167.061 162.392 154.723  1.00  0.00     0.062 A 
ATOM     17  C   UNL     1     167.465 164.778 154.739  1.00  0.00     0.016 A 
BRANCH  13  18
ATOM     18  O   UNL     1     166.953 163.573 158.231  1.00  0.00    -0.493 OA
ATOM     19  C   UNL     1     167.978 163.149 159.125  1.00  0.00     0.278 C 
ENDBRANCH  13  18
BRANCH  14  20
ATOM     20  O   UNL     1     166.682 161.224 156.856  1.00  0.00    -0.493 OA
ATOM     21  C   UNL     1     167.666 160.257 157.209  1.00  0.00     0.278 C 
ENDBRANCH  14  20
ENDBRANCH   1  12
BRANCH   8  22
ATOM     22  O   UNL     1     164.603 165.796 150.411  1.00  0.00    -0.490 OA
ATOM     23  C   UNL     1     163.219 165.461 150.406  1.00  0.00     0.278 C 
ENDBRANCH   8  22
BRANCH  11  24
ATOM     24  O   UNL     1     168.818 163.288 147.674  1.00  0.00    -0.492 OA
ATOM     25  C   UNL     1     169.157 163.762 146.376  1.00  0.00     0.278 C 
ENDBRANCH  11  24
BRANCH   9  26
ATOM     26  O   UNL     1     164.658 165.900 147.764  1.00  0.00    -0.490 OA
ATOM     27  C   UNL     1     164.623 167.312 147.575  1.00  0.00     0.279 C 
ENDBRANCH   9  26
BRANCH  10  28
ATOM     28  O   UNL     1     166.661 164.494 146.254  1.00  0.00    -0.490 OA
ATOM     29  C   UNL     1     165.922 163.600 145.426  1.00  0.00     0.278 C 
ENDBRANCH  10  28
TORSDOF 7
ENDMDL
MODEL 4
REMARK VINA RESULT:    11.182      1.008      3.475
REMARK INTER + INTRA:          15.940
REMARK INTER:                  14.115
REMARK INTRA:                   1.825
REMARK UNBOUND:                 0.182
REMARK SMILES COc1ccc(-c2cc(=O)c3c(OC)c(OC)c(OC)c(OC)c3o2)cc1OC
REMARK SMILES IDX 7 1 8 2 9 3 10 4 11 5 24 6 25 7 21 8 18 9 15 10 12 11 6 12
REMARK SMILES IDX 3 13 27 14 4 15 26 16 5 17 2 18 1 19 28 20 29 21 22 22 23 23
REMARK SMILES IDX 13 24 14 25 19 26 20 27 16 28 17 29
REMARK H PARENT
REMARK Flexibility Score: inf
ROOT
ATOM      1  C   UNL     1     156.550 164.836 154.535  1.00  0.00     0.138 A 
ATOM      2  C   UNL     1     157.826 164.275 154.425  1.00  0.00     0.100 A 
ATOM      3  C   UNL     1     158.167 163.191 155.229  1.00  0.00     0.197 A 
ATOM      4  O   UNL     1     159.332 162.718 155.142  1.00  0.00    -0.289 OA
ATOM      5  C   UNL     1     157.217 162.663 156.132  1.00  0.00     0.115 A 
ATOM      6  C   UNL     1     155.952 163.293 156.203  1.00  0.00     0.188 A 
ATOM      7  O   UNL     1     155.688 164.334 155.416  1.00  0.00    -0.452 OA
ATOM      8  C   UNL     1     154.971 162.813 157.100  1.00  0.00     0.209 A 
ATOM      9  C   UNL     1     155.263 161.735 157.949  1.00  0.00     0.211 A 
ATOM     10  C   UNL     1     156.537 161.116 157.908  1.00  0.00     0.208 A 
ATOM     11  C   UNL     1     157.485 161.541 156.950  1.00  0.00     0.179 A 
ENDROOT
BRANCH   1  12
ATOM     12  C   UNL     1     156.138 165.990 153.699  1.00  0.00     0.021 A 
ATOM     13  C   UNL     1     155.391 168.172 152.070  1.00  0.00     0.160 A 
ATOM     14  C   UNL     1     155.424 168.319 153.465  1.00  0.00     0.161 A 
ATOM     15  C   UNL     1     155.738 166.936 151.496  1.00  0.00     0.051 A 
ATOM     16  C   UNL     1     155.800 167.228 154.273  1.00  0.00     0.062 A 
ATOM     17  C   UNL     1     156.111 165.860 152.303  1.00  0.00     0.016 A 
BRANCH  13  18
ATOM     18  O   UNL     1     155.012 169.276 151.291  1.00  0.00    -0.493 OA
ATOM     19  C   UNL     1     155.857 169.924 150.345  1.00  0.00     0.278 C 
ENDBRANCH  13  18
BRANCH  14  20
ATOM     20  O   UNL     1     155.077 169.566 154.010  1.00  0.00    -0.493 OA
ATOM     21  C   UNL     1     156.010 170.584 154.360  1.00  0.00     0.278 C 
ENDBRANCH  14  20
ENDBRANCH   1  12
BRANCH   8  22
ATOM     22  O   UNL     1     153.677 163.360 157.206  1.00  0.00    -0.490 OA
ATOM     23  C   UNL     1     153.132 164.049 158.326  1.00  0.00     0.278 C 
ENDBRANCH   8  22
BRANCH  11  24
ATOM     24  O   UNL     1     158.673 160.827 156.784  1.00  0.00    -0.492 OA
ATOM     25  C   UNL     1     159.885 161.268 157.384  1.00  0.00     0.278 C 
ENDBRANCH  11  24
BRANCH   9  26
ATOM     26  O   UNL     1     154.231 161.335 158.823  1.00  0.00    -0.490 OA
ATOM     27  C   UNL     1     153.055 160.607 158.486  1.00  0.00     0.279 C 
ENDBRANCH   9  26
BRANCH  10  28
ATOM     28  O   UNL     1     156.823 160.089 158.824  1.00  0.00    -0.490 OA
ATOM     29  C   UNL     1     158.117 159.573 159.123  1.00  0.00     0.278 C 
ENDBRANCH  10  28
TORSDOF 7
ENDMDL
MODEL 5
REMARK VINA RESULT:    12.586     10.349     11.411
REMARK INTER + INTRA:          17.918
REMARK INTER:                  15.764
REMARK INTRA:                   2.154
REMARK UNBOUND:                 0.182
REMARK SMILES COc1ccc(-c2cc(=O)c3c(OC)c(OC)c(OC)c(OC)c3o2)cc1OC
REMARK SMILES IDX 7 1 8 2 9 3 10 4 11 5 24 6 25 7 21 8 18 9 15 10 12 11 6 12
REMARK SMILES IDX 3 13 27 14 4 15 26 16 5 17 2 18 1 19 28 20 29 21 22 22 23 23
REMARK SMILES IDX 13 24 14 25 19 26 20 27 16 28 17 29
REMARK H PARENT
REMARK Flexibility Score: inf
ROOT
ATOM      1  C   UNL     1     166.919 163.925 152.065  1.00  0.00     0.138 A 
ATOM      2  C   UNL     1     166.716 162.685 152.678  1.00  0.00     0.100 A 
ATOM      3  C   UNL     1     166.762 162.594 154.066  1.00  0.00     0.197 A 
ATOM      4  O   UNL     1     166.611 161.463 154.603  1.00  0.00    -0.289 OA
ATOM      5  C   UNL     1     166.996 163.755 154.837  1.00  0.00     0.115 A 
ATOM      6  C   UNL     1     167.212 164.972 154.147  1.00  0.00     0.188 A 
ATOM      7  O   UNL     1     167.167 164.994 152.817  1.00  0.00    -0.452 OA
ATOM      8  C   UNL     1     167.465 166.160 154.870  1.00  0.00     0.209 A 
ATOM      9  C   UNL     1     167.541 166.127 156.271  1.00  0.00     0.211 A 
ATOM     10  C   UNL     1     167.359 164.908 156.970  1.00  0.00     0.208 A 
ATOM     11  C   UNL     1     167.020 163.740 156.250  1.00  0.00     0.179 A 
ENDROOT
BRANCH   1  12
ATOM     12  C   UNL     1     166.876 164.074 150.590  1.00  0.00     0.021 A 
ATOM     13  C   UNL     1     166.847 164.350 147.780  1.00  0.00     0.160 A 
ATOM     14  C   UNL     1     166.031 165.172 148.572  1.00  0.00     0.161 A 
ATOM     15  C   UNL     1     167.678 163.398 148.397  1.00  0.00     0.051 A 
ATOM     16  C   UNL     1     166.050 165.032 149.974  1.00  0.00     0.062 A 
ATOM     17  C   UNL     1     167.694 163.266 149.787  1.00  0.00     0.016 A 
BRANCH  13  18
ATOM     18  O   UNL     1     166.805 164.512 146.386  1.00  0.00    -0.493 OA
ATOM     19  C   UNL     1     166.157 163.614 145.490  1.00  0.00     0.278 C 
ENDBRANCH  13  18
BRANCH  14  20
ATOM     20  O   UNL     1     165.215 166.116 147.928  1.00  0.00    -0.493 OA
ATOM     21  C   UNL     1     165.210 167.511 148.214  1.00  0.00     0.278 C 
ENDBRANCH  14  20
ENDBRANCH   1  12
BRANCH   8  22
ATOM     22  O   UNL     1     167.653 167.417 154.263  1.00  0.00    -0.490 OA
ATOM     23  C   UNL     1     167.018 168.641 154.622  1.00  0.00     0.278 C 
ENDBRANCH   8  22
BRANCH  11  24
ATOM     24  O   UNL     1     166.666 162.578 156.940  1.00  0.00    -0.492 OA
ATOM     25  C   UNL     1     167.646 161.609 157.295  1.00  0.00     0.278 C 
ENDBRANCH  11  24
BRANCH   9  26
ATOM     26  O   UNL     1     167.816 167.355 156.907  1.00  0.00    -0.490 OA
ATOM     27  C   UNL     1     166.881 168.377 157.242  1.00  0.00     0.279 C 
ENDBRANCH   9  26
BRANCH  10  28
ATOM     28  O   UNL     1     167.518 164.895 158.366  1.00  0.00    -0.490 OA
ATOM     29  C   UNL     1     168.386 164.036 159.100  1.00  0.00     0.278 C 
ENDBRANCH  10  28
TORSDOF 7
ENDMDL
