MODEL 1
REMARK VINA RESULT:    -2.885      0.000      0.000
REMARK INTER + INTRA:          -4.662
REMARK INTER:                  -3.897
REMARK INTRA:                  -0.765
REMARK UNBOUND:                -0.765
REMARK SMILES O=C[C@H](O)[C@@H](O)[C@@H](O)CO
REMARK SMILES IDX 7 1 9 2 10 3 5 5 3 6 2 7 1 8 4 9 6 11 8 13
REMARK H PARENT 10 4 4 10 6 12 8 14
REMARK Flexibility Score: inf
ROOT
ATOM      1  C   UNL     1     -10.861  -3.159  -2.994  1.00  0.00     0.171 C 
ENDROOT
BRANCH   1   2
ATOM      2  C   UNL     1     -11.202  -4.295  -3.976  1.00  0.00     0.190 C 
BRANCH   2   3
ATOM      3  O   UNL     1     -12.588  -4.485  -4.052  1.00  0.00    -0.394 OA
ATOM      4  H   UNL     1     -12.893  -3.975  -4.847  1.00  0.00     0.210 HD
ENDBRANCH   2   3
ENDBRANCH   1   2
BRANCH   1   5
ATOM      5  C   UNL     1     -11.092  -3.571  -1.506  1.00  0.00     0.181 C 
BRANCH   5   6
ATOM      6  C   UNL     1     -11.831  -2.507  -0.644  1.00  0.00     0.209 C 
BRANCH   6   7
ATOM      7  C   UNL     1     -13.268  -2.277  -1.056  1.00  0.00     0.258 C 
ATOM      8  O   UNL     1     -13.925  -3.182  -1.547  1.00  0.00    -0.300 OA
ENDBRANCH   6   7
BRANCH   6   9
ATOM      9  O   UNL     1     -11.112  -1.298  -0.610  1.00  0.00    -0.383 OA
ATOM     10  H   UNL     1     -11.583  -0.634  -1.176  1.00  0.00     0.211 HD
ENDBRANCH   6   9
ENDBRANCH   5   6
BRANCH   5  11
ATOM     11  O   UNL     1     -11.765  -4.805  -1.424  1.00  0.00    -0.387 OA
ATOM     12  H   UNL     1     -11.273  -5.457  -1.988  1.00  0.00     0.211 HD
ENDBRANCH   5  11
ENDBRANCH   1   5
BRANCH   1  13
ATOM     13  O   UNL     1      -9.544  -2.720  -3.211  1.00  0.00    -0.388 OA
ATOM     14  H   UNL     1      -9.305  -2.931  -4.152  1.00  0.00     0.211 HD
ENDBRANCH   1  13
TORSDOF 8
ENDMDL
MODEL 2
REMARK VINA RESULT:    -2.883      1.920      3.562
REMARK INTER + INTRA:          -4.659
REMARK INTER:                  -3.833
REMARK INTRA:                  -0.826
REMARK UNBOUND:                -0.765
REMARK SMILES O=C[C@H](O)[C@@H](O)[C@@H](O)CO
REMARK SMILES IDX 7 1 9 2 10 3 5 5 3 6 2 7 1 8 4 9 6 11 8 13
REMARK H PARENT 10 4 4 10 6 12 8 14
REMARK Flexibility Score: inf
ROOT
ATOM      1  C   UNL     1     -10.858  -2.596  -1.090  1.00  0.00     0.171 C 
ENDROOT
BRANCH   1   2
ATOM      2  C   UNL     1     -12.200  -3.310  -1.332  1.00  0.00     0.190 C 
BRANCH   2   3
ATOM      3  O   UNL     1     -12.033  -4.702  -1.304  1.00  0.00    -0.394 OA
ATOM      4  H   UNL     1     -12.819  -5.064  -0.816  1.00  0.00     0.210 HD
ENDBRANCH   2   3
ENDBRANCH   1   2
BRANCH   1   5
ATOM      5  C   UNL     1      -9.930  -2.634  -2.344  1.00  0.00     0.181 C 
BRANCH   5   6
ATOM      6  C   UNL     1      -8.481  -3.129  -2.066  1.00  0.00     0.209 C 
BRANCH   6   7
ATOM      7  C   UNL     1      -8.297  -4.618  -2.252  1.00  0.00     0.258 C 
ATOM      8  O   UNL     1      -9.118  -5.405  -1.807  1.00  0.00    -0.300 OA
ENDBRANCH   6   7
BRANCH   6   9
ATOM      9  O   UNL     1      -8.043  -2.717  -0.794  1.00  0.00    -0.383 OA
ATOM     10  H   UNL     1      -8.012  -3.509  -0.199  1.00  0.00     0.211 HD
ENDBRANCH   6   9
ENDBRANCH   5   6
BRANCH   5  11
ATOM     11  O   UNL     1     -10.508  -3.400  -3.375  1.00  0.00    -0.387 OA
ATOM     12  H   UNL     1      -9.908  -4.171  -3.552  1.00  0.00     0.211 HD
ENDBRANCH   5  11
ENDBRANCH   1   5
BRANCH   1  13
ATOM     13  O   UNL     1     -11.090  -1.279  -0.657  1.00  0.00    -0.388 OA
ATOM     14  H   UNL     1     -12.072  -1.152  -0.589  1.00  0.00     0.211 HD
ENDBRANCH   1  13
TORSDOF 8
ENDMDL
MODEL 3
REMARK VINA RESULT:    -2.848      1.234      2.301
REMARK INTER + INTRA:          -4.612
REMARK INTER:                  -3.768
REMARK INTRA:                  -0.844
REMARK UNBOUND:                -0.765
REMARK SMILES O=C[C@H](O)[C@@H](O)[C@@H](O)CO
REMARK SMILES IDX 7 1 9 2 10 3 5 5 3 6 2 7 1 8 4 9 6 11 8 13
REMARK H PARENT 10 4 4 10 6 12 8 14
REMARK Flexibility Score: inf
ROOT
ATOM      1  C   UNL     1     -11.902  -4.056  -3.537  1.00  0.00     0.171 C 
ENDROOT
BRANCH   1   2
ATOM      2  C   UNL     1     -13.376  -4.380  -3.231  1.00  0.00     0.190 C 
BRANCH   2   3
ATOM      3  O   UNL     1     -13.921  -3.429  -2.358  1.00  0.00    -0.394 OA
ATOM      4  H   UNL     1     -13.174  -3.125  -1.779  1.00  0.00     0.210 HD
ENDBRANCH   2   3
ENDBRANCH   1   2
BRANCH   1   5
ATOM      5  C   UNL     1     -10.960  -4.389  -2.338  1.00  0.00     0.181 C 
BRANCH   5   6
ATOM      6  C   UNL     1     -10.094  -3.196  -1.840  1.00  0.00     0.209 C 
BRANCH   6   7
ATOM      7  C   UNL     1     -10.904  -2.016  -1.351  1.00  0.00     0.258 C 
ATOM      8  O   UNL     1     -11.794  -2.172  -0.529  1.00  0.00    -0.300 OA
ENDBRANCH   6   7
BRANCH   6   9
ATOM      9  O   UNL     1      -9.165  -2.804  -2.821  1.00  0.00    -0.383 OA
ATOM     10  H   UNL     1      -9.662  -2.490  -3.619  1.00  0.00     0.211 HD
ENDBRANCH   6   9
ENDBRANCH   5   6
BRANCH   5  11
ATOM     11  O   UNL     1     -11.687  -4.934  -1.263  1.00  0.00    -0.387 OA
ATOM     12  H   UNL     1     -12.114  -5.773  -1.579  1.00  0.00     0.211 HD
ENDBRANCH   5  11
ENDBRANCH   1   5
BRANCH   1  13
ATOM     13  O   UNL     1     -11.501  -4.718  -4.710  1.00  0.00    -0.388 OA
ATOM     14  H   UNL     1     -10.598  -5.098  -4.549  1.00  0.00     0.211 HD
ENDBRANCH   1  13
TORSDOF 8
ENDMDL
MODEL 4
REMARK VINA RESULT:    -2.846      1.368      2.507
REMARK INTER + INTRA:          -4.609
REMARK INTER:                  -3.728
REMARK INTRA:                  -0.881
REMARK UNBOUND:                -0.765
REMARK SMILES O=C[C@H](O)[C@@H](O)[C@@H](O)CO
REMARK SMILES IDX 7 1 9 2 10 3 5 5 3 6 2 7 1 8 4 9 6 11 8 13
REMARK H PARENT 10 4 4 10 6 12 8 14
REMARK Flexibility Score: inf
ROOT
ATOM      1  C   UNL     1     -11.416  -4.261  -3.590  1.00  0.00     0.171 C 
ENDROOT
BRANCH   1   2
ATOM      2  C   UNL     1     -10.810  -5.365  -2.702  1.00  0.00     0.190 C 
BRANCH   2   3
ATOM      3  O   UNL     1     -11.280  -5.256  -1.386  1.00  0.00    -0.394 OA
ATOM      4  H   UNL     1     -11.820  -6.072  -1.218  1.00  0.00     0.210 HD
ENDBRANCH   2   3
ENDBRANCH   1   2
BRANCH   1   5
ATOM      5  C   UNL     1     -10.743  -2.873  -3.353  1.00  0.00     0.181 C 
BRANCH   5   6
ATOM      6  C   UNL     1     -11.669  -1.803  -2.706  1.00  0.00     0.209 C 
BRANCH   6   7
ATOM      7  C   UNL     1     -11.457  -1.630  -1.219  1.00  0.00     0.258 C 
ATOM      8  O   UNL     1     -11.643  -2.563  -0.452  1.00  0.00    -0.300 OA
ENDBRANCH   6   7
BRANCH   6   9
ATOM      9  O   UNL     1     -13.021  -2.063  -3.000  1.00  0.00    -0.383 OA
ATOM     10  H   UNL     1     -13.499  -1.197  -3.076  1.00  0.00     0.211 HD
ENDBRANCH   6   9
ENDBRANCH   5   6
BRANCH   5  11
ATOM     11  O   UNL     1      -9.564  -3.008  -2.594  1.00  0.00    -0.387 OA
ATOM     12  H   UNL     1      -9.757  -3.625  -1.841  1.00  0.00     0.211 HD
ENDBRANCH   5  11
ENDBRANCH   1   5
BRANCH   1  13
ATOM     13  O   UNL     1     -11.349  -4.645  -4.940  1.00  0.00    -0.388 OA
ATOM     14  H   UNL     1     -11.894  -4.001  -5.465  1.00  0.00     0.211 HD
ENDBRANCH   1  13
TORSDOF 8
ENDMDL
MODEL 5
REMARK VINA RESULT:    -2.829      1.588      4.014
REMARK INTER + INTRA:          -4.587
REMARK INTER:                  -3.895
REMARK INTRA:                  -0.691
REMARK UNBOUND:                -0.765
REMARK SMILES O=C[C@H](O)[C@@H](O)[C@@H](O)CO
REMARK SMILES IDX 7 1 9 2 10 3 5 5 3 6 2 7 1 8 4 9 6 11 8 13
REMARK H PARENT 10 4 4 10 6 12 8 14
REMARK Flexibility Score: inf
ROOT
ATOM      1  C   UNL     1     -11.649  -2.306  -2.931  1.00  0.00     0.171 C 
ENDROOT
BRANCH   1   2
ATOM      2  C   UNL     1     -11.461  -1.119  -1.968  1.00  0.00     0.190 C 
BRANCH   2   3
ATOM      3  O   UNL     1     -11.002  -1.562  -0.720  1.00  0.00    -0.394 OA
ATOM      4  H   UNL     1     -10.481  -2.389  -0.895  1.00  0.00     0.210 HD
ENDBRANCH   2   3
ENDBRANCH   1   2
BRANCH   1   5
ATOM      5  C   UNL     1     -10.705  -3.501  -2.591  1.00  0.00     0.181 C 
BRANCH   5   6
ATOM      6  C   UNL     1     -11.024  -4.819  -3.356  1.00  0.00     0.209 C 
BRANCH   6   7
ATOM      7  C   UNL     1      -9.913  -5.843  -3.298  1.00  0.00     0.258 C 
ATOM      8  O   UNL     1      -9.287  -6.022  -2.265  1.00  0.00    -0.300 OA
ENDBRANCH   6   7
BRANCH   6   9
ATOM      9  O   UNL     1     -11.401  -4.551  -4.685  1.00  0.00    -0.383 OA
ATOM     10  H   UNL     1     -12.049  -3.801  -4.684  1.00  0.00     0.211 HD
ENDBRANCH   6   9
ENDBRANCH   5   6
BRANCH   5  11
ATOM     11  O   UNL     1      -9.356  -3.149  -2.786  1.00  0.00    -0.387 OA
ATOM     12  H   UNL     1      -9.314  -2.165  -2.911  1.00  0.00     0.211 HD
ENDBRANCH   5  11
ENDBRANCH   1   5
BRANCH   1  13
ATOM     13  O   UNL     1     -12.999  -2.699  -2.945  1.00  0.00    -0.388 OA
ATOM     14  H   UNL     1     -13.552  -1.885  -2.811  1.00  0.00     0.211 HD
ENDBRANCH   1  13
TORSDOF 8
ENDMDL
MODEL 6
REMARK VINA RESULT:    -2.812      1.898      2.870
REMARK INTER + INTRA:          -4.563
REMARK INTER:                  -3.873
REMARK INTRA:                  -0.691
REMARK UNBOUND:                -0.765
REMARK SMILES O=C[C@H](O)[C@@H](O)[C@@H](O)CO
REMARK SMILES IDX 7 1 9 2 10 3 5 5 3 6 2 7 1 8 4 9 6 11 8 13
REMARK H PARENT 10 4 4 10 6 12 8 14
REMARK Flexibility Score: inf
ROOT
ATOM      1  C   UNL     1     -10.441  -3.035  -3.278  1.00  0.00     0.171 C 
ENDROOT
BRANCH   1   2
ATOM      2  C   UNL     1      -9.252  -2.945  -2.303  1.00  0.00     0.190 C 
BRANCH   2   3
ATOM      3  O   UNL     1      -9.637  -2.326  -1.107  1.00  0.00    -0.394 OA
ATOM      4  H   UNL     1     -10.625  -2.419  -1.054  1.00  0.00     0.210 HD
ENDBRANCH   2   3
ENDBRANCH   1   2
BRANCH   1   5
ATOM      5  C   UNL     1     -10.958  -4.497  -3.451  1.00  0.00     0.181 C 
BRANCH   5   6
ATOM      6  C   UNL     1     -11.997  -4.950  -2.385  1.00  0.00     0.209 C 
BRANCH   6   7
ATOM      7  C   UNL     1     -13.432  -4.859  -2.854  1.00  0.00     0.258 C 
ATOM      8  O   UNL     1     -13.894  -3.794  -3.236  1.00  0.00    -0.300 OA
ENDBRANCH   6   7
BRANCH   6   9
ATOM      9  O   UNL     1     -11.811  -4.258  -1.175  1.00  0.00    -0.383 OA
ATOM     10  H   UNL     1     -10.951  -4.546  -0.775  1.00  0.00     0.211 HD
ENDBRANCH   6   9
ENDBRANCH   5   6
BRANCH   5  11
ATOM     11  O   UNL     1     -11.480  -4.697  -4.744  1.00  0.00    -0.387 OA
ATOM     12  H   UNL     1     -10.895  -5.350  -5.209  1.00  0.00     0.211 HD
ENDBRANCH   5  11
ENDBRANCH   1   5
BRANCH   1  13
ATOM     13  O   UNL     1     -11.467  -2.170  -2.859  1.00  0.00    -0.388 OA
ATOM     14  H   UNL     1     -11.928  -1.831  -3.671  1.00  0.00     0.211 HD
ENDBRANCH   1  13
TORSDOF 8
ENDMDL
MODEL 7
REMARK VINA RESULT:    -2.811      1.888      3.285
REMARK INTER + INTRA:          -4.562
REMARK INTER:                  -3.809
REMARK INTRA:                  -0.753
REMARK UNBOUND:                -0.765
REMARK SMILES O=C[C@H](O)[C@@H](O)[C@@H](O)CO
REMARK SMILES IDX 7 1 9 2 10 3 5 5 3 6 2 7 1 8 4 9 6 11 8 13
REMARK H PARENT 10 4 4 10 6 12 8 14
REMARK Flexibility Score: inf
ROOT
ATOM      1  C   UNL     1     -11.362  -3.854  -3.694  1.00  0.00     0.171 C 
ENDROOT
BRANCH   1   2
ATOM      2  C   UNL     1     -12.724  -3.947  -2.980  1.00  0.00     0.190 C 
BRANCH   2   3
ATOM      3  O   UNL     1     -12.819  -2.981  -1.969  1.00  0.00    -0.394 OA
ATOM      4  H   UNL     1     -13.714  -3.102  -1.556  1.00  0.00     0.210 HD
ENDBRANCH   2   3
ENDBRANCH   1   2
BRANCH   1   5
ATOM      5  C   UNL     1     -10.171  -4.201  -2.748  1.00  0.00     0.181 C 
BRANCH   5   6
ATOM      6  C   UNL     1      -9.326  -2.977  -2.290  1.00  0.00     0.209 C 
BRANCH   6   7
ATOM      7  C   UNL     1      -7.919  -3.331  -1.864  1.00  0.00     0.258 C 
ATOM      8  O   UNL     1      -7.687  -4.394  -1.310  1.00  0.00    -0.300 OA
ENDBRANCH   6   7
BRANCH   6   9
ATOM      9  O   UNL     1      -9.995  -2.250  -1.288  1.00  0.00    -0.383 OA
ATOM     10  H   UNL     1     -10.948  -2.520  -1.286  1.00  0.00     0.211 HD
ENDBRANCH   6   9
ENDBRANCH   5   6
BRANCH   5  11
ATOM     11  O   UNL     1     -10.614  -4.924  -1.623  1.00  0.00    -0.387 OA
ATOM     12  H   UNL     1     -10.883  -4.268  -0.929  1.00  0.00     0.211 HD
ENDBRANCH   5  11
ENDBRANCH   1   5
BRANCH   1  13
ATOM     13  O   UNL     1     -11.368  -4.668  -4.840  1.00  0.00    -0.388 OA
ATOM     14  H   UNL     1     -11.727  -5.557  -4.577  1.00  0.00     0.211 HD
ENDBRANCH   1  13
TORSDOF 8
ENDMDL
MODEL 8
REMARK VINA RESULT:    -2.790      1.327      2.636
REMARK INTER + INTRA:          -4.534
REMARK INTER:                  -3.637
REMARK INTRA:                  -0.896
REMARK UNBOUND:                -0.765
REMARK SMILES O=C[C@H](O)[C@@H](O)[C@@H](O)CO
REMARK SMILES IDX 7 1 9 2 10 3 5 5 3 6 2 7 1 8 4 9 6 11 8 13
REMARK H PARENT 10 4 4 10 6 12 8 14
REMARK Flexibility Score: inf
ROOT
ATOM      1  C   UNL     1     -11.340  -4.009  -3.452  1.00  0.00     0.171 C 
ENDROOT
BRANCH   1   2
ATOM      2  C   UNL     1     -10.424  -2.781  -3.608  1.00  0.00     0.190 C 
BRANCH   2   3
ATOM      3  O   UNL     1      -9.996  -2.320  -2.355  1.00  0.00    -0.394 OA
ATOM      4  H   UNL     1      -9.793  -3.131  -1.818  1.00  0.00     0.210 HD
ENDBRANCH   2   3
ENDBRANCH   1   2
BRANCH   1   5
ATOM      5  C   UNL     1     -12.728  -3.641  -2.841  1.00  0.00     0.181 C 
BRANCH   5   6
ATOM      6  C   UNL     1     -12.920  -4.072  -1.358  1.00  0.00     0.209 C 
BRANCH   6   7
ATOM      7  C   UNL     1     -12.914  -2.919  -0.381  1.00  0.00     0.258 C 
ATOM      8  O   UNL     1     -11.973  -2.141  -0.343  1.00  0.00    -0.300 OA
ENDBRANCH   6   7
BRANCH   6   9
ATOM      9  O   UNL     1     -11.980  -5.054  -0.993  1.00  0.00    -0.383 OA
ATOM     10  H   UNL     1     -11.368  -4.668  -0.315  1.00  0.00     0.211 HD
ENDBRANCH   6   9
ENDBRANCH   5   6
BRANCH   5  11
ATOM     11  O   UNL     1     -12.988  -2.264  -2.976  1.00  0.00    -0.387 OA
ATOM     12  H   UNL     1     -13.902  -2.163  -3.352  1.00  0.00     0.211 HD
ENDBRANCH   5  11
ENDBRANCH   1   5
BRANCH   1  13
ATOM     13  O   UNL     1     -11.476  -4.662  -4.690  1.00  0.00    -0.388 OA
ATOM     14  H   UNL     1     -12.440  -4.657  -4.930  1.00  0.00     0.211 HD
ENDBRANCH   1  13
TORSDOF 8
ENDMDL
MODEL 9
REMARK VINA RESULT:    -2.783      1.039      3.289
REMARK INTER + INTRA:          -4.524
REMARK INTER:                  -3.637
REMARK INTRA:                  -0.887
REMARK UNBOUND:                -0.765
REMARK SMILES O=C[C@H](O)[C@@H](O)[C@@H](O)CO
REMARK SMILES IDX 7 1 9 2 10 3 5 5 3 6 2 7 1 8 4 9 6 11 8 13
REMARK H PARENT 10 4 4 10 6 12 8 14
REMARK Flexibility Score: inf
ROOT
ATOM      1  C   UNL     1     -11.368  -2.492  -1.102  1.00  0.00     0.171 C 
ENDROOT
BRANCH   1   2
ATOM      2  C   UNL     1     -12.464  -3.215  -0.298  1.00  0.00     0.190 C 
BRANCH   2   3
ATOM      3  O   UNL     1     -12.507  -4.576  -0.632  1.00  0.00    -0.394 OA
ATOM      4  H   UNL     1     -13.413  -4.894  -0.379  1.00  0.00     0.210 HD
ENDBRANCH   2   3
ENDBRANCH   1   2
BRANCH   1   5
ATOM      5  C   UNL     1     -11.727  -2.367  -2.616  1.00  0.00     0.181 C 
BRANCH   5   6
ATOM      6  C   UNL     1     -10.725  -3.066  -3.581  1.00  0.00     0.209 C 
BRANCH   6   7
ATOM      7  C   UNL     1     -11.203  -4.406  -4.092  1.00  0.00     0.258 C 
ATOM      8  O   UNL     1     -11.530  -5.287  -3.312  1.00  0.00    -0.300 OA
ENDBRANCH   6   7
BRANCH   6   9
ATOM      9  O   UNL     1      -9.450  -3.169  -2.994  1.00  0.00    -0.383 OA
ATOM     10  H   UNL     1      -8.929  -2.358  -3.226  1.00  0.00     0.211 HD
ENDBRANCH   6   9
ENDBRANCH   5   6
BRANCH   5  11
ATOM     11  O   UNL     1     -13.033  -2.832  -2.864  1.00  0.00    -0.387 OA
ATOM     12  H   UNL     1     -13.274  -3.462  -2.136  1.00  0.00     0.211 HD
ENDBRANCH   5  11
ENDBRANCH   1   5
BRANCH   1  13
ATOM     13  O   UNL     1     -11.105  -1.236  -0.527  1.00  0.00    -0.388 OA
ATOM     14  H   UNL     1     -10.146  -1.216  -0.270  1.00  0.00     0.211 HD
ENDBRANCH   1  13
TORSDOF 8
ENDMDL
