MODEL 1
REMARK VINA RESULT:    62.778      0.000      0.000
REMARK INTER + INTRA:          69.210
REMARK INTER:                  68.283
REMARK INTRA:                   0.927
REMARK UNBOUND:                 0.927
REMARK SMILES C[C@H]1[C@@H](C)CC[C@]2(C(=O)[O-])CC[C@]3(C)C(=CC[C@@H]4[C@@]5(C)CC[C@@H](O)C(C)(C)[C@H]5CC[C@]43C)[C@@H]12
REMARK SMILES IDX 7 1 6 2 11 3 33 4 5 5 12 6 15 7 2 8 3 9 13 10 16 11 1 12
REMARK SMILES IDX 4 13 14 14 31 15 17 16 18 17 30 18 32 19 19 20 29 21 28 22
REMARK SMILES IDX 21 23 20 24 25 25 22 26 23 27 26 28 27 29 8 30 9 31 10 32
REMARK SMILES IDX 24 33
REMARK H PARENT 24 34
REMARK Flexibility Score: inf
ROOT
ATOM      1  C   UNL     1      -8.119  19.049 -14.499  1.00  0.00     0.017 C 
ATOM      2  C   UNL     1      -8.632  20.506 -14.316  1.00  0.00     0.014 C 
ATOM      3  C   UNL     1      -8.628  18.512 -15.874  1.00  0.00     0.014 C 
ATOM      4  C   UNL     1      -8.736  18.118 -13.399  1.00  0.00     0.030 C 
ATOM      5  C   UNL     1      -8.460  21.101 -12.883  1.00  0.00     0.004 C 
ATOM      6  C   UNL     1      -8.267  17.026 -16.119  1.00  0.00     0.013 C 
ATOM      7  C   UNL     1      -8.295  16.656 -13.628  1.00  0.00    -0.063 C 
ATOM      8  C   UNL     1      -8.862  18.752 -11.958  1.00  0.00    -0.003 C 
ATOM      9  C   UNL     1      -8.092  20.082 -11.766  1.00  0.00    -0.011 C 
ATOM     10  C   UNL     1      -8.699  16.004 -14.985  1.00  0.00    -0.006 C 
ATOM     11  C   UNL     1      -7.388  16.081 -12.820  1.00  0.00    -0.027 C 
ATOM     12  C   UNL     1      -8.810  17.813 -10.729  1.00  0.00     0.008 C 
ATOM     13  C   UNL     1      -6.567  19.952 -11.567  1.00  0.00     0.008 C 
ATOM     14  C   UNL     1     -10.264  15.920 -15.033  1.00  0.00     0.017 C 
ATOM     15  C   UNL     1      -8.042  14.505 -15.217  1.00  0.00    -0.020 C 
ATOM     16  C   UNL     1      -6.850  14.698 -12.980  1.00  0.00     0.032 C 
ATOM     17  C   UNL     1      -7.786  13.818 -13.828  1.00  0.00     0.006 C 
ATOM     18  C   UNL     1      -8.988  13.557 -16.032  1.00  0.00     0.008 C 
ATOM     19  C   UNL     1      -6.718  14.608 -16.036  1.00  0.00     0.012 C 
ATOM     20  C   UNL     1      -7.379  12.273 -13.809  1.00  0.00    -0.025 C 
ATOM     21  C   UNL     1      -8.565  12.083 -16.124  1.00  0.00     0.005 C 
ATOM     22  C   UNL     1      -8.311  11.392 -14.753  1.00  0.00     0.003 C 
ATOM     23  C   UNL     1      -7.473  11.767 -12.326  1.00  0.00     0.010 C 
ATOM     24  C   UNL     1      -5.887  12.022 -14.246  1.00  0.00     0.012 C 
ATOM     25  C   UNL     1      -9.579  10.667 -14.090  1.00  0.00    -0.006 C 
ATOM     26  C   UNL     1      -7.784  10.273 -12.238  1.00  0.00     0.033 C 
ATOM     27  C   UNL     1      -9.225  10.014 -12.681  1.00  0.00     0.120 C 
ATOM     28  C   UNL     1     -10.048   9.498 -15.013  1.00  0.00     0.014 C 
ATOM     29  C   UNL     1     -10.800  11.625 -13.965  1.00  0.00     0.014 C 
ENDROOT
BRANCH   1  30
ATOM     30  C   UNL     1      -6.587  19.060 -14.550  1.00  0.00     0.048 C 
ATOM     31  O   UNL     1      -5.909  18.257 -13.866  1.00  0.00    -0.550 OA
ATOM     32  O   UNL     1      -5.931  19.878 -15.469  1.00  0.00    -0.550 OA
ENDBRANCH   1  30
BRANCH  27  33
ATOM     33  O   UNL     1     -10.104  10.443 -11.649  1.00  0.00    -0.393 OA
ATOM     34  H   UNL     1      -9.828   9.998 -10.807  1.00  0.00     0.210 HD
ENDBRANCH  27  33
TORSDOF 2
ENDMDL
