MODEL 1
REMARK VINA RESULT:    -2.180      0.000      0.000
REMARK INTER + INTRA:          -2.372
REMARK INTER:                  -2.372
REMARK INTRA:                   0.000
REMARK UNBOUND:                 0.000
REMARK SMILES [NH3+]CC(=O)[O-]
REMARK SMILES IDX 2 1 1 2 3 6 4 7 5 8
REMARK H PARENT 1 3 1 4 1 5
REMARK Flexibility Score: inf
ROOT
ATOM      1  C   UNL     1       2.157 -34.500   0.454  1.00  0.00     0.312 C 
ENDROOT
BRANCH   1   2
ATOM      2  N   UNL     1       2.567 -34.795  -0.917  1.00  0.00    -0.353 N 
ATOM      3  H   UNL     1       3.047 -35.724  -0.938  1.00  0.00     0.344 HD
ATOM      4  H   UNL     1       1.730 -34.832  -1.543  1.00  0.00     0.344 HD
ATOM      5  H   UNL     1       3.233 -34.063  -1.258  1.00  0.00     0.344 HD
ENDBRANCH   1   2
BRANCH   1   6
ATOM      6  C   UNL     1       1.176 -33.368   0.480  1.00  0.00     0.096 C 
ATOM      7  O   UNL     1       1.584 -32.177   0.484  1.00  0.00    -0.544 OA
ATOM      8  O   UNL     1      -0.188 -33.630   0.447  1.00  0.00    -0.544 OA
ENDBRANCH   1   6
TORSDOF 2
ENDMDL
MODEL 2
REMARK VINA RESULT:    -2.165     10.519     10.750
REMARK INTER + INTRA:          -2.355
REMARK INTER:                  -2.355
REMARK INTRA:                   0.000
REMARK UNBOUND:                 0.000
REMARK SMILES [NH3+]CC(=O)[O-]
REMARK SMILES IDX 2 1 1 2 3 6 4 7 5 8
REMARK H PARENT 1 3 1 4 1 5
REMARK Flexibility Score: inf
ROOT
ATOM      1  C   UNL     1      -6.059 -39.859  -2.637  1.00  0.00     0.312 C 
ENDROOT
BRANCH   1   2
ATOM      2  N   UNL     1      -5.602 -39.436  -3.959  1.00  0.00    -0.353 N 
ATOM      3  H   UNL     1      -5.238 -40.269  -4.477  1.00  0.00     0.344 HD
ATOM      4  H   UNL     1      -6.397 -39.023  -4.500  1.00  0.00     0.344 HD
ATOM      5  H   UNL     1      -4.833 -38.733  -3.865  1.00  0.00     0.344 HD
ENDBRANCH   1   2
BRANCH   1   6
ATOM      6  C   UNL     1      -5.663 -41.279  -2.371  1.00  0.00     0.096 C 
ATOM      7  O   UNL     1      -5.277 -42.017  -3.315  1.00  0.00    -0.544 OA
ATOM      8  O   UNL     1      -5.672 -41.770  -1.072  1.00  0.00    -0.544 OA
ENDBRANCH   1   6
TORSDOF 2
ENDMDL
MODEL 3
REMARK VINA RESULT:    -2.153      0.823      1.657
REMARK INTER + INTRA:          -2.341
REMARK INTER:                  -2.341
REMARK INTRA:                   0.000
REMARK UNBOUND:                 0.000
REMARK SMILES [NH3+]CC(=O)[O-]
REMARK SMILES IDX 2 1 1 2 3 6 4 7 5 8
REMARK H PARENT 1 3 1 4 1 5
REMARK Flexibility Score: inf
ROOT
ATOM      1  C   UNL     1       1.419 -34.136   0.812  1.00  0.00     0.312 C 
ENDROOT
BRANCH   1   2
ATOM      2  N   UNL     1       2.313 -34.689  -0.203  1.00  0.00    -0.353 N 
ATOM      3  H   UNL     1       2.386 -34.014  -0.998  1.00  0.00     0.344 HD
ATOM      4  H   UNL     1       3.266 -34.840   0.201  1.00  0.00     0.344 HD
ATOM      5  H   UNL     1       1.932 -35.595  -0.563  1.00  0.00     0.344 HD
ENDBRANCH   1   2
BRANCH   1   6
ATOM      6  C   UNL     1       0.496 -33.123   0.207  1.00  0.00     0.096 C 
ATOM      7  O   UNL     1      -0.655 -33.460  -0.172  1.00  0.00    -0.544 OA
ATOM      8  O   UNL     1       0.893 -31.795   0.108  1.00  0.00    -0.544 OA
ENDBRANCH   1   6
TORSDOF 2
ENDMDL
MODEL 4
REMARK VINA RESULT:    -2.109      1.680      2.375
REMARK INTER + INTRA:          -2.294
REMARK INTER:                  -2.294
REMARK INTRA:                   0.000
REMARK UNBOUND:                 0.000
REMARK SMILES [NH3+]CC(=O)[O-]
REMARK SMILES IDX 2 1 1 2 3 6 4 7 5 8
REMARK H PARENT 1 3 1 4 1 5
REMARK Flexibility Score: inf
ROOT
ATOM      1  C   UNL     1      -0.079 -33.092  -0.183  1.00  0.00     0.312 C 
ENDROOT
BRANCH   1   2
ATOM      2  N   UNL     1       0.201 -33.469  -1.567  1.00  0.00    -0.353 N 
ATOM      3  H   UNL     1      -0.276 -32.794  -2.207  1.00  0.00     0.344 HD
ATOM      4  H   UNL     1       1.231 -33.438  -1.748  1.00  0.00     0.344 HD
ATOM      5  H   UNL     1      -0.164 -34.431  -1.757  1.00  0.00     0.344 HD
ENDBRANCH   1   2
BRANCH   1   6
ATOM      6  C   UNL     1       1.098 -33.394   0.694  1.00  0.00     0.096 C 
ATOM      7  O   UNL     1       1.226 -34.534   1.213  1.00  0.00    -0.544 OA
ATOM      8  O   UNL     1       2.079 -32.431   0.896  1.00  0.00    -0.544 OA
ENDBRANCH   1   6
TORSDOF 2
ENDMDL
MODEL 5
REMARK VINA RESULT:    -2.091      1.581      1.855
REMARK INTER + INTRA:          -2.274
REMARK INTER:                  -2.274
REMARK INTRA:                   0.000
REMARK UNBOUND:                 0.000
REMARK SMILES [NH3+]CC(=O)[O-]
REMARK SMILES IDX 2 1 1 2 3 6 4 7 5 8
REMARK H PARENT 1 3 1 4 1 5
REMARK Flexibility Score: inf
ROOT
ATOM      1  C   UNL     1       0.103 -33.090  -0.501  1.00  0.00     0.312 C 
ENDROOT
BRANCH   1   2
ATOM      2  N   UNL     1       0.541 -33.575  -1.808  1.00  0.00    -0.353 N 
ATOM      3  H   UNL     1       0.235 -32.897  -2.544  1.00  0.00     0.344 HD
ATOM      4  H   UNL     1       1.584 -33.653  -1.833  1.00  0.00     0.344 HD
ATOM      5  H   UNL     1       0.110 -34.508  -2.008  1.00  0.00     0.344 HD
ENDBRANCH   1   2
BRANCH   1   6
ATOM      6  C   UNL     1       1.172 -33.306   0.526  1.00  0.00     0.096 C 
ATOM      7  O   UNL     1       1.987 -32.385   0.796  1.00  0.00    -0.544 OA
ATOM      8  O   UNL     1       1.235 -34.507   1.221  1.00  0.00    -0.544 OA
ENDBRANCH   1   6
TORSDOF 2
ENDMDL
MODEL 6
REMARK VINA RESULT:    -2.087      9.005      9.382
REMARK INTER + INTRA:          -2.269
REMARK INTER:                  -2.269
REMARK INTRA:                   0.000
REMARK UNBOUND:                 0.000
REMARK SMILES [NH3+]CC(=O)[O-]
REMARK SMILES IDX 2 1 1 2 3 6 4 7 5 8
REMARK H PARENT 1 3 1 4 1 5
REMARK Flexibility Score: inf
ROOT
ATOM      1  C   UNL     1       3.110 -40.671  -6.035  1.00  0.00     0.312 C 
ENDROOT
BRANCH   1   2
ATOM      2  N   UNL     1       3.121 -42.123  -5.867  1.00  0.00    -0.353 N 
ATOM      3  H   UNL     1       4.015 -42.407  -5.405  1.00  0.00     0.344 HD
ATOM      4  H   UNL     1       2.319 -42.421  -5.264  1.00  0.00     0.344 HD
ATOM      5  H   UNL     1       3.058 -42.593  -6.799  1.00  0.00     0.344 HD
ENDBRANCH   1   2
BRANCH   1   6
ATOM      6  C   UNL     1       1.704 -40.159  -6.105  1.00  0.00     0.096 C 
ATOM      7  O   UNL     1       1.095 -40.126  -7.206  1.00  0.00    -0.544 OA
ATOM      8  O   UNL     1       1.051 -39.764  -4.944  1.00  0.00    -0.544 OA
ENDBRANCH   1   6
TORSDOF 2
ENDMDL
MODEL 7
REMARK VINA RESULT:    -1.948      1.137      1.845
REMARK INTER + INTRA:          -2.118
REMARK INTER:                  -2.118
REMARK INTRA:                   0.000
REMARK UNBOUND:                 0.000
REMARK SMILES [NH3+]CC(=O)[O-]
REMARK SMILES IDX 2 1 1 2 3 6 4 7 5 8
REMARK H PARENT 1 3 1 4 1 5
REMARK Flexibility Score: inf
ROOT
ATOM      1  C   UNL     1       2.030 -34.152   0.331  1.00  0.00     0.312 C 
ENDROOT
BRANCH   1   2
ATOM      2  N   UNL     1       2.508 -34.681  -0.945  1.00  0.00    -0.353 N 
ATOM      3  H   UNL     1       2.614 -33.892  -1.623  1.00  0.00     0.344 HD
ATOM      4  H   UNL     1       3.437 -35.145  -0.818  1.00  0.00     0.344 HD
ATOM      5  H   UNL     1       1.818 -35.367  -1.331  1.00  0.00     0.344 HD
ENDBRANCH   1   2
BRANCH   1   6
ATOM      6  C   UNL     1       2.130 -32.658   0.353  1.00  0.00     0.096 C 
ATOM      7  O   UNL     1       1.102 -31.952   0.179  1.00  0.00    -0.544 OA
ATOM      8  O   UNL     1       3.349 -32.047   0.617  1.00  0.00    -0.544 OA
ENDBRANCH   1   6
TORSDOF 2
ENDMDL
MODEL 8
REMARK VINA RESULT:    -1.865      2.145      2.279
REMARK INTER + INTRA:          -2.028
REMARK INTER:                  -2.028
REMARK INTRA:                   0.000
REMARK UNBOUND:                 0.000
REMARK SMILES [NH3+]CC(=O)[O-]
REMARK SMILES IDX 2 1 1 2 3 6 4 7 5 8
REMARK H PARENT 1 3 1 4 1 5
REMARK Flexibility Score: inf
ROOT
ATOM      1  C   UNL     1       2.241 -32.697   0.298  1.00  0.00     0.312 C 
ENDROOT
BRANCH   1   2
ATOM      2  N   UNL     1       3.664 -32.367   0.273  1.00  0.00    -0.353 N 
ATOM      3  H   UNL     1       3.805 -31.505  -0.301  1.00  0.00     0.344 HD
ATOM      4  H   UNL     1       4.008 -32.187   1.245  1.00  0.00     0.344 HD
ATOM      5  H   UNL     1       4.207 -33.152  -0.156  1.00  0.00     0.344 HD
ENDBRANCH   1   2
BRANCH   1   6
ATOM      6  C   UNL     1       2.044 -34.176   0.430  1.00  0.00     0.096 C 
ATOM      7  O   UNL     1       2.870 -34.974  -0.086  1.00  0.00    -0.544 OA
ATOM      8  O   UNL     1       0.975 -34.672   1.166  1.00  0.00    -0.544 OA
ENDBRANCH   1   6
TORSDOF 2
ENDMDL
MODEL 9
REMARK VINA RESULT:    -1.854      8.297      8.715
REMARK INTER + INTRA:          -2.017
REMARK INTER:                  -2.017
REMARK INTRA:                   0.000
REMARK UNBOUND:                 0.000
REMARK SMILES [NH3+]CC(=O)[O-]
REMARK SMILES IDX 2 1 1 2 3 6 4 7 5 8
REMARK H PARENT 1 3 1 4 1 5
REMARK Flexibility Score: inf
ROOT
ATOM      1  C   UNL     1       2.051 -38.934  -4.994  1.00  0.00     0.312 C 
ENDROOT
BRANCH   1   2
ATOM      2  N   UNL     1       1.018 -38.722  -3.982  1.00  0.00    -0.353 N 
ATOM      3  H   UNL     1       1.446 -38.815  -3.033  1.00  0.00     0.344 HD
ATOM      4  H   UNL     1       0.612 -37.762  -4.078  1.00  0.00     0.344 HD
ATOM      5  H   UNL     1       0.262 -39.439  -4.085  1.00  0.00     0.344 HD
ENDBRANCH   1   2
BRANCH   1   6
ATOM      6  C   UNL     1       1.625 -39.986  -5.971  1.00  0.00     0.096 C 
ATOM      7  O   UNL     1       0.502 -39.910  -6.534  1.00  0.00    -0.544 OA
ATOM      8  O   UNL     1       2.490 -41.024  -6.295  1.00  0.00    -0.544 OA
ENDBRANCH   1   6
TORSDOF 2
ENDMDL
