MODEL 1
REMARK VINA RESULT:    -3.803      0.000      0.000
REMARK INTER + INTRA:          -5.244
REMARK INTER:                  -5.359
REMARK INTRA:                   0.115
REMARK UNBOUND:                 0.115
REMARK SMILES CC1=CCC(=C(C)C)C(=O)CC(C)=CCC1
REMARK SMILES IDX 12 1 14 2 13 3 15 4 16 5 2 6 1 7 3 8 11 10 9 11 10 12 5 13
REMARK SMILES IDX 6 14 7 15 8 16 4 17
REMARK H PARENT
REMARK Flexibility Score: 60.00
ROOT
ATOM      1  C   UNL     1      67.162  66.396  32.184  1.00  0.00    -0.070 C 
ATOM      2  C   UNL     1      67.557  67.500  32.860  1.00  0.00    -0.027 C 
ATOM      3  C   UNL     1      66.819  65.176  33.004  1.00  0.00     0.039 C 
ENDROOT
BRANCH   2   4
ATOM      4  C   UNL     1      67.989  68.812  32.257  1.00  0.00     0.032 C 
BRANCH   4   5
ATOM      5  C   UNL     1      69.520  69.021  32.163  1.00  0.00     0.034 C 
BRANCH   5   6
ATOM      6  C   UNL     1      70.009  69.758  30.924  1.00  0.00    -0.077 C 
ATOM      7  C   UNL     1      70.090  71.263  30.993  1.00  0.00     0.039 C 
ATOM      8  C   UNL     1      70.435  69.165  29.774  1.00  0.00    -0.023 CG0
ATOM      9  G   UNL     1      70.350  67.710  29.337  1.00  0.00     0.000 G0
ENDBRANCH   5   6
ENDBRANCH   4   5
ENDBRANCH   2   4
BRANCH   1  10
ATOM     10  C   UNL     1      67.086  66.279  30.666  1.00  0.00     0.111 C 
BRANCH  10  11
ATOM     11  C   UNL     1      68.397  66.115  29.933  1.00  0.00     0.163 C 
ATOM     12  O   UNL     1      69.028  65.044  30.145  1.00  0.00    -0.294 OA
BRANCH  11  13
ATOM     13  C   UNL     1      68.972  67.151  28.998  1.00  0.00    -0.002 C 
ATOM     14  C   UNL     1      68.311  67.557  27.867  1.00  0.00    -0.069 C 
ATOM     15  C   UNL     1      68.955  68.504  26.878  1.00  0.00     0.039 C 
ATOM     16  C   UNL     1      66.899  67.117  27.556  1.00  0.00     0.039 C 
BRANCH  13  17
ATOM     17  C   UNL     1      70.355  67.706  29.305  1.00  0.00     0.066 CG0
ATOM     18  G   UNL     1      70.425  69.153  29.769  1.00  0.00     0.000 G0
ENDBRANCH  13  17
ENDBRANCH  11  13
ENDBRANCH  10  11
ENDBRANCH   1  10
TORSDOF 0
ENDMDL
MODEL 2
REMARK VINA RESULT:    -3.713      1.795      3.021
REMARK INTER + INTRA:          -5.118
REMARK INTER:                  -4.968
REMARK INTRA:                  -0.149
REMARK UNBOUND:                 0.115
REMARK SMILES CC1=CCC(=C(C)C)C(=O)CC(C)=CCC1
REMARK SMILES IDX 12 1 14 2 13 3 15 4 16 5 2 6 1 7 3 8 11 10 9 11 10 12 5 13
REMARK SMILES IDX 6 14 7 15 8 16 4 17
REMARK H PARENT
REMARK Flexibility Score: 60.00
ROOT
ATOM      1  C   UNL     1      69.768  69.400  31.993  1.00  0.00    -0.070 C 
ATOM      2  C   UNL     1      70.310  70.572  31.593  1.00  0.00    -0.027 C 
ATOM      3  C   UNL     1      70.272  68.817  33.291  1.00  0.00     0.039 C 
ENDROOT
BRANCH   2   4
ATOM      4  C   UNL     1      69.999  71.315  30.318  1.00  0.00     0.032 C 
BRANCH   4   5
ATOM      5  C   UNL     1      70.709  70.777  29.053  1.00  0.00     0.034 C 
BRANCH   5   6
ATOM      6  C   UNL     1      69.839  70.662  27.809  1.00  0.00    -0.077 C 
ATOM      7  C   UNL     1      69.376  71.944  27.159  1.00  0.00     0.039 C 
ATOM      8  C   UNL     1      69.490  69.495  27.199  1.00  0.00    -0.023 CG0
ATOM      9  G   UNL     1      69.669  68.059  27.667  1.00  0.00     0.000 G0
ENDBRANCH   5   6
ENDBRANCH   4   5
ENDBRANCH   2   4
BRANCH   1  10
ATOM     10  C   UNL     1      68.727  68.604  31.212  1.00  0.00     0.111 C 
BRANCH  10  11
ATOM     11  C   UNL     1      69.252  67.624  30.189  1.00  0.00     0.163 C 
ATOM     12  O   UNL     1      70.168  66.848  30.574  1.00  0.00    -0.294 OA
BRANCH  11  13
ATOM     13  C   UNL     1      68.753  67.547  28.767  1.00  0.00    -0.002 C 
ATOM     14  C   UNL     1      67.538  66.996  28.451  1.00  0.00    -0.069 C 
ATOM     15  C   UNL     1      67.107  66.816  27.012  1.00  0.00     0.039 C 
ATOM     16  C   UNL     1      66.546  66.571  29.509  1.00  0.00     0.039 C 
BRANCH  13  17
ATOM     17  C   UNL     1      69.667  68.046  27.657  1.00  0.00     0.066 CG0
ATOM     18  G   UNL     1      69.476  69.487  27.207  1.00  0.00     0.000 G0
ENDBRANCH  13  17
ENDBRANCH  11  13
ENDBRANCH  10  11
ENDBRANCH   1  10
TORSDOF 0
ENDMDL
MODEL 3
REMARK VINA RESULT:    -3.646      8.658     10.531
REMARK INTER + INTRA:          -5.023
REMARK INTER:                  -4.724
REMARK INTRA:                  -0.300
REMARK UNBOUND:                 0.115
REMARK SMILES CC1=CCC(=C(C)C)C(=O)CC(C)=CCC1
REMARK SMILES IDX 12 1 14 2 13 3 15 4 16 5 2 6 1 7 3 8 11 10 9 11 10 12 5 13
REMARK SMILES IDX 6 14 7 15 8 16 4 17
REMARK H PARENT
REMARK Flexibility Score: 60.00
ROOT
ATOM      1  C   UNL     1      66.262  66.818  40.643  1.00  0.00    -0.070 C 
ATOM      2  C   UNL     1      66.483  67.326  41.877  1.00  0.00    -0.027 C 
ATOM      3  C   UNL     1      65.387  67.625  39.715  1.00  0.00     0.039 C 
ENDROOT
BRANCH   2   4
ATOM      4  C   UNL     1      67.281  66.681  42.982  1.00  0.00     0.032 C 
BRANCH   4   5
ATOM      5  C   UNL     1      68.555  67.449  43.409  1.00  0.00     0.034 C 
BRANCH   5   6
ATOM      6  C   UNL     1      69.012  68.545  42.456  1.00  0.00    -0.077 C 
ATOM      7  C   UNL     1      68.675  69.970  42.819  1.00  0.00     0.039 C 
ATOM      8  C   UNL     1      69.752  68.349  41.330  1.00  0.00    -0.023 CG0
ATOM      9  G   UNL     1      70.128  67.056  40.622  1.00  0.00     0.000 G0
ENDBRANCH   5   6
ENDBRANCH   4   5
ENDBRANCH   2   4
BRANCH   1  10
ATOM     10  C   UNL     1      66.788  65.477  40.141  1.00  0.00     0.111 C 
BRANCH  10  11
ATOM     11  C   UNL     1      68.282  65.364  39.951  1.00  0.00     0.163 C 
ATOM     12  O   UNL     1      68.786  64.223  40.139  1.00  0.00    -0.294 OA
BRANCH  11  13
ATOM     13  C   UNL     1      69.171  66.524  39.573  1.00  0.00    -0.002 C 
ATOM     14  C   UNL     1      69.165  67.064  38.313  1.00  0.00    -0.069 C 
ATOM     15  C   UNL     1      70.148  68.144  37.915  1.00  0.00     0.039 C 
ATOM     16  C   UNL     1      68.162  66.646  37.261  1.00  0.00     0.039 C 
BRANCH  13  17
ATOM     17  C   UNL     1      70.141  67.055  40.617  1.00  0.00     0.066 CG0
ATOM     18  G   UNL     1      69.751  68.348  41.319  1.00  0.00     0.000 G0
ENDBRANCH  13  17
ENDBRANCH  11  13
ENDBRANCH  10  11
ENDBRANCH   1  10
TORSDOF 0
ENDMDL
MODEL 4
REMARK VINA RESULT:    -3.625      8.400     10.410
REMARK INTER + INTRA:          -4.994
REMARK INTER:                  -4.879
REMARK INTRA:                  -0.115
REMARK UNBOUND:                 0.115
REMARK SMILES CC1=CCC(=C(C)C)C(=O)CC(C)=CCC1
REMARK SMILES IDX 12 1 14 2 13 3 15 4 16 5 2 6 1 7 3 8 11 10 9 11 10 12 5 13
REMARK SMILES IDX 6 14 7 15 8 16 4 17
REMARK H PARENT
REMARK Flexibility Score: 60.00
ROOT
ATOM      1  C   UNL     1      65.743  67.393  40.334  1.00  0.00    -0.070 C 
ATOM      2  C   UNL     1      66.057  67.821  41.578  1.00  0.00    -0.027 C 
ATOM      3  C   UNL     1      64.277  67.330  39.979  1.00  0.00     0.039 C 
ENDROOT
BRANCH   2   4
ATOM      4  C   UNL     1      67.441  67.922  42.167  1.00  0.00     0.032 C 
BRANCH   4   5
ATOM      5  C   UNL     1      68.127  66.569  42.473  1.00  0.00     0.034 C 
BRANCH   5   6
ATOM      6  C   UNL     1      69.543  66.413  41.935  1.00  0.00    -0.077 C 
ATOM      7  C   UNL     1      70.587  67.388  42.422  1.00  0.00     0.039 C 
ATOM      8  C   UNL     1      69.959  65.427  41.092  1.00  0.00    -0.023 CG0
ATOM      9  G   UNL     1      69.148  64.396  40.322  1.00  0.00     0.000 G0
ENDBRANCH   5   6
ENDBRANCH   4   5
ENDBRANCH   2   4
BRANCH   1  10
ATOM     10  C   UNL     1      66.749  66.926  39.288  1.00  0.00     0.111 C 
BRANCH  10  11
ATOM     11  C   UNL     1      67.037  65.444  39.239  1.00  0.00     0.163 C 
ATOM     12  O   UNL     1      66.043  64.676  39.353  1.00  0.00    -0.294 OA
BRANCH  11  13
ATOM     13  C   UNL     1      68.420  64.862  39.080  1.00  0.00    -0.002 C 
ATOM     14  C   UNL     1      69.003  64.698  37.850  1.00  0.00    -0.069 C 
ATOM     15  C   UNL     1      70.339  64.001  37.699  1.00  0.00     0.039 C 
ATOM     16  C   UNL     1      68.375  65.230  36.582  1.00  0.00     0.039 C 
BRANCH  13  17
ATOM     17  C   UNL     1      69.150  64.392  40.329  1.00  0.00     0.066 CG0
ATOM     18  G   UNL     1      69.954  65.436  41.088  1.00  0.00     0.000 G0
ENDBRANCH  13  17
ENDBRANCH  11  13
ENDBRANCH  10  11
ENDBRANCH   1  10
TORSDOF 0
ENDMDL
MODEL 5
REMARK VINA RESULT:    -3.486      9.319     11.080
REMARK INTER + INTRA:          -4.798
REMARK INTER:                  -4.422
REMARK INTRA:                  -0.376
REMARK UNBOUND:                 0.115
REMARK SMILES CC1=CCC(=C(C)C)C(=O)CC(C)=CCC1
REMARK SMILES IDX 12 1 14 2 13 3 15 4 16 5 2 6 1 7 3 8 11 10 9 11 10 12 5 13
REMARK SMILES IDX 6 14 7 15 8 16 4 17
REMARK H PARENT
REMARK Flexibility Score: 60.00
ROOT
ATOM      1  C   UNL     1      67.485  67.474  42.353  1.00  0.00    -0.070 C 
ATOM      2  C   UNL     1      66.470  66.952  41.628  1.00  0.00    -0.027 C 
ATOM      3  C   UNL     1      67.976  66.664  43.529  1.00  0.00     0.039 C 
ENDROOT
BRANCH   2   4
ATOM      4  C   UNL     1      65.790  67.596  40.446  1.00  0.00     0.032 C 
BRANCH   4   5
ATOM      5  C   UNL     1      66.364  67.204  39.063  1.00  0.00     0.034 C 
BRANCH   5   6
ATOM      6  C   UNL     1      67.268  65.979  39.049  1.00  0.00    -0.077 C 
ATOM      7  C   UNL     1      66.605  64.623  39.035  1.00  0.00     0.039 C 
ATOM      8  C   UNL     1      68.628  66.007  38.990  1.00  0.00    -0.023 CG0
ATOM      9  G   UNL     1      69.587  67.180  39.131  1.00  0.00     0.000 G0
ENDBRANCH   5   6
ENDBRANCH   4   5
ENDBRANCH   2   4
BRANCH   1  10
ATOM     10  C   UNL     1      68.133  68.831  42.103  1.00  0.00     0.111 C 
BRANCH  10  11
ATOM     11  C   UNL     1      69.227  68.878  41.061  1.00  0.00     0.163 C 
ATOM     12  O   UNL     1      69.530  70.018  40.617  1.00  0.00    -0.294 OA
BRANCH  11  13
ATOM     13  C   UNL     1      69.938  67.655  40.536  1.00  0.00    -0.002 C 
ATOM     14  C   UNL     1      70.904  67.007  41.262  1.00  0.00    -0.069 C 
ATOM     15  C   UNL     1      71.693  65.858  40.672  1.00  0.00     0.039 C 
ATOM     16  C   UNL     1      71.214  67.370  42.696  1.00  0.00     0.039 C 
BRANCH  13  17
ATOM     17  C   UNL     1      69.604  67.179  39.130  1.00  0.00     0.066 CG0
ATOM     18  G   UNL     1      68.631  66.015  39.014  1.00  0.00     0.000 G0
ENDBRANCH  13  17
ENDBRANCH  11  13
ENDBRANCH  10  11
ENDBRANCH   1  10
TORSDOF 0
ENDMDL
MODEL 6
REMARK VINA RESULT:    -3.474      1.349      3.842
REMARK INTER + INTRA:          -4.780
REMARK INTER:                  -4.628
REMARK INTRA:                  -0.152
REMARK UNBOUND:                 0.115
REMARK SMILES CC1=CCC(=C(C)C)C(=O)CC(C)=CCC1
REMARK SMILES IDX 12 1 14 2 13 3 15 4 16 5 2 6 1 7 3 8 11 10 9 11 10 12 5 13
REMARK SMILES IDX 6 14 7 15 8 16 4 17
REMARK H PARENT
REMARK Flexibility Score: 60.00
ROOT
ATOM      1  C   UNL     1      68.294  67.625  28.082  1.00  0.00    -0.070 C 
ATOM      2  C   UNL     1      69.087  68.680  27.787  1.00  0.00    -0.027 C 
ATOM      3  C   UNL     1      67.973  66.671  26.956  1.00  0.00     0.039 C 
ENDROOT
BRANCH   2   4
ATOM      4  C   UNL     1      69.502  69.780  28.730  1.00  0.00     0.032 C 
BRANCH   4   5
ATOM      5  C   UNL     1      70.529  69.367  29.813  1.00  0.00     0.034 C 
BRANCH   5   6
ATOM      6  C   UNL     1      70.236  69.865  31.221  1.00  0.00    -0.077 C 
ATOM      7  C   UNL     1      70.302  71.353  31.463  1.00  0.00     0.039 C 
ATOM      8  C   UNL     1      69.863  69.081  32.270  1.00  0.00    -0.023 CG0
ATOM      9  G   UNL     1      69.841  67.565  32.396  1.00  0.00     0.000 G0
ENDBRANCH   5   6
ENDBRANCH   4   5
ENDBRANCH   2   4
BRANCH   1  10
ATOM     10  C   UNL     1      67.665  67.356  29.444  1.00  0.00     0.111 C 
BRANCH  10  11
ATOM     11  C   UNL     1      68.479  66.532  30.415  1.00  0.00     0.163 C 
ATOM     12  O   UNL     1      69.081  65.533  29.935  1.00  0.00    -0.294 OA
BRANCH  11  13
ATOM     13  C   UNL     1      68.585  66.834  31.890  1.00  0.00    -0.002 C 
ATOM     14  C   UNL     1      67.577  66.531  32.769  1.00  0.00    -0.069 C 
ATOM     15  C   UNL     1      67.648  66.951  34.221  1.00  0.00     0.039 C 
ATOM     16  C   UNL     1      66.361  65.733  32.357  1.00  0.00     0.039 C 
BRANCH  13  17
ATOM     17  C   UNL     1      69.829  67.554  32.387  1.00  0.00     0.066 CG0
ATOM     18  G   UNL     1      69.843  69.070  32.255  1.00  0.00     0.000 G0
ENDBRANCH  13  17
ENDBRANCH  11  13
ENDBRANCH  10  11
ENDBRANCH   1  10
TORSDOF 0
ENDMDL
MODEL 7
REMARK VINA RESULT:    -3.251      2.047      3.924
REMARK INTER + INTRA:          -4.467
REMARK INTER:                  -4.362
REMARK INTRA:                  -0.105
REMARK UNBOUND:                 0.115
REMARK SMILES CC1=CCC(=C(C)C)C(=O)CC(C)=CCC1
REMARK SMILES IDX 12 1 14 2 13 3 15 4 16 5 2 6 1 7 3 8 11 10 9 11 10 12 5 13
REMARK SMILES IDX 6 14 7 15 8 16 4 17
REMARK H PARENT
REMARK Flexibility Score: 60.00
ROOT
ATOM      1  C   UNL     1      67.320  67.248  27.635  1.00  0.00    -0.070 C 
ATOM      2  C   UNL     1      67.916  68.194  26.875  1.00  0.00    -0.027 C 
ATOM      3  C   UNL     1      66.120  66.548  27.043  1.00  0.00     0.039 C 
ENDROOT
BRANCH   2   4
ATOM      4  C   UNL     1      69.093  69.050  27.271  1.00  0.00     0.032 C 
BRANCH   4   5
ATOM      5  C   UNL     1      70.455  68.317  27.315  1.00  0.00     0.034 C 
BRANCH   5   6
ATOM      6  C   UNL     1      71.347  68.658  28.501  1.00  0.00    -0.077 C 
ATOM      7  C   UNL     1      71.911  70.057  28.570  1.00  0.00     0.039 C 
ATOM      8  C   UNL     1      71.633  67.821  29.536  1.00  0.00    -0.023 CG0
ATOM      9  G   UNL     1      71.347  66.335  29.697  1.00  0.00     0.000 G0
ENDBRANCH   5   6
ENDBRANCH   4   5
ENDBRANCH   2   4
BRANCH   1  10
ATOM     10  C   UNL     1      67.735  66.872  29.053  1.00  0.00     0.111 C 
BRANCH  10  11
ATOM     11  C   UNL     1      68.843  65.854  29.186  1.00  0.00     0.163 C 
ATOM     12  O   UNL     1      68.802  64.873  28.395  1.00  0.00    -0.294 OA
BRANCH  11  13
ATOM     13  C   UNL     1      69.953  65.949  30.205  1.00  0.00    -0.002 C 
ATOM     14  C   UNL     1      69.732  65.749  31.543  1.00  0.00    -0.069 C 
ATOM     15  C   UNL     1      70.828  65.968  32.563  1.00  0.00     0.039 C 
ATOM     16  C   UNL     1      68.403  65.265  32.077  1.00  0.00     0.039 C 
BRANCH  13  17
ATOM     17  C   UNL     1      71.341  66.342  29.720  1.00  0.00     0.066 CG0
ATOM     18  G   UNL     1      71.611  67.829  29.548  1.00  0.00     0.000 G0
ENDBRANCH  13  17
ENDBRANCH  11  13
ENDBRANCH  10  11
ENDBRANCH   1  10
TORSDOF 0
ENDMDL
MODEL 8
REMARK VINA RESULT:    -3.180      9.391     11.267
REMARK INTER + INTRA:          -4.367
REMARK INTER:                  -4.096
REMARK INTRA:                  -0.271
REMARK UNBOUND:                 0.115
REMARK SMILES CC1=CCC(=C(C)C)C(=O)CC(C)=CCC1
REMARK SMILES IDX 12 1 14 2 13 3 15 4 16 5 2 6 1 7 3 8 11 10 9 11 10 12 5 13
REMARK SMILES IDX 6 14 7 15 8 16 4 17
REMARK H PARENT
REMARK Flexibility Score: 60.00
ROOT
ATOM      1  C   UNL     1      66.867  66.822  39.837  1.00  0.00    -0.070 C 
ATOM      2  C   UNL     1      66.836  65.507  39.522  1.00  0.00    -0.027 C 
ATOM      3  C   UNL     1      65.747  67.348  40.701  1.00  0.00     0.039 C 
ENDROOT
BRANCH   2   4
ATOM      4  C   UNL     1      67.815  64.773  38.641  1.00  0.00     0.032 C 
BRANCH   4   5
ATOM      5  C   UNL     1      68.953  64.040  39.392  1.00  0.00     0.034 C 
BRANCH   5   6
ATOM      6  C   UNL     1      70.300  64.750  39.401  1.00  0.00    -0.077 C 
ATOM      7  C   UNL     1      71.262  64.437  38.281  1.00  0.00     0.039 C 
ATOM      8  C   UNL     1      70.686  65.691  40.307  1.00  0.00    -0.023 CG0
ATOM      9  G   UNL     1      70.026  66.120  41.608  1.00  0.00     0.000 G0
ENDBRANCH   5   6
ENDBRANCH   4   5
ENDBRANCH   2   4
BRANCH   1  10
ATOM     10  C   UNL     1      67.916  67.815  39.348  1.00  0.00     0.111 C 
BRANCH  10  11
ATOM     11  C   UNL     1      69.041  68.137  40.303  1.00  0.00     0.163 C 
ATOM     12  O   UNL     1      69.842  69.041  39.941  1.00  0.00    -0.294 OA
BRANCH  11  13
ATOM     13  C   UNL     1      69.250  67.433  41.622  1.00  0.00    -0.002 C 
ATOM     14  C   UNL     1      68.830  67.975  42.809  1.00  0.00    -0.069 C 
ATOM     15  C   UNL     1      69.155  67.317  44.133  1.00  0.00     0.039 C 
ATOM     16  C   UNL     1      67.992  69.232  42.871  1.00  0.00     0.039 C 
BRANCH  13  17
ATOM     17  C   UNL     1      70.006  66.114  41.620  1.00  0.00     0.066 CG0
ATOM     18  G   UNL     1      70.672  65.707  40.314  1.00  0.00     0.000 G0
ENDBRANCH  13  17
ENDBRANCH  11  13
ENDBRANCH  10  11
ENDBRANCH   1  10
TORSDOF 0
ENDMDL
MODEL 9
REMARK VINA RESULT:    -3.118      2.372      3.774
REMARK INTER + INTRA:          -4.280
REMARK INTER:                  -4.190
REMARK INTRA:                  -0.090
REMARK UNBOUND:                 0.115
REMARK SMILES CC1=CCC(=C(C)C)C(=O)CC(C)=CCC1
REMARK SMILES IDX 12 1 14 2 13 3 15 4 16 5 2 6 1 7 3 8 11 10 9 11 10 12 5 13
REMARK SMILES IDX 6 14 7 15 8 16 4 17
REMARK H PARENT
REMARK Flexibility Score: 60.00
ROOT
ATOM      1  C   UNL     1      67.444  66.792  32.496  1.00  0.00    -0.070 C 
ATOM      2  C   UNL     1      67.858  66.024  33.531  1.00  0.00    -0.027 C 
ATOM      3  C   UNL     1      66.585  66.126  31.448  1.00  0.00     0.039 C 
ENDROOT
BRANCH   2   4
ATOM      4  C   UNL     1      68.753  66.456  34.664  1.00  0.00     0.032 C 
BRANCH   4   5
ATOM      5  C   UNL     1      70.243  66.647  34.290  1.00  0.00     0.034 C 
BRANCH   5   6
ATOM      6  C   UNL     1      70.827  68.020  34.595  1.00  0.00    -0.077 C 
ATOM      7  C   UNL     1      70.913  68.436  36.044  1.00  0.00     0.039 C 
ATOM      8  C   UNL     1      71.333  68.882  33.670  1.00  0.00    -0.023 CG0
ATOM      9  G   UNL     1      71.270  68.830  32.151  1.00  0.00     0.000 G0
ENDBRANCH   5   6
ENDBRANCH   4   5
ENDBRANCH   2   4
BRANCH   1  10
ATOM     10  C   UNL     1      67.818  68.255  32.287  1.00  0.00     0.111 C 
BRANCH  10  11
ATOM     11  C   UNL     1      68.866  68.542  31.237  1.00  0.00     0.163 C 
ATOM     12  O   UNL     1      68.709  67.981  30.119  1.00  0.00    -0.294 OA
BRANCH  11  13
ATOM     13  C   UNL     1      70.063  69.432  31.467  1.00  0.00    -0.002 C 
ATOM     14  C   UNL     1      70.096  70.732  31.034  1.00  0.00    -0.069 C 
ATOM     15  C   UNL     1      71.349  71.573  31.164  1.00  0.00     0.039 C 
ATOM     16  C   UNL     1      68.887  71.415  30.438  1.00  0.00     0.039 C 
BRANCH  13  17
ATOM     17  C   UNL     1      71.284  68.832  32.148  1.00  0.00     0.066 CG0
ATOM     18  G   UNL     1      71.326  68.904  33.667  1.00  0.00     0.000 G0
ENDBRANCH  13  17
ENDBRANCH  11  13
ENDBRANCH  10  11
ENDBRANCH   1  10
TORSDOF 0
ENDMDL
