MODEL 1
REMARK VINA RESULT:    -6.198      0.000      0.000
REMARK INTER + INTRA:          -9.817
REMARK INTER:                  -8.915
REMARK INTRA:                  -0.902
REMARK UNBOUND:                -0.902
REMARK SMILES CC(C)=CCCC(C)=CCCC(C)=CCO
REMARK SMILES IDX 10 1 9 2 7 3 8 4 6 5 5 6 4 7 1 8 2 9 3 10 11 11 12 12 14 13
REMARK SMILES IDX 13 14 15 15 16 16
REMARK H PARENT 16 17
REMARK Flexibility Score: inf
ROOT
ATOM      1  C   UNL     1      41.377  -9.094  11.910  1.00  0.00     0.032 C 
ENDROOT
BRANCH   1   2
ATOM      2  C   UNL     1      41.927  -7.769  12.379  1.00  0.00    -0.028 C 
ATOM      3  C   UNL     1      41.930  -7.388  13.675  1.00  0.00    -0.077 C 
ATOM      4  C   UNL     1      41.378  -8.285  14.759  1.00  0.00     0.039 C 
BRANCH   3   5
ATOM      5  C   UNL     1      42.500  -6.038  14.049  1.00  0.00     0.034 C 
BRANCH   5   6
ATOM      6  C   UNL     1      41.899  -4.933  13.173  1.00  0.00     0.032 C 
BRANCH   6   7
ATOM      7  C   UNL     1      42.531  -3.599  13.489  1.00  0.00    -0.028 C 
ATOM      8  C   UNL     1      40.678  -2.290  12.428  1.00  0.00     0.039 C 
ATOM      9  C   UNL     1      41.983  -2.403  13.182  1.00  0.00    -0.080 C 
ATOM     10  C   UNL     1      42.714  -1.151  13.595  1.00  0.00     0.039 C 
ENDBRANCH   6   7
ENDBRANCH   5   6
ENDBRANCH   3   5
ENDBRANCH   1   2
BRANCH   1  11
ATOM     11  C   UNL     1      42.495 -10.010  11.398  1.00  0.00     0.034 C 
BRANCH  11  12
ATOM     12  C   UNL     1      43.066 -10.846  12.523  1.00  0.00    -0.075 C 
ATOM     13  C   UNL     1      42.233 -11.615  13.260  1.00  0.00    -0.000 C 
ATOM     14  C   UNL     1      44.551 -10.803  12.794  1.00  0.00     0.039 C 
BRANCH  13  15
ATOM     15  C   UNL     1      42.687 -12.493  14.398  1.00  0.00     0.183 C 
BRANCH  15  16
ATOM     16  O   UNL     1      42.155 -13.783  14.271  1.00  0.00    -0.392 OA
ATOM     17  H   UNL     1      41.169 -13.679  14.209  1.00  0.00     0.210 HD
ENDBRANCH  15  16
ENDBRANCH  13  15
ENDBRANCH  11  12
ENDBRANCH   1  11
TORSDOF 8
ENDMDL
MODEL 2
REMARK VINA RESULT:    -6.059      3.618      7.636
REMARK INTER + INTRA:          -9.618
REMARK INTER:                  -8.721
REMARK INTRA:                  -0.897
REMARK UNBOUND:                -0.902
REMARK SMILES CC(C)=CCCC(C)=CCCC(C)=CCO
REMARK SMILES IDX 10 1 9 2 7 3 8 4 6 5 5 6 4 7 1 8 2 9 3 10 11 11 12 12 14 13
REMARK SMILES IDX 13 14 15 15 16 16
REMARK H PARENT 16 17
REMARK Flexibility Score: inf
ROOT
ATOM      1  C   UNL     1      42.759  -5.091  14.287  1.00  0.00     0.032 C 
ENDROOT
BRANCH   1   2
ATOM      2  C   UNL     1      42.696  -6.586  14.487  1.00  0.00    -0.028 C 
ATOM      3  C   UNL     1      42.564  -7.162  15.702  1.00  0.00    -0.077 C 
ATOM      4  C   UNL     1      42.463  -6.332  16.960  1.00  0.00     0.039 C 
BRANCH   3   5
ATOM      5  C   UNL     1      42.513  -8.671  15.804  1.00  0.00     0.034 C 
BRANCH   5   6
ATOM      6  C   UNL     1      41.651  -9.264  14.684  1.00  0.00     0.032 C 
BRANCH   6   7
ATOM      7  C   UNL     1      42.375 -10.395  13.996  1.00  0.00    -0.028 C 
ATOM      8  C   UNL     1      42.630  -9.138  11.846  1.00  0.00     0.039 C 
ATOM      9  C   UNL     1      42.842 -10.345  12.729  1.00  0.00    -0.080 C 
ATOM     10  C   UNL     1      43.580 -11.542  12.188  1.00  0.00     0.039 C 
ENDBRANCH   6   7
ENDBRANCH   5   6
ENDBRANCH   3   5
ENDBRANCH   1   2
BRANCH   1  11
ATOM     11  C   UNL     1      41.747  -4.628  13.234  1.00  0.00     0.034 C 
BRANCH  11  12
ATOM     12  C   UNL     1      41.493  -3.139  13.346  1.00  0.00    -0.075 C 
ATOM     13  C   UNL     1      42.172  -2.424  14.271  1.00  0.00    -0.000 C 
ATOM     14  C   UNL     1      40.491  -2.489  12.422  1.00  0.00     0.039 C 
BRANCH  13  15
ATOM     15  C   UNL     1      42.009  -0.939  14.470  1.00  0.00     0.183 C 
BRANCH  15  16
ATOM     16  O   UNL     1      43.049  -0.238  13.845  1.00  0.00    -0.392 OA
ATOM     17  H   UNL     1      43.739  -0.072  14.540  1.00  0.00     0.210 HD
ENDBRANCH  15  16
ENDBRANCH  13  15
ENDBRANCH  11  12
ENDBRANCH   1  11
TORSDOF 8
ENDMDL
MODEL 3
REMARK VINA RESULT:    -5.903      1.956      2.649
REMARK INTER + INTRA:          -9.394
REMARK INTER:                  -8.066
REMARK INTRA:                  -1.328
REMARK UNBOUND:                -0.902
REMARK SMILES CC(C)=CCCC(C)=CCCC(C)=CCO
REMARK SMILES IDX 10 1 9 2 7 3 8 4 6 5 5 6 4 7 1 8 2 9 3 10 11 11 12 12 14 13
REMARK SMILES IDX 13 14 15 15 16 16
REMARK H PARENT 16 17
REMARK Flexibility Score: inf
ROOT
ATOM      1  C   UNL     1      43.754  -9.442  12.845  1.00  0.00     0.032 C 
ENDROOT
BRANCH   1   2
ATOM      2  C   UNL     1      43.404  -8.136  13.518  1.00  0.00    -0.028 C 
ATOM      3  C   UNL     1      42.420  -8.019  14.435  1.00  0.00    -0.077 C 
ATOM      4  C   UNL     1      41.594  -9.211  14.859  1.00  0.00     0.039 C 
BRANCH   3   5
ATOM      5  C   UNL     1      42.140  -6.667  15.053  1.00  0.00     0.034 C 
BRANCH   5   6
ATOM      6  C   UNL     1      43.046  -5.592  14.443  1.00  0.00     0.032 C 
BRANCH   6   7
ATOM      7  C   UNL     1      42.286  -4.304  14.240  1.00  0.00    -0.028 C 
ATOM      8  C   UNL     1      41.654  -4.862  11.882  1.00  0.00     0.039 C 
ATOM      9  C   UNL     1      41.635  -3.973  13.103  1.00  0.00    -0.080 C 
ATOM     10  C   UNL     1      40.885  -2.667  13.061  1.00  0.00     0.039 C 
ENDBRANCH   6   7
ENDBRANCH   5   6
ENDBRANCH   3   5
ENDBRANCH   1   2
BRANCH   1  11
ATOM     11  C   UNL     1      43.575  -9.350  11.326  1.00  0.00     0.034 C 
BRANCH  11  12
ATOM     12  C   UNL     1      42.110  -9.413  10.949  1.00  0.00    -0.075 C 
ATOM     13  C   UNL     1      41.367 -10.461  11.370  1.00  0.00    -0.000 C 
ATOM     14  C   UNL     1      41.513  -8.305  10.115  1.00  0.00     0.039 C 
BRANCH  13  15
ATOM     15  C   UNL     1      39.901 -10.628  11.064  1.00  0.00     0.183 C 
BRANCH  15  16
ATOM     16  O   UNL     1      39.226 -11.185  12.160  1.00  0.00    -0.392 OA
ATOM     17  H   UNL     1      38.719 -11.966  11.815  1.00  0.00     0.210 HD
ENDBRANCH  15  16
ENDBRANCH  13  15
ENDBRANCH  11  12
ENDBRANCH   1  11
TORSDOF 8
ENDMDL
MODEL 4
REMARK VINA RESULT:    -5.877      3.694      7.525
REMARK INTER + INTRA:          -9.356
REMARK INTER:                  -8.511
REMARK INTRA:                  -0.844
REMARK UNBOUND:                -0.902
REMARK SMILES CC(C)=CCCC(C)=CCCC(C)=CCO
REMARK SMILES IDX 10 1 9 2 7 3 8 4 6 5 5 6 4 7 1 8 2 9 3 10 11 11 12 12 14 13
REMARK SMILES IDX 13 14 15 15 16 16
REMARK H PARENT 16 17
REMARK Flexibility Score: inf
ROOT
ATOM      1  C   UNL     1      42.277  -5.194  13.829  1.00  0.00     0.032 C 
ENDROOT
BRANCH   1   2
ATOM      2  C   UNL     1      41.950  -6.665  13.746  1.00  0.00    -0.028 C 
ATOM      3  C   UNL     1      41.926  -7.478  14.825  1.00  0.00    -0.077 C 
ATOM      4  C   UNL     1      42.226  -6.955  16.210  1.00  0.00     0.039 C 
BRANCH   3   5
ATOM      5  C   UNL     1      41.591  -8.942  14.642  1.00  0.00     0.034 C 
BRANCH   5   6
ATOM      6  C   UNL     1      42.393  -9.543  13.483  1.00  0.00     0.032 C 
BRANCH   6   7
ATOM      7  C   UNL     1      41.470 -10.101  12.428  1.00  0.00    -0.028 C 
ATOM      8  C   UNL     1      42.429  -8.674  10.607  1.00  0.00     0.039 C 
ATOM      9  C   UNL     1      41.490  -9.738  11.126  1.00  0.00    -0.080 C 
ATOM     10  C   UNL     1      40.531 -10.410  10.178  1.00  0.00     0.039 C 
ENDBRANCH   6   7
ENDBRANCH   5   6
ENDBRANCH   3   5
ENDBRANCH   1   2
BRANCH   1  11
ATOM     11  C   UNL     1      41.507  -4.393  12.774  1.00  0.00     0.034 C 
BRANCH  11  12
ATOM     12  C   UNL     1      41.412  -2.933  13.167  1.00  0.00    -0.075 C 
ATOM     13  C   UNL     1      42.210  -2.464  14.152  1.00  0.00    -0.000 C 
ATOM     14  C   UNL     1      40.432  -2.037  12.449  1.00  0.00     0.039 C 
BRANCH  13  15
ATOM     15  C   UNL     1      42.210  -1.032  14.623  1.00  0.00     0.183 C 
BRANCH  15  16
ATOM     16  O   UNL     1      43.114  -0.265  13.876  1.00  0.00    -0.392 OA
ATOM     17  H   UNL     1      42.684   0.618  13.729  1.00  0.00     0.210 HD
ENDBRANCH  15  16
ENDBRANCH  13  15
ENDBRANCH  11  12
ENDBRANCH   1  11
TORSDOF 8
ENDMDL
MODEL 5
REMARK VINA RESULT:    -5.823      3.791      7.663
REMARK INTER + INTRA:          -9.279
REMARK INTER:                  -8.094
REMARK INTRA:                  -1.185
REMARK UNBOUND:                -0.902
REMARK SMILES CC(C)=CCCC(C)=CCCC(C)=CCO
REMARK SMILES IDX 10 1 9 2 7 3 8 4 6 5 5 6 4 7 1 8 2 9 3 10 11 11 12 12 14 13
REMARK SMILES IDX 13 14 15 15 16 16
REMARK H PARENT 16 17
REMARK Flexibility Score: inf
ROOT
ATOM      1  C   UNL     1      42.011  -4.598  11.592  1.00  0.00     0.032 C 
ENDROOT
BRANCH   1   2
ATOM      2  C   UNL     1      41.705  -5.861  12.360  1.00  0.00    -0.028 C 
ATOM      3  C   UNL     1      42.110  -6.067  13.633  1.00  0.00    -0.077 C 
ATOM      4  C   UNL     1      42.903  -5.024  14.385  1.00  0.00     0.039 C 
BRANCH   3   5
ATOM      5  C   UNL     1      41.759  -7.368  14.320  1.00  0.00     0.034 C 
BRANCH   5   6
ATOM      6  C   UNL     1      42.479  -8.547  13.653  1.00  0.00     0.032 C 
BRANCH   6   7
ATOM      7  C   UNL     1      41.508  -9.661  13.348  1.00  0.00    -0.028 C 
ATOM      8  C   UNL     1      41.540  -9.228  10.881  1.00  0.00     0.039 C 
ATOM      9  C   UNL     1      41.096  -9.995  12.105  1.00  0.00    -0.080 C 
ATOM     10  C   UNL     1      40.151 -11.159  11.951  1.00  0.00     0.039 C 
ENDBRANCH   6   7
ENDBRANCH   5   6
ENDBRANCH   3   5
ENDBRANCH   1   2
BRANCH   1  11
ATOM     11  C   UNL     1      40.770  -3.706  11.475  1.00  0.00     0.034 C 
BRANCH  11  12
ATOM     12  C   UNL     1      40.714  -2.706  12.611  1.00  0.00    -0.075 C 
ATOM     13  C   UNL     1      41.763  -1.878  12.811  1.00  0.00    -0.000 C 
ATOM     14  C   UNL     1      39.488  -2.658  13.492  1.00  0.00     0.039 C 
BRANCH  13  15
ATOM     15  C   UNL     1      41.818  -0.840  13.903  1.00  0.00     0.183 C 
BRANCH  15  16
ATOM     16  O   UNL     1      43.032  -0.140  13.861  1.00  0.00    -0.392 OA
ATOM     17  H   UNL     1      42.808   0.824  13.946  1.00  0.00     0.210 HD
ENDBRANCH  15  16
ENDBRANCH  13  15
ENDBRANCH  11  12
ENDBRANCH   1  11
TORSDOF 8
ENDMDL
MODEL 6
REMARK VINA RESULT:    -5.813      3.727      7.698
REMARK INTER + INTRA:          -9.264
REMARK INTER:                  -8.297
REMARK INTRA:                  -0.966
REMARK UNBOUND:                -0.902
REMARK SMILES CC(C)=CCCC(C)=CCCC(C)=CCO
REMARK SMILES IDX 10 1 9 2 7 3 8 4 6 5 5 6 4 7 1 8 2 9 3 10 11 11 12 12 14 13
REMARK SMILES IDX 13 14 15 15 16 16
REMARK H PARENT 16 17
REMARK Flexibility Score: inf
ROOT
ATOM      1  C   UNL     1      41.127  -5.233  10.201  1.00  0.00     0.032 C 
ENDROOT
BRANCH   1   2
ATOM      2  C   UNL     1      41.759  -6.571   9.902  1.00  0.00    -0.028 C 
ATOM      3  C   UNL     1      42.130  -7.443  10.865  1.00  0.00    -0.077 C 
ATOM      4  C   UNL     1      41.926  -7.131  12.329  1.00  0.00     0.039 C 
BRANCH   3   5
ATOM      5  C   UNL     1      42.760  -8.760  10.469  1.00  0.00     0.034 C 
BRANCH   5   6
ATOM      6  C   UNL     1      43.569  -9.348  11.630  1.00  0.00     0.032 C 
BRANCH   6   7
ATOM      7  C   UNL     1      43.026 -10.698  12.029  1.00  0.00    -0.028 C 
ATOM      8  C   UNL     1      42.788 -10.068  14.442  1.00  0.00     0.039 C 
ATOM      9  C   UNL     1      42.648 -11.029  13.284  1.00  0.00    -0.080 C 
ATOM     10  C   UNL     1      42.087 -12.407  13.525  1.00  0.00     0.039 C 
ENDBRANCH   6   7
ENDBRANCH   5   6
ENDBRANCH   3   5
ENDBRANCH   1   2
BRANCH   1  11
ATOM     11  C   UNL     1      42.185  -4.129  10.304  1.00  0.00     0.034 C 
BRANCH  11  12
ATOM     12  C   UNL     1      41.994  -3.313  11.565  1.00  0.00    -0.075 C 
ATOM     13  C   UNL     1      43.076  -2.774  12.170  1.00  0.00    -0.000 C 
ATOM     14  C   UNL     1      40.601  -3.121  12.116  1.00  0.00     0.039 C 
BRANCH  13  15
ATOM     15  C   UNL     1      43.009  -1.939  13.423  1.00  0.00     0.183 C 
BRANCH  15  16
ATOM     16  O   UNL     1      43.358  -0.609  13.152  1.00  0.00    -0.392 OA
ATOM     17  H   UNL     1      43.995  -0.631  12.391  1.00  0.00     0.210 HD
ENDBRANCH  15  16
ENDBRANCH  13  15
ENDBRANCH  11  12
ENDBRANCH   1  11
TORSDOF 8
ENDMDL
MODEL 7
REMARK VINA RESULT:    -5.780      3.274      7.310
REMARK INTER + INTRA:          -9.217
REMARK INTER:                  -8.242
REMARK INTRA:                  -0.976
REMARK UNBOUND:                -0.902
REMARK SMILES CC(C)=CCCC(C)=CCCC(C)=CCO
REMARK SMILES IDX 10 1 9 2 7 3 8 4 6 5 5 6 4 7 1 8 2 9 3 10 11 11 12 12 14 13
REMARK SMILES IDX 13 14 15 15 16 16
REMARK H PARENT 16 17
REMARK Flexibility Score: inf
ROOT
ATOM      1  C   UNL     1      41.109  -6.098  10.056  1.00  0.00     0.032 C 
ENDROOT
BRANCH   1   2
ATOM      2  C   UNL     1      41.901  -7.383  10.051  1.00  0.00    -0.028 C 
ATOM      3  C   UNL     1      42.292  -8.013  11.181  1.00  0.00    -0.077 C 
ATOM      4  C   UNL     1      41.950  -7.464  12.546  1.00  0.00     0.039 C 
BRANCH   3   5
ATOM      5  C   UNL     1      43.086  -9.296  11.076  1.00  0.00     0.034 C 
BRANCH   5   6
ATOM      6  C   UNL     1      43.885  -9.547  12.359  1.00  0.00     0.032 C 
BRANCH   6   7
ATOM      7  C   UNL     1      43.692 -10.965  12.840  1.00  0.00    -0.028 C 
ATOM      8  C   UNL     1      42.302 -10.278  14.806  1.00  0.00     0.039 C 
ATOM      9  C   UNL     1      42.963 -11.311  13.924  1.00  0.00    -0.080 C 
ATOM     10  C   UNL     1      42.827 -12.774  14.260  1.00  0.00     0.039 C 
ENDBRANCH   6   7
ENDBRANCH   5   6
ENDBRANCH   3   5
ENDBRANCH   1   2
BRANCH   1  11
ATOM     11  C   UNL     1      42.028  -4.878   9.933  1.00  0.00     0.034 C 
BRANCH  11  12
ATOM     12  C   UNL     1      41.748  -3.877  11.034  1.00  0.00    -0.075 C 
ATOM     13  C   UNL     1      40.583  -3.957  11.715  1.00  0.00    -0.000 C 
ATOM     14  C   UNL     1      42.775  -2.815  11.346  1.00  0.00     0.039 C 
BRANCH  13  15
ATOM     15  C   UNL     1      40.198  -3.023  12.834  1.00  0.00     0.183 C 
BRANCH  15  16
ATOM     16  O   UNL     1      38.894  -3.290  13.276  1.00  0.00    -0.392 OA
ATOM     17  H   UNL     1      38.792  -2.833  14.151  1.00  0.00     0.210 HD
ENDBRANCH  15  16
ENDBRANCH  13  15
ENDBRANCH  11  12
ENDBRANCH   1  11
TORSDOF 8
ENDMDL
MODEL 8
REMARK VINA RESULT:    -5.735      3.506      7.760
REMARK INTER + INTRA:          -9.151
REMARK INTER:                  -8.122
REMARK INTRA:                  -1.030
REMARK UNBOUND:                -0.902
REMARK SMILES CC(C)=CCCC(C)=CCCC(C)=CCO
REMARK SMILES IDX 10 1 9 2 7 3 8 4 6 5 5 6 4 7 1 8 2 9 3 10 11 11 12 12 14 13
REMARK SMILES IDX 13 14 15 15 16 16
REMARK H PARENT 16 17
REMARK Flexibility Score: inf
ROOT
ATOM      1  C   UNL     1      41.602  -6.193  13.227  1.00  0.00     0.032 C 
ENDROOT
BRANCH   1   2
ATOM      2  C   UNL     1      42.256  -7.508  12.876  1.00  0.00    -0.028 C 
ATOM      3  C   UNL     1      42.361  -7.965  11.609  1.00  0.00    -0.077 C 
ATOM      4  C   UNL     1      41.826  -7.172  10.440  1.00  0.00     0.039 C 
BRANCH   3   5
ATOM      5  C   UNL     1      43.030  -9.298  11.356  1.00  0.00     0.034 C 
BRANCH   5   6
ATOM      6  C   UNL     1      43.883  -9.716  12.558  1.00  0.00     0.032 C 
BRANCH   6   7
ATOM      7  C   UNL     1      43.616 -11.154  12.929  1.00  0.00    -0.028 C 
ATOM      8  C   UNL     1      42.326 -10.550  14.989  1.00  0.00     0.039 C 
ATOM      9  C   UNL     1      42.897 -11.544  14.005  1.00  0.00    -0.080 C 
ATOM     10  C   UNL     1      42.681 -13.019  14.227  1.00  0.00     0.039 C 
ENDBRANCH   6   7
ENDBRANCH   5   6
ENDBRANCH   3   5
ENDBRANCH   1   2
BRANCH   1  11
ATOM     11  C   UNL     1      42.637  -5.167  13.702  1.00  0.00     0.034 C 
BRANCH  11  12
ATOM     12  C   UNL     1      42.328  -3.792  13.150  1.00  0.00    -0.075 C 
ATOM     13  C   UNL     1      42.438  -2.717  13.962  1.00  0.00    -0.000 C 
ATOM     14  C   UNL     1      41.907  -3.654  11.706  1.00  0.00     0.039 C 
BRANCH  13  15
ATOM     15  C   UNL     1      42.163  -1.301  13.523  1.00  0.00     0.183 C 
BRANCH  15  16
ATOM     16  O   UNL     1      43.360  -0.636  13.220  1.00  0.00    -0.392 OA
ATOM     17  H   UNL     1      44.095  -1.189  13.593  1.00  0.00     0.210 HD
ENDBRANCH  15  16
ENDBRANCH  13  15
ENDBRANCH  11  12
ENDBRANCH   1  11
TORSDOF 8
ENDMDL
