MODEL 1
REMARK VINA RESULT:    -4.137      0.000      0.000
REMARK INTER + INTRA:          -4.396
REMARK INTER:                  -4.379
REMARK INTRA:                  -0.017
REMARK UNBOUND:                -0.017
REMARK SMILES O=C([O-])c1cccnc1
REMARK SMILES IDX 4 1 5 2 9 3 6 4 8 5 7 6 2 7 1 8 3 9
REMARK H PARENT
REMARK Flexibility Score: inf
ROOT
ATOM      1  C   UNL     1      38.800  18.205  11.506  1.00  0.00     0.016 A 
ATOM      2  C   UNL     1      40.097  18.186  12.043  1.00  0.00     0.013 A 
ATOM      3  C   UNL     1      38.643  18.551  10.153  1.00  0.00     0.120 A 
ATOM      4  C   UNL     1      41.194  18.506  11.240  1.00  0.00     0.021 A 
ATOM      5  N   UNL     1      39.728  18.857   9.392  1.00  0.00    -0.264 NA
ATOM      6  C   UNL     1      40.987  18.841   9.903  1.00  0.00     0.111 A 
ENDROOT
BRANCH   1   7
ATOM      7  C   UNL     1      37.625  17.870  12.339  1.00  0.00     0.073 C 
ATOM      8  O   UNL     1      36.920  16.860  12.075  1.00  0.00    -0.545 OA
ATOM      9  O   UNL     1      37.283  18.666  13.427  1.00  0.00    -0.545 OA
ENDBRANCH   1   7
TORSDOF 1
ENDMDL
MODEL 2
REMARK VINA RESULT:    -4.136      8.586      9.622
REMARK INTER + INTRA:          -4.395
REMARK INTER:                  -4.376
REMARK INTRA:                  -0.019
REMARK UNBOUND:                -0.017
REMARK SMILES O=C([O-])c1cccnc1
REMARK SMILES IDX 4 1 5 2 9 3 6 4 8 5 7 6 2 7 1 8 3 9
REMARK H PARENT
REMARK Flexibility Score: inf
ROOT
ATOM      1  C   UNL     1      32.220  13.256  15.851  1.00  0.00     0.016 A 
ATOM      2  C   UNL     1      33.474  13.166  15.225  1.00  0.00     0.013 A 
ATOM      3  C   UNL     1      32.016  14.277  16.795  1.00  0.00     0.120 A 
ATOM      4  C   UNL     1      34.484  14.076  15.545  1.00  0.00     0.021 A 
ATOM      5  N   UNL     1      33.017  15.150  17.088  1.00  0.00    -0.264 NA
ATOM      6  C   UNL     1      34.233  15.072  16.488  1.00  0.00     0.111 A 
ENDROOT
BRANCH   1   7
ATOM      7  C   UNL     1      31.137  12.303  15.527  1.00  0.00     0.073 C 
ATOM      8  O   UNL     1      30.455  11.772  16.445  1.00  0.00    -0.545 OA
ATOM      9  O   UNL     1      30.855  11.979  14.204  1.00  0.00    -0.545 OA
ENDBRANCH   1   7
TORSDOF 1
ENDMDL
MODEL 3
REMARK VINA RESULT:    -4.099      0.962      1.960
REMARK INTER + INTRA:          -4.356
REMARK INTER:                  -4.337
REMARK INTRA:                  -0.018
REMARK UNBOUND:                -0.017
REMARK SMILES O=C([O-])c1cccnc1
REMARK SMILES IDX 4 1 5 2 9 3 6 4 8 5 7 6 2 7 1 8 3 9
REMARK H PARENT
REMARK Flexibility Score: inf
ROOT
ATOM      1  C   UNL     1      38.504  18.255  11.701  1.00  0.00     0.016 A 
ATOM      2  C   UNL     1      38.387  18.491  10.321  1.00  0.00     0.013 A 
ATOM      3  C   UNL     1      39.789  18.241  12.269  1.00  0.00     0.120 A 
ATOM      4  C   UNL     1      39.529  18.704   9.547  1.00  0.00     0.021 A 
ATOM      5  N   UNL     1      40.885  18.453  11.493  1.00  0.00    -0.264 NA
ATOM      6  C   UNL     1      40.783  18.682  10.157  1.00  0.00     0.111 A 
ENDROOT
BRANCH   1   7
ATOM      7  C   UNL     1      37.308  18.026  12.539  1.00  0.00     0.073 C 
ATOM      8  O   UNL     1      37.098  18.732  13.562  1.00  0.00    -0.545 OA
ATOM      9  O   UNL     1      36.396  17.029  12.208  1.00  0.00    -0.545 OA
ENDBRANCH   1   7
TORSDOF 1
ENDMDL
MODEL 4
REMARK VINA RESULT:    -4.098      8.283      9.340
REMARK INTER + INTRA:          -4.354
REMARK INTER:                  -4.338
REMARK INTRA:                  -0.016
REMARK UNBOUND:                -0.017
REMARK SMILES O=C([O-])c1cccnc1
REMARK SMILES IDX 4 1 5 2 9 3 6 4 8 5 7 6 2 7 1 8 3 9
REMARK H PARENT
REMARK Flexibility Score: inf
ROOT
ATOM      1  C   UNL     1      31.965  13.214  15.077  1.00  0.00     0.016 A 
ATOM      2  C   UNL     1      33.316  12.923  15.330  1.00  0.00     0.013 A 
ATOM      3  C   UNL     1      31.605  14.550  14.831  1.00  0.00     0.120 A 
ATOM      4  C   UNL     1      34.264  13.947  15.335  1.00  0.00     0.021 A 
ATOM      5  N   UNL     1      32.549  15.528  14.841  1.00  0.00    -0.264 NA
ATOM      6  C   UNL     1      33.858  15.257  15.084  1.00  0.00     0.111 A 
ENDROOT
BRANCH   1   7
ATOM      7  C   UNL     1      30.944  12.144  15.067  1.00  0.00     0.073 C 
ATOM      8  O   UNL     1      30.596  11.601  13.985  1.00  0.00    -0.545 OA
ATOM      9  O   UNL     1      30.354  11.723  16.254  1.00  0.00    -0.545 OA
ENDBRANCH   1   7
TORSDOF 1
ENDMDL
MODEL 5
REMARK VINA RESULT:    -4.081      2.775      3.917
REMARK INTER + INTRA:          -4.336
REMARK INTER:                  -4.315
REMARK INTRA:                  -0.021
REMARK UNBOUND:                -0.017
REMARK SMILES O=C([O-])c1cccnc1
REMARK SMILES IDX 4 1 5 2 9 3 6 4 8 5 7 6 2 7 1 8 3 9
REMARK H PARENT
REMARK Flexibility Score: inf
ROOT
ATOM      1  C   UNL     1      37.793  18.213  11.182  1.00  0.00     0.016 A 
ATOM      2  C   UNL     1      37.992  18.458  12.551  1.00  0.00     0.013 A 
ATOM      3  C   UNL     1      36.479  18.244  10.683  1.00  0.00     0.120 A 
ATOM      4  C   UNL     1      36.902  18.723  13.382  1.00  0.00     0.021 A 
ATOM      5  N   UNL     1      35.435  18.505  11.514  1.00  0.00    -0.264 NA
ATOM      6  C   UNL     1      35.617  18.743  12.839  1.00  0.00     0.111 A 
ENDROOT
BRANCH   1   7
ATOM      7  C   UNL     1      38.933  17.930  10.285  1.00  0.00     0.073 C 
ATOM      8  O   UNL     1      40.037  18.516  10.449  1.00  0.00    -0.545 OA
ATOM      9  O   UNL     1      38.803  17.013   9.248  1.00  0.00    -0.545 OA
ENDBRANCH   1   7
TORSDOF 1
ENDMDL
MODEL 6
REMARK VINA RESULT:    -4.037      2.688      3.430
REMARK INTER + INTRA:          -4.290
REMARK INTER:                  -4.274
REMARK INTRA:                  -0.016
REMARK UNBOUND:                -0.017
REMARK SMILES O=C([O-])c1cccnc1
REMARK SMILES IDX 4 1 5 2 9 3 6 4 8 5 7 6 2 7 1 8 3 9
REMARK H PARENT
REMARK Flexibility Score: inf
ROOT
ATOM      1  C   UNL     1      35.709  18.807  12.033  1.00  0.00     0.016 A 
ATOM      2  C   UNL     1      36.646  18.791  13.079  1.00  0.00     0.013 A 
ATOM      3  C   UNL     1      36.129  18.405  10.754  1.00  0.00     0.120 A 
ATOM      4  C   UNL     1      37.959  18.384  12.838  1.00  0.00     0.021 A 
ATOM      5  N   UNL     1      37.415  18.013  10.546  1.00  0.00    -0.264 NA
ATOM      6  C   UNL     1      38.328  17.993  11.552  1.00  0.00     0.111 A 
ENDROOT
BRANCH   1   7
ATOM      7  C   UNL     1      34.313  19.235  12.267  1.00  0.00     0.073 C 
ATOM      8  O   UNL     1      33.470  18.434  12.754  1.00  0.00    -0.545 OA
ATOM      9  O   UNL     1      33.911  20.529  11.954  1.00  0.00    -0.545 OA
ENDBRANCH   1   7
TORSDOF 1
ENDMDL
MODEL 7
REMARK VINA RESULT:    -4.023      8.436      9.578
REMARK INTER + INTRA:          -4.276
REMARK INTER:                  -4.257
REMARK INTRA:                  -0.019
REMARK UNBOUND:                -0.017
REMARK SMILES O=C([O-])c1cccnc1
REMARK SMILES IDX 4 1 5 2 9 3 6 4 8 5 7 6 2 7 1 8 3 9
REMARK H PARENT
REMARK Flexibility Score: inf
ROOT
ATOM      1  C   UNL     1      32.661  13.659  15.396  1.00  0.00     0.016 A 
ATOM      2  C   UNL     1      32.557  12.260  15.330  1.00  0.00     0.013 A 
ATOM      3  C   UNL     1      31.619  14.432  14.855  1.00  0.00     0.120 A 
ATOM      4  C   UNL     1      31.440  11.667  14.738  1.00  0.00     0.021 A 
ATOM      5  N   UNL     1      30.542  13.830  14.285  1.00  0.00    -0.264 NA
ATOM      6  C   UNL     1      30.431  12.477  14.217  1.00  0.00     0.111 A 
ENDROOT
BRANCH   1   7
ATOM      7  C   UNL     1      33.835  14.307  16.018  1.00  0.00     0.073 C 
ATOM      8  O   UNL     1      35.003  13.993  15.663  1.00  0.00    -0.545 OA
ATOM      9  O   UNL     1      33.666  15.273  17.004  1.00  0.00    -0.545 OA
ENDBRANCH   1   7
TORSDOF 1
ENDMDL
MODEL 8
REMARK VINA RESULT:    -3.945      2.874      4.091
REMARK INTER + INTRA:          -4.193
REMARK INTER:                  -4.176
REMARK INTRA:                  -0.017
REMARK UNBOUND:                -0.017
REMARK SMILES O=C([O-])c1cccnc1
REMARK SMILES IDX 4 1 5 2 9 3 6 4 8 5 7 6 2 7 1 8 3 9
REMARK H PARENT
REMARK Flexibility Score: inf
ROOT
ATOM      1  C   UNL     1      37.791  18.308  10.852  1.00  0.00     0.016 A 
ATOM      2  C   UNL     1      36.400  18.349  10.658  1.00  0.00     0.013 A 
ATOM      3  C   UNL     1      38.284  18.387  12.165  1.00  0.00     0.120 A 
ATOM      4  C   UNL     1      35.543  18.467  11.753  1.00  0.00     0.021 A 
ATOM      5  N   UNL     1      37.427  18.501  13.215  1.00  0.00    -0.264 NA
ATOM      6  C   UNL     1      36.080  18.541  13.037  1.00  0.00     0.111 A 
ENDROOT
BRANCH   1   7
ATOM      7  C   UNL     1      38.717  18.184   9.706  1.00  0.00     0.073 C 
ATOM      8  O   UNL     1      38.850  17.083   9.107  1.00  0.00    -0.545 OA
ATOM      9  O   UNL     1      39.453  19.281   9.273  1.00  0.00    -0.545 OA
ENDBRANCH   1   7
TORSDOF 1
ENDMDL
MODEL 9
REMARK VINA RESULT:    -3.937      2.439      3.390
REMARK INTER + INTRA:          -4.184
REMARK INTER:                  -4.168
REMARK INTRA:                  -0.016
REMARK UNBOUND:                -0.017
REMARK SMILES O=C([O-])c1cccnc1
REMARK SMILES IDX 4 1 5 2 9 3 6 4 8 5 7 6 2 7 1 8 3 9
REMARK H PARENT
REMARK Flexibility Score: inf
ROOT
ATOM      1  C   UNL     1      36.091  18.441  12.038  1.00  0.00     0.016 A 
ATOM      2  C   UNL     1      36.479  18.226  10.706  1.00  0.00     0.013 A 
ATOM      3  C   UNL     1      37.093  18.536  13.019  1.00  0.00     0.120 A 
ATOM      4  C   UNL     1      37.831  18.112  10.379  1.00  0.00     0.021 A 
ATOM      5  N   UNL     1      38.404  18.422  12.673  1.00  0.00    -0.264 NA
ATOM      6  C   UNL     1      38.789  18.215  11.387  1.00  0.00     0.111 A 
ENDROOT
BRANCH   1   7
ATOM      7  C   UNL     1      34.664  18.564  12.406  1.00  0.00     0.073 C 
ATOM      8  O   UNL     1      34.053  19.655  12.244  1.00  0.00    -0.545 OA
ATOM      9  O   UNL     1      33.976  17.477  12.935  1.00  0.00    -0.545 OA
ENDBRANCH   1   7
TORSDOF 1
ENDMDL
