MODEL 1
REMARK VINA RESULT:    -5.358      0.000      0.000
REMARK INTER + INTRA:          -5.921
REMARK INTER:                  -5.671
REMARK INTRA:                  -0.250
REMARK UNBOUND:                -0.250
REMARK SMILES CC1=CC[C@]23[C@H]([C@@H](C(C)C)CC[C@@H]2C)[C@@H]13
REMARK SMILES IDX 14 1 13 2 12 3 11 4 7 5 6 6 5 7 15 8 2 9 3 10 4 11 1 12 8 13
REMARK SMILES IDX 9 14 10 15
REMARK H PARENT
REMARK Flexibility Score: inf
ROOT
ATOM      1  C   UNL     1     140.455 139.339 129.992  1.00  0.00     0.008 C 
ATOM      2  C   UNL     1     139.939 138.300 131.002  1.00  0.00    -0.007 C 
ATOM      3  C   UNL     1     141.130 137.474 131.511  1.00  0.00     0.004 C 
ATOM      4  C   UNL     1     140.688 136.444 132.543  1.00  0.00     0.004 C 
ATOM      5  C   UNL     1     140.212 137.120 133.849  1.00  0.00    -0.004 C 
ATOM      6  C   UNL     1     139.299 138.352 133.602  1.00  0.00     0.007 C 
ATOM      7  C   UNL     1     139.154 138.945 132.188  1.00  0.00    -0.013 C 
ATOM      8  C   UNL     1     138.048 138.061 132.782  1.00  0.00     0.025 C 
ATOM      9  C   UNL     1     136.905 138.984 133.018  1.00  0.00    -0.073 C 
ATOM     10  C   UNL     1     137.167 140.228 132.648  1.00  0.00    -0.027 C 
ATOM     11  C   UNL     1     138.544 140.364 132.093  1.00  0.00     0.035 C 
ATOM     12  C   UNL     1     135.608 138.559 133.634  1.00  0.00     0.039 C 
ENDROOT
BRANCH   5  13
ATOM     13  C   UNL     1     139.533 136.097 134.815  1.00  0.00    -0.014 C 
ATOM     14  C   UNL     1     140.507 135.594 135.897  1.00  0.00     0.007 C 
ATOM     15  C   UNL     1     138.960 134.885 134.059  1.00  0.00     0.007 C 
ENDBRANCH   5  13
TORSDOF 1
ENDMDL
MODEL 2
REMARK VINA RESULT:    -5.334      2.796      4.646
REMARK INTER + INTRA:          -5.895
REMARK INTER:                  -5.633
REMARK INTRA:                  -0.262
REMARK UNBOUND:                -0.250
REMARK SMILES CC1=CC[C@]23[C@H]([C@@H](C(C)C)CC[C@@H]2C)[C@@H]13
REMARK SMILES IDX 14 1 13 2 12 3 11 4 7 5 6 6 5 7 15 8 2 9 3 10 4 11 1 12 8 13
REMARK SMILES IDX 9 14 10 15
REMARK H PARENT
REMARK Flexibility Score: inf
ROOT
ATOM      1  C   UNL     1     139.337 133.243 129.949  1.00  0.00     0.008 C 
ATOM      2  C   UNL     1     138.282 133.790 130.926  1.00  0.00    -0.007 C 
ATOM      3  C   UNL     1     137.439 132.616 131.447  1.00  0.00     0.004 C 
ATOM      4  C   UNL     1     136.392 133.090 132.449  1.00  0.00     0.004 C 
ATOM      5  C   UNL     1     137.046 133.593 133.755  1.00  0.00    -0.004 C 
ATOM      6  C   UNL     1     138.288 134.493 133.510  1.00  0.00     0.007 C 
ATOM      7  C   UNL     1     138.909 134.600 132.105  1.00  0.00    -0.013 C 
ATOM      8  C   UNL     1     138.021 135.725 132.655  1.00  0.00     0.025 C 
ATOM      9  C   UNL     1     138.946 136.869 132.881  1.00  0.00    -0.073 C 
ATOM     10  C   UNL     1     140.196 136.590 132.541  1.00  0.00    -0.027 C 
ATOM     11  C   UNL     1     140.333 135.199 132.023  1.00  0.00     0.035 C 
ATOM     12  C   UNL     1     138.518 138.182 133.457  1.00  0.00     0.039 C 
ENDROOT
BRANCH   5  13
ATOM     13  C   UNL     1     136.009 134.302 134.685  1.00  0.00    -0.014 C 
ATOM     14  C   UNL     1     135.521 133.374 135.813  1.00  0.00     0.007 C 
ATOM     15  C   UNL     1     134.789 134.815 133.900  1.00  0.00     0.007 C 
ENDBRANCH   5  13
TORSDOF 1
ENDMDL
MODEL 3
REMARK VINA RESULT:    -5.330      1.942      4.416
REMARK INTER + INTRA:          -5.891
REMARK INTER:                  -5.626
REMARK INTRA:                  -0.265
REMARK UNBOUND:                -0.250
REMARK SMILES CC1=CC[C@]23[C@H]([C@@H](C(C)C)CC[C@@H]2C)[C@@H]13
REMARK SMILES IDX 14 1 13 2 12 3 11 4 7 5 6 6 5 7 15 8 2 9 3 10 4 11 1 12 8 13
REMARK SMILES IDX 9 14 10 15
REMARK H PARENT
REMARK Flexibility Score: inf
ROOT
ATOM      1  C   UNL     1     140.904 138.456 130.529  1.00  0.00     0.008 C 
ATOM      2  C   UNL     1     139.581 139.201 130.778  1.00  0.00    -0.007 C 
ATOM      3  C   UNL     1     138.676 139.021 129.550  1.00  0.00     0.004 C 
ATOM      4  C   UNL     1     137.332 139.712 129.748  1.00  0.00     0.004 C 
ATOM      5  C   UNL     1     136.494 139.014 130.843  1.00  0.00    -0.004 C 
ATOM      6  C   UNL     1     137.322 138.642 132.103  1.00  0.00     0.007 C 
ATOM      7  C   UNL     1     138.859 138.734 132.082  1.00  0.00    -0.013 C 
ATOM      8  C   UNL     1     138.020 139.819 132.774  1.00  0.00     0.025 C 
ATOM      9  C   UNL     1     138.297 139.649 134.226  1.00  0.00    -0.073 C 
ATOM     10  C   UNL     1     139.155 138.670 134.472  1.00  0.00    -0.027 C 
ATOM     11  C   UNL     1     139.611 138.004 133.220  1.00  0.00     0.035 C 
ATOM     12  C   UNL     1     137.654 140.475 135.296  1.00  0.00     0.039 C 
ENDROOT
BRANCH   5  13
ATOM     13  C   UNL     1     135.229 139.849 131.224  1.00  0.00    -0.014 C 
ATOM     14  C   UNL     1     134.171 138.992 131.944  1.00  0.00     0.007 C 
ATOM     15  C   UNL     1     134.582 140.507 129.991  1.00  0.00     0.007 C 
ENDBRANCH   5  13
TORSDOF 1
ENDMDL
MODEL 4
REMARK VINA RESULT:    -5.330      2.726      5.259
REMARK INTER + INTRA:          -5.891
REMARK INTER:                  -5.723
REMARK INTRA:                  -0.169
REMARK UNBOUND:                -0.250
REMARK SMILES CC1=CC[C@]23[C@H]([C@@H](C(C)C)CC[C@@H]2C)[C@@H]13
REMARK SMILES IDX 14 1 13 2 12 3 11 4 7 5 6 6 5 7 15 8 2 9 3 10 4 11 1 12 8 13
REMARK SMILES IDX 9 14 10 15
REMARK H PARENT
REMARK Flexibility Score: inf
ROOT
ATOM      1  C   UNL     1     137.174 132.522 131.997  1.00  0.00     0.008 C 
ATOM      2  C   UNL     1     137.699 133.968 132.017  1.00  0.00    -0.007 C 
ATOM      3  C   UNL     1     138.092 134.329 133.458  1.00  0.00     0.004 C 
ATOM      4  C   UNL     1     138.653 135.743 133.540  1.00  0.00     0.004 C 
ATOM      5  C   UNL     1     140.016 135.854 132.820  1.00  0.00    -0.004 C 
ATOM      6  C   UNL     1     140.043 135.132 131.446  1.00  0.00     0.007 C 
ATOM      7  C   UNL     1     138.893 134.193 131.035  1.00  0.00    -0.013 C 
ATOM      8  C   UNL     1     138.988 135.613 130.456  1.00  0.00     0.025 C 
ATOM      9  C   UNL     1     139.329 135.419 129.020  1.00  0.00    -0.073 C 
ATOM     10  C   UNL     1     139.427 134.141 128.686  1.00  0.00    -0.027 C 
ATOM     11  C   UNL     1     139.168 133.242 129.846  1.00  0.00     0.035 C 
ATOM     12  C   UNL     1     139.564 136.545 128.063  1.00  0.00     0.039 C 
ENDROOT
BRANCH   5  13
ATOM     13  C   UNL     1     140.481 137.341 132.687  1.00  0.00    -0.014 C 
ATOM     14  C   UNL     1     139.287 138.310 132.602  1.00  0.00     0.007 C 
ATOM     15  C   UNL     1     141.383 137.553 131.458  1.00  0.00     0.007 C 
ENDBRANCH   5  13
TORSDOF 1
ENDMDL
MODEL 5
REMARK VINA RESULT:    -5.330      2.751      4.642
REMARK INTER + INTRA:          -5.891
REMARK INTER:                  -5.634
REMARK INTRA:                  -0.257
REMARK UNBOUND:                -0.250
REMARK SMILES CC1=CC[C@]23[C@H]([C@@H](C(C)C)CC[C@@H]2C)[C@@H]13
REMARK SMILES IDX 14 1 13 2 12 3 11 4 7 5 6 6 5 7 15 8 2 9 3 10 4 11 1 12 8 13
REMARK SMILES IDX 9 14 10 15
REMARK H PARENT
REMARK Flexibility Score: inf
ROOT
ATOM      1  C   UNL     1     134.390 140.411 129.927  1.00  0.00     0.008 C 
ATOM      2  C   UNL     1     135.439 139.914 130.936  1.00  0.00    -0.007 C 
ATOM      3  C   UNL     1     136.261 141.116 131.425  1.00  0.00     0.004 C 
ATOM      4  C   UNL     1     137.300 140.693 132.456  1.00  0.00     0.004 C 
ATOM      5  C   UNL     1     136.636 140.229 133.772  1.00  0.00    -0.004 C 
ATOM      6  C   UNL     1     135.408 139.305 133.545  1.00  0.00     0.007 C 
ATOM      7  C   UNL     1     134.806 139.140 132.136  1.00  0.00    -0.013 C 
ATOM      8  C   UNL     1     135.701 138.046 132.738  1.00  0.00     0.025 C 
ATOM      9  C   UNL     1     134.787 136.900 132.994  1.00  0.00    -0.073 C 
ATOM     10  C   UNL     1     133.539 137.151 132.628  1.00  0.00    -0.027 C 
ATOM     11  C   UNL     1     133.391 138.519 132.058  1.00  0.00     0.035 C 
ATOM     12  C   UNL     1     135.223 135.614 133.623  1.00  0.00     0.039 C 
ENDROOT
BRANCH   5  13
ATOM     13  C   UNL     1     137.669 139.567 134.740  1.00  0.00    -0.014 C 
ATOM     14  C   UNL     1     138.149 140.549 135.825  1.00  0.00     0.007 C 
ATOM     15  C   UNL     1     138.894 139.020 133.986  1.00  0.00     0.007 C 
ENDBRANCH   5  13
TORSDOF 1
ENDMDL
MODEL 6
REMARK VINA RESULT:    -5.323      3.539      6.594
REMARK INTER + INTRA:          -5.883
REMARK INTER:                  -5.619
REMARK INTRA:                  -0.264
REMARK UNBOUND:                -0.250
REMARK SMILES CC1=CC[C@]23[C@H]([C@@H](C(C)C)CC[C@@H]2C)[C@@H]13
REMARK SMILES IDX 14 1 13 2 12 3 11 4 7 5 6 6 5 7 15 8 2 9 3 10 4 11 1 12 8 13
REMARK SMILES IDX 9 14 10 15
REMARK H PARENT
REMARK Flexibility Score: inf
ROOT
ATOM      1  C   UNL     1     133.246 134.388 129.899  1.00  0.00     0.008 C 
ATOM      2  C   UNL     1     133.776 135.420 130.908  1.00  0.00    -0.007 C 
ATOM      3  C   UNL     1     132.599 136.272 131.406  1.00  0.00     0.004 C 
ATOM      4  C   UNL     1     133.055 137.296 132.438  1.00  0.00     0.004 C 
ATOM      5  C   UNL     1     133.508 136.616 133.750  1.00  0.00    -0.004 C 
ATOM      6  C   UNL     1     134.398 135.364 133.513  1.00  0.00     0.007 C 
ATOM      7  C   UNL     1     134.540 134.763 132.102  1.00  0.00    -0.013 C 
ATOM      8  C   UNL     1     135.660 135.627 132.701  1.00  0.00     0.025 C 
ATOM      9  C   UNL     1     136.783 134.682 132.948  1.00  0.00    -0.073 C 
ATOM     10  C   UNL     1     136.498 133.442 132.580  1.00  0.00    -0.027 C 
ATOM     11  C   UNL     1     135.123 133.333 132.016  1.00  0.00     0.035 C 
ATOM     12  C   UNL     1     138.083 135.083 133.571  1.00  0.00     0.039 C 
ENDROOT
BRANCH   5  13
ATOM     13  C   UNL     1     134.202 137.628 134.717  1.00  0.00    -0.014 C 
ATOM     14  C   UNL     1     133.250 138.100 135.833  1.00  0.00     0.007 C 
ATOM     15  C   UNL     1     134.742 138.860 133.970  1.00  0.00     0.007 C 
ENDBRANCH   5  13
TORSDOF 1
ENDMDL
MODEL 7
REMARK VINA RESULT:    -5.316      4.391      5.342
REMARK INTER + INTRA:          -5.877
REMARK INTER:                  -5.617
REMARK INTRA:                  -0.260
REMARK UNBOUND:                -0.250
REMARK SMILES CC1=CC[C@]23[C@H]([C@@H](C(C)C)CC[C@@H]2C)[C@@H]13
REMARK SMILES IDX 14 1 13 2 12 3 11 4 7 5 6 6 5 7 15 8 2 9 3 10 4 11 1 12 8 13
REMARK SMILES IDX 9 14 10 15
REMARK H PARENT
REMARK Flexibility Score: inf
ROOT
ATOM      1  C   UNL     1     135.464 140.893 130.647  1.00  0.00     0.008 C 
ATOM      2  C   UNL     1     134.674 139.595 130.884  1.00  0.00    -0.007 C 
ATOM      3  C   UNL     1     134.852 138.679 129.664  1.00  0.00     0.004 C 
ATOM      4  C   UNL     1     134.117 137.357 129.853  1.00  0.00     0.004 C 
ATOM      5  C   UNL     1     134.765 136.503 130.966  1.00  0.00    -0.004 C 
ATOM      6  C   UNL     1     135.135 137.325 132.231  1.00  0.00     0.007 C 
ATOM      7  C   UNL     1     135.089 138.865 132.202  1.00  0.00    -0.013 C 
ATOM      8  C   UNL     1     133.965 138.062 132.873  1.00  0.00     0.025 C 
ATOM      9  C   UNL     1     134.111 138.341 134.328  1.00  0.00    -0.073 C 
ATOM     10  C   UNL     1     135.110 139.170 134.591  1.00  0.00    -0.027 C 
ATOM     11  C   UNL     1     135.817 139.599 133.352  1.00  0.00     0.035 C 
ATOM     12  C   UNL     1     133.243 137.728 135.381  1.00  0.00     0.039 C 
ENDROOT
BRANCH   5  13
ATOM     13  C   UNL     1     133.883 135.266 131.333  1.00  0.00    -0.014 C 
ATOM     14  C   UNL     1     134.718 134.131 131.956  1.00  0.00     0.007 C 
ATOM     15  C   UNL     1     133.128 134.716 130.111  1.00  0.00     0.007 C 
ENDBRANCH   5  13
TORSDOF 1
ENDMDL
MODEL 8
REMARK VINA RESULT:    -5.302      2.006      4.822
REMARK INTER + INTRA:          -5.862
REMARK INTER:                  -5.597
REMARK INTRA:                  -0.265
REMARK UNBOUND:                -0.250
REMARK SMILES CC1=CC[C@]23[C@H]([C@@H](C(C)C)CC[C@@H]2C)[C@@H]13
REMARK SMILES IDX 14 1 13 2 12 3 11 4 7 5 6 6 5 7 15 8 2 9 3 10 4 11 1 12 8 13
REMARK SMILES IDX 9 14 10 15
REMARK H PARENT
REMARK Flexibility Score: inf
ROOT
ATOM      1  C   UNL     1     138.490 132.888 130.511  1.00  0.00     0.008 C 
ATOM      2  C   UNL     1     139.220 134.219 130.758  1.00  0.00    -0.007 C 
ATOM      3  C   UNL     1     139.030 135.120 129.528  1.00  0.00     0.004 C 
ATOM      4  C   UNL     1     139.705 136.472 129.724  1.00  0.00     0.004 C 
ATOM      5  C   UNL     1     138.999 137.304 130.818  1.00  0.00    -0.004 C 
ATOM      6  C   UNL     1     138.637 136.474 132.080  1.00  0.00     0.007 C 
ATOM      7  C   UNL     1     138.746 134.938 132.061  1.00  0.00    -0.013 C 
ATOM      8  C   UNL     1     139.822 135.790 132.751  1.00  0.00     0.025 C 
ATOM      9  C   UNL     1     139.656 135.514 134.204  1.00  0.00    -0.073 C 
ATOM     10  C   UNL     1     138.688 134.645 134.452  1.00  0.00    -0.027 C 
ATOM     11  C   UNL     1     138.025 134.180 133.201  1.00  0.00     0.035 C 
ATOM     12  C   UNL     1     140.475 136.168 135.272  1.00  0.00     0.039 C 
ENDROOT
BRANCH   5  13
ATOM     13  C   UNL     1     139.820 138.579 131.196  1.00  0.00    -0.014 C 
ATOM     14  C   UNL     1     138.949 139.634 131.904  1.00  0.00     0.007 C 
ATOM     15  C   UNL     1     140.480 139.223 129.964  1.00  0.00     0.007 C 
ENDBRANCH   5  13
TORSDOF 1
ENDMDL
MODEL 9
REMARK VINA RESULT:    -5.300      4.191      5.800
REMARK INTER + INTRA:          -5.860
REMARK INTER:                  -5.578
REMARK INTRA:                  -0.281
REMARK UNBOUND:                -0.250
REMARK SMILES CC1=CC[C@]23[C@H]([C@@H](C(C)C)CC[C@@H]2C)[C@@H]13
REMARK SMILES IDX 14 1 13 2 12 3 11 4 7 5 6 6 5 7 15 8 2 9 3 10 4 11 1 12 8 13
REMARK SMILES IDX 9 14 10 15
REMARK H PARENT
REMARK Flexibility Score: inf
ROOT
ATOM      1  C   UNL     1     132.490 135.869 130.940  1.00  0.00     0.008 C 
ATOM      2  C   UNL     1     133.728 134.995 131.203  1.00  0.00    -0.007 C 
ATOM      3  C   UNL     1     134.661 135.083 129.986  1.00  0.00     0.004 C 
ATOM      4  C   UNL     1     135.927 134.262 130.199  1.00  0.00     0.004 C 
ATOM      5  C   UNL     1     136.818 134.872 131.305  1.00  0.00    -0.004 C 
ATOM      6  C   UNL     1     136.017 135.324 132.556  1.00  0.00     0.007 C 
ATOM      7  C   UNL     1     134.478 135.386 132.517  1.00  0.00    -0.013 C 
ATOM      8  C   UNL     1     135.197 134.223 133.216  1.00  0.00     0.025 C 
ATOM      9  C   UNL     1     134.921 134.418 134.666  1.00  0.00    -0.073 C 
ATOM     10  C   UNL     1     134.162 135.478 134.903  1.00  0.00    -0.027 C 
ATOM     11  C   UNL     1     133.790 136.188 133.647  1.00  0.00     0.035 C 
ATOM     12  C   UNL     1     135.466 133.532 135.742  1.00  0.00     0.039 C 
ENDROOT
BRANCH   5  13
ATOM     13  C   UNL     1     137.988 133.914 131.699  1.00  0.00    -0.014 C 
ATOM     14  C   UNL     1     139.339 134.397 131.139  1.00  0.00     0.007 C 
ATOM     15  C   UNL     1     137.738 132.473 131.219  1.00  0.00     0.007 C 
ENDBRANCH   5  13
TORSDOF 1
ENDMDL
