MODEL 1
REMARK VINA RESULT:    -0.785      0.000      0.000
REMARK INTER + INTRA:          -0.785
REMARK INTER:                  -0.785
REMARK INTRA:                   0.000
REMARK UNBOUND:                 0.000
REMARK SMILES C=C1CCC[C@@]2(C)CC(=O)C(=C(C)C)C[C@@H]12
REMARK SMILES IDX 13 1 12 2 11 3 15 4 16 5 2 6 1 7 3 8 4 9 5 10 6 11 8 12 9 13
REMARK SMILES IDX 10 14 7 15 14 16
REMARK H PARENT
REMARK Flexibility Score: inf
ROOT
ATOM      1  C   UNL     1       4.454  18.874  -6.944  1.00  0.00     0.039 C 
ATOM      2  C   UNL     1       3.479  17.935  -6.271  1.00  0.00    -0.070 C 
ATOM      3  C   UNL     1       3.576  16.582  -6.436  1.00  0.00    -0.006 C 
ATOM      4  C   UNL     1       4.699  15.947  -7.243  1.00  0.00     0.047 C 
ATOM      5  C   UNL     1       4.271  14.609  -7.918  1.00  0.00     0.025 C 
ATOM      6  C   UNL     1       5.407  13.932  -8.705  1.00  0.00    -0.073 C 
ATOM      7  C   UNL     1       6.518  14.571  -9.124  1.00  0.00     0.008 C 
ATOM      8  C   UNL     1       5.194  12.496  -9.122  1.00  0.00     0.031 C 
ATOM      9  C   UNL     1       4.874  11.587  -7.923  1.00  0.00     0.005 C 
ATOM     10  C   UNL     1       4.469  12.353  -6.651  1.00  0.00     0.008 C 
ATOM     11  C   UNL     1       3.559  13.585  -6.927  1.00  0.00    -0.018 C 
ATOM     12  C   UNL     1       3.232  14.226  -5.548  1.00  0.00     0.088 C 
ATOM     13  C   UNL     1       2.713  15.615  -5.718  1.00  0.00     0.159 C 
ATOM     14  O   UNL     1       1.561  15.909  -5.301  1.00  0.00    -0.295 OA
ATOM     15  C   UNL     1       2.221  13.103  -7.548  1.00  0.00     0.012 C 
ATOM     16  C   UNL     1       2.431  18.555  -5.376  1.00  0.00     0.039 C 
ENDROOT
TORSDOF 0
ENDMDL
MODEL 2
REMARK VINA RESULT:     2.200      1.682      2.669
REMARK INTER + INTRA:           2.200
REMARK INTER:                   2.200
REMARK INTRA:                   0.000
REMARK UNBOUND:                 0.000
REMARK SMILES C=C1CCC[C@@]2(C)CC(=O)C(=C(C)C)C[C@@H]12
REMARK SMILES IDX 13 1 12 2 11 3 15 4 16 5 2 6 1 7 3 8 4 9 5 10 6 11 8 12 9 13
REMARK SMILES IDX 10 14 7 15 14 16
REMARK H PARENT
REMARK Flexibility Score: inf
ROOT
ATOM      1  C   UNL     1       2.249  17.880  -6.127  1.00  0.00     0.039 C 
ATOM      2  C   UNL     1       3.600  17.290  -5.792  1.00  0.00    -0.070 C 
ATOM      3  C   UNL     1       4.023  16.126  -6.369  1.00  0.00    -0.006 C 
ATOM      4  C   UNL     1       3.195  15.402  -7.422  1.00  0.00     0.047 C 
ATOM      5  C   UNL     1       3.420  13.859  -7.405  1.00  0.00     0.025 C 
ATOM      6  C   UNL     1       2.623  13.115  -8.489  1.00  0.00    -0.073 C 
ATOM      7  C   UNL     1       1.551  13.631  -9.124  1.00  0.00     0.008 C 
ATOM      8  C   UNL     1       3.007  11.680  -8.764  1.00  0.00     0.031 C 
ATOM      9  C   UNL     1       4.496  11.540  -9.125  1.00  0.00     0.005 C 
ATOM     10  C   UNL     1       5.342  12.776  -8.770  1.00  0.00     0.008 C 
ATOM     11  C   UNL     1       4.954  13.430  -7.413  1.00  0.00    -0.018 C 
ATOM     12  C   UNL     1       5.909  14.640  -7.202  1.00  0.00     0.088 C 
ATOM     13  C   UNL     1       5.375  15.561  -6.156  1.00  0.00     0.159 C 
ATOM     14  O   UNL     1       6.053  15.789  -5.118  1.00  0.00    -0.295 OA
ATOM     15  C   UNL     1       5.219  12.420  -6.265  1.00  0.00     0.012 C 
ATOM     16  C   UNL     1       4.473  18.067  -4.833  1.00  0.00     0.039 C 
ENDROOT
TORSDOF 0
ENDMDL
MODEL 3
REMARK VINA RESULT:     2.208      1.710      3.004
REMARK INTER + INTRA:           2.208
REMARK INTER:                   2.208
REMARK INTRA:                   0.000
REMARK UNBOUND:                 0.000
REMARK SMILES C=C1CCC[C@@]2(C)CC(=O)C(=C(C)C)C[C@@H]12
REMARK SMILES IDX 13 1 12 2 11 3 15 4 16 5 2 6 1 7 3 8 4 9 5 10 6 11 8 12 9 13
REMARK SMILES IDX 10 14 7 15 14 16
REMARK H PARENT
REMARK Flexibility Score: inf
ROOT
ATOM      1  C   UNL     1       3.317  17.455  -4.706  1.00  0.00     0.039 C 
ATOM      2  C   UNL     1       3.761  17.470  -6.152  1.00  0.00    -0.070 C 
ATOM      3  C   UNL     1       3.809  16.319  -6.886  1.00  0.00    -0.006 C 
ATOM      4  C   UNL     1       3.357  14.982  -6.317  1.00  0.00     0.047 C 
ATOM      5  C   UNL     1       4.126  13.775  -6.937  1.00  0.00     0.025 C 
ATOM      6  C   UNL     1       3.654  12.412  -6.404  1.00  0.00    -0.073 C 
ATOM      7  C   UNL     1       2.961  12.250  -5.258  1.00  0.00     0.008 C 
ATOM      8  C   UNL     1       4.101  11.184  -7.161  1.00  0.00     0.031 C 
ATOM      9  C   UNL     1       3.707  11.245  -8.647  1.00  0.00     0.005 C 
ATOM     10  C   UNL     1       3.300  12.651  -9.125  1.00  0.00     0.008 C 
ATOM     11  C   UNL     1       4.175  13.791  -8.530  1.00  0.00    -0.018 C 
ATOM     12  C   UNL     1       3.647  15.128  -9.125  1.00  0.00     0.088 C 
ATOM     13  C   UNL     1       4.135  16.293  -8.331  1.00  0.00     0.159 C 
ATOM     14  O   UNL     1       4.840  17.178  -8.886  1.00  0.00    -0.295 OA
ATOM     15  C   UNL     1       5.641  13.614  -9.008  1.00  0.00     0.012 C 
ATOM     16  C   UNL     1       4.101  18.815  -6.755  1.00  0.00     0.039 C 
ENDROOT
TORSDOF 0
ENDMDL
