MODEL 1
REMARK VINA RESULT:    -3.118      0.000      0.000
REMARK INTER + INTRA:          -5.554
REMARK INTER:                  -4.758
REMARK INTRA:                  -0.796
REMARK UNBOUND:                -0.796
REMARK SMILES CCCCCCCCCCC(=O)[O-]
REMARK SMILES IDX 7 1 8 2 9 3 10 4 11 5 12 6 13 7 6 8 5 9 4 10 3 11 2 12 1 13
REMARK H PARENT
REMARK Flexibility Score: inf
ROOT
ATOM      1  C   UNL     1      15.899  -6.443   5.162  1.00  0.00     0.000 C 
ENDROOT
BRANCH   1   2
ATOM      2  C   UNL     1      15.727  -7.340   6.400  1.00  0.00     0.000 C 
BRANCH   2   3
ATOM      3  C   UNL     1      14.276  -7.818   6.592  1.00  0.00     0.006 C 
BRANCH   3   4
ATOM      4  C   UNL     1      13.503  -8.042   5.281  1.00  0.00     0.053 C 
BRANCH   4   5
ATOM      5  C   UNL     1      12.197  -7.309   5.266  1.00  0.00     0.041 C 
ATOM      6  O   UNL     1      11.850  -6.653   4.247  1.00  0.00    -0.550 OA
ATOM      7  O   UNL     1      11.379  -7.320   6.388  1.00  0.00    -0.550 OA
ENDBRANCH   4   5
ENDBRANCH   3   4
ENDBRANCH   2   3
ENDBRANCH   1   2
BRANCH   1   8
ATOM      8  C   UNL     1      16.905  -7.021   4.153  1.00  0.00     0.000 C 
BRANCH   8   9
ATOM      9  C   UNL     1      18.149  -6.131   3.988  1.00  0.00    -0.000 C 
BRANCH   9  10
ATOM     10  C   UNL     1      19.453  -6.845   4.390  1.00  0.00    -0.000 C 
BRANCH  10  11
ATOM     11  C   UNL     1      19.980  -6.500   5.795  1.00  0.00    -0.000 C 
BRANCH  11  12
ATOM     12  C   UNL     1      19.401  -7.407   6.892  1.00  0.00    -0.003 C 
ATOM     13  C   UNL     1      18.958  -6.592   8.102  1.00  0.00     0.004 C 
ENDBRANCH  11  12
ENDBRANCH  10  11
ENDBRANCH   9  10
ENDBRANCH   8   9
ENDBRANCH   1   8
TORSDOF 9
ENDMDL
MODEL 2
REMARK VINA RESULT:    -3.041      1.257      2.231
REMARK INTER + INTRA:          -5.437
REMARK INTER:                  -4.791
REMARK INTRA:                  -0.646
REMARK UNBOUND:                -0.796
REMARK SMILES CCCCCCCCCCC(=O)[O-]
REMARK SMILES IDX 7 1 8 2 9 3 10 4 11 5 12 6 13 7 6 8 5 9 4 10 3 11 2 12 1 13
REMARK H PARENT
REMARK Flexibility Score: inf
ROOT
ATOM      1  C   UNL     1      14.496  -8.023   5.973  1.00  0.00     0.000 C 
ENDROOT
BRANCH   1   2
ATOM      2  C   UNL     1      14.022  -7.497   4.608  1.00  0.00     0.000 C 
BRANCH   2   3
ATOM      3  C   UNL     1      12.528  -7.123   4.599  1.00  0.00     0.006 C 
BRANCH   3   4
ATOM      4  C   UNL     1      11.806  -7.363   5.936  1.00  0.00     0.053 C 
BRANCH   4   5
ATOM      5  C   UNL     1      10.316  -7.328   5.785  1.00  0.00     0.041 C 
ATOM      6  O   UNL     1       9.599  -8.180   6.372  1.00  0.00    -0.550 OA
ATOM      7  O   UNL     1       9.722  -6.374   4.968  1.00  0.00    -0.550 OA
ENDBRANCH   4   5
ENDBRANCH   3   4
ENDBRANCH   2   3
ENDBRANCH   1   2
BRANCH   1   8
ATOM      8  C   UNL     1      15.634  -7.176   6.566  1.00  0.00     0.000 C 
BRANCH   8   9
ATOM      9  C   UNL     1      16.370  -6.350   5.497  1.00  0.00    -0.000 C 
BRANCH   9  10
ATOM     10  C   UNL     1      17.666  -7.023   5.007  1.00  0.00    -0.000 C 
BRANCH  10  11
ATOM     11  C   UNL     1      18.505  -7.701   6.106  1.00  0.00    -0.000 C 
BRANCH  11  12
ATOM     12  C   UNL     1      19.412  -6.718   6.861  1.00  0.00    -0.003 C 
ATOM     13  C   UNL     1      18.991  -6.593   8.322  1.00  0.00     0.004 C 
ENDBRANCH  11  12
ENDBRANCH  10  11
ENDBRANCH   9  10
ENDBRANCH   8   9
ENDBRANCH   1   8
TORSDOF 9
ENDMDL
MODEL 3
REMARK VINA RESULT:    -2.933      3.557      7.569
REMARK INTER + INTRA:          -5.272
REMARK INTER:                  -4.831
REMARK INTRA:                  -0.441
REMARK UNBOUND:                -0.796
REMARK SMILES CCCCCCCCCCC(=O)[O-]
REMARK SMILES IDX 7 1 8 2 9 3 10 4 11 5 12 6 13 7 6 8 5 9 4 10 3 11 2 12 1 13
REMARK H PARENT
REMARK Flexibility Score: inf
ROOT
ATOM      1  C   UNL     1      11.868  -7.102   4.781  1.00  0.00     0.000 C 
ENDROOT
BRANCH   1   2
ATOM      2  C   UNL     1      13.281  -7.708   4.815  1.00  0.00     0.000 C 
BRANCH   2   3
ATOM      3  C   UNL     1      13.850  -7.811   6.242  1.00  0.00     0.006 C 
BRANCH   3   4
ATOM      4  C   UNL     1      15.366  -8.061   6.305  1.00  0.00     0.053 C 
BRANCH   4   5
ATOM      5  C   UNL     1      16.144  -6.784   6.390  1.00  0.00     0.041 C 
ATOM      6  O   UNL     1      16.360  -6.103   5.353  1.00  0.00    -0.550 OA
ATOM      7  O   UNL     1      16.660  -6.363   7.609  1.00  0.00    -0.550 OA
ENDBRANCH   4   5
ENDBRANCH   3   4
ENDBRANCH   2   3
ENDBRANCH   1   2
BRANCH   1   8
ATOM      8  C   UNL     1      11.065  -7.410   6.055  1.00  0.00     0.000 C 
BRANCH   8   9
ATOM      9  C   UNL     1       9.580  -7.688   5.761  1.00  0.00    -0.000 C 
BRANCH   9  10
ATOM     10  C   UNL     1       9.310  -9.154   5.376  1.00  0.00    -0.000 C 
BRANCH  10  11
ATOM     11  C   UNL     1       8.494  -9.960   6.403  1.00  0.00    -0.000 C 
BRANCH  11  12
ATOM     12  C   UNL     1       8.298  -9.213   7.731  1.00  0.00    -0.003 C 
ATOM     13  C   UNL     1       7.288  -9.930   8.621  1.00  0.00     0.004 C 
ENDBRANCH  11  12
ENDBRANCH  10  11
ENDBRANCH   9  10
ENDBRANCH   8   9
ENDBRANCH   1   8
TORSDOF 9
ENDMDL
MODEL 4
REMARK VINA RESULT:    -2.904      4.155      6.817
REMARK INTER + INTRA:          -5.227
REMARK INTER:                  -4.767
REMARK INTRA:                  -0.461
REMARK UNBOUND:                -0.796
REMARK SMILES CCCCCCCCCCC(=O)[O-]
REMARK SMILES IDX 7 1 8 2 9 3 10 4 11 5 12 6 13 7 6 8 5 9 4 10 3 11 2 12 1 13
REMARK H PARENT
REMARK Flexibility Score: inf
ROOT
ATOM      1  C   UNL     1      17.523  -6.745   6.796  1.00  0.00     0.000 C 
ENDROOT
BRANCH   1   2
ATOM      2  C   UNL     1      18.492  -7.501   5.871  1.00  0.00     0.000 C 
BRANCH   2   3
ATOM      3  C   UNL     1      19.852  -6.792   5.726  1.00  0.00     0.006 C 
BRANCH   3   4
ATOM      4  C   UNL     1      19.957  -5.862   4.506  1.00  0.00     0.053 C 
BRANCH   4   5
ATOM      5  C   UNL     1      21.218  -5.055   4.521  1.00  0.00     0.041 C 
ATOM      6  O   UNL     1      22.325  -5.612   4.742  1.00  0.00    -0.550 OA
ATOM      7  O   UNL     1      21.166  -3.681   4.325  1.00  0.00    -0.550 OA
ENDBRANCH   4   5
ENDBRANCH   3   4
ENDBRANCH   2   3
ENDBRANCH   1   2
BRANCH   1   8
ATOM      8  C   UNL     1      16.067  -6.818   6.307  1.00  0.00     0.000 C 
BRANCH   8   9
ATOM      9  C   UNL     1      15.942  -6.578   4.793  1.00  0.00    -0.000 C 
BRANCH   9  10
ATOM     10  C   UNL     1      14.552  -6.942   4.241  1.00  0.00    -0.000 C 
BRANCH  10  11
ATOM     11  C   UNL     1      13.580  -7.549   5.270  1.00  0.00    -0.000 C 
BRANCH  11  12
ATOM     12  C   UNL     1      12.108  -7.432   4.846  1.00  0.00    -0.003 C 
ATOM     13  C   UNL     1      11.202  -7.231   6.057  1.00  0.00     0.004 C 
ENDBRANCH  11  12
ENDBRANCH  10  11
ENDBRANCH   9  10
ENDBRANCH   8   9
ENDBRANCH   1   8
TORSDOF 9
ENDMDL
MODEL 5
REMARK VINA RESULT:    -2.881      3.620      6.802
REMARK INTER + INTRA:          -5.193
REMARK INTER:                  -4.741
REMARK INTRA:                  -0.452
REMARK UNBOUND:                -0.796
REMARK SMILES CCCCCCCCCCC(=O)[O-]
REMARK SMILES IDX 7 1 8 2 9 3 10 4 11 5 12 6 13 7 6 8 5 9 4 10 3 11 2 12 1 13
REMARK H PARENT
REMARK Flexibility Score: inf
ROOT
ATOM      1  C   UNL     1      15.592  -7.376   6.620  1.00  0.00     0.000 C 
ENDROOT
BRANCH   1   2
ATOM      2  C   UNL     1      16.319  -6.499   5.586  1.00  0.00     0.000 C 
BRANCH   2   3
ATOM      3  C   UNL     1      17.824  -6.815   5.491  1.00  0.00     0.006 C 
BRANCH   3   4
ATOM      4  C   UNL     1      18.502  -7.087   6.844  1.00  0.00     0.053 C 
BRANCH   4   5
ATOM      5  C   UNL     1      19.528  -8.174   6.751  1.00  0.00     0.041 C 
ATOM      6  O   UNL     1      20.124  -8.391   5.663  1.00  0.00    -0.550 OA
ATOM      7  O   UNL     1      19.801  -8.970   7.856  1.00  0.00    -0.550 OA
ENDBRANCH   4   5
ENDBRANCH   3   4
ENDBRANCH   2   3
ENDBRANCH   1   2
BRANCH   1   8
ATOM      8  C   UNL     1      14.222  -7.861   6.118  1.00  0.00     0.000 C 
BRANCH   8   9
ATOM      9  C   UNL     1      13.831  -7.229   4.771  1.00  0.00    -0.000 C 
BRANCH   9  10
ATOM     10  C   UNL     1      12.309  -7.206   4.540  1.00  0.00    -0.000 C 
BRANCH  10  11
ATOM     11  C   UNL     1      11.453  -7.253   5.820  1.00  0.00    -0.000 C 
BRANCH  11  12
ATOM     12  C   UNL     1       9.947  -7.143   5.538  1.00  0.00    -0.003 C 
ATOM     13  C   UNL     1       9.656  -6.035   4.532  1.00  0.00     0.004 C 
ENDBRANCH  11  12
ENDBRANCH  10  11
ENDBRANCH   9  10
ENDBRANCH   8   9
ENDBRANCH   1   8
TORSDOF 9
ENDMDL
MODEL 6
REMARK VINA RESULT:    -2.820      4.331      6.614
REMARK INTER + INTRA:          -5.100
REMARK INTER:                  -4.434
REMARK INTRA:                  -0.665
REMARK UNBOUND:                -0.796
REMARK SMILES CCCCCCCCCCC(=O)[O-]
REMARK SMILES IDX 7 1 8 2 9 3 10 4 11 5 12 6 13 7 6 8 5 9 4 10 3 11 2 12 1 13
REMARK H PARENT
REMARK Flexibility Score: inf
ROOT
ATOM      1  C   UNL     1      18.542  -7.615   5.614  1.00  0.00     0.000 C 
ENDROOT
BRANCH   1   2
ATOM      2  C   UNL     1      19.996  -8.115   5.648  1.00  0.00     0.000 C 
BRANCH   2   3
ATOM      3  C   UNL     1      20.979  -7.133   4.983  1.00  0.00     0.006 C 
BRANCH   3   4
ATOM      4  C   UNL     1      20.386  -5.746   4.683  1.00  0.00     0.053 C 
BRANCH   4   5
ATOM      5  C   UNL     1      21.429  -4.776   4.222  1.00  0.00     0.041 C 
ATOM      6  O   UNL     1      21.153  -3.551   4.117  1.00  0.00    -0.550 OA
ATOM      7  O   UNL     1      22.695  -5.228   3.875  1.00  0.00    -0.550 OA
ENDBRANCH   4   5
ENDBRANCH   3   4
ENDBRANCH   2   3
ENDBRANCH   1   2
BRANCH   1   8
ATOM      8  C   UNL     1      18.070  -7.086   6.979  1.00  0.00     0.000 C 
BRANCH   8   9
ATOM      9  C   UNL     1      16.663  -6.467   6.915  1.00  0.00    -0.000 C 
BRANCH   9  10
ATOM     10  C   UNL     1      16.060  -6.495   5.499  1.00  0.00    -0.000 C 
BRANCH  10  11
ATOM     11  C   UNL     1      14.774  -7.330   5.354  1.00  0.00    -0.000 C 
BRANCH  11  12
ATOM     12  C   UNL     1      14.644  -8.421   6.426  1.00  0.00    -0.003 C 
ATOM     13  C   UNL     1      15.351  -9.702   5.996  1.00  0.00     0.004 C 
ENDBRANCH  11  12
ENDBRANCH  10  11
ENDBRANCH   9  10
ENDBRANCH   8   9
ENDBRANCH   1   8
TORSDOF 9
ENDMDL
MODEL 7
REMARK VINA RESULT:    -2.817      1.109      1.969
REMARK INTER + INTRA:          -5.095
REMARK INTER:                  -4.611
REMARK INTRA:                  -0.483
REMARK UNBOUND:                -0.796
REMARK SMILES CCCCCCCCCCC(=O)[O-]
REMARK SMILES IDX 7 1 8 2 9 3 10 4 11 5 12 6 13 7 6 8 5 9 4 10 3 11 2 12 1 13
REMARK H PARENT
REMARK Flexibility Score: inf
ROOT
ATOM      1  C   UNL     1      15.674  -7.222   6.408  1.00  0.00     0.000 C 
ENDROOT
BRANCH   1   2
ATOM      2  C   UNL     1      14.282  -7.852   6.229  1.00  0.00     0.000 C 
BRANCH   2   3
ATOM      3  C   UNL     1      13.613  -7.451   4.902  1.00  0.00     0.006 C 
BRANCH   3   4
ATOM      4  C   UNL     1      12.245  -8.109   4.656  1.00  0.00     0.053 C 
BRANCH   4   5
ATOM      5  C   UNL     1      11.118  -7.279   5.190  1.00  0.00     0.041 C 
ATOM      6  O   UNL     1      10.636  -6.344   4.499  1.00  0.00    -0.550 OA
ATOM      7  O   UNL     1      10.623  -7.517   6.466  1.00  0.00    -0.550 OA
ENDBRANCH   4   5
ENDBRANCH   3   4
ENDBRANCH   2   3
ENDBRANCH   1   2
BRANCH   1   8
ATOM      8  C   UNL     1      16.085  -6.354   5.208  1.00  0.00     0.000 C 
BRANCH   8   9
ATOM      9  C   UNL     1      17.507  -6.669   4.713  1.00  0.00    -0.000 C 
BRANCH   9  10
ATOM     10  C   UNL     1      18.459  -7.083   5.851  1.00  0.00    -0.000 C 
BRANCH  10  11
ATOM     11  C   UNL     1      19.873  -6.481   5.769  1.00  0.00    -0.000 C 
BRANCH  11  12
ATOM     12  C   UNL     1      20.123  -5.712   4.463  1.00  0.00    -0.003 C 
ATOM     13  C   UNL     1      21.282  -4.732   4.614  1.00  0.00     0.004 C 
ENDBRANCH  11  12
ENDBRANCH  10  11
ENDBRANCH   9  10
ENDBRANCH   8   9
ENDBRANCH   1   8
TORSDOF 9
ENDMDL
MODEL 8
REMARK VINA RESULT:    -2.753      1.407      1.864
REMARK INTER + INTRA:          -4.998
REMARK INTER:                  -4.207
REMARK INTRA:                  -0.791
REMARK UNBOUND:                -0.796
REMARK SMILES CCCCCCCCCCC(=O)[O-]
REMARK SMILES IDX 7 1 8 2 9 3 10 4 11 5 12 6 13 7 6 8 5 9 4 10 3 11 2 12 1 13
REMARK H PARENT
REMARK Flexibility Score: inf
ROOT
ATOM      1  C   UNL     1      15.230  -7.966   6.391  1.00  0.00     0.000 C 
ENDROOT
BRANCH   1   2
ATOM      2  C   UNL     1      15.293  -6.862   5.323  1.00  0.00     0.000 C 
BRANCH   2   3
ATOM      3  C   UNL     1      14.342  -7.122   4.140  1.00  0.00     0.006 C 
BRANCH   3   4
ATOM      4  C   UNL     1      13.109  -7.972   4.492  1.00  0.00     0.053 C 
BRANCH   4   5
ATOM      5  C   UNL     1      11.947  -7.128   4.918  1.00  0.00     0.041 C 
ATOM      6  O   UNL     1      11.391  -6.353   4.096  1.00  0.00    -0.550 OA
ATOM      7  O   UNL     1      11.500  -7.173   6.233  1.00  0.00    -0.550 OA
ENDBRANCH   4   5
ENDBRANCH   3   4
ENDBRANCH   2   3
ENDBRANCH   1   2
BRANCH   1   8
ATOM      8  C   UNL     1      16.225  -9.106   6.118  1.00  0.00     0.000 C 
BRANCH   8   9
ATOM      9  C   UNL     1      17.465  -8.630   5.341  1.00  0.00    -0.000 C 
BRANCH   9  10
ATOM     10  C   UNL     1      18.774  -9.248   5.866  1.00  0.00    -0.000 C 
BRANCH  10  11
ATOM     11  C   UNL     1      19.484  -8.437   6.966  1.00  0.00    -0.000 C 
BRANCH  11  12
ATOM     12  C   UNL     1      19.081  -6.955   6.972  1.00  0.00    -0.003 C 
ATOM     13  C   UNL     1      18.967  -6.421   8.396  1.00  0.00     0.004 C 
ENDBRANCH  11  12
ENDBRANCH  10  11
ENDBRANCH   9  10
ENDBRANCH   8   9
ENDBRANCH   1   8
TORSDOF 9
ENDMDL
MODEL 9
REMARK VINA RESULT:    -2.671      3.519      7.244
REMARK INTER + INTRA:          -4.872
REMARK INTER:                  -4.457
REMARK INTRA:                  -0.416
REMARK UNBOUND:                -0.796
REMARK SMILES CCCCCCCCCCC(=O)[O-]
REMARK SMILES IDX 7 1 8 2 9 3 10 4 11 5 12 6 13 7 6 8 5 9 4 10 3 11 2 12 1 13
REMARK H PARENT
REMARK Flexibility Score: inf
ROOT
ATOM      1  C   UNL     1      13.574  -7.412   4.786  1.00  0.00     0.000 C 
ENDROOT
BRANCH   1   2
ATOM      2  C   UNL     1      13.841  -7.843   6.238  1.00  0.00     0.000 C 
BRANCH   2   3
ATOM      3  C   UNL     1      15.343  -7.934   6.566  1.00  0.00     0.006 C 
BRANCH   3   4
ATOM      4  C   UNL     1      16.138  -6.654   6.259  1.00  0.00     0.053 C 
BRANCH   4   5
ATOM      5  C   UNL     1      17.617  -6.881   6.324  1.00  0.00     0.041 C 
ATOM      6  O   UNL     1      18.254  -7.209   5.289  1.00  0.00    -0.550 OA
ATOM      7  O   UNL     1      18.286  -6.765   7.536  1.00  0.00    -0.550 OA
ENDBRANCH   4   5
ENDBRANCH   3   4
ENDBRANCH   2   3
ENDBRANCH   1   2
BRANCH   1   8
ATOM      8  C   UNL     1      12.111  -7.001   4.554  1.00  0.00     0.000 C 
BRANCH   8   9
ATOM      9  C   UNL     1      11.254  -7.138   5.824  1.00  0.00    -0.000 C 
BRANCH   9  10
ATOM     10  C   UNL     1       9.765  -7.386   5.519  1.00  0.00    -0.000 C 
BRANCH  10  11
ATOM     11  C   UNL     1       9.373  -8.865   5.345  1.00  0.00    -0.000 C 
BRANCH  11  12
ATOM     12  C   UNL     1       8.122  -9.252   6.148  1.00  0.00    -0.003 C 
ATOM     13  C   UNL     1       8.434  -9.351   7.637  1.00  0.00     0.004 C 
ENDBRANCH  11  12
ENDBRANCH  10  11
ENDBRANCH   9  10
ENDBRANCH   8   9
ENDBRANCH   1   8
TORSDOF 9
ENDMDL
