MODEL 1
REMARK VINA RESULT:    -3.618      0.000      0.000
REMARK INTER + INTRA:          -6.439
REMARK INTER:                  -5.522
REMARK INTRA:                  -0.917
REMARK UNBOUND:                -0.917
REMARK SMILES CCCCCCCCCCC(=O)[O-]
REMARK SMILES IDX 7 1 8 2 9 3 10 4 11 5 12 6 13 7 6 8 5 9 4 10 3 11 2 12 1 13
REMARK H PARENT
REMARK Flexibility Score: inf
ROOT
ATOM      1  C   UNL     1      -5.969 -64.393  -1.506  1.00  0.00     0.000 C 
ENDROOT
BRANCH   1   2
ATOM      2  C   UNL     1      -5.508 -65.678  -0.802  1.00  0.00     0.000 C 
BRANCH   2   3
ATOM      3  C   UNL     1      -5.261 -66.844  -1.775  1.00  0.00     0.006 C 
BRANCH   3   4
ATOM      4  C   UNL     1      -4.534 -66.436  -3.069  1.00  0.00     0.053 C 
BRANCH   4   5
ATOM      5  C   UNL     1      -4.354 -67.582  -4.018  1.00  0.00     0.041 C 
ATOM      6  O   UNL     1      -3.533 -67.497  -4.968  1.00  0.00    -0.550 OA
ATOM      7  O   UNL     1      -5.121 -68.731  -3.873  1.00  0.00    -0.550 OA
ENDBRANCH   4   5
ENDBRANCH   3   4
ENDBRANCH   2   3
ENDBRANCH   1   2
BRANCH   1   8
ATOM      8  C   UNL     1      -7.292 -63.885  -0.912  1.00  0.00     0.000 C 
BRANCH   8   9
ATOM      9  C   UNL     1      -8.472 -64.827  -1.198  1.00  0.00    -0.000 C 
BRANCH   9  10
ATOM     10  C   UNL     1      -9.255 -65.198   0.072  1.00  0.00    -0.000 C 
BRANCH  10  11
ATOM     11  C   UNL     1      -8.740 -66.516   0.667  1.00  0.00    -0.000 C 
BRANCH  11  12
ATOM     12  C   UNL     1      -8.457 -66.413   2.174  1.00  0.00    -0.003 C 
ATOM     13  C   UNL     1      -7.291 -65.478   2.496  1.00  0.00     0.004 C 
ENDBRANCH  11  12
ENDBRANCH  10  11
ENDBRANCH   9  10
ENDBRANCH   8   9
ENDBRANCH   1   8
TORSDOF 9
ENDMDL
MODEL 2
REMARK VINA RESULT:    -3.553      1.801      2.821
REMARK INTER + INTRA:          -6.339
REMARK INTER:                  -5.588
REMARK INTRA:                  -0.751
REMARK UNBOUND:                -0.917
REMARK SMILES CCCCCCCCCCC(=O)[O-]
REMARK SMILES IDX 7 1 8 2 9 3 10 4 11 5 12 6 13 7 6 8 5 9 4 10 3 11 2 12 1 13
REMARK H PARENT
REMARK Flexibility Score: inf
ROOT
ATOM      1  C   UNL     1      -5.050 -66.104  -1.410  1.00  0.00     0.000 C 
ENDROOT
BRANCH   1   2
ATOM      2  C   UNL     1      -5.126 -67.402  -2.228  1.00  0.00     0.000 C 
BRANCH   2   3
ATOM      3  C   UNL     1      -4.448 -67.288  -3.604  1.00  0.00     0.006 C 
BRANCH   3   4
ATOM      4  C   UNL     1      -4.197 -65.840  -4.061  1.00  0.00     0.053 C 
BRANCH   4   5
ATOM      5  C   UNL     1      -4.066 -65.717  -5.549  1.00  0.00     0.041 C 
ATOM      6  O   UNL     1      -4.945 -66.204  -6.307  1.00  0.00    -0.550 OA
ATOM      7  O   UNL     1      -2.953 -65.094  -6.099  1.00  0.00    -0.550 OA
ENDBRANCH   4   5
ENDBRANCH   3   4
ENDBRANCH   2   3
ENDBRANCH   1   2
BRANCH   1   8
ATOM      8  C   UNL     1      -6.456 -65.565  -1.104  1.00  0.00     0.000 C 
BRANCH   8   9
ATOM      9  C   UNL     1      -6.780 -65.569   0.398  1.00  0.00    -0.000 C 
BRANCH   9  10
ATOM     10  C   UNL     1      -8.022 -66.411   0.734  1.00  0.00    -0.000 C 
BRANCH  10  11
ATOM     11  C   UNL     1      -8.961 -66.507  -0.476  1.00  0.00    -0.000 C 
BRANCH  11  12
ATOM     12  C   UNL     1      -9.481 -67.935  -0.707  1.00  0.00    -0.003 C 
ATOM     13  C   UNL     1      -8.516 -68.792  -1.526  1.00  0.00     0.004 C 
ENDBRANCH  11  12
ENDBRANCH  10  11
ENDBRANCH   9  10
ENDBRANCH   8   9
ENDBRANCH   1   8
TORSDOF 9
ENDMDL
MODEL 3
REMARK VINA RESULT:    -3.529      1.337      2.135
REMARK INTER + INTRA:          -6.303
REMARK INTER:                  -5.343
REMARK INTRA:                  -0.959
REMARK UNBOUND:                -0.917
REMARK SMILES CCCCCCCCCCC(=O)[O-]
REMARK SMILES IDX 7 1 8 2 9 3 10 4 11 5 12 6 13 7 6 8 5 9 4 10 3 11 2 12 1 13
REMARK H PARENT
REMARK Flexibility Score: inf
ROOT
ATOM      1  C   UNL     1      -5.785 -63.601  -0.444  1.00  0.00     0.000 C 
ENDROOT
BRANCH   1   2
ATOM      2  C   UNL     1      -5.476 -64.964   0.194  1.00  0.00     0.000 C 
BRANCH   2   3
ATOM      3  C   UNL     1      -4.816 -65.951  -0.784  1.00  0.00     0.006 C 
BRANCH   3   4
ATOM      4  C   UNL     1      -4.642 -65.400  -2.210  1.00  0.00     0.053 C 
BRANCH   4   5
ATOM      5  C   UNL     1      -4.397 -66.477  -3.222  1.00  0.00     0.041 C 
ATOM      6  O   UNL     1      -4.783 -67.655  -3.003  1.00  0.00    -0.550 OA
ATOM      7  O   UNL     1      -3.708 -66.188  -4.393  1.00  0.00    -0.550 OA
ENDBRANCH   4   5
ENDBRANCH   3   4
ENDBRANCH   2   3
ENDBRANCH   1   2
BRANCH   1   8
ATOM      8  C   UNL     1      -7.290 -63.297  -0.388  1.00  0.00     0.000 C 
BRANCH   8   9
ATOM      9  C   UNL     1      -8.142 -64.390  -1.052  1.00  0.00    -0.000 C 
BRANCH   9  10
ATOM     10  C   UNL     1      -9.249 -64.922  -0.127  1.00  0.00    -0.000 C 
BRANCH  10  11
ATOM     11  C   UNL     1      -8.931 -66.349   0.342  1.00  0.00    -0.000 C 
BRANCH  11  12
ATOM     12  C   UNL     1      -8.366 -67.229  -0.784  1.00  0.00    -0.003 C 
ATOM     13  C   UNL     1      -9.253 -68.434  -1.096  1.00  0.00     0.004 C 
ENDBRANCH  11  12
ENDBRANCH  10  11
ENDBRANCH   9  10
ENDBRANCH   8   9
ENDBRANCH   1   8
TORSDOF 9
ENDMDL
MODEL 4
REMARK VINA RESULT:    -3.465      1.849      3.052
REMARK INTER + INTRA:          -6.205
REMARK INTER:                  -5.758
REMARK INTRA:                  -0.448
REMARK UNBOUND:                -0.917
REMARK SMILES CCCCCCCCCCC(=O)[O-]
REMARK SMILES IDX 7 1 8 2 9 3 10 4 11 5 12 6 13 7 6 8 5 9 4 10 3 11 2 12 1 13
REMARK H PARENT
REMARK Flexibility Score: inf
ROOT
ATOM      1  C   UNL     1      -4.758 -66.015  -2.572  1.00  0.00     0.000 C 
ENDROOT
BRANCH   1   2
ATOM      2  C   UNL     1      -4.768 -67.453  -3.111  1.00  0.00     0.000 C 
BRANCH   2   3
ATOM      3  C   UNL     1      -4.078 -67.590  -4.479  1.00  0.00     0.006 C 
BRANCH   3   4
ATOM      4  C   UNL     1      -4.240 -66.358  -5.388  1.00  0.00     0.053 C 
BRANCH   4   5
ATOM      5  C   UNL     1      -4.077 -66.686  -6.841  1.00  0.00     0.041 C 
ATOM      6  O   UNL     1      -4.401 -67.822  -7.278  1.00  0.00    -0.550 OA
ATOM      7  O   UNL     1      -3.533 -65.747  -7.709  1.00  0.00    -0.550 OA
ENDBRANCH   4   5
ENDBRANCH   3   4
ENDBRANCH   2   3
ENDBRANCH   1   2
BRANCH   1   8
ATOM      8  C   UNL     1      -5.172 -65.980  -1.092  1.00  0.00     0.000 C 
BRANCH   8   9
ATOM      9  C   UNL     1      -6.571 -65.381  -0.881  1.00  0.00    -0.000 C 
BRANCH   9  10
ATOM     10  C   UNL     1      -7.077 -65.552   0.561  1.00  0.00    -0.000 C 
BRANCH  10  11
ATOM     11  C   UNL     1      -8.222 -66.573   0.621  1.00  0.00    -0.000 C 
BRANCH  11  12
ATOM     12  C   UNL     1      -8.843 -66.846  -0.758  1.00  0.00    -0.003 C 
ATOM     13  C   UNL     1      -9.304 -68.294  -0.924  1.00  0.00     0.004 C 
ENDBRANCH  11  12
ENDBRANCH  10  11
ENDBRANCH   9  10
ENDBRANCH   8   9
ENDBRANCH   1   8
TORSDOF 9
ENDMDL
MODEL 5
REMARK VINA RESULT:    -3.406      3.394      6.874
REMARK INTER + INTRA:          -6.115
REMARK INTER:                  -5.777
REMARK INTRA:                  -0.338
REMARK UNBOUND:                -0.917
REMARK SMILES CCCCCCCCCCC(=O)[O-]
REMARK SMILES IDX 7 1 8 2 9 3 10 4 11 5 12 6 13 7 6 8 5 9 4 10 3 11 2 12 1 13
REMARK H PARENT
REMARK Flexibility Score: inf
ROOT
ATOM      1  C   UNL     1      -5.152 -66.193  -1.342  1.00  0.00     0.000 C 
ENDROOT
BRANCH   1   2
ATOM      2  C   UNL     1      -6.625 -65.899  -1.021  1.00  0.00     0.000 C 
BRANCH   2   3
ATOM      3  C   UNL     1      -7.511 -67.156  -1.049  1.00  0.00     0.006 C 
BRANCH   3   4
ATOM      4  C   UNL     1      -8.989 -66.888  -0.709  1.00  0.00     0.053 C 
BRANCH   4   5
ATOM      5  C   UNL     1      -9.157 -66.035   0.511  1.00  0.00     0.041 C 
ATOM      6  O   UNL     1      -9.658 -64.884   0.418  1.00  0.00    -0.550 OA
ATOM      7  O   UNL     1      -8.726 -66.498   1.748  1.00  0.00    -0.550 OA
ENDBRANCH   4   5
ENDBRANCH   3   4
ENDBRANCH   2   3
ENDBRANCH   1   2
BRANCH   1   8
ATOM      8  C   UNL     1      -5.032 -67.247  -2.454  1.00  0.00     0.000 C 
BRANCH   8   9
ATOM      9  C   UNL     1      -4.158 -66.776  -3.627  1.00  0.00    -0.000 C 
BRANCH   9  10
ATOM     10  C   UNL     1      -4.264 -67.698  -4.853  1.00  0.00    -0.000 C 
BRANCH  10  11
ATOM     11  C   UNL     1      -3.728 -67.000  -6.111  1.00  0.00    -0.000 C 
BRANCH  11  12
ATOM     12  C   UNL     1      -4.675 -67.141  -7.313  1.00  0.00    -0.003 C 
ATOM     13  C   UNL     1      -4.391 -68.389  -8.149  1.00  0.00     0.004 C 
ENDBRANCH  11  12
ENDBRANCH  10  11
ENDBRANCH   9  10
ENDBRANCH   8   9
ENDBRANCH   1   8
TORSDOF 9
ENDMDL
MODEL 6
REMARK VINA RESULT:    -3.372      1.468      1.952
REMARK INTER + INTRA:          -6.063
REMARK INTER:                  -5.665
REMARK INTRA:                  -0.399
REMARK UNBOUND:                -0.917
REMARK SMILES CCCCCCCCCCC(=O)[O-]
REMARK SMILES IDX 7 1 8 2 9 3 10 4 11 5 12 6 13 7 6 8 5 9 4 10 3 11 2 12 1 13
REMARK H PARENT
REMARK Flexibility Score: inf
ROOT
ATOM      1  C   UNL     1      -5.248 -65.852  -0.903  1.00  0.00     0.000 C 
ENDROOT
BRANCH   1   2
ATOM      2  C   UNL     1      -5.146 -66.907  -2.015  1.00  0.00     0.000 C 
BRANCH   2   3
ATOM      3  C   UNL     1      -4.450 -66.383  -3.282  1.00  0.00     0.006 C 
BRANCH   3   4
ATOM      4  C   UNL     1      -4.132 -67.476  -4.319  1.00  0.00     0.053 C 
BRANCH   4   5
ATOM      5  C   UNL     1      -4.365 -67.022  -5.728  1.00  0.00     0.041 C 
ATOM      6  O   UNL     1      -4.802 -65.863  -5.959  1.00  0.00    -0.550 OA
ATOM      7  O   UNL     1      -4.134 -67.891  -6.786  1.00  0.00    -0.550 OA
ENDBRANCH   4   5
ENDBRANCH   3   4
ENDBRANCH   2   3
ENDBRANCH   1   2
BRANCH   1   8
ATOM      8  C   UNL     1      -6.712 -65.454  -0.655  1.00  0.00     0.000 C 
BRANCH   8   9
ATOM      9  C   UNL     1      -7.668 -66.656  -0.690  1.00  0.00    -0.000 C 
BRANCH   9  10
ATOM     10  C   UNL     1      -8.697 -66.629   0.452  1.00  0.00    -0.000 C 
BRANCH  10  11
ATOM     11  C   UNL     1      -8.087 -66.021   1.723  1.00  0.00    -0.000 C 
BRANCH  11  12
ATOM     12  C   UNL     1      -8.373 -66.863   2.976  1.00  0.00    -0.003 C 
ATOM     13  C   UNL     1      -9.268 -66.142   3.984  1.00  0.00     0.004 C 
ENDBRANCH  11  12
ENDBRANCH  10  11
ENDBRANCH   9  10
ENDBRANCH   8   9
ENDBRANCH   1   8
TORSDOF 9
ENDMDL
MODEL 7
REMARK VINA RESULT:    -3.328      3.600      5.777
REMARK INTER + INTRA:          -5.995
REMARK INTER:                  -5.036
REMARK INTRA:                  -0.959
REMARK UNBOUND:                -0.917
REMARK SMILES CCCCCCCCCCC(=O)[O-]
REMARK SMILES IDX 7 1 8 2 9 3 10 4 11 5 12 6 13 7 6 8 5 9 4 10 3 11 2 12 1 13
REMARK H PARENT
REMARK Flexibility Score: inf
ROOT
ATOM      1  C   UNL     1      -8.618 -64.649  -0.988  1.00  0.00     0.000 C 
ENDROOT
BRANCH   1   2
ATOM      2  C   UNL     1      -8.488 -66.168  -0.798  1.00  0.00     0.000 C 
BRANCH   2   3
ATOM      3  C   UNL     1      -8.917 -66.640   0.601  1.00  0.00     0.006 C 
BRANCH   3   4
ATOM      4  C   UNL     1      -7.957 -66.215   1.727  1.00  0.00     0.053 C 
BRANCH   4   5
ATOM      5  C   UNL     1      -8.450 -66.606   3.087  1.00  0.00     0.041 C 
ATOM      6  O   UNL     1      -9.063 -65.773   3.805  1.00  0.00    -0.550 OA
ATOM      7  O   UNL     1      -8.201 -67.882   3.577  1.00  0.00    -0.550 OA
ENDBRANCH   4   5
ENDBRANCH   3   4
ENDBRANCH   2   3
ENDBRANCH   1   2
BRANCH   1   8
ATOM      8  C   UNL     1      -7.386 -64.078  -1.710  1.00  0.00     0.000 C 
BRANCH   8   9
ATOM      9  C   UNL     1      -6.192 -63.862  -0.766  1.00  0.00    -0.000 C 
BRANCH   9  10
ATOM     10  C   UNL     1      -4.895 -64.489  -1.300  1.00  0.00    -0.000 C 
BRANCH  10  11
ATOM     11  C   UNL     1      -4.775 -65.956  -0.864  1.00  0.00    -0.000 C 
BRANCH  11  12
ATOM     12  C   UNL     1      -5.117 -66.938  -1.996  1.00  0.00    -0.003 C 
ATOM     13  C   UNL     1      -4.339 -66.656  -3.281  1.00  0.00     0.004 C 
ENDBRANCH  11  12
ENDBRANCH  10  11
ENDBRANCH   9  10
ENDBRANCH   8   9
ENDBRANCH   1   8
TORSDOF 9
ENDMDL
MODEL 8
REMARK VINA RESULT:    -3.298      1.536      2.362
REMARK INTER + INTRA:          -5.950
REMARK INTER:                  -5.014
REMARK INTRA:                  -0.936
REMARK UNBOUND:                -0.917
REMARK SMILES CCCCCCCCCCC(=O)[O-]
REMARK SMILES IDX 7 1 8 2 9 3 10 4 11 5 12 6 13 7 6 8 5 9 4 10 3 11 2 12 1 13
REMARK H PARENT
REMARK Flexibility Score: inf
ROOT
ATOM      1  C   UNL     1      -7.572 -66.882  -0.779  1.00  0.00     0.000 C 
ENDROOT
BRANCH   1   2
ATOM      2  C   UNL     1      -6.515 -65.821  -1.120  1.00  0.00     0.000 C 
BRANCH   2   3
ATOM      3  C   UNL     1      -5.096 -66.401  -1.242  1.00  0.00     0.006 C 
BRANCH   3   4
ATOM      4  C   UNL     1      -4.732 -66.875  -2.661  1.00  0.00     0.053 C 
BRANCH   4   5
ATOM      5  C   UNL     1      -4.047 -65.815  -3.467  1.00  0.00     0.041 C 
ATOM      6  O   UNL     1      -3.234 -65.025  -2.920  1.00  0.00    -0.550 OA
ATOM      7  O   UNL     1      -4.333 -65.677  -4.820  1.00  0.00    -0.550 OA
ENDBRANCH   4   5
ENDBRANCH   3   4
ENDBRANCH   2   3
ENDBRANCH   1   2
BRANCH   1   8
ATOM      8  C   UNL     1      -8.947 -66.234  -0.551  1.00  0.00     0.000 C 
BRANCH   8   9
ATOM      9  C   UNL     1      -9.102 -65.653   0.863  1.00  0.00    -0.000 C 
BRANCH   9  10
ATOM     10  C   UNL     1      -8.511 -66.568   1.948  1.00  0.00    -0.000 C 
BRANCH  10  11
ATOM     11  C   UNL     1      -7.468 -65.817   2.788  1.00  0.00    -0.000 C 
BRANCH  11  12
ATOM     12  C   UNL     1      -7.285 -64.359   2.337  1.00  0.00    -0.003 C 
ATOM     13  C   UNL     1      -5.823 -64.000   2.074  1.00  0.00     0.004 C 
ENDBRANCH  11  12
ENDBRANCH  10  11
ENDBRANCH   9  10
ENDBRANCH   8   9
ENDBRANCH   1   8
TORSDOF 9
ENDMDL
MODEL 9
REMARK VINA RESULT:    -3.275      1.361      2.074
REMARK INTER + INTRA:          -5.914
REMARK INTER:                  -5.344
REMARK INTRA:                  -0.570
REMARK UNBOUND:                -0.917
REMARK SMILES CCCCCCCCCCC(=O)[O-]
REMARK SMILES IDX 7 1 8 2 9 3 10 4 11 5 12 6 13 7 6 8 5 9 4 10 3 11 2 12 1 13
REMARK H PARENT
REMARK Flexibility Score: inf
ROOT
ATOM      1  C   UNL     1      -4.867 -65.391  -0.390  1.00  0.00     0.000 C 
ENDROOT
BRANCH   1   2
ATOM      2  C   UNL     1      -5.248 -66.333  -1.542  1.00  0.00     0.000 C 
BRANCH   2   3
ATOM      3  C   UNL     1      -4.473 -66.045  -2.839  1.00  0.00     0.006 C 
BRANCH   3   4
ATOM      4  C   UNL     1      -4.371 -67.251  -3.789  1.00  0.00     0.053 C 
BRANCH   4   5
ATOM      5  C   UNL     1      -4.144 -66.848  -5.214  1.00  0.00     0.041 C 
ATOM      6  O   UNL     1      -4.738 -65.847  -5.694  1.00  0.00    -0.550 OA
ATOM      7  O   UNL     1      -3.303 -67.600  -6.024  1.00  0.00    -0.550 OA
ENDBRANCH   4   5
ENDBRANCH   3   4
ENDBRANCH   2   3
ENDBRANCH   1   2
BRANCH   1   8
ATOM      8  C   UNL     1      -6.121 -64.813   0.285  1.00  0.00     0.000 C 
BRANCH   8   9
ATOM      9  C   UNL     1      -7.051 -64.094  -0.705  1.00  0.00    -0.000 C 
BRANCH   9  10
ATOM     10  C   UNL     1      -8.364 -64.856  -0.945  1.00  0.00    -0.000 C 
BRANCH  10  11
ATOM     11  C   UNL     1      -8.955 -65.359   0.379  1.00  0.00    -0.000 C 
BRANCH  11  12
ATOM     12  C   UNL     1      -8.866 -66.887   0.523  1.00  0.00    -0.003 C 
ATOM     13  C   UNL     1      -9.173 -67.624  -0.780  1.00  0.00     0.004 C 
ENDBRANCH  11  12
ENDBRANCH  10  11
ENDBRANCH   9  10
ENDBRANCH   8   9
ENDBRANCH   1   8
TORSDOF 9
ENDMDL
