MODEL 1
REMARK VINA RESULT:    -2.775      0.000      0.000
REMARK INTER + INTRA:          -2.775
REMARK INTER:                  -2.775
REMARK INTRA:                   0.000
REMARK UNBOUND:                 0.000
REMARK SMILES CC(=O)[O-]
REMARK SMILES IDX 1 1 2 2 3 3 4 4
REMARK H PARENT
REMARK Flexibility Score: inf
ROOT
ATOM      1  C   UNL     1      -2.740  -6.702 -16.129  1.00  0.00     0.063 C 
ATOM      2  C   UNL     1      -4.131  -6.381 -15.699  1.00  0.00     0.038 C 
ATOM      3  O   UNL     1      -5.047  -6.276 -16.556  1.00  0.00    -0.550 OA
ATOM      4  O   UNL     1      -4.409  -6.146 -14.359  1.00  0.00    -0.550 OA
ENDROOT
TORSDOF 0
ENDMDL
MODEL 2
REMARK VINA RESULT:    -2.549      9.257      9.787
REMARK INTER + INTRA:          -2.549
REMARK INTER:                  -2.549
REMARK INTRA:                   0.000
REMARK UNBOUND:                 0.000
REMARK SMILES CC(=O)[O-]
REMARK SMILES IDX 1 1 2 2 3 3 4 4
REMARK H PARENT
REMARK Flexibility Score: inf
ROOT
ATOM      1  C   UNL     1      -3.633  -9.395  -5.630  1.00  0.00     0.063 C 
ATOM      2  C   UNL     1      -4.394  -9.998  -6.762  1.00  0.00     0.038 C 
ATOM      3  O   UNL     1      -4.363  -9.461  -7.900  1.00  0.00    -0.550 OA
ATOM      4  O   UNL     1      -5.182 -11.121  -6.550  1.00  0.00    -0.550 OA
ENDROOT
TORSDOF 0
ENDMDL
MODEL 3
REMARK VINA RESULT:    -2.530      1.392      2.075
REMARK INTER + INTRA:          -2.530
REMARK INTER:                  -2.530
REMARK INTRA:                   0.000
REMARK UNBOUND:                 0.000
REMARK SMILES CC(=O)[O-]
REMARK SMILES IDX 1 1 2 2 3 3 4 4
REMARK H PARENT
REMARK Flexibility Score: inf
ROOT
ATOM      1  C   UNL     1      -5.102  -6.106 -16.725  1.00  0.00     0.063 C 
ATOM      2  C   UNL     1      -4.052  -6.402 -15.708  1.00  0.00     0.038 C 
ATOM      3  O   UNL     1      -4.325  -6.331 -14.481  1.00  0.00    -0.550 OA
ATOM      4  O   UNL     1      -2.758  -6.702 -16.111  1.00  0.00    -0.550 OA
ENDROOT
TORSDOF 0
ENDMDL
MODEL 4
REMARK VINA RESULT:    -2.517      9.796     10.334
REMARK INTER + INTRA:          -2.517
REMARK INTER:                  -2.517
REMARK INTRA:                   0.000
REMARK UNBOUND:                 0.000
REMARK SMILES CC(=O)[O-]
REMARK SMILES IDX 1 1 2 2 3 3 4 4
REMARK H PARENT
REMARK Flexibility Score: inf
ROOT
ATOM      1  C   UNL     1      -4.660 -11.550  -5.601  1.00  0.00     0.063 C 
ATOM      2  C   UNL     1      -4.316 -10.257  -6.260  1.00  0.00     0.038 C 
ATOM      3  O   UNL     1      -4.667 -10.043  -7.450  1.00  0.00    -0.550 OA
ATOM      4  O   UNL     1      -3.563  -9.309  -5.581  1.00  0.00    -0.550 OA
ENDROOT
TORSDOF 0
ENDMDL
MODEL 5
REMARK VINA RESULT:    -2.506     10.312     10.880
REMARK INTER + INTRA:          -2.506
REMARK INTER:                  -2.506
REMARK INTRA:                   0.000
REMARK UNBOUND:                 0.000
REMARK SMILES CC(=O)[O-]
REMARK SMILES IDX 1 1 2 2 3 3 4 4
REMARK H PARENT
REMARK Flexibility Score: inf
ROOT
ATOM      1  C   UNL     1      -4.039 -11.570  -5.200  1.00  0.00     0.063 C 
ATOM      2  C   UNL     1      -5.111 -10.875  -5.969  1.00  0.00     0.038 C 
ATOM      3  O   UNL     1      -6.287 -10.837  -5.519  1.00  0.00    -0.550 OA
ATOM      4  O   UNL     1      -4.829 -10.316  -7.208  1.00  0.00    -0.550 OA
ENDROOT
TORSDOF 0
ENDMDL
MODEL 6
REMARK VINA RESULT:    -2.485      1.390      1.766
REMARK INTER + INTRA:          -2.485
REMARK INTER:                  -2.485
REMARK INTRA:                   0.000
REMARK UNBOUND:                 0.000
REMARK SMILES CC(=O)[O-]
REMARK SMILES IDX 1 1 2 2 3 3 4 4
REMARK H PARENT
REMARK Flexibility Score: inf
ROOT
ATOM      1  C   UNL     1      -4.366  -5.975 -14.350  1.00  0.00     0.063 C 
ATOM      2  C   UNL     1      -4.041  -6.325 -15.763  1.00  0.00     0.038 C 
ATOM      3  O   UNL     1      -4.947  -6.318 -16.638  1.00  0.00    -0.550 OA
ATOM      4  O   UNL     1      -2.753  -6.711 -16.106  1.00  0.00    -0.550 OA
ENDROOT
TORSDOF 0
ENDMDL
MODEL 7
REMARK VINA RESULT:    -2.262     15.395     15.925
REMARK INTER + INTRA:          -2.262
REMARK INTER:                  -2.262
REMARK INTRA:                   0.000
REMARK UNBOUND:                 0.000
REMARK SMILES CC(=O)[O-]
REMARK SMILES IDX 1 1 2 2 3 3 4 4
REMARK H PARENT
REMARK Flexibility Score: inf
ROOT
ATOM      1  C   UNL     1       1.030 -16.940 -25.100  1.00  0.00     0.063 C 
ATOM      2  C   UNL     1       1.802 -18.064 -24.496  1.00  0.00     0.038 C 
ATOM      3  O   UNL     1       2.662 -17.832 -23.606  1.00  0.00    -0.550 OA
ATOM      4  O   UNL     1       1.613 -19.362 -24.951  1.00  0.00    -0.550 OA
ENDROOT
TORSDOF 0
ENDMDL
MODEL 8
REMARK VINA RESULT:    -2.185     12.778     13.207
REMARK INTER + INTRA:          -2.185
REMARK INTER:                  -2.185
REMARK INTRA:                   0.000
REMARK UNBOUND:                 0.000
REMARK SMILES CC(=O)[O-]
REMARK SMILES IDX 1 1 2 2 3 3 4 4
REMARK H PARENT
REMARK Flexibility Score: inf
ROOT
ATOM      1  C   UNL     1       7.295  -9.345 -20.006  1.00  0.00     0.063 C 
ATOM      2  C   UNL     1       7.700  -8.357 -21.047  1.00  0.00     0.038 C 
ATOM      3  O   UNL     1       6.843  -7.892 -21.843  1.00  0.00    -0.550 OA
ATOM      4  O   UNL     1       9.032  -7.989 -21.176  1.00  0.00    -0.550 OA
ENDROOT
TORSDOF 0
ENDMDL
MODEL 9
REMARK VINA RESULT:    -2.102     10.142     10.723
REMARK INTER + INTRA:          -2.102
REMARK INTER:                  -2.102
REMARK INTRA:                   0.000
REMARK UNBOUND:                 0.000
REMARK SMILES CC(=O)[O-]
REMARK SMILES IDX 1 1 2 2 3 3 4 4
REMARK H PARENT
REMARK Flexibility Score: inf
ROOT
ATOM      1  C   UNL     1      -4.380 -10.124  -7.173  1.00  0.00     0.063 C 
ATOM      2  C   UNL     1      -4.003 -10.070  -5.731  1.00  0.00     0.038 C 
ATOM      3  O   UNL     1      -3.304  -9.118  -5.297  1.00  0.00    -0.550 OA
ATOM      4  O   UNL     1      -4.376 -11.098  -4.876  1.00  0.00    -0.550 OA
ENDROOT
TORSDOF 0
ENDMDL
