MODEL 1
REMARK VINA RESULT:    -8.116      0.000      0.000
REMARK INTER + INTRA:          -9.876
REMARK INTER:                  -9.539
REMARK INTRA:                  -0.338
REMARK UNBOUND:                -0.338
REMARK SMILES C=C(C)[C@@H]1CC[C@@]2(C(=O)[O-])CC[C@]3(C)[C@@H](CC[C@H]4[C@]5(C)C[C@H](O)[C@@H](O)C(C)(C)[C@@H]5CC[C@]43C)[C@@H]12
REMARK SMILES IDX 7 1 6 2 34 3 11 4 5 5 15 6 4 7 12 8 16 9 13 10 17 11 32 12
REMARK SMILES IDX 14 13 18 14 31 15 33 16 19 17 30 18 29 19 21 20 20 21 26 22
REMARK SMILES IDX 22 23 24 24 27 25 28 26 8 27 9 28 10 29 2 30 3 31 1 32 23 33
REMARK SMILES IDX 25 35
REMARK H PARENT 23 34 25 36
REMARK Flexibility Score: inf
ROOT
ATOM      1  C   UNL     1      99.161 -63.428 106.012  1.00  0.00     0.014 C 
ATOM      2  C   UNL     1      99.561 -61.952 106.242  1.00  0.00     0.014 C 
ATOM      3  C   UNL     1      99.177 -63.559 104.461  1.00  0.00     0.012 C 
ATOM      4  C   UNL     1      97.783 -63.732 106.677  1.00  0.00     0.014 C 
ATOM      5  C   UNL     1     100.547 -61.612 105.136  1.00  0.00     0.009 C 
ATOM      6  C   UNL     1      97.749 -63.638 103.808  1.00  0.00     0.000 C 
ATOM      7  C   UNL     1     100.080 -62.410 103.917  1.00  0.00     0.018 C 
ATOM      8  C   UNL     1      96.864 -64.749 105.951  1.00  0.00     0.008 C 
ATOM      9  C   UNL     1      96.922 -62.340 103.920  1.00  0.00     0.005 C 
ATOM     10  C   UNL     1      96.934 -64.857 104.370  1.00  0.00    -0.024 C 
ATOM     11  C   UNL     1      95.627 -62.460 103.149  1.00  0.00     0.005 C 
ATOM     12  C   UNL     1      95.441 -64.968 103.718  1.00  0.00    -0.024 C 
ATOM     13  C   UNL     1      97.735 -66.163 104.018  1.00  0.00     0.012 C 
ATOM     14  C   UNL     1      94.674 -63.570 103.704  1.00  0.00     0.002 C 
ATOM     15  C   UNL     1      95.524 -65.442 102.233  1.00  0.00     0.008 C 
ATOM     16  C   UNL     1      94.649 -66.042 104.551  1.00  0.00     0.012 C 
ATOM     17  C   UNL     1      93.258 -63.522 102.922  1.00  0.00    -0.023 C 
ATOM     18  C   UNL     1      94.190 -65.443 101.474  1.00  0.00     0.005 C 
ATOM     19  C   UNL     1      93.426 -64.083 101.452  1.00  0.00     0.004 C 
ATOM     20  C   UNL     1      92.132 -64.330 103.645  1.00  0.00     0.042 C 
ATOM     21  C   UNL     1      92.793 -62.024 102.929  1.00  0.00     0.012 C 
ATOM     22  C   UNL     1      92.065 -64.200 100.622  1.00  0.00    -0.003 C 
ATOM     23  C   UNL     1      90.787 -64.403 102.878  1.00  0.00     0.144 C 
ATOM     24  C   UNL     1      90.970 -64.957 101.448  1.00  0.00     0.149 C 
ATOM     25  C   UNL     1      92.297 -64.989  99.299  1.00  0.00     0.014 C 
ATOM     26  C   UNL     1      91.550 -62.801 100.171  1.00  0.00     0.014 C 
ENDROOT
BRANCH   1  27
ATOM     27  C   UNL     1     100.201 -64.364 106.633  1.00  0.00     0.048 C 
ATOM     28  O   UNL     1     101.415 -64.321 106.289  1.00  0.00    -0.550 OA
ATOM     29  O   UNL     1      99.822 -65.275 107.612  1.00  0.00    -0.550 OA
ENDBRANCH   1  27
BRANCH   7  30
ATOM     30  C   UNL     1     101.244 -62.905 103.057  1.00  0.00    -0.077 C 
ATOM     31  C   UNL     1     101.318 -64.331 102.569  1.00  0.00     0.039 C 
ATOM     32  C   UNL     1     102.224 -62.060 102.697  1.00  0.00     0.008 C 
ENDBRANCH   7  30
BRANCH  23  33
ATOM     33  O   UNL     1      89.871 -65.198 103.593  1.00  0.00    -0.390 OA
ATOM     34  H   UNL     1      88.964 -65.035 103.225  1.00  0.00     0.211 HD
ENDBRANCH  23  33
BRANCH  24  35
ATOM     35  O   UNL     1      89.728 -64.903 100.787  1.00  0.00    -0.390 OA
ATOM     36  H   UNL     1      89.903 -64.999  99.815  1.00  0.00     0.211 HD
ENDBRANCH  24  35
TORSDOF 4
ENDMDL
MODEL 2
REMARK VINA RESULT:    -7.733      2.707      8.379
REMARK INTER + INTRA:          -9.427
REMARK INTER:                  -8.660
REMARK INTRA:                  -0.767
REMARK UNBOUND:                -0.338
REMARK SMILES C=C(C)[C@@H]1CC[C@@]2(C(=O)[O-])CC[C@]3(C)[C@@H](CC[C@H]4[C@]5(C)C[C@H](O)[C@@H](O)C(C)(C)[C@@H]5CC[C@]43C)[C@@H]12
REMARK SMILES IDX 7 1 6 2 34 3 11 4 5 5 15 6 4 7 12 8 16 9 13 10 17 11 32 12
REMARK SMILES IDX 14 13 18 14 31 15 33 16 19 17 30 18 29 19 21 20 20 21 26 22
REMARK SMILES IDX 22 23 24 24 27 25 28 26 8 27 9 28 10 29 2 30 3 31 1 32 23 33
REMARK SMILES IDX 25 35
REMARK H PARENT 23 34 25 36
REMARK Flexibility Score: inf
ROOT
ATOM      1  C   UNL     1      90.349 -66.700 102.576  1.00  0.00     0.014 C 
ATOM      2  C   UNL     1      89.956 -67.779 103.611  1.00  0.00     0.014 C 
ATOM      3  C   UNL     1      91.752 -67.171 102.092  1.00  0.00     0.012 C 
ATOM      4  C   UNL     1      90.327 -65.283 103.227  1.00  0.00     0.014 C 
ATOM      5  C   UNL     1      90.542 -69.084 103.094  1.00  0.00     0.009 C 
ATOM      6  C   UNL     1      92.945 -66.305 102.639  1.00  0.00     0.000 C 
ATOM      7  C   UNL     1      91.854 -68.695 102.408  1.00  0.00     0.018 C 
ATOM      8  C   UNL     1      91.383 -64.264 102.724  1.00  0.00     0.008 C 
ATOM      9  C   UNL     1      93.175 -66.422 104.161  1.00  0.00     0.005 C 
ATOM     10  C   UNL     1      92.790 -64.799 102.223  1.00  0.00    -0.024 C 
ATOM     11  C   UNL     1      94.419 -65.671 104.575  1.00  0.00     0.005 C 
ATOM     12  C   UNL     1      94.009 -63.866 102.779  1.00  0.00    -0.024 C 
ATOM     13  C   UNL     1      92.789 -64.740 100.652  1.00  0.00     0.012 C 
ATOM     14  C   UNL     1      94.328 -64.129 104.319  1.00  0.00     0.002 C 
ATOM     15  C   UNL     1      95.328 -64.162 101.997  1.00  0.00     0.008 C 
ATOM     16  C   UNL     1      93.598 -62.367 102.533  1.00  0.00     0.012 C 
ATOM     17  C   UNL     1      95.631 -63.391 104.932  1.00  0.00    -0.023 C 
ATOM     18  C   UNL     1      96.577 -63.447 102.532  1.00  0.00     0.005 C 
ATOM     19  C   UNL     1      96.902 -63.693 104.038  1.00  0.00     0.004 C 
ATOM     20  C   UNL     1      95.456 -61.842 105.054  1.00  0.00     0.042 C 
ATOM     21  C   UNL     1      95.802 -63.927 106.396  1.00  0.00     0.012 C 
ATOM     22  C   UNL     1      98.227 -62.914 104.477  1.00  0.00    -0.003 C 
ATOM     23  C   UNL     1      96.718 -61.080 105.534  1.00  0.00     0.144 C 
ATOM     24  C   UNL     1      97.945 -61.384 104.647  1.00  0.00     0.149 C 
ATOM     25  C   UNL     1      99.340 -63.079 103.399  1.00  0.00     0.014 C 
ATOM     26  C   UNL     1      98.837 -63.514 105.779  1.00  0.00     0.014 C 
ENDROOT
BRANCH   1  27
ATOM     27  C   UNL     1      89.360 -66.698 101.407  1.00  0.00     0.048 C 
ATOM     28  O   UNL     1      89.749 -66.564 100.215  1.00  0.00    -0.550 OA
ATOM     29  O   UNL     1      88.000 -66.863 101.646  1.00  0.00    -0.550 OA
ENDBRANCH   1  27
BRANCH   7  30
ATOM     30  C   UNL     1      92.152 -69.554 101.178  1.00  0.00    -0.077 C 
ATOM     31  C   UNL     1      92.164 -71.060 101.249  1.00  0.00     0.039 C 
ATOM     32  C   UNL     1      92.388 -68.972  99.991  1.00  0.00     0.008 C 
ENDBRANCH   7  30
BRANCH  23  33
ATOM     33  O   UNL     1      96.461 -59.695 105.552  1.00  0.00    -0.390 OA
ATOM     34  H   UNL     1      95.655 -59.521 105.000  1.00  0.00     0.211 HD
ENDBRANCH  23  33
BRANCH  24  35
ATOM     35  O   UNL     1      99.065 -60.734 105.201  1.00  0.00    -0.390 OA
ATOM     36  H   UNL     1      99.412 -61.308 105.932  1.00  0.00     0.211 HD
ENDBRANCH  24  35
TORSDOF 4
ENDMDL
MODEL 3
REMARK VINA RESULT:    -7.604      1.762      8.426
REMARK INTER + INTRA:          -9.275
REMARK INTER:                  -8.606
REMARK INTRA:                  -0.669
REMARK UNBOUND:                -0.338
REMARK SMILES C=C(C)[C@@H]1CC[C@@]2(C(=O)[O-])CC[C@]3(C)[C@@H](CC[C@H]4[C@]5(C)C[C@H](O)[C@@H](O)C(C)(C)[C@@H]5CC[C@]43C)[C@@H]12
REMARK SMILES IDX 7 1 6 2 34 3 11 4 5 5 15 6 4 7 12 8 16 9 13 10 17 11 32 12
REMARK SMILES IDX 14 13 18 14 31 15 33 16 19 17 30 18 29 19 21 20 20 21 26 22
REMARK SMILES IDX 22 23 24 24 27 25 28 26 8 27 9 28 10 29 2 30 3 31 1 32 23 33
REMARK SMILES IDX 25 35
REMARK H PARENT 23 34 25 36
REMARK Flexibility Score: inf
ROOT
ATOM      1  C   UNL     1      94.148 -64.909 103.459  1.00  0.00     0.014 C 
ATOM      2  C   UNL     1      94.078 -65.346 101.977  1.00  0.00     0.014 C 
ATOM      3  C   UNL     1      94.676 -63.447 103.369  1.00  0.00     0.012 C 
ATOM      4  C   UNL     1      95.057 -65.880 104.274  1.00  0.00     0.014 C 
ATOM      5  C   UNL     1      93.691 -64.101 101.195  1.00  0.00     0.009 C 
ATOM      6  C   UNL     1      96.174 -63.275 103.813  1.00  0.00     0.000 C 
ATOM      7  C   UNL     1      94.359 -62.937 101.930  1.00  0.00     0.018 C 
ATOM      8  C   UNL     1      95.892 -65.258 105.424  1.00  0.00     0.008 C 
ATOM      9  C   UNL     1      97.200 -63.946 102.875  1.00  0.00     0.005 C 
ATOM     10  C   UNL     1      96.387 -63.757 105.292  1.00  0.00    -0.024 C 
ATOM     11  C   UNL     1      98.612 -63.615 103.298  1.00  0.00     0.005 C 
ATOM     12  C   UNL     1      97.936 -63.600 105.786  1.00  0.00    -0.024 C 
ATOM     13  C   UNL     1      95.473 -62.872 106.214  1.00  0.00     0.012 C 
ATOM     14  C   UNL     1      98.979 -64.160 104.719  1.00  0.00     0.002 C 
ATOM     15  C   UNL     1      98.291 -62.096 106.006  1.00  0.00     0.008 C 
ATOM     16  C   UNL     1      98.065 -64.358 107.158  1.00  0.00     0.012 C 
ATOM     17  C   UNL     1     100.547 -63.896 105.021  1.00  0.00    -0.023 C 
ATOM     18  C   UNL     1      99.765 -61.816 106.332  1.00  0.00     0.005 C 
ATOM     19  C   UNL     1     100.799 -62.358 105.298  1.00  0.00     0.004 C 
ATOM     20  C   UNL     1     101.083 -64.722 106.237  1.00  0.00     0.042 C 
ATOM     21  C   UNL     1     101.337 -64.405 103.766  1.00  0.00     0.012 C 
ATOM     22  C   UNL     1     102.294 -61.995 105.732  1.00  0.00    -0.003 C 
ATOM     23  C   UNL     1     102.550 -64.421 106.632  1.00  0.00     0.144 C 
ATOM     24  C   UNL     1     102.776 -62.917 106.902  1.00  0.00     0.149 C 
ATOM     25  C   UNL     1     102.377 -60.518 106.220  1.00  0.00     0.014 C 
ATOM     26  C   UNL     1     103.275 -62.074 104.523  1.00  0.00     0.014 C 
ENDROOT
BRANCH   1  27
ATOM     27  C   UNL     1      92.753 -64.931 104.087  1.00  0.00     0.048 C 
ATOM     28  O   UNL     1      92.133 -63.865 104.354  1.00  0.00    -0.550 OA
ATOM     29  O   UNL     1      92.132 -66.144 104.362  1.00  0.00    -0.550 OA
ENDBRANCH   1  27
BRANCH   7  30
ATOM     30  C   UNL     1      93.511 -61.663 101.908  1.00  0.00    -0.077 C 
ATOM     31  C   UNL     1      94.018 -60.364 102.482  1.00  0.00     0.039 C 
ATOM     32  C   UNL     1      92.291 -61.676 101.347  1.00  0.00     0.008 C 
ENDBRANCH   7  30
BRANCH  23  33
ATOM     33  O   UNL     1     102.904 -65.177 107.767  1.00  0.00    -0.390 OA
ATOM     34  H   UNL     1     102.979 -64.559 108.540  1.00  0.00     0.211 HD
ENDBRANCH  23  33
BRANCH  24  35
ATOM     35  O   UNL     1     104.145 -62.712 107.160  1.00  0.00    -0.390 OA
ATOM     36  H   UNL     1     104.222 -61.912 107.742  1.00  0.00     0.211 HD
ENDBRANCH  24  35
TORSDOF 4
ENDMDL
MODEL 4
REMARK VINA RESULT:    -7.414      1.658      3.657
REMARK INTER + INTRA:          -9.052
REMARK INTER:                  -8.316
REMARK INTRA:                  -0.736
REMARK UNBOUND:                -0.338
REMARK SMILES C=C(C)[C@@H]1CC[C@@]2(C(=O)[O-])CC[C@]3(C)[C@@H](CC[C@H]4[C@]5(C)C[C@H](O)[C@@H](O)C(C)(C)[C@@H]5CC[C@]43C)[C@@H]12
REMARK SMILES IDX 7 1 6 2 34 3 11 4 5 5 15 6 4 7 12 8 16 9 13 10 17 11 32 12
REMARK SMILES IDX 14 13 18 14 31 15 33 16 19 17 30 18 29 19 21 20 20 21 26 22
REMARK SMILES IDX 22 23 24 24 27 25 28 26 8 27 9 28 10 29 2 30 3 31 1 32 23 33
REMARK SMILES IDX 25 35
REMARK H PARENT 23 34 25 36
REMARK Flexibility Score: inf
ROOT
ATOM      1  C   UNL     1      99.016 -63.379 104.457  1.00  0.00     0.014 C 
ATOM      2  C   UNL     1     100.121 -64.384 104.059  1.00  0.00     0.014 C 
ATOM      3  C   UNL     1      98.065 -64.235 105.344  1.00  0.00     0.012 C 
ATOM      4  C   UNL     1      98.347 -62.769 103.187  1.00  0.00     0.014 C 
ATOM      5  C   UNL     1     100.294 -65.306 105.256  1.00  0.00     0.009 C 
ATOM      6  C   UNL     1      96.708 -64.618 104.648  1.00  0.00     0.000 C 
ATOM      7  C   UNL     1      98.897 -65.447 105.864  1.00  0.00     0.018 C 
ATOM      8  C   UNL     1      96.833 -62.447 103.278  1.00  0.00     0.008 C 
ATOM      9  C   UNL     1      96.852 -65.593 103.460  1.00  0.00     0.005 C 
ATOM     10  C   UNL     1      95.911 -63.337 104.213  1.00  0.00    -0.024 C 
ATOM     11  C   UNL     1      95.496 -66.013 102.944  1.00  0.00     0.005 C 
ATOM     12  C   UNL     1      94.497 -63.697 103.480  1.00  0.00    -0.024 C 
ATOM     13  C   UNL     1      95.607 -62.506 105.512  1.00  0.00     0.012 C 
ATOM     14  C   UNL     1      94.656 -64.826 102.365  1.00  0.00     0.002 C 
ATOM     15  C   UNL     1      93.464 -64.240 104.517  1.00  0.00     0.008 C 
ATOM     16  C   UNL     1      93.942 -62.362 102.860  1.00  0.00     0.012 C 
ATOM     17  C   UNL     1      93.294 -65.390 101.697  1.00  0.00    -0.023 C 
ATOM     18  C   UNL     1      92.146 -64.748 103.917  1.00  0.00     0.005 C 
ATOM     19  C   UNL     1      92.283 -65.853 102.824  1.00  0.00     0.004 C 
ATOM     20  C   UNL     1      92.582 -64.341 100.781  1.00  0.00     0.042 C 
ATOM     21  C   UNL     1      93.711 -66.575 100.759  1.00  0.00     0.012 C 
ATOM     22  C   UNL     1      90.850 -66.314 102.286  1.00  0.00    -0.003 C 
ATOM     23  C   UNL     1      91.217 -64.797 100.206  1.00  0.00     0.144 C 
ATOM     24  C   UNL     1      90.244 -65.241 101.320  1.00  0.00     0.149 C 
ATOM     25  C   UNL     1      89.858 -66.506 103.472  1.00  0.00     0.014 C 
ATOM     26  C   UNL     1      90.922 -67.707 101.593  1.00  0.00     0.014 C 
ENDROOT
BRANCH   1  27
ATOM     27  C   UNL     1      99.611 -62.229 105.274  1.00  0.00     0.048 C 
ATOM     28  O   UNL     1     100.631 -61.600 104.881  1.00  0.00    -0.550 OA
ATOM     29  O   UNL     1      99.016 -61.845 106.471  1.00  0.00    -0.550 OA
ENDBRANCH   1  27
BRANCH   7  30
ATOM     30  C   UNL     1      98.928 -65.555 107.390  1.00  0.00    -0.077 C 
ATOM     31  C   UNL     1     100.121 -66.120 108.119  1.00  0.00     0.039 C 
ATOM     32  C   UNL     1      97.886 -65.121 108.118  1.00  0.00     0.008 C 
ENDBRANCH   7  30
BRANCH  23  33
ATOM     33  O   UNL     1      90.646 -63.757  99.448  1.00  0.00    -0.390 OA
ATOM     34  H   UNL     1      90.779 -62.905  99.939  1.00  0.00     0.211 HD
ENDBRANCH  23  33
BRANCH  24  35
ATOM     35  O   UNL     1      89.069 -65.728 100.716  1.00  0.00    -0.390 OA
ATOM     36  H   UNL     1      88.434 -64.969 100.643  1.00  0.00     0.211 HD
ENDBRANCH  24  35
TORSDOF 4
ENDMDL
MODEL 5
REMARK VINA RESULT:    -7.381      2.976      9.330
REMARK INTER + INTRA:          -9.013
REMARK INTER:                  -8.275
REMARK INTRA:                  -0.737
REMARK UNBOUND:                -0.338
REMARK SMILES C=C(C)[C@@H]1CC[C@@]2(C(=O)[O-])CC[C@]3(C)[C@@H](CC[C@H]4[C@]5(C)C[C@H](O)[C@@H](O)C(C)(C)[C@@H]5CC[C@]43C)[C@@H]12
REMARK SMILES IDX 7 1 6 2 34 3 11 4 5 5 15 6 4 7 12 8 16 9 13 10 17 11 32 12
REMARK SMILES IDX 14 13 18 14 31 15 33 16 19 17 30 18 29 19 21 20 20 21 26 22
REMARK SMILES IDX 22 23 24 24 27 25 28 26 8 27 9 28 10 29 2 30 3 31 1 32 23 33
REMARK SMILES IDX 25 35
REMARK H PARENT 23 34 25 36
REMARK Flexibility Score: inf
ROOT
ATOM      1  C   UNL     1      97.145 -64.739 104.538  1.00  0.00     0.014 C 
ATOM      2  C   UNL     1      96.655 -65.177 103.139  1.00  0.00     0.014 C 
ATOM      3  C   UNL     1      97.287 -63.196 104.394  1.00  0.00     0.012 C 
ATOM      4  C   UNL     1      98.465 -65.482 104.914  1.00  0.00     0.014 C 
ATOM      5  C   UNL     1      95.766 -64.050 102.639  1.00  0.00     0.009 C 
ATOM      6  C   UNL     1      98.774 -62.691 104.314  1.00  0.00     0.000 C 
ATOM      7  C   UNL     1      96.387 -62.767 103.195  1.00  0.00     0.018 C 
ATOM      8  C   UNL     1      99.498 -64.691 105.758  1.00  0.00     0.008 C 
ATOM      9  C   UNL     1      99.523 -63.110 103.032  1.00  0.00     0.005 C 
ATOM     10  C   UNL     1      99.587 -63.117 105.588  1.00  0.00    -0.024 C 
ATOM     11  C   UNL     1     100.890 -62.470 102.975  1.00  0.00     0.005 C 
ATOM     12  C   UNL     1     101.140 -62.614 105.537  1.00  0.00    -0.024 C 
ATOM     13  C   UNL     1      98.888 -62.463 106.835  1.00  0.00     0.012 C 
ATOM     14  C   UNL     1     101.837 -62.921 104.137  1.00  0.00     0.002 C 
ATOM     15  C   UNL     1     101.225 -61.069 105.745  1.00  0.00     0.008 C 
ATOM     16  C   UNL     1     101.898 -63.328 106.717  1.00  0.00     0.012 C 
ATOM     17  C   UNL     1     103.318 -62.311 103.908  1.00  0.00    -0.023 C 
ATOM     18  C   UNL     1     102.625 -60.464 105.572  1.00  0.00     0.005 C 
ATOM     19  C   UNL     1     103.322 -60.757 104.207  1.00  0.00     0.004 C 
ATOM     20  C   UNL     1     104.407 -62.998 104.797  1.00  0.00     0.042 C 
ATOM     21  C   UNL     1     103.709 -62.625 102.422  1.00  0.00     0.012 C 
ATOM     22  C   UNL     1     104.761 -60.066 104.134  1.00  0.00    -0.003 C 
ATOM     23  C   UNL     1     105.822 -62.374 104.693  1.00  0.00     0.144 C 
ATOM     24  C   UNL     1     105.805 -60.858 104.992  1.00  0.00     0.149 C 
ATOM     25  C   UNL     1     104.697 -58.609 104.684  1.00  0.00     0.014 C 
ATOM     26  C   UNL     1     105.250 -59.918 102.663  1.00  0.00     0.014 C 
ENDROOT
BRANCH   1  27
ATOM     27  C   UNL     1      96.095 -65.078 105.600  1.00  0.00     0.048 C 
ATOM     28  O   UNL     1      95.882 -64.316 106.582  1.00  0.00    -0.550 OA
ATOM     29  O   UNL     1      95.339 -66.239 105.486  1.00  0.00    -0.550 OA
ENDBRANCH   1  27
BRANCH   7  30
ATOM     30  C   UNL     1      95.337 -61.718 103.566  1.00  0.00    -0.077 C 
ATOM     31  C   UNL     1      95.515 -60.804 104.752  1.00  0.00     0.039 C 
ATOM     32  C   UNL     1      94.231 -61.576 102.816  1.00  0.00     0.008 C 
ENDBRANCH   7  30
BRANCH  23  33
ATOM     33  O   UNL     1     106.700 -63.033 105.574  1.00  0.00    -0.390 OA
ATOM     34  H   UNL     1     106.191 -63.739 106.051  1.00  0.00     0.211 HD
ENDBRANCH  23  33
BRANCH  24  35
ATOM     35  O   UNL     1     107.102 -60.350 104.785  1.00  0.00    -0.390 OA
ATOM     36  H   UNL     1     107.071 -59.775 103.977  1.00  0.00     0.211 HD
ENDBRANCH  24  35
TORSDOF 4
ENDMDL
MODEL 6
REMARK VINA RESULT:    -7.375      2.515      4.932
REMARK INTER + INTRA:          -9.006
REMARK INTER:                  -8.331
REMARK INTRA:                  -0.675
REMARK UNBOUND:                -0.338
REMARK SMILES C=C(C)[C@@H]1CC[C@@]2(C(=O)[O-])CC[C@]3(C)[C@@H](CC[C@H]4[C@]5(C)C[C@H](O)[C@@H](O)C(C)(C)[C@@H]5CC[C@]43C)[C@@H]12
REMARK SMILES IDX 7 1 6 2 34 3 11 4 5 5 15 6 4 7 12 8 16 9 13 10 17 11 32 12
REMARK SMILES IDX 14 13 18 14 31 15 33 16 19 17 30 18 29 19 21 20 20 21 26 22
REMARK SMILES IDX 22 23 24 24 27 25 28 26 8 27 9 28 10 29 2 30 3 31 1 32 23 33
REMARK SMILES IDX 25 35
REMARK H PARENT 23 34 25 36
REMARK Flexibility Score: inf
ROOT
ATOM      1  C   UNL     1      96.745 -63.358 103.847  1.00  0.00     0.014 C 
ATOM      2  C   UNL     1      98.057 -64.164 103.715  1.00  0.00     0.014 C 
ATOM      3  C   UNL     1      95.753 -64.396 104.448  1.00  0.00     0.012 C 
ATOM      4  C   UNL     1      96.319 -62.774 102.465  1.00  0.00     0.014 C 
ATOM      5  C   UNL     1      98.076 -65.123 104.894  1.00  0.00     0.009 C 
ATOM      6  C   UNL     1      94.684 -64.930 103.426  1.00  0.00     0.000 C 
ATOM      7  C   UNL     1      96.612 -65.504 105.130  1.00  0.00     0.018 C 
ATOM      8  C   UNL     1      94.796 -62.683 102.182  1.00  0.00     0.008 C 
ATOM      9  C   UNL     1      95.263 -65.798 102.289  1.00  0.00     0.005 C 
ATOM     10  C   UNL     1      93.826 -63.754 102.835  1.00  0.00    -0.024 C 
ATOM     11  C   UNL     1      94.157 -66.379 101.440  1.00  0.00     0.005 C 
ATOM     12  C   UNL     1      92.708 -64.271 101.764  1.00  0.00    -0.024 C 
ATOM     13  C   UNL     1      93.089 -63.058 104.036  1.00  0.00     0.012 C 
ATOM     14  C   UNL     1      93.307 -65.293 100.698  1.00  0.00     0.002 C 
ATOM     15  C   UNL     1      91.551 -65.022 102.496  1.00  0.00     0.008 C 
ATOM     16  C   UNL     1      92.117 -62.995 101.057  1.00  0.00     0.012 C 
ATOM     17  C   UNL     1      92.255 -66.007  99.697  1.00  0.00    -0.023 C 
ATOM     18  C   UNL     1      90.515 -65.679 101.574  1.00  0.00     0.005 C 
ATOM     19  C   UNL     1      91.085 -66.682 100.524  1.00  0.00     0.004 C 
ATOM     20  C   UNL     1      91.632 -65.019  98.657  1.00  0.00     0.042 C 
ATOM     21  C   UNL     1      93.069 -67.059  98.865  1.00  0.00     0.012 C 
ATOM     22  C   UNL     1      89.917 -67.313  99.635  1.00  0.00    -0.003 C 
ATOM     23  C   UNL     1      90.537 -65.633  97.749  1.00  0.00     0.144 C 
ATOM     24  C   UNL     1      89.404 -66.283  98.573  1.00  0.00     0.149 C 
ATOM     25  C   UNL     1      88.709 -67.721 100.530  1.00  0.00     0.014 C 
ATOM     26  C   UNL     1      90.373 -68.635  98.948  1.00  0.00     0.014 C 
ENDROOT
BRANCH   1  27
ATOM     27  C   UNL     1      96.935 -62.186 104.814  1.00  0.00     0.048 C 
ATOM     28  O   UNL     1      95.961 -61.680 105.435  1.00  0.00    -0.550 OA
ATOM     29  O   UNL     1      98.205 -61.667 105.038  1.00  0.00    -0.550 OA
ENDBRANCH   1  27
BRANCH   7  30
ATOM     30  C   UNL     1      96.288 -65.701 106.612  1.00  0.00    -0.077 C 
ATOM     31  C   UNL     1      96.409 -64.573 107.606  1.00  0.00     0.039 C 
ATOM     32  C   UNL     1      95.860 -66.894 107.056  1.00  0.00     0.008 C 
ENDBRANCH   7  30
BRANCH  23  33
ATOM     33  O   UNL     1      90.012 -64.643  96.896  1.00  0.00    -0.390 OA
ATOM     34  H   UNL     1      90.258 -64.874  95.963  1.00  0.00     0.211 HD
ENDBRANCH  23  33
BRANCH  24  35
ATOM     35  O   UNL     1      88.503 -66.898  97.683  1.00  0.00    -0.390 OA
ATOM     36  H   UNL     1      88.270 -66.230  96.986  1.00  0.00     0.211 HD
ENDBRANCH  24  35
TORSDOF 4
ENDMDL
MODEL 7
REMARK VINA RESULT:    -7.297      2.470      8.342
REMARK INTER + INTRA:          -8.915
REMARK INTER:                  -8.188
REMARK INTRA:                  -0.727
REMARK UNBOUND:                -0.338
REMARK SMILES C=C(C)[C@@H]1CC[C@@]2(C(=O)[O-])CC[C@]3(C)[C@@H](CC[C@H]4[C@]5(C)C[C@H](O)[C@@H](O)C(C)(C)[C@@H]5CC[C@]43C)[C@@H]12
REMARK SMILES IDX 7 1 6 2 34 3 11 4 5 5 15 6 4 7 12 8 16 9 13 10 17 11 32 12
REMARK SMILES IDX 14 13 18 14 31 15 33 16 19 17 30 18 29 19 21 20 20 21 26 22
REMARK SMILES IDX 22 23 24 24 27 25 28 26 8 27 9 28 10 29 2 30 3 31 1 32 23 33
REMARK SMILES IDX 25 35
REMARK H PARENT 23 34 25 36
REMARK Flexibility Score: inf
ROOT
ATOM      1  C   UNL     1      90.867 -66.245 102.474  1.00  0.00     0.014 C 
ATOM      2  C   UNL     1      90.161 -67.051 103.589  1.00  0.00     0.014 C 
ATOM      3  C   UNL     1      92.220 -66.995 102.302  1.00  0.00     0.012 C 
ATOM      4  C   UNL     1      91.000 -64.745 102.883  1.00  0.00     0.014 C 
ATOM      5  C   UNL     1      90.579 -68.498 103.384  1.00  0.00     0.009 C 
ATOM      6  C   UNL     1      93.460 -66.227 102.890  1.00  0.00     0.000 C 
ATOM      7  C   UNL     1      92.018 -68.434 102.865  1.00  0.00     0.018 C 
ATOM      8  C   UNL     1      92.273 -63.999 102.403  1.00  0.00     0.008 C 
ATOM      9  C   UNL     1      93.462 -66.100 104.428  1.00  0.00     0.005 C 
ATOM     10  C   UNL     1      93.621 -64.814 102.224  1.00  0.00    -0.024 C 
ATOM     11  C   UNL     1      94.750 -65.475 104.914  1.00  0.00     0.005 C 
ATOM     12  C   UNL     1      94.897 -63.984 102.815  1.00  0.00    -0.024 C 
ATOM     13  C   UNL     1      93.839 -65.040 100.684  1.00  0.00     0.012 C 
ATOM     14  C   UNL     1      94.958 -64.009 104.408  1.00  0.00     0.002 C 
ATOM     15  C   UNL     1      96.238 -64.604 102.311  1.00  0.00     0.008 C 
ATOM     16  C   UNL     1      94.784 -62.511 102.275  1.00  0.00     0.012 C 
ATOM     17  C   UNL     1      96.275 -63.370 105.099  1.00  0.00    -0.023 C 
ATOM     18  C   UNL     1      97.508 -63.994 102.921  1.00  0.00     0.005 C 
ATOM     19  C   UNL     1      97.583 -64.010 104.479  1.00  0.00     0.004 C 
ATOM     20  C   UNL     1      96.352 -61.815 104.948  1.00  0.00     0.042 C 
ATOM     21  C   UNL     1      96.155 -63.652 106.638  1.00  0.00     0.012 C 
ATOM     22  C   UNL     1      98.951 -63.366 104.997  1.00  0.00    -0.003 C 
ATOM     23  C   UNL     1      97.650 -61.171 105.498  1.00  0.00     0.144 C 
ATOM     24  C   UNL     1      98.915 -61.805 104.878  1.00  0.00     0.149 C 
ATOM     25  C   UNL     1     100.153 -63.883 104.151  1.00  0.00     0.014 C 
ATOM     26  C   UNL     1      99.271 -63.804 106.458  1.00  0.00     0.014 C 
ENDROOT
BRANCH   1  27
ATOM     27  C   UNL     1      90.057 -66.309 101.176  1.00  0.00     0.048 C 
ATOM     28  O   UNL     1      90.612 -66.211 100.048  1.00  0.00    -0.550 OA
ATOM     29  O   UNL     1      88.680 -66.498 101.223  1.00  0.00    -0.550 OA
ENDBRANCH   1  27
BRANCH   7  30
ATOM     30  C   UNL     1      92.325 -69.535 101.848  1.00  0.00    -0.077 C 
ATOM     31  C   UNL     1      92.833 -69.216 100.465  1.00  0.00     0.039 C 
ATOM     32  C   UNL     1      92.168 -70.826 102.184  1.00  0.00     0.008 C 
ENDBRANCH   7  30
BRANCH  23  33
ATOM     33  O   UNL     1      97.634 -59.784 105.258  1.00  0.00    -0.390 OA
ATOM     34  H   UNL     1      96.705 -59.518 105.031  1.00  0.00     0.211 HD
ENDBRANCH  23  33
BRANCH  24  35
ATOM     35  O   UNL     1     100.045 -61.236 105.495  1.00  0.00    -0.390 OA
ATOM     36  H   UNL     1      99.835 -60.284 105.682  1.00  0.00     0.211 HD
ENDBRANCH  24  35
TORSDOF 4
ENDMDL
MODEL 8
REMARK VINA RESULT:    -7.154      1.970      3.879
REMARK INTER + INTRA:          -8.746
REMARK INTER:                  -8.234
REMARK INTRA:                  -0.512
REMARK UNBOUND:                -0.338
REMARK SMILES C=C(C)[C@@H]1CC[C@@]2(C(=O)[O-])CC[C@]3(C)[C@@H](CC[C@H]4[C@]5(C)C[C@H](O)[C@@H](O)C(C)(C)[C@@H]5CC[C@]43C)[C@@H]12
REMARK SMILES IDX 7 1 6 2 34 3 11 4 5 5 15 6 4 7 12 8 16 9 13 10 17 11 32 12
REMARK SMILES IDX 14 13 18 14 31 15 33 16 19 17 30 18 29 19 21 20 20 21 26 22
REMARK SMILES IDX 22 23 24 24 27 25 28 26 8 27 9 28 10 29 2 30 3 31 1 32 23 33
REMARK SMILES IDX 25 35
REMARK H PARENT 23 34 25 36
REMARK Flexibility Score: inf
ROOT
ATOM      1  C   UNL     1     101.531 -63.609 104.959  1.00  0.00     0.014 C 
ATOM      2  C   UNL     1     102.398 -64.526 104.066  1.00  0.00     0.014 C 
ATOM      3  C   UNL     1     100.537 -64.605 105.624  1.00  0.00     0.012 C 
ATOM      4  C   UNL     1     100.858 -62.491 104.104  1.00  0.00     0.014 C 
ATOM      5  C   UNL     1     102.524 -65.841 104.819  1.00  0.00     0.009 C 
ATOM      6  C   UNL     1      99.072 -64.526 105.058  1.00  0.00     0.000 C 
ATOM      7  C   UNL     1     101.190 -66.018 105.549  1.00  0.00     0.018 C 
ATOM      8  C   UNL     1      99.440 -62.036 104.537  1.00  0.00     0.008 C 
ATOM      9  C   UNL     1      98.925 -64.999 103.597  1.00  0.00     0.005 C 
ATOM     10  C   UNL     1      98.473 -63.084 105.231  1.00  0.00    -0.024 C 
ATOM     11  C   UNL     1      97.472 -65.020 103.183  1.00  0.00     0.005 C 
ATOM     12  C   UNL     1      96.953 -62.963 104.648  1.00  0.00    -0.024 C 
ATOM     13  C   UNL     1      98.449 -62.764 106.770  1.00  0.00     0.012 C 
ATOM     14  C   UNL     1      96.801 -63.606 103.197  1.00  0.00     0.002 C 
ATOM     15  C   UNL     1      95.948 -63.716 105.575  1.00  0.00     0.008 C 
ATOM     16  C   UNL     1      96.582 -61.434 104.632  1.00  0.00     0.012 C 
ATOM     17  C   UNL     1      95.302 -63.703 102.594  1.00  0.00    -0.023 C 
ATOM     18  C   UNL     1      94.508 -63.793 105.048  1.00  0.00     0.005 C 
ATOM     19  C   UNL     1      94.341 -64.419 103.629  1.00  0.00     0.004 C 
ATOM     20  C   UNL     1      94.698 -62.307 102.228  1.00  0.00     0.042 C 
ATOM     21  C   UNL     1      95.411 -64.497 101.246  1.00  0.00     0.012 C 
ATOM     22  C   UNL     1      92.803 -64.461 103.193  1.00  0.00    -0.003 C 
ATOM     23  C   UNL     1      93.225 -62.340 101.750  1.00  0.00     0.144 C 
ATOM     24  C   UNL     1      92.303 -63.038 102.773  1.00  0.00     0.149 C 
ATOM     25  C   UNL     1      91.915 -64.952 104.375  1.00  0.00     0.014 C 
ATOM     26  C   UNL     1      92.561 -65.493 102.052  1.00  0.00     0.014 C 
ENDROOT
BRANCH   1  27
ATOM     27  C   UNL     1     102.396 -62.931 106.025  1.00  0.00     0.048 C 
ATOM     28  O   UNL     1     102.649 -63.496 107.124  1.00  0.00    -0.550 OA
ATOM     29  O   UNL     1     102.937 -61.673 105.786  1.00  0.00    -0.550 OA
ENDBRANCH   1  27
BRANCH   7  30
ATOM     30  C   UNL     1     101.351 -66.689 106.914  1.00  0.00    -0.077 C 
ATOM     31  C   UNL     1     100.589 -66.213 108.125  1.00  0.00     0.039 C 
ATOM     32  C   UNL     1     102.171 -67.744 107.054  1.00  0.00     0.008 C 
ENDBRANCH   7  30
BRANCH  23  33
ATOM     33  O   UNL     1      92.773 -61.029 101.504  1.00  0.00    -0.390 OA
ATOM     34  H   UNL     1      92.510 -60.623 102.371  1.00  0.00     0.211 HD
ENDBRANCH  23  33
BRANCH  24  35
ATOM     35  O   UNL     1      91.007 -63.112 102.227  1.00  0.00    -0.390 OA
ATOM     36  H   UNL     1      91.073 -62.860 101.269  1.00  0.00     0.211 HD
ENDBRANCH  24  35
TORSDOF 4
ENDMDL
MODEL 9
REMARK VINA RESULT:    -7.150      3.919      9.486
REMARK INTER + INTRA:          -8.742
REMARK INTER:                  -8.033
REMARK INTRA:                  -0.708
REMARK UNBOUND:                -0.338
REMARK SMILES C=C(C)[C@@H]1CC[C@@]2(C(=O)[O-])CC[C@]3(C)[C@@H](CC[C@H]4[C@]5(C)C[C@H](O)[C@@H](O)C(C)(C)[C@@H]5CC[C@]43C)[C@@H]12
REMARK SMILES IDX 7 1 6 2 34 3 11 4 5 5 15 6 4 7 12 8 16 9 13 10 17 11 32 12
REMARK SMILES IDX 14 13 18 14 31 15 33 16 19 17 30 18 29 19 21 20 20 21 26 22
REMARK SMILES IDX 22 23 24 24 27 25 28 26 8 27 9 28 10 29 2 30 3 31 1 32 23 33
REMARK SMILES IDX 25 35
REMARK H PARENT 23 34 25 36
REMARK Flexibility Score: inf
ROOT
ATOM      1  C   UNL     1      89.909 -70.123 101.081  1.00  0.00     0.014 C 
ATOM      2  C   UNL     1      90.566 -70.872  99.898  1.00  0.00     0.014 C 
ATOM      3  C   UNL     1      89.650 -68.703 100.497  1.00  0.00     0.012 C 
ATOM      4  C   UNL     1      90.841 -70.151 102.332  1.00  0.00     0.014 C 
ATOM      5  C   UNL     1      89.910 -70.320  98.642  1.00  0.00     0.009 C 
ATOM      6  C   UNL     1      90.622 -67.595 101.043  1.00  0.00     0.000 C 
ATOM      7  C   UNL     1      89.631 -68.847  98.944  1.00  0.00     0.018 C 
ATOM      8  C   UNL     1      90.821 -68.900 103.249  1.00  0.00     0.008 C 
ATOM      9  C   UNL     1      92.091 -67.759 100.600  1.00  0.00     0.005 C 
ATOM     10  C   UNL     1      90.531 -67.480 102.607  1.00  0.00    -0.024 C 
ATOM     11  C   UNL     1      92.923 -66.582 101.053  1.00  0.00     0.005 C 
ATOM     12  C   UNL     1      91.533 -66.341 103.211  1.00  0.00    -0.024 C 
ATOM     13  C   UNL     1      89.051 -67.089 102.966  1.00  0.00     0.012 C 
ATOM     14  C   UNL     1      93.006 -66.441 102.610  1.00  0.00     0.002 C 
ATOM     15  C   UNL     1      91.010 -64.911 102.868  1.00  0.00     0.008 C 
ATOM     16  C   UNL     1      91.546 -66.516 104.775  1.00  0.00     0.012 C 
ATOM     17  C   UNL     1      94.037 -65.256 103.001  1.00  0.00    -0.023 C 
ATOM     18  C   UNL     1      91.949 -63.762 103.261  1.00  0.00     0.005 C 
ATOM     19  C   UNL     1      93.395 -63.845 102.681  1.00  0.00     0.004 C 
ATOM     20  C   UNL     1      94.462 -65.288 104.506  1.00  0.00     0.042 C 
ATOM     21  C   UNL     1      95.345 -65.509 102.173  1.00  0.00     0.012 C 
ATOM     22  C   UNL     1      94.275 -62.592 103.142  1.00  0.00    -0.003 C 
ATOM     23  C   UNL     1      95.363 -64.109 104.953  1.00  0.00     0.144 C 
ATOM     24  C   UNL     1      94.718 -62.741 104.636  1.00  0.00     0.149 C 
ATOM     25  C   UNL     1      93.455 -61.273 103.015  1.00  0.00     0.014 C 
ATOM     26  C   UNL     1      95.509 -62.389 102.214  1.00  0.00     0.014 C 
ENDROOT
BRANCH   1  27
ATOM     27  C   UNL     1      88.585 -70.789 101.464  1.00  0.00     0.048 C 
ATOM     28  O   UNL     1      87.675 -70.150 102.060  1.00  0.00    -0.550 OA
ATOM     29  O   UNL     1      88.357 -72.121 101.139  1.00  0.00    -0.550 OA
ENDBRANCH   1  27
BRANCH   7  30
ATOM     30  C   UNL     1      88.334 -68.350  98.302  1.00  0.00    -0.077 C 
ATOM     31  C   UNL     1      88.209 -68.164  96.811  1.00  0.00     0.039 C 
ATOM     32  C   UNL     1      87.260 -68.089  99.066  1.00  0.00     0.008 C 
ENDBRANCH   7  30
BRANCH  23  33
ATOM     33  O   UNL     1      95.634 -64.211 106.331  1.00  0.00    -0.390 OA
ATOM     34  H   UNL     1      96.554 -64.567 106.441  1.00  0.00     0.211 HD
ENDBRANCH  23  33
BRANCH  24  35
ATOM     35  O   UNL     1      95.633 -61.728 104.983  1.00  0.00    -0.390 OA
ATOM     36  H   UNL     1      96.397 -61.788 104.353  1.00  0.00     0.211 HD
ENDBRANCH  24  35
TORSDOF 4
ENDMDL
