MODEL 1
REMARK VINA RESULT:    -1.528      0.000      0.000
REMARK INTER + INTRA:          -3.263
REMARK INTER:                  -2.331
REMARK INTRA:                  -0.932
REMARK UNBOUND:                -0.932
REMARK SMILES CC(=O)CCC=C(C)CCC=C(C)CCC=C(C)C
REMARK SMILES IDX 10 1 11 2 12 3 13 4 14 5 15 6 16 7 18 8 17 9 19 10 9 11 7 12
REMARK SMILES IDX 6 13 8 14 5 15 4 16 2 17 3 18 1 19
REMARK H PARENT
REMARK Flexibility Score: inf
ROOT
ATOM      1  C   UNL     1       2.618  12.759  -6.027  1.00  0.00     0.032 C 
ENDROOT
BRANCH   1   2
ATOM      2  C   UNL     1       3.724  12.453  -7.003  1.00  0.00    -0.028 C 
ATOM      3  C   UNL     1       3.671  11.472  -7.933  1.00  0.00    -0.077 C 
ATOM      4  C   UNL     1       2.432  10.629  -8.133  1.00  0.00     0.039 C 
BRANCH   3   5
ATOM      5  C   UNL     1       4.886  11.213  -8.801  1.00  0.00     0.034 C 
BRANCH   5   6
ATOM      6  C   UNL     1       6.057  12.138  -8.438  1.00  0.00     0.032 C 
BRANCH   6   7
ATOM      7  C   UNL     1       5.905  13.506  -9.058  1.00  0.00    -0.028 C 
ATOM      8  C   UNL     1       5.566  15.938  -9.125  1.00  0.00     0.039 C 
ATOM      9  C   UNL     1       5.759  14.653  -8.360  1.00  0.00    -0.080 C 
ATOM     10  C   UNL     1       5.803  14.685  -6.850  1.00  0.00     0.039 C 
ENDBRANCH   6   7
ENDBRANCH   5   6
ENDBRANCH   3   5
ENDBRANCH   1   2
BRANCH   1  11
ATOM     11  C   UNL     1       1.524  13.596  -6.699  1.00  0.00     0.034 C 
BRANCH  11  12
ATOM     12  C   UNL     1       2.120  14.659  -7.602  1.00  0.00    -0.077 C 
ATOM     13  C   UNL     1       2.562  15.857  -7.153  1.00  0.00    -0.028 C 
ATOM     14  C   UNL     1       2.222  14.378  -9.081  1.00  0.00     0.039 C 
BRANCH  13  15
ATOM     15  C   UNL     1       2.568  16.315  -5.711  1.00  0.00     0.035 C 
BRANCH  15  16
ATOM     16  C   UNL     1       3.820  17.144  -5.396  1.00  0.00     0.079 C 
BRANCH  16  17
ATOM     17  C   UNL     1       3.804  18.477  -6.098  1.00  0.00     0.130 C 
ATOM     18  O   UNL     1       4.422  18.619  -7.142  1.00  0.00    -0.300 OA
ATOM     19  C   UNL     1       3.012  19.627  -5.552  1.00  0.00     0.087 C 
ENDBRANCH  16  17
ENDBRANCH  15  16
ENDBRANCH  13  15
ENDBRANCH  11  12
ENDBRANCH   1  11
TORSDOF 9
ENDMDL
MODEL 2
REMARK VINA RESULT:    -1.279      2.493      4.814
REMARK INTER + INTRA:          -2.883
REMARK INTER:                  -1.783
REMARK INTRA:                  -1.101
REMARK UNBOUND:                -0.932
REMARK SMILES CC(=O)CCC=C(C)CCC=C(C)CCC=C(C)C
REMARK SMILES IDX 10 1 11 2 12 3 13 4 14 5 15 6 16 7 18 8 17 9 19 10 9 11 7 12
REMARK SMILES IDX 6 13 8 14 5 15 4 16 2 17 3 18 1 19
REMARK H PARENT
REMARK Flexibility Score: inf
ROOT
ATOM      1  C   UNL     1       3.480  11.657  -8.740  1.00  0.00     0.032 C 
ENDROOT
BRANCH   1   2
ATOM      2  C   UNL     1       2.880  12.467  -7.620  1.00  0.00    -0.028 C 
ATOM      3  C   UNL     1       2.353  13.704  -7.770  1.00  0.00    -0.077 C 
ATOM      4  C   UNL     1       2.242  14.365  -9.125  1.00  0.00     0.039 C 
BRANCH   3   5
ATOM      5  C   UNL     1       1.856  14.446  -6.546  1.00  0.00     0.034 C 
BRANCH   5   6
ATOM      6  C   UNL     1       2.997  14.776  -5.574  1.00  0.00     0.032 C 
BRANCH   6   7
ATOM      7  C   UNL     1       3.110  16.261  -5.322  1.00  0.00    -0.028 C 
ATOM      8  C   UNL     1       3.746  18.592  -5.765  1.00  0.00     0.039 C 
ATOM      9  C   UNL     1       3.660  17.146  -6.182  1.00  0.00    -0.080 C 
ATOM     10  C   UNL     1       4.168  16.732  -7.544  1.00  0.00     0.039 C 
ENDBRANCH   6   7
ENDBRANCH   5   6
ENDBRANCH   3   5
ENDBRANCH   1   2
BRANCH   1  11
ATOM     11  C   UNL     1       5.000  11.554  -8.576  1.00  0.00     0.034 C 
BRANCH  11  12
ATOM     12  C   UNL     1       5.591  12.863  -8.087  1.00  0.00    -0.077 C 
ATOM     13  C   UNL     1       5.949  13.086  -6.801  1.00  0.00    -0.028 C 
ATOM     14  C   UNL     1       5.783  13.985  -9.078  1.00  0.00     0.039 C 
BRANCH  13  15
ATOM     15  C   UNL     1       5.858  12.085  -5.670  1.00  0.00     0.035 C 
BRANCH  15  16
ATOM     16  C   UNL     1       6.382  12.680  -4.357  1.00  0.00     0.079 C 
BRANCH  16  17
ATOM     17  C   UNL     1       5.323  12.701  -3.286  1.00  0.00     0.130 C 
ATOM     18  O   UNL     1       4.168  12.967  -3.583  1.00  0.00    -0.300 OA
ATOM     19  C   UNL     1       5.657  12.368  -1.863  1.00  0.00     0.087 C 
ENDBRANCH  16  17
ENDBRANCH  15  16
ENDBRANCH  13  15
ENDBRANCH  11  12
ENDBRANCH   1  11
TORSDOF 9
ENDMDL
MODEL 3
REMARK VINA RESULT:    -1.258      1.325      4.867
REMARK INTER + INTRA:          -2.852
REMARK INTER:                  -2.165
REMARK INTRA:                  -0.687
REMARK UNBOUND:                -0.932
REMARK SMILES CC(=O)CCC=C(C)CCC=C(C)CCC=C(C)C
REMARK SMILES IDX 10 1 11 2 12 3 13 4 14 5 15 6 16 7 18 8 17 9 19 10 9 11 7 12
REMARK SMILES IDX 6 13 8 14 5 15 4 16 2 17 3 18 1 19
REMARK H PARENT
REMARK Flexibility Score: inf
ROOT
ATOM      1  C   UNL     1       2.186  13.489  -8.873  1.00  0.00     0.032 C 
ENDROOT
BRANCH   1   2
ATOM      2  C   UNL     1       2.153  14.576  -7.831  1.00  0.00    -0.028 C 
ATOM      3  C   UNL     1       2.183  14.354  -6.496  1.00  0.00    -0.077 C 
ATOM      4  C   UNL     1       2.339  12.965  -5.922  1.00  0.00     0.039 C 
BRANCH   3   5
ATOM      5  C   UNL     1       2.060  15.532  -5.550  1.00  0.00     0.034 C 
BRANCH   5   6
ATOM      6  C   UNL     1       3.075  16.637  -5.878  1.00  0.00     0.032 C 
BRANCH   6   7
ATOM      7  C   UNL     1       2.467  18.013  -5.752  1.00  0.00    -0.028 C 
ATOM      8  C   UNL     1       2.424  20.460  -5.537  1.00  0.00     0.039 C 
ATOM      9  C   UNL     1       3.173  19.165  -5.719  1.00  0.00    -0.080 C 
ATOM     10  C   UNL     1       4.675  19.189  -5.880  1.00  0.00     0.039 C 
ENDBRANCH   6   7
ENDBRANCH   5   6
ENDBRANCH   3   5
ENDBRANCH   1   2
BRANCH   1  11
ATOM     11  C   UNL     1       3.626  13.028  -9.125  1.00  0.00     0.034 C 
BRANCH  11  12
ATOM     12  C   UNL     1       3.837  11.600  -8.658  1.00  0.00    -0.077 C 
ATOM     13  C   UNL     1       4.934  11.191  -7.980  1.00  0.00    -0.028 C 
ATOM     14  C   UNL     1       2.777  10.574  -8.972  1.00  0.00     0.039 C 
BRANCH  13  15
ATOM     15  C   UNL     1       6.089  12.069  -7.551  1.00  0.00     0.035 C 
BRANCH  15  16
ATOM     16  C   UNL     1       5.713  12.928  -6.336  1.00  0.00     0.079 C 
BRANCH  16  17
ATOM     17  C   UNL     1       5.679  14.395  -6.673  1.00  0.00     0.130 C 
ATOM     18  O   UNL     1       5.601  15.220  -5.776  1.00  0.00    -0.300 OA
ATOM     19  C   UNL     1       5.774  14.864  -8.094  1.00  0.00     0.087 C 
ENDBRANCH  16  17
ENDBRANCH  15  16
ENDBRANCH  13  15
ENDBRANCH  11  12
ENDBRANCH   1  11
TORSDOF 9
ENDMDL
MODEL 4
REMARK VINA RESULT:    -1.070      1.638      5.024
REMARK INTER + INTRA:          -2.565
REMARK INTER:                  -1.580
REMARK INTRA:                  -0.985
REMARK UNBOUND:                -0.932
REMARK SMILES CC(=O)CCC=C(C)CCC=C(C)CCC=C(C)C
REMARK SMILES IDX 10 1 11 2 12 3 13 4 14 5 15 6 16 7 18 8 17 9 19 10 9 11 7 12
REMARK SMILES IDX 6 13 8 14 5 15 4 16 2 17 3 18 1 19
REMARK H PARENT
REMARK Flexibility Score: inf
ROOT
ATOM      1  C   UNL     1       2.152  12.614  -6.769  1.00  0.00     0.032 C 
ENDROOT
BRANCH   1   2
ATOM      2  C   UNL     1       2.774  13.981  -6.643  1.00  0.00    -0.028 C 
ATOM      3  C   UNL     1       2.898  14.860  -7.664  1.00  0.00    -0.077 C 
ATOM      4  C   UNL     1       2.335  14.572  -9.037  1.00  0.00     0.039 C 
BRANCH   3   5
ATOM      5  C   UNL     1       3.617  16.172  -7.424  1.00  0.00     0.034 C 
BRANCH   5   6
ATOM      6  C   UNL     1       3.608  16.567  -5.940  1.00  0.00     0.032 C 
BRANCH   6   7
ATOM      7  C   UNL     1       2.790  17.812  -5.695  1.00  0.00    -0.028 C 
ATOM      8  C   UNL     1       2.334  20.216  -5.469  1.00  0.00     0.039 C 
ATOM      9  C   UNL     1       3.262  19.073  -5.795  1.00  0.00    -0.080 C 
ATOM     10  C   UNL     1       4.675  19.367  -6.242  1.00  0.00     0.039 C 
ENDBRANCH   6   7
ENDBRANCH   5   6
ENDBRANCH   3   5
ENDBRANCH   1   2
BRANCH   1  11
ATOM     11  C   UNL     1       3.237  11.544  -6.934  1.00  0.00     0.034 C 
BRANCH  11  12
ATOM     12  C   UNL     1       3.506  11.253  -8.398  1.00  0.00    -0.077 C 
ATOM     13  C   UNL     1       4.498  11.843  -9.106  1.00  0.00    -0.028 C 
ATOM     14  C   UNL     1       2.620  10.264  -9.114  1.00  0.00     0.039 C 
BRANCH  13  15
ATOM     15  C   UNL     1       5.501  12.837  -8.564  1.00  0.00     0.035 C 
BRANCH  15  16
ATOM     16  C   UNL     1       6.336  12.224  -7.433  1.00  0.00     0.079 C 
BRANCH  16  17
ATOM     17  C   UNL     1       6.194  12.995  -6.146  1.00  0.00     0.130 C 
ATOM     18  O   UNL     1       5.906  14.182  -6.181  1.00  0.00    -0.300 OA
ATOM     19  C   UNL     1       6.368  12.321  -4.819  1.00  0.00     0.087 C 
ENDBRANCH  16  17
ENDBRANCH  15  16
ENDBRANCH  13  15
ENDBRANCH  11  12
ENDBRANCH   1  11
TORSDOF 9
ENDMDL
MODEL 5
REMARK VINA RESULT:    -0.851      1.937      5.109
REMARK INTER + INTRA:          -2.231
REMARK INTER:                  -1.903
REMARK INTRA:                  -0.328
REMARK UNBOUND:                -0.932
REMARK SMILES CC(=O)CCC=C(C)CCC=C(C)CCC=C(C)C
REMARK SMILES IDX 10 1 11 2 12 3 13 4 14 5 15 6 16 7 18 8 17 9 19 10 9 11 7 12
REMARK SMILES IDX 6 13 8 14 5 15 4 16 2 17 3 18 1 19
REMARK H PARENT
REMARK Flexibility Score: inf
ROOT
ATOM      1  C   UNL     1       2.628  13.791  -9.125  1.00  0.00     0.032 C 
ENDROOT
BRANCH   1   2
ATOM      2  C   UNL     1       2.975  15.098  -8.461  1.00  0.00    -0.028 C 
ATOM      3  C   UNL     1       4.221  15.625  -8.420  1.00  0.00    -0.077 C 
ATOM      4  C   UNL     1       5.387  14.973  -9.125  1.00  0.00     0.039 C 
BRANCH   3   5
ATOM      5  C   UNL     1       4.452  16.909  -7.647  1.00  0.00     0.034 C 
BRANCH   5   6
ATOM      6  C   UNL     1       3.356  17.152  -6.599  1.00  0.00     0.032 C 
BRANCH   6   7
ATOM      7  C   UNL     1       3.724  16.568  -5.256  1.00  0.00    -0.028 C 
ATOM      8  C   UNL     1       3.619  15.013  -3.357  1.00  0.00     0.039 C 
ATOM      9  C   UNL     1       3.186  15.443  -4.735  1.00  0.00    -0.080 C 
ATOM     10  C   UNL     1       2.189  14.603  -5.499  1.00  0.00     0.039 C 
ENDBRANCH   6   7
ENDBRANCH   5   6
ENDBRANCH   3   5
ENDBRANCH   1   2
BRANCH   1  11
ATOM     11  C   UNL     1       2.564  12.662  -8.090  1.00  0.00     0.034 C 
BRANCH  11  12
ATOM     12  C   UNL     1       3.204  11.393  -8.620  1.00  0.00    -0.077 C 
ATOM     13  C   UNL     1       4.541  11.228  -8.748  1.00  0.00    -0.028 C 
ATOM     14  C   UNL     1       2.309  10.252  -9.038  1.00  0.00     0.039 C 
BRANCH  13  15
ATOM     15  C   UNL     1       5.599  12.240  -8.362  1.00  0.00     0.035 C 
BRANCH  15  16
ATOM     16  C   UNL     1       6.314  11.830  -7.068  1.00  0.00     0.079 C 
BRANCH  16  17
ATOM     17  C   UNL     1       6.054  12.804  -5.949  1.00  0.00     0.130 C 
ATOM     18  O   UNL     1       5.474  13.854  -6.183  1.00  0.00    -0.300 OA
ATOM     19  C   UNL     1       6.468  12.492  -4.542  1.00  0.00     0.087 C 
ENDBRANCH  16  17
ENDBRANCH  15  16
ENDBRANCH  13  15
ENDBRANCH  11  12
ENDBRANCH   1  11
TORSDOF 9
ENDMDL
MODEL 6
REMARK VINA RESULT:    -0.492      1.571      3.080
REMARK INTER + INTRA:          -1.683
REMARK INTER:                  -0.536
REMARK INTRA:                  -1.147
REMARK UNBOUND:                -0.932
REMARK SMILES CC(=O)CCC=C(C)CCC=C(C)CCC=C(C)C
REMARK SMILES IDX 10 1 11 2 12 3 13 4 14 5 15 6 16 7 18 8 17 9 19 10 9 11 7 12
REMARK SMILES IDX 6 13 8 14 5 15 4 16 2 17 3 18 1 19
REMARK H PARENT
REMARK Flexibility Score: inf
ROOT
ATOM      1  C   UNL     1       1.972  14.618  -8.353  1.00  0.00     0.032 C 
ENDROOT
BRANCH   1   2
ATOM      2  C   UNL     1       3.402  14.200  -8.575  1.00  0.00    -0.028 C 
ATOM      3  C   UNL     1       4.415  15.056  -8.840  1.00  0.00    -0.077 C 
ATOM      4  C   UNL     1       4.210  16.554  -8.858  1.00  0.00     0.039 C 
BRANCH   3   5
ATOM      5  C   UNL     1       5.796  14.499  -9.125  1.00  0.00     0.034 C 
BRANCH   5   6
ATOM      6  C   UNL     1       6.005  13.126  -8.469  1.00  0.00     0.032 C 
BRANCH   6   7
ATOM      7  C   UNL     1       6.312  13.248  -6.996  1.00  0.00    -0.028 C 
ATOM      8  C   UNL     1       6.447  12.550  -4.644  1.00  0.00     0.039 C 
ATOM      9  C   UNL     1       6.144  12.259  -6.092  1.00  0.00    -0.080 C 
ATOM     10  C   UNL     1       5.684  10.876  -6.492  1.00  0.00     0.039 C 
ENDBRANCH   6   7
ENDBRANCH   5   6
ENDBRANCH   3   5
ENDBRANCH   1   2
BRANCH   1  11
ATOM     11  C   UNL     1       1.512  14.237  -6.941  1.00  0.00     0.034 C 
BRANCH  11  12
ATOM     12  C   UNL     1       2.574  13.433  -6.215  1.00  0.00    -0.077 C 
ATOM     13  C   UNL     1       3.359  13.942  -5.238  1.00  0.00    -0.028 C 
ATOM     14  C   UNL     1       2.778  11.989  -6.604  1.00  0.00     0.039 C 
BRANCH  13  15
ATOM     15  C   UNL     1       3.290  15.353  -4.692  1.00  0.00     0.035 C 
BRANCH  15  16
ATOM     16  C   UNL     1       4.122  16.319  -5.545  1.00  0.00     0.079 C 
BRANCH  16  17
ATOM     17  C   UNL     1       3.420  17.636  -5.749  1.00  0.00     0.130 C 
ATOM     18  O   UNL     1       2.235  17.650  -6.046  1.00  0.00    -0.300 OA
ATOM     19  C   UNL     1       4.145  18.935  -5.562  1.00  0.00     0.087 C 
ENDBRANCH  16  17
ENDBRANCH  15  16
ENDBRANCH  13  15
ENDBRANCH  11  12
ENDBRANCH   1  11
TORSDOF 9
ENDMDL
MODEL 7
REMARK VINA RESULT:    -0.490      1.484      2.650
REMARK INTER + INTRA:          -1.679
REMARK INTER:                  -0.650
REMARK INTRA:                  -1.029
REMARK UNBOUND:                -0.932
REMARK SMILES CC(=O)CCC=C(C)CCC=C(C)CCC=C(C)C
REMARK SMILES IDX 10 1 11 2 12 3 13 4 14 5 15 6 16 7 18 8 17 9 19 10 9 11 7 12
REMARK SMILES IDX 6 13 8 14 5 15 4 16 2 17 3 18 1 19
REMARK H PARENT
REMARK Flexibility Score: inf
ROOT
ATOM      1  C   UNL     1       1.507  14.759  -6.598  1.00  0.00     0.032 C 
ENDROOT
BRANCH   1   2
ATOM      2  C   UNL     1       1.935  13.476  -7.263  1.00  0.00    -0.028 C 
ATOM      3  C   UNL     1       2.631  13.413  -8.421  1.00  0.00    -0.077 C 
ATOM      4  C   UNL     1       3.125  14.656  -9.125  1.00  0.00     0.039 C 
BRANCH   3   5
ATOM      5  C   UNL     1       2.929  12.057  -9.029  1.00  0.00     0.034 C 
BRANCH   5   6
ATOM      6  C   UNL     1       4.437  11.771  -9.080  1.00  0.00     0.032 C 
BRANCH   6   7
ATOM      7  C   UNL     1       5.047  11.726  -7.700  1.00  0.00    -0.028 C 
ATOM      8  C   UNL     1       6.419  12.474  -5.804  1.00  0.00     0.039 C 
ATOM      9  C   UNL     1       5.842  12.687  -7.180  1.00  0.00    -0.080 C 
ATOM     10  C   UNL     1       6.149  13.964  -7.927  1.00  0.00     0.039 C 
ENDBRANCH   6   7
ENDBRANCH   5   6
ENDBRANCH   3   5
ENDBRANCH   1   2
BRANCH   1  11
ATOM     11  C   UNL     1       1.863  14.737  -5.107  1.00  0.00     0.034 C 
BRANCH  11  12
ATOM     12  C   UNL     1       3.366  14.688  -4.901  1.00  0.00    -0.077 C 
ATOM     13  C   UNL     1       4.230  15.537  -5.504  1.00  0.00    -0.028 C 
ATOM     14  C   UNL     1       3.936  13.633  -3.985  1.00  0.00     0.039 C 
BRANCH  13  15
ATOM     15  C   UNL     1       3.854  16.672  -6.432  1.00  0.00     0.035 C 
BRANCH  15  16
ATOM     16  C   UNL     1       2.963  17.699  -5.722  1.00  0.00     0.079 C 
BRANCH  16  17
ATOM     17  C   UNL     1       3.670  19.014  -5.521  1.00  0.00     0.130 C 
ATOM     18  O   UNL     1       4.859  19.025  -5.243  1.00  0.00    -0.300 OA
ATOM     19  C   UNL     1       2.944  20.314  -5.690  1.00  0.00     0.087 C 
ENDBRANCH  16  17
ENDBRANCH  15  16
ENDBRANCH  13  15
ENDBRANCH  11  12
ENDBRANCH   1  11
TORSDOF 9
ENDMDL
MODEL 8
REMARK VINA RESULT:     0.160      2.017      3.793
REMARK INTER + INTRA:          -0.687
REMARK INTER:                  -0.279
REMARK INTRA:                  -0.409
REMARK UNBOUND:                -0.932
REMARK SMILES CC(=O)CCC=C(C)CCC=C(C)CCC=C(C)C
REMARK SMILES IDX 10 1 11 2 12 3 13 4 14 5 15 6 16 7 18 8 17 9 19 10 9 11 7 12
REMARK SMILES IDX 6 13 8 14 5 15 4 16 2 17 3 18 1 19
REMARK H PARENT
REMARK Flexibility Score: inf
ROOT
ATOM      1  C   UNL     1       4.144  15.839  -8.632  1.00  0.00     0.032 C 
ENDROOT
BRANCH   1   2
ATOM      2  C   UNL     1       3.958  14.387  -8.988  1.00  0.00    -0.028 C 
ATOM      3  C   UNL     1       2.810  13.696  -8.798  1.00  0.00    -0.077 C 
ATOM      4  C   UNL     1       1.557  14.359  -8.274  1.00  0.00     0.039 C 
BRANCH   3   5
ATOM      5  C   UNL     1       2.778  12.216  -9.122  1.00  0.00     0.034 C 
BRANCH   5   6
ATOM      6  C   UNL     1       4.175  11.583  -9.044  1.00  0.00     0.032 C 
BRANCH   6   7
ATOM      7  C   UNL     1       4.794  11.754  -7.677  1.00  0.00    -0.028 C 
ATOM      8  C   UNL     1       6.434  12.509  -6.011  1.00  0.00     0.039 C 
ATOM      9  C   UNL     1       5.908  12.475  -7.424  1.00  0.00    -0.080 C 
ATOM     10  C   UNL     1       6.621  13.256  -8.503  1.00  0.00     0.039 C 
ENDBRANCH   6   7
ENDBRANCH   5   6
ENDBRANCH   3   5
ENDBRANCH   1   2
BRANCH   1  11
ATOM     11  C   UNL     1       4.481  15.989  -7.145  1.00  0.00     0.034 C 
BRANCH  11  12
ATOM     12  C   UNL     1       3.707  17.134  -6.517  1.00  0.00    -0.077 C 
ATOM     13  C   UNL     1       2.620  16.957  -5.731  1.00  0.00    -0.028 C 
ATOM     14  C   UNL     1       4.160  18.547  -6.788  1.00  0.00     0.039 C 
BRANCH  13  15
ATOM     15  C   UNL     1       2.029  15.624  -5.324  1.00  0.00     0.035 C 
BRANCH  15  16
ATOM     16  C   UNL     1       2.733  15.059  -4.084  1.00  0.00     0.079 C 
BRANCH  16  17
ATOM     17  C   UNL     1       3.289  13.681  -4.331  1.00  0.00     0.130 C 
ATOM     18  O   UNL     1       4.123  13.219  -3.568  1.00  0.00    -0.300 OA
ATOM     19  C   UNL     1       2.810  12.851  -5.485  1.00  0.00     0.087 C 
ENDBRANCH  16  17
ENDBRANCH  15  16
ENDBRANCH  13  15
ENDBRANCH  11  12
ENDBRANCH   1  11
TORSDOF 9
ENDMDL
