MODEL 1
REMARK VINA RESULT:    -7.787      0.000      0.000
REMARK INTER + INTRA:          -9.557
REMARK INTER:                  -9.380
REMARK INTRA:                  -0.177
REMARK UNBOUND:                -0.177
REMARK SMILES O=c1c(O)c(-c2ccc(O)c(O)c2)oc2cc(O)cc(O)c12
REMARK SMILES IDX 5 1 3 2 2 3 1 4 22 5 20 6 19 7 17 8 16 9 15 10 14 11 6 12
REMARK SMILES IDX 7 13 8 14 9 15 13 16 11 17 10 18 12 20 4 22 21 24 18 26
REMARK H PARENT 10 19 12 21 4 23 21 25 18 27
REMARK Flexibility Score: inf
ROOT
ATOM      1  C   UNL     1      -3.961 -22.200  47.493  1.00  0.00     0.180 A 
ATOM      2  C   UNL     1      -4.473 -23.129  48.415  1.00  0.00     0.208 A 
ATOM      3  C   UNL     1      -3.638 -23.604  49.439  1.00  0.00     0.238 A 
ATOM      4  O   UNL     1      -4.119 -24.394  50.294  1.00  0.00    -0.285 OA
ATOM      5  C   UNL     1      -2.297 -23.156  49.520  1.00  0.00     0.111 A 
ATOM      6  C   UNL     1      -1.351 -23.601  50.491  1.00  0.00     0.134 A 
ATOM      7  C   UNL     1      -0.091 -22.994  50.557  1.00  0.00     0.093 A 
ATOM      8  C   UNL     1       0.279 -22.003  49.643  1.00  0.00     0.123 A 
ATOM      9  C   UNL     1      -0.617 -21.605  48.654  1.00  0.00     0.094 A 
ATOM     10  C   UNL     1      -1.893 -22.166  48.586  1.00  0.00     0.146 A 
ATOM     11  O   UNL     1      -2.720 -21.750  47.634  1.00  0.00    -0.452 OA
ENDROOT
BRANCH   1  12
ATOM     12  C   UNL     1      -4.772 -21.673  46.372  1.00  0.00     0.025 A 
ATOM     13  C   UNL     1      -4.449 -22.035  45.055  1.00  0.00     0.016 A 
ATOM     14  C   UNL     1      -5.214 -21.566  43.984  1.00  0.00     0.051 A 
ATOM     15  C   UNL     1      -6.322 -20.740  44.216  1.00  0.00     0.157 A 
ATOM     16  C   UNL     1      -5.898 -20.860  46.602  1.00  0.00     0.062 A 
ATOM     17  C   UNL     1      -6.667 -20.391  45.527  1.00  0.00     0.158 A 
BRANCH  15  18
ATOM     18  O   UNL     1      -7.087 -20.269  43.151  1.00  0.00    -0.504 OA
ATOM     19  H   UNL     1      -7.476 -20.898  42.458  1.00  0.00     0.293 HD
ENDBRANCH  15  18
BRANCH  17  20
ATOM     20  O   UNL     1      -7.778 -19.581  45.756  1.00  0.00    -0.504 OA
ATOM     21  H   UNL     1      -8.399 -19.307  45.003  1.00  0.00     0.293 HD
ENDBRANCH  17  20
ENDBRANCH   1  12
BRANCH   2  22
ATOM     22  O   UNL     1      -5.807 -23.541  48.331  1.00  0.00    -0.502 OA
ATOM     23  H   UNL     1      -6.443 -23.488  49.117  1.00  0.00     0.293 HD
ENDBRANCH   2  22
BRANCH   6  24
ATOM     24  O   UNL     1      -1.587 -24.646  51.389  1.00  0.00    -0.507 OA
ATOM     25  H   UNL     1      -1.961 -24.531  52.319  1.00  0.00     0.293 HD
ENDBRANCH   6  24
BRANCH   8  26
ATOM     26  O   UNL     1       1.541 -21.414  49.706  1.00  0.00    -0.508 OA
ATOM     27  H   UNL     1       1.654 -20.409  49.779  1.00  0.00     0.293 HD
ENDBRANCH   8  26
TORSDOF 6
ENDMDL
MODEL 2
REMARK VINA RESULT:    -7.521      2.889      3.717
REMARK INTER + INTRA:          -9.237
REMARK INTER:                  -8.913
REMARK INTRA:                  -0.323
REMARK UNBOUND:                -0.177
REMARK SMILES O=c1c(O)c(-c2ccc(O)c(O)c2)oc2cc(O)cc(O)c12
REMARK SMILES IDX 5 1 3 2 2 3 1 4 22 5 20 6 19 7 17 8 16 9 15 10 14 11 6 12
REMARK SMILES IDX 7 13 8 14 9 15 13 16 11 17 10 18 12 20 4 22 21 24 18 26
REMARK H PARENT 10 19 12 21 4 23 21 25 18 27
REMARK Flexibility Score: inf
ROOT
ATOM      1  C   UNL     1      -5.604 -20.741  46.224  1.00  0.00     0.180 A 
ATOM      2  C   UNL     1      -6.049 -20.568  47.547  1.00  0.00     0.208 A 
ATOM      3  C   UNL     1      -5.689 -21.518  48.516  1.00  0.00     0.238 A 
ATOM      4  O   UNL     1      -6.045 -21.330  49.709  1.00  0.00    -0.285 OA
ATOM      5  C   UNL     1      -4.901 -22.637  48.149  1.00  0.00     0.111 A 
ATOM      6  C   UNL     1      -4.512 -23.681  49.039  1.00  0.00     0.134 A 
ATOM      7  C   UNL     1      -3.624 -24.670  48.598  1.00  0.00     0.093 A 
ATOM      8  C   UNL     1      -3.165 -24.688  47.278  1.00  0.00     0.123 A 
ATOM      9  C   UNL     1      -3.587 -23.706  46.385  1.00  0.00     0.094 A 
ATOM     10  C   UNL     1      -4.443 -22.687  46.806  1.00  0.00     0.146 A 
ATOM     11  O   UNL     1      -4.813 -21.764  45.925  1.00  0.00    -0.452 OA
ENDROOT
BRANCH   1  12
ATOM     12  C   UNL     1      -5.963 -19.796  45.143  1.00  0.00     0.025 A 
ATOM     13  C   UNL     1      -7.149 -19.992  44.419  1.00  0.00     0.016 A 
ATOM     14  C   UNL     1      -7.517 -19.100  43.408  1.00  0.00     0.051 A 
ATOM     15  C   UNL     1      -6.713 -17.991  43.117  1.00  0.00     0.157 A 
ATOM     16  C   UNL     1      -5.168 -18.669  44.861  1.00  0.00     0.062 A 
ATOM     17  C   UNL     1      -5.538 -17.772  43.848  1.00  0.00     0.158 A 
BRANCH  15  18
ATOM     18  O   UNL     1      -7.075 -17.100  42.109  1.00  0.00    -0.504 OA
ATOM     19  H   UNL     1      -6.885 -17.298  41.133  1.00  0.00     0.293 HD
ENDBRANCH  15  18
BRANCH  17  20
ATOM     20  O   UNL     1      -4.747 -16.660  43.567  1.00  0.00    -0.504 OA
ATOM     21  H   UNL     1      -4.318 -16.531  42.658  1.00  0.00     0.293 HD
ENDBRANCH  17  20
ENDBRANCH   1  12
BRANCH   2  22
ATOM     22  O   UNL     1      -6.807 -19.446  47.893  1.00  0.00    -0.502 OA
ATOM     23  H   UNL     1      -7.016 -19.207  48.854  1.00  0.00     0.293 HD
ENDBRANCH   2  22
BRANCH   6  24
ATOM     24  O   UNL     1      -4.985 -23.808  50.348  1.00  0.00    -0.507 OA
ATOM     25  H   UNL     1      -4.752 -23.185  51.107  1.00  0.00     0.293 HD
ENDBRANCH   6  24
BRANCH   8  26
ATOM     26  O   UNL     1      -2.293 -25.684  46.842  1.00  0.00    -0.508 OA
ATOM     27  H   UNL     1      -1.614 -25.512  46.110  1.00  0.00     0.293 HD
ENDBRANCH   8  26
TORSDOF 6
ENDMDL
MODEL 3
REMARK VINA RESULT:    -7.428      2.167      6.691
REMARK INTER + INTRA:          -9.125
REMARK INTER:                  -8.836
REMARK INTRA:                  -0.288
REMARK UNBOUND:                -0.177
REMARK SMILES O=c1c(O)c(-c2ccc(O)c(O)c2)oc2cc(O)cc(O)c12
REMARK SMILES IDX 5 1 3 2 2 3 1 4 22 5 20 6 19 7 17 8 16 9 15 10 14 11 6 12
REMARK SMILES IDX 7 13 8 14 9 15 13 16 11 17 10 18 12 20 4 22 21 24 18 26
REMARK H PARENT 10 19 12 21 4 23 21 25 18 27
REMARK Flexibility Score: inf
ROOT
ATOM      1  C   UNL     1      -3.623 -21.659  47.258  1.00  0.00     0.180 A 
ATOM      2  C   UNL     1      -5.005 -21.406  47.194  1.00  0.00     0.208 A 
ATOM      3  C   UNL     1      -5.504 -20.609  46.152  1.00  0.00     0.238 A 
ATOM      4  O   UNL     1      -6.748 -20.432  46.068  1.00  0.00    -0.285 OA
ATOM      5  C   UNL     1      -4.615 -20.060  45.195  1.00  0.00     0.111 A 
ATOM      6  C   UNL     1      -5.005 -19.206  44.121  1.00  0.00     0.134 A 
ATOM      7  C   UNL     1      -4.060 -18.828  43.161  1.00  0.00     0.093 A 
ATOM      8  C   UNL     1      -2.723 -19.221  43.272  1.00  0.00     0.123 A 
ATOM      9  C   UNL     1      -2.321 -20.006  44.349  1.00  0.00     0.094 A 
ATOM     10  C   UNL     1      -3.248 -20.428  45.304  1.00  0.00     0.146 A 
ATOM     11  O   UNL     1      -2.824 -21.184  46.310  1.00  0.00    -0.452 OA
ENDROOT
BRANCH   1  12
ATOM     12  C   UNL     1      -3.020 -22.469  48.340  1.00  0.00     0.025 A 
ATOM     13  C   UNL     1      -2.821 -21.894  49.605  1.00  0.00     0.016 A 
ATOM     14  C   UNL     1      -2.273 -22.647  50.646  1.00  0.00     0.051 A 
ATOM     15  C   UNL     1      -1.930 -23.990  50.442  1.00  0.00     0.157 A 
ATOM     16  C   UNL     1      -2.693 -23.824  48.145  1.00  0.00     0.062 A 
ATOM     17  C   UNL     1      -2.144 -24.581  49.190  1.00  0.00     0.158 A 
BRANCH  15  18
ATOM     18  O   UNL     1      -1.381 -24.745  51.477  1.00  0.00    -0.504 OA
ATOM     19  H   UNL     1      -1.469 -24.459  52.446  1.00  0.00     0.293 HD
ENDBRANCH  15  18
BRANCH  17  20
ATOM     20  O   UNL     1      -1.815 -25.920  48.994  1.00  0.00    -0.504 OA
ATOM     21  H   UNL     1      -2.482 -26.662  49.174  1.00  0.00     0.293 HD
ENDBRANCH  17  20
ENDBRANCH   1  12
BRANCH   2  22
ATOM     22  O   UNL     1      -5.869 -21.975  48.135  1.00  0.00    -0.502 OA
ATOM     23  H   UNL     1      -6.837 -22.183  47.928  1.00  0.00     0.293 HD
ENDBRANCH   2  22
BRANCH   6  24
ATOM     24  O   UNL     1      -6.292 -18.682  43.969  1.00  0.00    -0.507 OA
ATOM     25  H   UNL     1      -6.591 -17.783  44.317  1.00  0.00     0.293 HD
ENDBRANCH   6  24
BRANCH   8  26
ATOM     26  O   UNL     1      -1.786 -18.828  42.319  1.00  0.00    -0.508 OA
ATOM     27  H   UNL     1      -1.532 -19.432  41.545  1.00  0.00     0.293 HD
ENDBRANCH   8  26
TORSDOF 6
ENDMDL
MODEL 4
REMARK VINA RESULT:    -7.389      1.380      6.965
REMARK INTER + INTRA:          -9.078
REMARK INTER:                  -8.846
REMARK INTRA:                  -0.232
REMARK UNBOUND:                -0.177
REMARK SMILES O=c1c(O)c(-c2ccc(O)c(O)c2)oc2cc(O)cc(O)c12
REMARK SMILES IDX 5 1 3 2 2 3 1 4 22 5 20 6 19 7 17 8 16 9 15 10 14 11 6 12
REMARK SMILES IDX 7 13 8 14 9 15 13 16 11 17 10 18 12 20 4 22 21 24 18 26
REMARK H PARENT 10 19 12 21 4 23 21 25 18 27
REMARK Flexibility Score: inf
ROOT
ATOM      1  C   UNL     1      -3.772 -21.590  47.710  1.00  0.00     0.180 A 
ATOM      2  C   UNL     1      -4.791 -20.771  48.226  1.00  0.00     0.208 A 
ATOM      3  C   UNL     1      -5.808 -20.325  47.367  1.00  0.00     0.238 A 
ATOM      4  O   UNL     1      -6.747 -19.637  47.846  1.00  0.00    -0.285 OA
ATOM      5  C   UNL     1      -5.786 -20.692  45.999  1.00  0.00     0.111 A 
ATOM      6  C   UNL     1      -6.742 -20.265  45.030  1.00  0.00     0.134 A 
ATOM      7  C   UNL     1      -6.696 -20.794  43.734  1.00  0.00     0.093 A 
ATOM      8  C   UNL     1      -5.688 -21.685  43.355  1.00  0.00     0.123 A 
ATOM      9  C   UNL     1      -4.715 -22.060  44.278  1.00  0.00     0.094 A 
ATOM     10  C   UNL     1      -4.756 -21.578  45.588  1.00  0.00     0.146 A 
ATOM     11  O   UNL     1      -3.814 -21.970  46.438  1.00  0.00    -0.452 OA
ENDROOT
BRANCH   1  12
ATOM     12  C   UNL     1      -2.653 -22.078  48.548  1.00  0.00     0.025 A 
ATOM     13  C   UNL     1      -1.380 -21.505  48.403  1.00  0.00     0.016 A 
ATOM     14  C   UNL     1      -0.315 -21.935  49.198  1.00  0.00     0.051 A 
ATOM     15  C   UNL     1      -0.511 -22.935  50.160  1.00  0.00     0.157 A 
ATOM     16  C   UNL     1      -2.850 -23.068  49.528  1.00  0.00     0.062 A 
ATOM     17  C   UNL     1      -1.782 -23.499  50.328  1.00  0.00     0.158 A 
BRANCH  15  18
ATOM     18  O   UNL     1       0.548 -23.369  50.954  1.00  0.00    -0.504 OA
ATOM     19  H   UNL     1       0.449 -24.157  51.585  1.00  0.00     0.293 HD
ENDBRANCH  15  18
BRANCH  17  20
ATOM     20  O   UNL     1      -1.977 -24.483  51.295  1.00  0.00    -0.504 OA
ATOM     21  H   UNL     1      -2.789 -24.476  51.903  1.00  0.00     0.293 HD
ENDBRANCH  17  20
ENDBRANCH   1  12
BRANCH   2  22
ATOM     22  O   UNL     1      -4.806 -20.438  49.584  1.00  0.00    -0.502 OA
ATOM     23  H   UNL     1      -5.403 -19.711  49.959  1.00  0.00     0.293 HD
ENDBRANCH   2  22
BRANCH   6  24
ATOM     24  O   UNL     1      -7.733 -19.311  45.278  1.00  0.00    -0.507 OA
ATOM     25  H   UNL     1      -8.725 -19.475  45.188  1.00  0.00     0.293 HD
ENDBRANCH   6  24
BRANCH   8  26
ATOM     26  O   UNL     1      -5.640 -22.195  42.060  1.00  0.00    -0.508 OA
ATOM     27  H   UNL     1      -6.118 -21.736  41.292  1.00  0.00     0.293 HD
ENDBRANCH   8  26
TORSDOF 6
ENDMDL
MODEL 5
REMARK VINA RESULT:    -7.389      1.954      7.277
REMARK INTER + INTRA:          -9.077
REMARK INTER:                  -8.773
REMARK INTRA:                  -0.305
REMARK UNBOUND:                -0.177
REMARK SMILES O=c1c(O)c(-c2ccc(O)c(O)c2)oc2cc(O)cc(O)c12
REMARK SMILES IDX 5 1 3 2 2 3 1 4 22 5 20 6 19 7 17 8 16 9 15 10 14 11 6 12
REMARK SMILES IDX 7 13 8 14 9 15 13 16 11 17 10 18 12 20 4 22 21 24 18 26
REMARK H PARENT 10 19 12 21 4 23 21 25 18 27
REMARK Flexibility Score: inf
ROOT
ATOM      1  C   UNL     1      -3.203 -21.735  47.060  1.00  0.00     0.180 A 
ATOM      2  C   UNL     1      -2.366 -21.259  46.035  1.00  0.00     0.208 A 
ATOM      3  C   UNL     1      -2.933 -20.538  44.972  1.00  0.00     0.238 A 
ATOM      4  O   UNL     1      -2.172 -20.068  44.086  1.00  0.00    -0.285 OA
ATOM      5  C   UNL     1      -4.332 -20.315  44.938  1.00  0.00     0.111 A 
ATOM      6  C   UNL     1      -5.018 -19.633  43.889  1.00  0.00     0.134 A 
ATOM      7  C   UNL     1      -6.384 -19.357  44.023  1.00  0.00     0.093 A 
ATOM      8  C   UNL     1      -7.102 -19.796  45.140  1.00  0.00     0.123 A 
ATOM      9  C   UNL     1      -6.452 -20.515  46.140  1.00  0.00     0.094 A 
ATOM     10  C   UNL     1      -5.083 -20.774  46.051  1.00  0.00     0.146 A 
ATOM     11  O   UNL     1      -4.501 -21.454  47.033  1.00  0.00    -0.452 OA
ENDROOT
BRANCH   1  12
ATOM     12  C   UNL     1      -2.683 -22.523  48.199  1.00  0.00     0.025 A 
ATOM     13  C   UNL     1      -2.535 -21.910  49.453  1.00  0.00     0.016 A 
ATOM     14  C   UNL     1      -2.066 -22.641  50.548  1.00  0.00     0.051 A 
ATOM     15  C   UNL     1      -1.752 -23.999  50.408  1.00  0.00     0.157 A 
ATOM     16  C   UNL     1      -2.385 -23.892  48.068  1.00  0.00     0.062 A 
ATOM     17  C   UNL     1      -1.916 -24.627  49.166  1.00  0.00     0.158 A 
BRANCH  15  18
ATOM     18  O   UNL     1      -1.281 -24.732  51.496  1.00  0.00    -0.504 OA
ATOM     19  H   UNL     1      -1.233 -25.745  51.471  1.00  0.00     0.293 HD
ENDBRANCH  15  18
BRANCH  17  20
ATOM     20  O   UNL     1      -1.616 -25.981  49.033  1.00  0.00    -0.504 OA
ATOM     21  H   UNL     1      -1.659 -26.614  49.823  1.00  0.00     0.293 HD
ENDBRANCH  17  20
ENDBRANCH   1  12
BRANCH   2  22
ATOM     22  O   UNL     1      -0.986 -21.471  46.099  1.00  0.00    -0.502 OA
ATOM     23  H   UNL     1      -0.347 -21.103  45.405  1.00  0.00     0.293 HD
ENDBRANCH   2  22
BRANCH   6  24
ATOM     24  O   UNL     1      -4.416 -19.233  42.693  1.00  0.00    -0.507 OA
ATOM     25  H   UNL     1      -3.695 -18.531  42.619  1.00  0.00     0.293 HD
ENDBRANCH   6  24
BRANCH   8  26
ATOM     26  O   UNL     1      -8.464 -19.530  45.259  1.00  0.00    -0.508 OA
ATOM     27  H   UNL     1      -8.802 -18.643  45.616  1.00  0.00     0.293 HD
ENDBRANCH   8  26
TORSDOF 6
ENDMDL
MODEL 6
REMARK VINA RESULT:    -7.376      2.171      2.760
REMARK INTER + INTRA:          -9.062
REMARK INTER:                  -8.774
REMARK INTRA:                  -0.288
REMARK UNBOUND:                -0.177
REMARK SMILES O=c1c(O)c(-c2ccc(O)c(O)c2)oc2cc(O)cc(O)c12
REMARK SMILES IDX 5 1 3 2 2 3 1 4 22 5 20 6 19 7 17 8 16 9 15 10 14 11 6 12
REMARK SMILES IDX 7 13 8 14 9 15 13 16 11 17 10 18 12 20 4 22 21 24 18 26
REMARK H PARENT 10 19 12 21 4 23 21 25 18 27
REMARK Flexibility Score: inf
ROOT
ATOM      1  C   UNL     1      -4.649 -21.287  47.002  1.00  0.00     0.180 A 
ATOM      2  C   UNL     1      -4.545 -20.974  48.369  1.00  0.00     0.208 A 
ATOM      3  C   UNL     1      -3.867 -21.861  49.221  1.00  0.00     0.238 A 
ATOM      4  O   UNL     1      -3.730 -21.549  50.433  1.00  0.00    -0.285 OA
ATOM      5  C   UNL     1      -3.315 -23.056  48.700  1.00  0.00     0.111 A 
ATOM      6  C   UNL     1      -2.643 -24.046  49.478  1.00  0.00     0.134 A 
ATOM      7  C   UNL     1      -2.024 -25.126  48.837  1.00  0.00     0.093 A 
ATOM      8  C   UNL     1      -2.110 -25.286  47.451  1.00  0.00     0.123 A 
ATOM      9  C   UNL     1      -2.814 -24.357  46.690  1.00  0.00     0.094 A 
ATOM     10  C   UNL     1      -3.411 -23.250  47.297  1.00  0.00     0.146 A 
ATOM     11  O   UNL     1      -4.065 -22.383  46.532  1.00  0.00    -0.452 OA
ENDROOT
BRANCH   1  12
ATOM     12  C   UNL     1      -5.369 -20.415  46.047  1.00  0.00     0.025 A 
ATOM     13  C   UNL     1      -4.639 -19.638  45.135  1.00  0.00     0.016 A 
ATOM     14  C   UNL     1      -5.299 -18.824  44.210  1.00  0.00     0.051 A 
ATOM     15  C   UNL     1      -6.699 -18.786  44.175  1.00  0.00     0.157 A 
ATOM     16  C   UNL     1      -6.775 -20.389  45.995  1.00  0.00     0.062 A 
ATOM     17  C   UNL     1      -7.438 -19.574  45.067  1.00  0.00     0.158 A 
BRANCH  15  18
ATOM     18  O   UNL     1      -7.361 -17.975  43.257  1.00  0.00    -0.504 OA
ATOM     19  H   UNL     1      -8.029 -17.272  43.556  1.00  0.00     0.293 HD
ENDBRANCH  15  18
BRANCH  17  20
ATOM     20  O   UNL     1      -8.831 -19.545  45.021  1.00  0.00    -0.504 OA
ATOM     21  H   UNL     1      -9.378 -19.125  45.763  1.00  0.00     0.293 HD
ENDBRANCH  17  20
ENDBRANCH   1  12
BRANCH   2  22
ATOM     22  O   UNL     1      -5.077 -19.778  48.860  1.00  0.00    -0.502 OA
ATOM     23  H   UNL     1      -4.826 -18.874  48.479  1.00  0.00     0.293 HD
ENDBRANCH   2  22
BRANCH   6  24
ATOM     24  O   UNL     1      -2.579 -24.029  50.874  1.00  0.00    -0.507 OA
ATOM     25  H   UNL     1      -1.967 -24.610  51.428  1.00  0.00     0.293 HD
ENDBRANCH   6  24
BRANCH   8  26
ATOM     26  O   UNL     1      -1.503 -26.371  46.822  1.00  0.00    -0.508 OA
ATOM     27  H   UNL     1      -1.484 -26.456  45.812  1.00  0.00     0.293 HD
ENDBRANCH   8  26
TORSDOF 6
ENDMDL
MODEL 7
REMARK VINA RESULT:    -7.306      3.669      5.492
REMARK INTER + INTRA:          -8.978
REMARK INTER:                  -8.920
REMARK INTRA:                  -0.058
REMARK UNBOUND:                -0.177
REMARK SMILES O=c1c(O)c(-c2ccc(O)c(O)c2)oc2cc(O)cc(O)c12
REMARK SMILES IDX 5 1 3 2 2 3 1 4 22 5 20 6 19 7 17 8 16 9 15 10 14 11 6 12
REMARK SMILES IDX 7 13 8 14 9 15 13 16 11 17 10 18 12 20 4 22 21 24 18 26
REMARK H PARENT 10 19 12 21 4 23 21 25 18 27
REMARK Flexibility Score: inf
ROOT
ATOM      1  C   UNL     1      -3.586 -24.406  47.280  1.00  0.00     0.180 A 
ATOM      2  C   UNL     1      -2.928 -24.470  48.521  1.00  0.00     0.208 A 
ATOM      3  C   UNL     1      -3.068 -23.402  49.422  1.00  0.00     0.238 A 
ATOM      4  O   UNL     1      -2.522 -23.489  50.553  1.00  0.00    -0.285 OA
ATOM      5  C   UNL     1      -3.851 -22.277  49.065  1.00  0.00     0.111 A 
ATOM      6  C   UNL     1      -4.030 -21.121  49.883  1.00  0.00     0.134 A 
ATOM      7  C   UNL     1      -4.930 -20.126  49.485  1.00  0.00     0.093 A 
ATOM      8  C   UNL     1      -5.609 -20.214  48.267  1.00  0.00     0.123 A 
ATOM      9  C   UNL     1      -5.396 -21.310  47.435  1.00  0.00     0.094 A 
ATOM     10  C   UNL     1      -4.531 -22.336  47.821  1.00  0.00     0.146 A 
ATOM     11  O   UNL     1      -4.365 -23.368  47.002  1.00  0.00    -0.452 OA
ENDROOT
BRANCH   1  12
ATOM     12  C   UNL     1      -3.465 -25.481  46.269  1.00  0.00     0.025 A 
ATOM     13  C   UNL     1      -4.626 -26.014  45.687  1.00  0.00     0.016 A 
ATOM     14  C   UNL     1      -4.534 -27.014  44.715  1.00  0.00     0.051 A 
ATOM     15  C   UNL     1      -3.282 -27.485  44.301  1.00  0.00     0.157 A 
ATOM     16  C   UNL     1      -2.209 -25.942  45.836  1.00  0.00     0.062 A 
ATOM     17  C   UNL     1      -2.116 -26.944  44.859  1.00  0.00     0.158 A 
BRANCH  15  18
ATOM     18  O   UNL     1      -3.185 -28.483  43.334  1.00  0.00    -0.504 OA
ATOM     19  H   UNL     1      -2.454 -28.472  42.632  1.00  0.00     0.293 HD
ENDBRANCH  15  18
BRANCH  17  20
ATOM     20  O   UNL     1      -0.871 -27.404  44.436  1.00  0.00    -0.504 OA
ATOM     21  H   UNL     1      -0.065 -26.790  44.393  1.00  0.00     0.293 HD
ENDBRANCH  17  20
ENDBRANCH   1  12
BRANCH   2  22
ATOM     22  O   UNL     1      -2.178 -25.599  48.863  1.00  0.00    -0.502 OA
ATOM     23  H   UNL     1      -2.191 -26.000  49.793  1.00  0.00     0.293 HD
ENDBRANCH   2  22
BRANCH   6  24
ATOM     24  O   UNL     1      -3.332 -20.891  51.073  1.00  0.00    -0.507 OA
ATOM     25  H   UNL     1      -3.552 -20.164  51.736  1.00  0.00     0.293 HD
ENDBRANCH   6  24
BRANCH   8  26
ATOM     26  O   UNL     1      -6.492 -19.212  47.871  1.00  0.00    -0.508 OA
ATOM     27  H   UNL     1      -7.382 -19.430  47.437  1.00  0.00     0.293 HD
ENDBRANCH   8  26
TORSDOF 6
ENDMDL
MODEL 8
REMARK VINA RESULT:    -7.214      2.616      3.013
REMARK INTER + INTRA:          -8.868
REMARK INTER:                  -8.546
REMARK INTRA:                  -0.322
REMARK UNBOUND:                -0.177
REMARK SMILES O=c1c(O)c(-c2ccc(O)c(O)c2)oc2cc(O)cc(O)c12
REMARK SMILES IDX 5 1 3 2 2 3 1 4 22 5 20 6 19 7 17 8 16 9 15 10 14 11 6 12
REMARK SMILES IDX 7 13 8 14 9 15 13 16 11 17 10 18 12 20 4 22 21 24 18 26
REMARK H PARENT 10 19 12 21 4 23 21 25 18 27
REMARK Flexibility Score: inf
ROOT
ATOM      1  C   UNL     1      -1.656 -21.995  46.592  1.00  0.00     0.180 A 
ATOM      2  C   UNL     1      -2.708 -22.747  47.143  1.00  0.00     0.208 A 
ATOM      3  C   UNL     1      -2.576 -23.251  48.447  1.00  0.00     0.238 A 
ATOM      4  O   UNL     1      -3.544 -23.876  48.954  1.00  0.00    -0.285 OA
ATOM      5  C   UNL     1      -1.387 -23.010  49.178  1.00  0.00     0.111 A 
ATOM      6  C   UNL     1      -1.129 -23.506  50.491  1.00  0.00     0.134 A 
ATOM      7  C   UNL     1       0.026 -23.098  51.169  1.00  0.00     0.093 A 
ATOM      8  C   UNL     1       0.964 -22.263  50.555  1.00  0.00     0.123 A 
ATOM      9  C   UNL     1       0.749 -21.822  49.252  1.00  0.00     0.094 A 
ATOM     10  C   UNL     1      -0.411 -22.183  48.564  1.00  0.00     0.146 A 
ATOM     11  O   UNL     1      -0.581 -21.732  47.327  1.00  0.00    -0.452 OA
ENDROOT
BRANCH   1  12
ATOM     12  C   UNL     1      -1.711 -21.453  45.216  1.00  0.00     0.025 A 
ATOM     13  C   UNL     1      -1.235 -22.228  44.147  1.00  0.00     0.016 A 
ATOM     14  C   UNL     1      -1.297 -21.744  42.838  1.00  0.00     0.051 A 
ATOM     15  C   UNL     1      -1.851 -20.484  42.576  1.00  0.00     0.157 A 
ATOM     16  C   UNL     1      -2.285 -20.196  44.946  1.00  0.00     0.062 A 
ATOM     17  C   UNL     1      -2.349 -19.711  43.632  1.00  0.00     0.158 A 
BRANCH  15  18
ATOM     18  O   UNL     1      -1.913 -19.996  41.273  1.00  0.00    -0.504 OA
ATOM     19  H   UNL     1      -1.621 -20.559  40.482  1.00  0.00     0.293 HD
ENDBRANCH  15  18
BRANCH  17  20
ATOM     20  O   UNL     1      -2.913 -18.464  43.368  1.00  0.00    -0.504 OA
ATOM     21  H   UNL     1      -3.507 -18.310  42.562  1.00  0.00     0.293 HD
ENDBRANCH  17  20
ENDBRANCH   1  12
BRANCH   2  22
ATOM     22  O   UNL     1      -3.882 -22.954  46.412  1.00  0.00    -0.502 OA
ATOM     23  H   UNL     1      -3.947 -22.760  45.421  1.00  0.00     0.293 HD
ENDBRANCH   2  22
BRANCH   6  24
ATOM     24  O   UNL     1      -1.954 -24.417  51.158  1.00  0.00    -0.507 OA
ATOM     25  H   UNL     1      -2.384 -24.252  52.056  1.00  0.00     0.293 HD
ENDBRANCH   6  24
BRANCH   8  26
ATOM     26  O   UNL     1       2.118 -21.873  51.232  1.00  0.00    -0.508 OA
ATOM     27  H   UNL     1       3.016 -21.827  50.764  1.00  0.00     0.293 HD
ENDBRANCH   8  26
TORSDOF 6
ENDMDL
MODEL 9
REMARK VINA RESULT:    -7.167      4.320      5.715
REMARK INTER + INTRA:          -8.811
REMARK INTER:                  -8.891
REMARK INTRA:                   0.081
REMARK UNBOUND:                -0.177
REMARK SMILES O=c1c(O)c(-c2ccc(O)c(O)c2)oc2cc(O)cc(O)c12
REMARK SMILES IDX 5 1 3 2 2 3 1 4 22 5 20 6 19 7 17 8 16 9 15 10 14 11 6 12
REMARK SMILES IDX 7 13 8 14 9 15 13 16 11 17 10 18 12 20 4 22 21 24 18 26
REMARK H PARENT 10 19 12 21 4 23 21 25 18 27
REMARK Flexibility Score: inf
ROOT
ATOM      1  C   UNL     1      -2.813 -25.466  46.478  1.00  0.00     0.180 A 
ATOM      2  C   UNL     1      -3.029 -24.181  45.949  1.00  0.00     0.208 A 
ATOM      3  C   UNL     1      -2.633 -23.061  46.697  1.00  0.00     0.238 A 
ATOM      4  O   UNL     1      -2.779 -21.916  46.195  1.00  0.00    -0.285 OA
ATOM      5  C   UNL     1      -2.040 -23.238  47.971  1.00  0.00     0.111 A 
ATOM      6  C   UNL     1      -1.637 -22.174  48.833  1.00  0.00     0.134 A 
ATOM      7  C   UNL     1      -0.943 -22.466  50.013  1.00  0.00     0.093 A 
ATOM      8  C   UNL     1      -0.695 -23.788  50.395  1.00  0.00     0.123 A 
ATOM      9  C   UNL     1      -1.137 -24.835  49.589  1.00  0.00     0.094 A 
ATOM     10  C   UNL     1      -1.800 -24.574  48.388  1.00  0.00     0.146 A 
ATOM     11  O   UNL     1      -2.196 -25.601  47.646  1.00  0.00    -0.452 OA
ENDROOT
BRANCH   1  12
ATOM     12  C   UNL     1      -3.226 -26.693  45.760  1.00  0.00     0.025 A 
ATOM     13  C   UNL     1      -4.498 -26.753  45.170  1.00  0.00     0.016 A 
ATOM     14  C   UNL     1      -4.900 -27.894  44.469  1.00  0.00     0.051 A 
ATOM     15  C   UNL     1      -4.030 -28.984  44.335  1.00  0.00     0.157 A 
ATOM     16  C   UNL     1      -2.348 -27.782  45.606  1.00  0.00     0.062 A 
ATOM     17  C   UNL     1      -2.750 -28.926  44.901  1.00  0.00     0.158 A 
BRANCH  15  18
ATOM     18  O   UNL     1      -4.427 -30.124  43.640  1.00  0.00    -0.504 OA
ATOM     19  H   UNL     1      -4.625 -30.096  42.646  1.00  0.00     0.293 HD
ENDBRANCH  15  18
BRANCH  17  20
ATOM     20  O   UNL     1      -1.882 -30.006  44.755  1.00  0.00    -0.504 OA
ATOM     21  H   UNL     1      -0.929 -29.880  44.431  1.00  0.00     0.293 HD
ENDBRANCH  17  20
ENDBRANCH   1  12
BRANCH   2  22
ATOM     22  O   UNL     1      -3.596 -24.029  44.680  1.00  0.00    -0.502 OA
ATOM     23  H   UNL     1      -4.587 -23.877  44.542  1.00  0.00     0.293 HD
ENDBRANCH   2  22
BRANCH   6  24
ATOM     24  O   UNL     1      -1.916 -20.826  48.591  1.00  0.00    -0.507 OA
ATOM     25  H   UNL     1      -2.647 -20.300  49.047  1.00  0.00     0.293 HD
ENDBRANCH   6  24
BRANCH   8  26
ATOM     26  O   UNL     1      -0.016 -24.071  51.578  1.00  0.00    -0.508 OA
ATOM     27  H   UNL     1       0.749 -23.490  51.902  1.00  0.00     0.293 HD
ENDBRANCH   8  26
TORSDOF 6
ENDMDL
