MODEL 1
REMARK VINA RESULT:    -3.889      0.000      0.000
REMARK INTER + INTRA:          -4.582
REMARK INTER:                  -4.571
REMARK INTRA:                  -0.011
REMARK UNBOUND:                -0.011
REMARK SMILES [NH3+][C@@H](CO)C(=O)[O-]
REMARK SMILES IDX 3 1 2 2 1 3 5 7 6 8 7 9 4 10
REMARK H PARENT 1 4 1 5 1 6 4 11
REMARK Flexibility Score: inf
ROOT
ATOM      1  C   UNL     1      24.751  -1.727 -49.774  1.00  0.00     0.227 C 
ENDROOT
BRANCH   1   2
ATOM      2  C   UNL     1      25.121  -1.504 -48.297  1.00  0.00     0.253 C 
BRANCH   2   3
ATOM      3  N   UNL     1      24.374  -0.375 -47.726  1.00  0.00    -0.348 N 
ATOM      4  H   UNL     1      24.964   0.488 -47.755  1.00  0.00     0.345 HD
ATOM      5  H   UNL     1      24.138  -0.577 -46.726  1.00  0.00     0.345 HD
ATOM      6  H   UNL     1      23.489  -0.203 -48.257  1.00  0.00     0.345 HD
ENDBRANCH   2   3
BRANCH   2   7
ATOM      7  C   UNL     1      26.605  -1.304 -48.141  1.00  0.00     0.102 C 
ATOM      8  O   UNL     1      27.115  -0.158 -48.258  1.00  0.00    -0.544 OA
ATOM      9  O   UNL     1      27.429  -2.398 -47.906  1.00  0.00    -0.544 OA
ENDBRANCH   2   7
ENDBRANCH   1   2
BRANCH   1  10
ATOM     10  O   UNL     1      23.626  -0.969 -50.124  1.00  0.00    -0.390 OA
ATOM     11  H   UNL     1      22.907  -1.234 -49.493  1.00  0.00     0.210 HD
ENDBRANCH   1  10
TORSDOF 4
ENDMDL
MODEL 2
REMARK VINA RESULT:    -3.699      9.101      9.498
REMARK INTER + INTRA:          -4.358
REMARK INTER:                  -3.960
REMARK INTRA:                  -0.398
REMARK UNBOUND:                -0.011
REMARK SMILES [NH3+][C@@H](CO)C(=O)[O-]
REMARK SMILES IDX 3 1 2 2 1 3 5 7 6 8 7 9 4 10
REMARK H PARENT 1 4 1 5 1 6 4 11
REMARK Flexibility Score: inf
ROOT
ATOM      1  C   UNL     1      16.130   0.721 -48.469  1.00  0.00     0.227 C 
ENDROOT
BRANCH   1   2
ATOM      2  C   UNL     1      16.320   1.974 -47.598  1.00  0.00     0.253 C 
BRANCH   2   3
ATOM      3  N   UNL     1      17.121   2.990 -48.293  1.00  0.00    -0.348 N 
ATOM      4  H   UNL     1      16.607   3.902 -48.296  1.00  0.00     0.345 HD
ATOM      5  H   UNL     1      17.276   2.699 -49.286  1.00  0.00     0.345 HD
ATOM      6  H   UNL     1      18.048   3.121 -47.827  1.00  0.00     0.345 HD
ENDBRANCH   2   3
BRANCH   2   7
ATOM      7  C   UNL     1      16.935   1.616 -46.271  1.00  0.00     0.102 C 
ATOM      8  O   UNL     1      18.178   1.719 -46.090  1.00  0.00    -0.544 OA
ATOM      9  O   UNL     1      16.134   1.129 -45.245  1.00  0.00    -0.544 OA
ENDBRANCH   2   7
ENDBRANCH   1   2
BRANCH   1  10
ATOM     10  O   UNL     1      16.638  -0.414 -47.824  1.00  0.00    -0.390 OA
ATOM     11  H   UNL     1      17.330  -0.789 -48.429  1.00  0.00     0.210 HD
ENDBRANCH   1  10
TORSDOF 4
ENDMDL
MODEL 3
REMARK VINA RESULT:    -3.631      2.040      2.386
REMARK INTER + INTRA:          -4.279
REMARK INTER:                  -3.885
REMARK INTRA:                  -0.394
REMARK UNBOUND:                -0.011
REMARK SMILES [NH3+][C@@H](CO)C(=O)[O-]
REMARK SMILES IDX 3 1 2 2 1 3 5 7 6 8 7 9 4 10
REMARK H PARENT 1 4 1 5 1 6 4 11
REMARK Flexibility Score: inf
ROOT
ATOM      1  C   UNL     1      25.212   0.013 -47.243  1.00  0.00     0.227 C 
ENDROOT
BRANCH   1   2
ATOM      2  C   UNL     1      26.389  -0.665 -47.964  1.00  0.00     0.253 C 
BRANCH   2   3
ATOM      3  N   UNL     1      27.210   0.317 -48.685  1.00  0.00    -0.348 N 
ATOM      4  H   UNL     1      27.315   1.182 -48.106  1.00  0.00     0.345 HD
ATOM      5  H   UNL     1      26.740   0.580 -49.582  1.00  0.00     0.345 HD
ATOM      6  H   UNL     1      28.158  -0.070 -48.897  1.00  0.00     0.345 HD
ENDBRANCH   2   3
BRANCH   2   7
ATOM      7  C   UNL     1      25.900  -1.745 -48.892  1.00  0.00     0.102 C 
ATOM      8  O   UNL     1      25.759  -1.519 -50.123  1.00  0.00    -0.544 OA
ATOM      9  O   UNL     1      25.560  -2.993 -48.383  1.00  0.00    -0.544 OA
ENDBRANCH   2   7
ENDBRANCH   1   2
BRANCH   1  10
ATOM     10  O   UNL     1      23.992  -0.375 -47.813  1.00  0.00    -0.390 OA
ATOM     11  H   UNL     1      23.431  -0.707 -47.063  1.00  0.00     0.210 HD
ENDBRANCH   1  10
TORSDOF 4
ENDMDL
MODEL 4
REMARK VINA RESULT:    -3.611      9.324     10.060
REMARK INTER + INTRA:          -4.255
REMARK INTER:                  -3.868
REMARK INTRA:                  -0.388
REMARK UNBOUND:                -0.011
REMARK SMILES [NH3+][C@@H](CO)C(=O)[O-]
REMARK SMILES IDX 3 1 2 2 1 3 5 7 6 8 7 9 4 10
REMARK H PARENT 1 4 1 5 1 6 4 11
REMARK Flexibility Score: inf
ROOT
ATOM      1  C   UNL     1      17.277   1.739 -46.754  1.00  0.00     0.227 C 
ENDROOT
BRANCH   1   2
ATOM      2  C   UNL     1      16.496   1.620 -48.073  1.00  0.00     0.253 C 
BRANCH   2   3
ATOM      3  N   UNL     1      15.553   2.734 -48.237  1.00  0.00    -0.348 N 
ATOM      4  H   UNL     1      15.962   3.605 -47.826  1.00  0.00     0.345 HD
ATOM      5  H   UNL     1      14.663   2.521 -47.730  1.00  0.00     0.345 HD
ATOM      6  H   UNL     1      15.340   2.900 -49.247  1.00  0.00     0.345 HD
ENDBRANCH   2   3
BRANCH   2   7
ATOM      7  C   UNL     1      15.787   0.295 -48.159  1.00  0.00     0.102 C 
ATOM      8  O   UNL     1      14.674   0.124 -47.594  1.00  0.00    -0.544 OA
ATOM      9  O   UNL     1      16.380  -0.766 -48.833  1.00  0.00    -0.544 OA
ENDBRANCH   2   7
ENDBRANCH   1   2
BRANCH   1  10
ATOM     10  O   UNL     1      17.275   0.519 -46.064  1.00  0.00    -0.390 OA
ATOM     11  H   UNL     1      18.228   0.301 -45.887  1.00  0.00     0.210 HD
ENDBRANCH   1  10
TORSDOF 4
ENDMDL
MODEL 5
REMARK VINA RESULT:    -3.575      9.194      9.964
REMARK INTER + INTRA:          -4.213
REMARK INTER:                  -3.833
REMARK INTRA:                  -0.380
REMARK UNBOUND:                -0.011
REMARK SMILES [NH3+][C@@H](CO)C(=O)[O-]
REMARK SMILES IDX 3 1 2 2 1 3 5 7 6 8 7 9 4 10
REMARK H PARENT 1 4 1 5 1 6 4 11
REMARK Flexibility Score: inf
ROOT
ATOM      1  C   UNL     1      14.698   1.397 -47.842  1.00  0.00     0.227 C 
ENDROOT
BRANCH   1   2
ATOM      2  C   UNL     1      16.131   1.056 -48.285  1.00  0.00     0.253 C 
BRANCH   2   3
ATOM      3  N   UNL     1      16.488  -0.321 -47.921  1.00  0.00    -0.348 N 
ATOM      4  H   UNL     1      16.799  -0.842 -48.774  1.00  0.00     0.345 HD
ATOM      5  H   UNL     1      15.651  -0.811 -47.527  1.00  0.00     0.345 HD
ATOM      6  H   UNL     1      17.257  -0.335 -47.212  1.00  0.00     0.345 HD
ENDBRANCH   2   3
BRANCH   2   7
ATOM      7  C   UNL     1      17.117   2.039 -47.713  1.00  0.00     0.102 C 
ATOM      8  O   UNL     1      17.516   1.930 -46.523  1.00  0.00    -0.544 OA
ATOM      9  O   UNL     1      17.563   3.103 -48.488  1.00  0.00    -0.544 OA
ENDBRANCH   2   7
ENDBRANCH   1   2
BRANCH   1  10
ATOM     10  O   UNL     1      14.648   2.670 -47.258  1.00  0.00    -0.390 OA
ATOM     11  H   UNL     1      13.968   3.182 -47.770  1.00  0.00     0.210 HD
ENDBRANCH   1  10
TORSDOF 4
ENDMDL
MODEL 6
REMARK VINA RESULT:    -3.567      9.485     10.115
REMARK INTER + INTRA:          -4.203
REMARK INTER:                  -4.024
REMARK INTRA:                  -0.178
REMARK UNBOUND:                -0.011
REMARK SMILES [NH3+][C@@H](CO)C(=O)[O-]
REMARK SMILES IDX 3 1 2 2 1 3 5 7 6 8 7 9 4 10
REMARK H PARENT 1 4 1 5 1 6 4 11
REMARK Flexibility Score: inf
ROOT
ATOM      1  C   UNL     1      16.284   1.006 -45.723  1.00  0.00     0.227 C 
ENDROOT
BRANCH   1   2
ATOM      2  C   UNL     1      15.802   0.811 -47.171  1.00  0.00     0.253 C 
BRANCH   2   3
ATOM      3  N   UNL     1      16.468  -0.334 -47.805  1.00  0.00    -0.348 N 
ATOM      4  H   UNL     1      16.686  -1.059 -47.082  1.00  0.00     0.345 HD
ATOM      5  H   UNL     1      17.368  -0.024 -48.239  1.00  0.00     0.345 HD
ATOM      6  H   UNL     1      15.861  -0.760 -48.543  1.00  0.00     0.345 HD
ENDBRANCH   2   3
BRANCH   2   7
ATOM      7  C   UNL     1      16.003   2.067 -47.976  1.00  0.00     0.102 C 
ATOM      8  O   UNL     1      15.034   2.614 -48.566  1.00  0.00    -0.544 OA
ATOM      9  O   UNL     1      17.276   2.609 -48.106  1.00  0.00    -0.544 OA
ENDBRANCH   2   7
ENDBRANCH   1   2
BRANCH   1  10
ATOM     10  O   UNL     1      17.643   0.686 -45.605  1.00  0.00    -0.390 OA
ATOM     11  H   UNL     1      17.762   0.324 -44.688  1.00  0.00     0.210 HD
ENDBRANCH   1  10
TORSDOF 4
ENDMDL
MODEL 7
REMARK VINA RESULT:    -3.540     18.388     18.753
REMARK INTER + INTRA:          -4.172
REMARK INTER:                  -3.864
REMARK INTRA:                  -0.308
REMARK UNBOUND:                -0.011
REMARK SMILES [NH3+][C@@H](CO)C(=O)[O-]
REMARK SMILES IDX 3 1 2 2 1 3 5 7 6 8 7 9 4 10
REMARK H PARENT 1 4 1 5 1 6 4 11
REMARK Flexibility Score: inf
ROOT
ATOM      1  C   UNL     1      15.118  -7.270 -34.376  1.00  0.00     0.227 C 
ENDROOT
BRANCH   1   2
ATOM      2  C   UNL     1      14.728  -6.127 -33.423  1.00  0.00     0.253 C 
BRANCH   2   3
ATOM      3  N   UNL     1      13.673  -5.286 -34.003  1.00  0.00    -0.348 N 
ATOM      4  H   UNL     1      13.916  -5.049 -34.993  1.00  0.00     0.345 HD
ATOM      5  H   UNL     1      13.596  -4.393 -33.463  1.00  0.00     0.345 HD
ATOM      6  H   UNL     1      12.749  -5.776 -33.986  1.00  0.00     0.345 HD
ENDBRANCH   2   3
BRANCH   2   7
ATOM      7  C   UNL     1      15.933  -5.304 -33.051  1.00  0.00     0.102 C 
ATOM      8  O   UNL     1      16.351  -5.277 -31.863  1.00  0.00    -0.544 OA
ATOM      9  O   UNL     1      16.569  -4.534 -34.017  1.00  0.00    -0.544 OA
ENDBRANCH   2   7
ENDBRANCH   1   2
BRANCH   1  10
ATOM     10  O   UNL     1      16.508  -7.443 -34.401  1.00  0.00    -0.390 OA
ATOM     11  H   UNL     1      16.676  -8.366 -34.076  1.00  0.00     0.210 HD
ENDBRANCH   1  10
TORSDOF 4
ENDMDL
MODEL 8
REMARK VINA RESULT:    -3.508     18.914     19.268
REMARK INTER + INTRA:          -4.134
REMARK INTER:                  -3.768
REMARK INTRA:                  -0.365
REMARK UNBOUND:                -0.011
REMARK SMILES [NH3+][C@@H](CO)C(=O)[O-]
REMARK SMILES IDX 3 1 2 2 1 3 5 7 6 8 7 9 4 10
REMARK H PARENT 1 4 1 5 1 6 4 11
REMARK Flexibility Score: inf
ROOT
ATOM      1  C   UNL     1      13.065  -6.105 -33.411  1.00  0.00     0.227 C 
ENDROOT
BRANCH   1   2
ATOM      2  C   UNL     1      14.346  -6.864 -33.023  1.00  0.00     0.253 C 
BRANCH   2   3
ATOM      3  N   UNL     1      14.857  -6.418 -31.721  1.00  0.00    -0.348 N 
ATOM      4  H   UNL     1      14.679  -5.394 -31.605  1.00  0.00     0.345 HD
ATOM      5  H   UNL     1      15.890  -6.579 -31.673  1.00  0.00     0.345 HD
ATOM      6  H   UNL     1      14.394  -6.936 -30.939  1.00  0.00     0.345 HD
ENDBRANCH   2   3
BRANCH   2   7
ATOM      7  C   UNL     1      15.397  -6.724 -34.093  1.00  0.00     0.102 C 
ATOM      8  O   UNL     1      15.653  -7.681 -34.871  1.00  0.00    -0.544 OA
ATOM      9  O   UNL     1      16.120  -5.543 -34.201  1.00  0.00    -0.544 OA
ENDBRANCH   2   7
ENDBRANCH   1   2
BRANCH   1  10
ATOM     10  O   UNL     1      13.127  -5.676 -34.743  1.00  0.00    -0.390 OA
ATOM     11  H   UNL     1      14.070  -5.414 -34.905  1.00  0.00     0.210 HD
ENDBRANCH   1  10
TORSDOF 4
ENDMDL
MODEL 9
REMARK VINA RESULT:    -3.475     19.275     19.701
REMARK INTER + INTRA:          -4.095
REMARK INTER:                  -3.881
REMARK INTRA:                  -0.214
REMARK UNBOUND:                -0.011
REMARK SMILES [NH3+][C@@H](CO)C(=O)[O-]
REMARK SMILES IDX 3 1 2 2 1 3 5 7 6 8 7 9 4 10
REMARK H PARENT 1 4 1 5 1 6 4 11
REMARK Flexibility Score: inf
ROOT
ATOM      1  C   UNL     1      14.816  -5.670 -31.617  1.00  0.00     0.227 C 
ENDROOT
BRANCH   1   2
ATOM      2  C   UNL     1      15.724  -6.148 -32.763  1.00  0.00     0.253 C 
BRANCH   2   3
ATOM      3  N   UNL     1      16.537  -5.046 -33.294  1.00  0.00    -0.348 N 
ATOM      4  H   UNL     1      16.317  -4.165 -32.776  1.00  0.00     0.345 HD
ATOM      5  H   UNL     1      16.311  -4.896 -34.305  1.00  0.00     0.345 HD
ATOM      6  H   UNL     1      17.558  -5.254 -33.200  1.00  0.00     0.345 HD
ENDBRANCH   2   3
BRANCH   2   7
ATOM      7  C   UNL     1      14.913  -6.797 -33.854  1.00  0.00     0.102 C 
ATOM      8  O   UNL     1      13.667  -6.626 -33.916  1.00  0.00    -0.544 OA
ATOM      9  O   UNL     1      15.536  -7.625 -34.779  1.00  0.00    -0.544 OA
ENDBRANCH   2   7
ENDBRANCH   1   2
BRANCH   1  10
ATOM     10  O   UNL     1      14.286  -6.761 -30.915  1.00  0.00    -0.390 OA
ATOM     11  H   UNL     1      14.327  -6.516 -29.953  1.00  0.00     0.210 HD
ENDBRANCH   1  10
TORSDOF 4
ENDMDL
