MODEL 1
REMARK VINA RESULT:    -5.748      0.000      0.000
REMARK INTER + INTRA:          -6.178
REMARK INTER:                  -6.084
REMARK INTRA:                  -0.095
REMARK UNBOUND:                -0.095
REMARK SMILES C=C(C)[C@@H]1CC=C(C)C(=O)C1
REMARK SMILES IDX 8 1 7 2 6 3 5 4 4 5 11 6 9 7 10 8 2 9 1 10 3 11
REMARK H PARENT
REMARK Flexibility Score: inf
ROOT
ATOM      1  C   UNL     1     120.435 179.388 122.135  1.00  0.00     0.048 C 
ATOM      2  C   UNL     1     120.806 179.159 123.575  1.00  0.00    -0.012 C 
ATOM      3  C   UNL     1     120.225 179.893 124.540  1.00  0.00    -0.019 C 
ATOM      4  C   UNL     1     120.546 179.693 125.998  1.00  0.00     0.036 C 
ATOM      5  C   UNL     1     122.012 179.259 126.188  1.00  0.00     0.025 C 
ATOM      6  C   UNL     1     122.310 178.003 125.347  1.00  0.00     0.089 C 
ATOM      7  C   UNL     1     121.899 178.215 123.916  1.00  0.00     0.158 C 
ATOM      8  O   UNL     1     122.471 177.553 123.008  1.00  0.00    -0.295 OA
ENDROOT
BRANCH   5   9
ATOM      9  C   UNL     1     122.348 179.043 127.658  1.00  0.00    -0.077 C 
ATOM     10  C   UNL     1     121.415 178.638 128.537  1.00  0.00     0.008 C 
ATOM     11  C   UNL     1     123.751 179.284 128.155  1.00  0.00     0.039 C 
ENDBRANCH   5   9
TORSDOF 1
ENDMDL
MODEL 2
REMARK VINA RESULT:    -5.570      1.681      2.501
REMARK INTER + INTRA:          -5.990
REMARK INTER:                  -5.893
REMARK INTRA:                  -0.097
REMARK UNBOUND:                -0.095
REMARK SMILES C=C(C)[C@@H]1CC=C(C)C(=O)C1
REMARK SMILES IDX 8 1 7 2 6 3 5 4 4 5 11 6 9 7 10 8 2 9 1 10 3 11
REMARK H PARENT
REMARK Flexibility Score: inf
ROOT
ATOM      1  C   UNL     1     117.738 180.125 125.366  1.00  0.00     0.048 C 
ATOM      2  C   UNL     1     119.113 179.630 125.722  1.00  0.00    -0.012 C 
ATOM      3  C   UNL     1     119.514 179.634 127.005  1.00  0.00    -0.019 C 
ATOM      4  C   UNL     1     120.873 179.134 127.419  1.00  0.00     0.036 C 
ATOM      5  C   UNL     1     121.920 179.401 126.322  1.00  0.00     0.025 C 
ATOM      6  C   UNL     1     121.457 178.794 124.983  1.00  0.00     0.089 C 
ATOM      7  C   UNL     1     120.066 179.255 124.648  1.00  0.00     0.158 C 
ATOM      8  O   UNL     1     119.703 179.285 123.441  1.00  0.00    -0.295 OA
ENDROOT
BRANCH   5   9
ATOM      9  C   UNL     1     123.298 178.890 126.723  1.00  0.00    -0.077 C 
ATOM     10  C   UNL     1     124.092 178.255 125.844  1.00  0.00     0.008 C 
ATOM     11  C   UNL     1     123.796 179.090 128.132  1.00  0.00     0.039 C 
ENDBRANCH   5   9
TORSDOF 1
ENDMDL
MODEL 3
REMARK VINA RESULT:    -5.365      1.986      2.550
REMARK INTER + INTRA:          -5.773
REMARK INTER:                  -5.675
REMARK INTRA:                  -0.098
REMARK UNBOUND:                -0.095
REMARK SMILES C=C(C)[C@@H]1CC=C(C)C(=O)C1
REMARK SMILES IDX 8 1 7 2 6 3 5 4 4 5 11 6 9 7 10 8 2 9 1 10 3 11
REMARK H PARENT
REMARK Flexibility Score: inf
ROOT
ATOM      1  C   UNL     1     116.988 179.070 122.860  1.00  0.00     0.048 C 
ATOM      2  C   UNL     1     118.129 178.947 123.833  1.00  0.00    -0.012 C 
ATOM      3  C   UNL     1     117.877 178.869 125.152  1.00  0.00    -0.019 C 
ATOM      4  C   UNL     1     118.980 178.726 126.168  1.00  0.00     0.036 C 
ATOM      5  C   UNL     1     120.256 179.453 125.706  1.00  0.00     0.025 C 
ATOM      6  C   UNL     1     120.680 178.954 124.311  1.00  0.00     0.089 C 
ATOM      7  C   UNL     1     119.528 179.036 123.348  1.00  0.00     0.158 C 
ATOM      8  O   UNL     1     119.766 179.146 122.115  1.00  0.00    -0.295 OA
ENDROOT
BRANCH   5   9
ATOM      9  C   UNL     1     121.384 179.308 126.720  1.00  0.00    -0.077 C 
ATOM     10  C   UNL     1     122.672 179.436 126.358  1.00  0.00     0.008 C 
ATOM     11  C   UNL     1     121.066 179.014 128.164  1.00  0.00     0.039 C 
ENDBRANCH   5   9
TORSDOF 1
ENDMDL
MODEL 4
REMARK VINA RESULT:    -5.350      4.096      5.656
REMARK INTER + INTRA:          -5.758
REMARK INTER:                  -5.664
REMARK INTRA:                  -0.094
REMARK UNBOUND:                -0.095
REMARK SMILES C=C(C)[C@@H]1CC=C(C)C(=O)C1
REMARK SMILES IDX 8 1 7 2 6 3 5 4 4 5 11 6 9 7 10 8 2 9 1 10 3 11
REMARK H PARENT
REMARK Flexibility Score: inf
ROOT
ATOM      1  C   UNL     1     123.803 179.367 128.553  1.00  0.00     0.048 C 
ATOM      2  C   UNL     1     122.750 178.343 128.878  1.00  0.00    -0.012 C 
ATOM      3  C   UNL     1     121.534 178.433 128.312  1.00  0.00    -0.019 C 
ATOM      4  C   UNL     1     120.448 177.426 128.588  1.00  0.00     0.036 C 
ATOM      5  C   UNL     1     120.551 176.880 130.024  1.00  0.00     0.025 C 
ATOM      6  C   UNL     1     121.958 176.306 130.278  1.00  0.00     0.089 C 
ATOM      7  C   UNL     1     123.013 177.313 129.913  1.00  0.00     0.158 C 
ATOM      8  O   UNL     1     124.142 177.250 130.472  1.00  0.00    -0.295 OA
ENDROOT
BRANCH   5   9
ATOM      9  C   UNL     1     119.465 175.852 130.314  1.00  0.00    -0.077 C 
ATOM     10  C   UNL     1     118.171 176.110 130.059  1.00  0.00     0.008 C 
ATOM     11  C   UNL     1     119.831 174.511 130.900  1.00  0.00     0.039 C 
ENDBRANCH   5   9
TORSDOF 1
ENDMDL
MODEL 5
REMARK VINA RESULT:    -5.336     13.617     14.898
REMARK INTER + INTRA:          -5.742
REMARK INTER:                  -5.650
REMARK INTRA:                  -0.093
REMARK UNBOUND:                -0.095
REMARK SMILES C=C(C)[C@@H]1CC=C(C)C(=O)C1
REMARK SMILES IDX 8 1 7 2 6 3 5 4 4 5 11 6 9 7 10 8 2 9 1 10 3 11
REMARK H PARENT
REMARK Flexibility Score: inf
ROOT
ATOM      1  C   UNL     1     117.047 168.138 124.738  1.00  0.00     0.048 C 
ATOM      2  C   UNL     1     117.108 167.030 123.723  1.00  0.00    -0.012 C 
ATOM      3  C   UNL     1     118.250 166.342 123.552  1.00  0.00    -0.019 C 
ATOM      4  C   UNL     1     118.362 165.212 122.563  1.00  0.00     0.036 C 
ATOM      5  C   UNL     1     117.463 165.459 121.336  1.00  0.00     0.025 C 
ATOM      6  C   UNL     1     116.009 165.704 121.781  1.00  0.00     0.089 C 
ATOM      7  C   UNL     1     115.951 166.782 122.827  1.00  0.00     0.158 C 
ATOM      8  O   UNL     1     114.891 167.452 122.961  1.00  0.00    -0.295 OA
ENDROOT
BRANCH   5   9
ATOM      9  C   UNL     1     117.558 164.318 120.332  1.00  0.00    -0.077 C 
ATOM     10  C   UNL     1     117.341 164.520 119.020  1.00  0.00     0.008 C 
ATOM     11  C   UNL     1     117.901 162.926 120.800  1.00  0.00     0.039 C 
ENDBRANCH   5   9
TORSDOF 1
ENDMDL
MODEL 6
REMARK VINA RESULT:    -5.328      1.957      4.566
REMARK INTER + INTRA:          -5.735
REMARK INTER:                  -5.639
REMARK INTRA:                  -0.096
REMARK UNBOUND:                -0.095
REMARK SMILES C=C(C)[C@@H]1CC=C(C)C(=O)C1
REMARK SMILES IDX 8 1 7 2 6 3 5 4 4 5 11 6 9 7 10 8 2 9 1 10 3 11
REMARK H PARENT
REMARK Flexibility Score: inf
ROOT
ATOM      1  C   UNL     1     122.225 178.912 129.993  1.00  0.00     0.048 C 
ATOM      2  C   UNL     1     122.155 178.924 128.491  1.00  0.00    -0.012 C 
ATOM      3  C   UNL     1     120.964 179.029 127.877  1.00  0.00    -0.019 C 
ATOM      4  C   UNL     1     120.838 179.064 126.377  1.00  0.00     0.036 C 
ATOM      5  C   UNL     1     121.936 178.214 125.709  1.00  0.00     0.025 C 
ATOM      6  C   UNL     1     123.328 178.666 126.189  1.00  0.00     0.089 C 
ATOM      7  C   UNL     1     123.385 178.696 127.691  1.00  0.00     0.158 C 
ATOM      8  O   UNL     1     124.499 178.560 128.266  1.00  0.00    -0.295 OA
ENDROOT
BRANCH   5   9
ATOM      9  C   UNL     1     121.827 178.249 124.190  1.00  0.00    -0.077 C 
ATOM     10  C   UNL     1     122.632 177.503 123.413  1.00  0.00     0.008 C 
ATOM     11  C   UNL     1     120.801 179.133 123.527  1.00  0.00     0.039 C 
ENDBRANCH   5   9
TORSDOF 1
ENDMDL
MODEL 7
REMARK VINA RESULT:    -5.295      2.062      4.614
REMARK INTER + INTRA:          -5.699
REMARK INTER:                  -5.603
REMARK INTRA:                  -0.097
REMARK UNBOUND:                -0.095
REMARK SMILES C=C(C)[C@@H]1CC=C(C)C(=O)C1
REMARK SMILES IDX 8 1 7 2 6 3 5 4 4 5 11 6 9 7 10 8 2 9 1 10 3 11
REMARK H PARENT
REMARK Flexibility Score: inf
ROOT
ATOM      1  C   UNL     1     124.163 178.611 128.333  1.00  0.00     0.048 C 
ATOM      2  C   UNL     1     123.118 178.588 127.251  1.00  0.00    -0.012 C 
ATOM      3  C   UNL     1     123.479 178.355 125.977  1.00  0.00    -0.019 C 
ATOM      4  C   UNL     1     122.473 178.304 124.858  1.00  0.00     0.036 C 
ATOM      5  C   UNL     1     121.299 179.265 125.124  1.00  0.00     0.025 C 
ATOM      6  C   UNL     1     120.663 178.964 126.495  1.00  0.00     0.089 C 
ATOM      7  C   UNL     1     121.713 178.944 127.571  1.00  0.00     0.158 C 
ATOM      8  O   UNL     1     121.379 179.199 128.760  1.00  0.00    -0.295 OA
ENDROOT
BRANCH   5   9
ATOM      9  C   UNL     1     120.267 179.215 124.005  1.00  0.00    -0.077 C 
ATOM     10  C   UNL     1     118.965 179.006 124.262  1.00  0.00     0.008 C 
ATOM     11  C   UNL     1     120.699 179.402 122.572  1.00  0.00     0.039 C 
ENDBRANCH   5   9
TORSDOF 1
ENDMDL
MODEL 8
REMARK VINA RESULT:    -5.260      2.499      3.014
REMARK INTER + INTRA:          -5.662
REMARK INTER:                  -5.565
REMARK INTRA:                  -0.097
REMARK UNBOUND:                -0.095
REMARK SMILES C=C(C)[C@@H]1CC=C(C)C(=O)C1
REMARK SMILES IDX 8 1 7 2 6 3 5 4 4 5 11 6 9 7 10 8 2 9 1 10 3 11
REMARK H PARENT
REMARK Flexibility Score: inf
ROOT
ATOM      1  C   UNL     1     117.415 179.000 123.124  1.00  0.00     0.048 C 
ATOM      2  C   UNL     1     118.524 179.206 124.119  1.00  0.00    -0.012 C 
ATOM      3  C   UNL     1     119.798 178.972 123.759  1.00  0.00    -0.019 C 
ATOM      4  C   UNL     1     120.948 179.179 124.709  1.00  0.00     0.036 C 
ATOM      5  C   UNL     1     120.528 178.879 126.160  1.00  0.00     0.025 C 
ATOM      6  C   UNL     1     119.295 179.719 126.544  1.00  0.00     0.089 C 
ATOM      7  C   UNL     1     118.201 179.547 125.527  1.00  0.00     0.158 C 
ATOM      8  O   UNL     1     117.004 179.731 125.876  1.00  0.00    -0.295 OA
ENDROOT
BRANCH   5   9
ATOM      9  C   UNL     1     121.680 179.095 127.134  1.00  0.00    -0.077 C 
ATOM     10  C   UNL     1     121.500 178.998 128.463  1.00  0.00     0.008 C 
ATOM     11  C   UNL     1     123.056 179.425 126.615  1.00  0.00     0.039 C 
ENDBRANCH   5   9
TORSDOF 1
ENDMDL
MODEL 9
REMARK VINA RESULT:    -5.247      3.642      5.559
REMARK INTER + INTRA:          -5.648
REMARK INTER:                  -5.557
REMARK INTRA:                  -0.092
REMARK UNBOUND:                -0.095
REMARK SMILES C=C(C)[C@@H]1CC=C(C)C(=O)C1
REMARK SMILES IDX 8 1 7 2 6 3 5 4 4 5 11 6 9 7 10 8 2 9 1 10 3 11
REMARK H PARENT
REMARK Flexibility Score: inf
ROOT
ATOM      1  C   UNL     1     123.756 179.355 128.635  1.00  0.00     0.048 C 
ATOM      2  C   UNL     1     122.598 178.548 129.154  1.00  0.00    -0.012 C 
ATOM      3  C   UNL     1     122.681 177.958 130.359  1.00  0.00    -0.019 C 
ATOM      4  C   UNL     1     121.545 177.153 130.934  1.00  0.00     0.036 C 
ATOM      5  C   UNL     1     120.751 176.443 129.822  1.00  0.00     0.025 C 
ATOM      6  C   UNL     1     120.270 177.464 128.774  1.00  0.00     0.089 C 
ATOM      7  C   UNL     1     121.420 178.301 128.286  1.00  0.00     0.158 C 
ATOM      8  O   UNL     1     121.356 178.823 127.140  1.00  0.00    -0.295 OA
ENDROOT
BRANCH   5   9
ATOM      9  C   UNL     1     119.592 175.633 130.389  1.00  0.00    -0.077 C 
ATOM     10  C   UNL     1     119.804 174.528 131.125  1.00  0.00     0.008 C 
ATOM     11  C   UNL     1     118.171 176.064 130.129  1.00  0.00     0.039 C 
ENDBRANCH   5   9
TORSDOF 1
ENDMDL
