MODEL 1
REMARK VINA RESULT:     8.923      0.000      0.000
REMARK INTER + INTRA:          12.583
REMARK INTER:                  11.791
REMARK INTRA:                   0.791
REMARK UNBOUND:                 0.791
REMARK SMILES CC[C@H](C=C[C@H](C)[C@H]1CC[C@@H]2C3=CC[C@H]4C[C@@H](O)CC[C@@]4(C)[C@@H]3CC[C@]21C)C(C)C
REMARK SMILES IDX 6 1 7 2 5 3 4 4 3 5 2 6 1 7 28 8 29 9 30 10 8 11 9 12 26 13
REMARK SMILES IDX 10 14 11 15 25 16 27 17 12 18 24 19 23 20 13 21 21 22 14 23
REMARK SMILES IDX 15 24 20 25 22 26 16 27 19 28 17 29 18 30
REMARK H PARENT 18 31
REMARK Flexibility Score: inf
ROOT
ATOM      1  C   UNL     1      12.762  16.763  24.442  1.00  0.00     0.012 C 
ATOM      2  C   UNL     1      11.391  16.503  23.801  1.00  0.00     0.012 C 
ENDROOT
BRANCH   1   3
ATOM      3  C   UNL     1      13.673  17.502  23.481  1.00  0.00    -0.028 C 
ATOM      4  C   UNL     1      15.007  17.337  23.491  1.00  0.00    -0.027 C 
BRANCH   4   5
ATOM      5  C   UNL     1      15.907  18.125  22.561  1.00  0.00     0.014 C 
BRANCH   5   6
ATOM      6  C   UNL     1      17.345  18.120  23.147  1.00  0.00     0.004 C 
ATOM      7  C   UNL     1      18.454  18.018  22.102  1.00  0.00     0.004 C 
ENDBRANCH   5   6
BRANCH   5   8
ATOM      8  C   UNL     1      15.759  17.584  21.100  1.00  0.00    -0.011 C 
ATOM      9  C   UNL     1      14.347  17.775  20.525  1.00  0.00     0.008 C 
ATOM     10  C   UNL     1      16.824  18.124  20.133  1.00  0.00     0.008 C 
ENDBRANCH   5   8
ENDBRANCH   4   5
ENDBRANCH   1   3
BRANCH   1  11
ATOM     11  C   UNL     1      12.666  17.385  25.881  1.00  0.00     0.002 C 
ATOM     12  C   UNL     1      11.232  17.227  26.469  1.00  0.00     0.005 C 
ATOM     13  C   UNL     1      13.596  16.870  27.034  1.00  0.00    -0.023 C 
ATOM     14  C   UNL     1      11.325  16.316  27.705  1.00  0.00     0.009 C 
ATOM     15  C   UNL     1      12.747  15.762  27.664  1.00  0.00     0.021 C 
ATOM     16  C   UNL     1      14.986  16.278  26.669  1.00  0.00     0.008 C 
ATOM     17  C   UNL     1      13.820  18.064  28.019  1.00  0.00     0.012 C 
ATOM     18  C   UNL     1      13.431  15.206  28.898  1.00  0.00    -0.067 C 
ATOM     19  C   UNL     1      15.680  15.596  27.881  1.00  0.00     0.009 C 
ATOM     20  C   UNL     1      14.772  14.542  28.596  1.00  0.00     0.021 C 
ATOM     21  C   UNL     1      13.073  15.564  30.145  1.00  0.00    -0.027 C 
ATOM     22  C   UNL     1      15.428  13.812  29.837  1.00  0.00    -0.023 C 
ATOM     23  C   UNL     1      13.791  15.094  31.372  1.00  0.00     0.031 C 
ATOM     24  C   UNL     1      15.258  14.671  31.125  1.00  0.00     0.002 C 
ATOM     25  C   UNL     1      14.728  12.438  30.059  1.00  0.00     0.010 C 
ATOM     26  C   UNL     1      16.940  13.560  29.548  1.00  0.00     0.012 C 
ATOM     27  C   UNL     1      15.817  13.948  32.379  1.00  0.00     0.036 C 
ATOM     28  C   UNL     1      15.252  11.671  31.290  1.00  0.00     0.032 C 
ATOM     29  C   UNL     1      15.278  12.508  32.584  1.00  0.00     0.114 C 
BRANCH  29  30
ATOM     30  O   UNL     1      13.996  12.524  33.156  1.00  0.00    -0.393 OA
ATOM     31  H   UNL     1      13.688  11.581  33.205  1.00  0.00     0.210 HD
ENDBRANCH  29  30
ENDBRANCH   1  11
TORSDOF 6
ENDMDL
MODEL 2
REMARK VINA RESULT:    10.341      1.255      2.332
REMARK INTER + INTRA:          14.457
REMARK INTER:                  14.379
REMARK INTRA:                   0.078
REMARK UNBOUND:                 0.791
REMARK SMILES CC[C@H](C=C[C@H](C)[C@H]1CC[C@@H]2C3=CC[C@H]4C[C@@H](O)CC[C@@]4(C)[C@@H]3CC[C@]21C)C(C)C
REMARK SMILES IDX 6 1 7 2 5 3 4 4 3 5 2 6 1 7 28 8 29 9 30 10 8 11 9 12 26 13
REMARK SMILES IDX 10 14 11 15 25 16 27 17 12 18 24 19 23 20 13 21 21 22 14 23
REMARK SMILES IDX 15 24 20 25 22 26 16 27 19 28 17 29 18 30
REMARK H PARENT 18 31
REMARK Flexibility Score: inf
ROOT
ATOM      1  C   UNL     1      11.711  16.945  24.942  1.00  0.00     0.012 C 
ATOM      2  C   UNL     1      10.176  16.955  24.979  1.00  0.00     0.012 C 
ENDROOT
BRANCH   1   3
ATOM      3  C   UNL     1      12.220  17.504  23.627  1.00  0.00    -0.028 C 
ATOM      4  C   UNL     1      12.234  16.774  22.499  1.00  0.00    -0.027 C 
BRANCH   4   5
ATOM      5  C   UNL     1      12.797  17.329  21.206  1.00  0.00     0.014 C 
BRANCH   5   6
ATOM      6  C   UNL     1      11.674  18.116  20.479  1.00  0.00     0.004 C 
ATOM      7  C   UNL     1      10.260  17.616  20.771  1.00  0.00     0.004 C 
ENDBRANCH   5   6
BRANCH   5   8
ATOM      8  C   UNL     1      14.113  18.124  21.501  1.00  0.00    -0.011 C 
ATOM      9  C   UNL     1      14.631  17.924  22.933  1.00  0.00     0.008 C 
ATOM     10  C   UNL     1      15.227  17.873  20.474  1.00  0.00     0.008 C 
ENDBRANCH   5   8
ENDBRANCH   4   5
ENDBRANCH   1   3
BRANCH   1  11
ATOM     11  C   UNL     1      12.366  17.565  26.228  1.00  0.00     0.002 C 
ATOM     12  C   UNL     1      11.294  17.870  27.316  1.00  0.00     0.005 C 
ATOM     13  C   UNL     1      13.476  16.782  27.012  1.00  0.00    -0.023 C 
ATOM     14  C   UNL     1      11.587  16.975  28.533  1.00  0.00     0.009 C 
ATOM     15  C   UNL     1      12.653  16.000  28.041  1.00  0.00     0.021 C 
ATOM     16  C   UNL     1      14.376  15.780  26.238  1.00  0.00     0.008 C 
ATOM     17  C   UNL     1      14.402  17.842  27.693  1.00  0.00     0.012 C 
ATOM     18  C   UNL     1      13.567  15.254  28.995  1.00  0.00    -0.067 C 
ATOM     19  C   UNL     1      15.253  14.912  27.184  1.00  0.00     0.009 C 
ATOM     20  C   UNL     1      14.428  14.200  28.305  1.00  0.00     0.021 C 
ATOM     21  C   UNL     1      13.841  15.707  30.233  1.00  0.00    -0.027 C 
ATOM     22  C   UNL     1      15.269  13.299  29.298  1.00  0.00    -0.023 C 
ATOM     23  C   UNL     1      14.806  15.034  31.157  1.00  0.00     0.031 C 
ATOM     24  C   UNL     1      15.869  14.167  30.443  1.00  0.00     0.002 C 
ATOM     25  C   UNL     1      14.340  12.218  29.928  1.00  0.00     0.010 C 
ATOM     26  C   UNL     1      16.404  12.581  28.507  1.00  0.00     0.012 C 
ATOM     27  C   UNL     1      16.633  13.304  31.481  1.00  0.00     0.036 C 
ATOM     28  C   UNL     1      15.051  11.324  30.964  1.00  0.00     0.032 C 
ATOM     29  C   UNL     1      15.820  12.109  32.044  1.00  0.00     0.114 C 
BRANCH  29  30
ATOM     30  O   UNL     1      14.925  12.530  33.042  1.00  0.00    -0.393 OA
ATOM     31  H   UNL     1      14.370  11.743  33.284  1.00  0.00     0.210 HD
ENDBRANCH  29  30
ENDBRANCH   1  11
TORSDOF 6
ENDMDL
MODEL 3
REMARK VINA RESULT:    10.533      1.327      2.126
REMARK INTER + INTRA:          14.711
REMARK INTER:                  15.117
REMARK INTRA:                  -0.406
REMARK UNBOUND:                 0.791
REMARK SMILES CC[C@H](C=C[C@H](C)[C@H]1CC[C@@H]2C3=CC[C@H]4C[C@@H](O)CC[C@@]4(C)[C@@H]3CC[C@]21C)C(C)C
REMARK SMILES IDX 6 1 7 2 5 3 4 4 3 5 2 6 1 7 28 8 29 9 30 10 8 11 9 12 26 13
REMARK SMILES IDX 10 14 11 15 25 16 27 17 12 18 24 19 23 20 13 21 21 22 14 23
REMARK SMILES IDX 15 24 20 25 22 26 16 27 19 28 17 29 18 30
REMARK H PARENT 18 31
REMARK Flexibility Score: inf
ROOT
ATOM      1  C   UNL     1      14.364  17.111  25.004  1.00  0.00     0.012 C 
ATOM      2  C   UNL     1      14.277  15.593  24.787  1.00  0.00     0.012 C 
ENDROOT
BRANCH   1   3
ATOM      3  C   UNL     1      13.817  17.857  23.803  1.00  0.00    -0.028 C 
ATOM      4  C   UNL     1      13.845  17.336  22.564  1.00  0.00    -0.027 C 
BRANCH   4   5
ATOM      5  C   UNL     1      13.344  18.118  21.367  1.00  0.00     0.014 C 
BRANCH   5   6
ATOM      6  C   UNL     1      14.175  17.699  20.124  1.00  0.00     0.004 C 
ATOM      7  C   UNL     1      15.675  17.959  20.249  1.00  0.00     0.004 C 
ENDBRANCH   5   6
BRANCH   5   8
ATOM      8  C   UNL     1      11.792  17.956  21.242  1.00  0.00    -0.011 C 
ATOM      9  C   UNL     1      11.349  17.414  19.875  1.00  0.00     0.008 C 
ATOM     10  C   UNL     1      11.165  17.143  22.385  1.00  0.00     0.008 C 
ENDBRANCH   5   8
ENDBRANCH   4   5
ENDBRANCH   1   3
BRANCH   1  11
ATOM     11  C   UNL     1      13.794  17.572  26.393  1.00  0.00     0.002 C 
ATOM     12  C   UNL     1      12.263  17.305  26.491  1.00  0.00     0.005 C 
ATOM     13  C   UNL     1      14.361  16.969  27.725  1.00  0.00    -0.023 C 
ATOM     14  C   UNL     1      12.034  16.270  27.606  1.00  0.00     0.009 C 
ATOM     15  C   UNL     1      13.434  15.773  27.958  1.00  0.00     0.021 C 
ATOM     16  C   UNL     1      15.830  16.466  27.756  1.00  0.00     0.008 C 
ATOM     17  C   UNL     1      14.196  18.058  28.836  1.00  0.00     0.012 C 
ATOM     18  C   UNL     1      13.744  15.111  29.287  1.00  0.00    -0.067 C 
ATOM     19  C   UNL     1      16.166  15.683  29.056  1.00  0.00     0.009 C 
ATOM     20  C   UNL     1      15.153  14.529  29.356  1.00  0.00     0.021 C 
ATOM     21  C   UNL     1      13.001  15.323  30.390  1.00  0.00    -0.027 C 
ATOM     22  C   UNL     1      15.446  13.693  30.667  1.00  0.00    -0.023 C 
ATOM     23  C   UNL     1      13.340  14.749  31.730  1.00  0.00     0.031 C 
ATOM     24  C   UNL     1      14.836  14.404  31.912  1.00  0.00     0.002 C 
ATOM     25  C   UNL     1      14.802  12.280  30.535  1.00  0.00     0.010 C 
ATOM     26  C   UNL     1      16.987  13.525  30.838  1.00  0.00     0.012 C 
ATOM     27  C   UNL     1      15.033  13.571  33.206  1.00  0.00     0.036 C 
ATOM     28  C   UNL     1      14.975  11.405  31.793  1.00  0.00     0.032 C 
ATOM     29  C   UNL     1      14.552  12.100  33.102  1.00  0.00     0.114 C 
BRANCH  29  30
ATOM     30  O   UNL     1      13.158  12.012  33.249  1.00  0.00    -0.393 OA
ATOM     31  H   UNL     1      12.972  11.948  34.222  1.00  0.00     0.210 HD
ENDBRANCH  29  30
ENDBRANCH   1  11
TORSDOF 6
ENDMDL
MODEL 4
REMARK VINA RESULT:    11.914      1.026      1.394
REMARK INTER + INTRA:          16.535
REMARK INTER:                  15.465
REMARK INTRA:                   1.070
REMARK UNBOUND:                 0.791
REMARK SMILES CC[C@H](C=C[C@H](C)[C@H]1CC[C@@H]2C3=CC[C@H]4C[C@@H](O)CC[C@@]4(C)[C@@H]3CC[C@]21C)C(C)C
REMARK SMILES IDX 6 1 7 2 5 3 4 4 3 5 2 6 1 7 28 8 29 9 30 10 8 11 9 12 26 13
REMARK SMILES IDX 10 14 11 15 25 16 27 17 12 18 24 19 23 20 13 21 21 22 14 23
REMARK SMILES IDX 15 24 20 25 22 26 16 27 19 28 17 29 18 30
REMARK H PARENT 18 31
REMARK Flexibility Score: inf
ROOT
ATOM      1  C   UNL     1      11.987  17.263  25.069  1.00  0.00     0.012 C 
ATOM      2  C   UNL     1      10.473  17.456  24.906  1.00  0.00     0.012 C 
ENDROOT
BRANCH   1   3
ATOM      3  C   UNL     1      12.734  17.842  23.883  1.00  0.00    -0.028 C 
ATOM      4  C   UNL     1      13.999  17.492  23.596  1.00  0.00    -0.027 C 
BRANCH   4   5
ATOM      5  C   UNL     1      14.749  18.121  22.439  1.00  0.00     0.014 C 
BRANCH   5   6
ATOM      6  C   UNL     1      16.124  17.412  22.300  1.00  0.00     0.004 C 
ATOM      7  C   UNL     1      17.041  18.012  21.236  1.00  0.00     0.004 C 
ENDBRANCH   5   6
BRANCH   5   8
ATOM      8  C   UNL     1      13.845  18.122  21.161  1.00  0.00    -0.011 C 
ATOM      9  C   UNL     1      14.595  17.696  19.890  1.00  0.00     0.008 C 
ATOM     10  C   UNL     1      12.544  17.322  21.327  1.00  0.00     0.008 C 
ENDBRANCH   5   8
ENDBRANCH   4   5
ENDBRANCH   1   3
BRANCH   1  11
ATOM     11  C   UNL     1      12.521  17.713  26.477  1.00  0.00     0.002 C 
ATOM     12  C   UNL     1      11.364  17.801  27.516  1.00  0.00     0.005 C 
ATOM     13  C   UNL     1      13.619  16.874  27.217  1.00  0.00    -0.023 C 
ATOM     14  C   UNL     1      11.627  16.749  28.607  1.00  0.00     0.009 C 
ATOM     15  C   UNL     1      12.777  15.909  28.057  1.00  0.00     0.021 C 
ATOM     16  C   UNL     1      14.624  16.042  26.372  1.00  0.00     0.008 C 
ATOM     17  C   UNL     1      14.437  17.862  28.110  1.00  0.00     0.012 C 
ATOM     18  C   UNL     1      13.668  15.072  28.956  1.00  0.00    -0.067 C 
ATOM     19  C   UNL     1      15.486  15.085  27.242  1.00  0.00     0.009 C 
ATOM     20  C   UNL     1      14.631  14.175  28.184  1.00  0.00     0.021 C 
ATOM     21  C   UNL     1      13.835  15.347  30.263  1.00  0.00    -0.027 C 
ATOM     22  C   UNL     1      15.455  13.175  29.093  1.00  0.00    -0.023 C 
ATOM     23  C   UNL     1      14.774  14.588  31.147  1.00  0.00     0.031 C 
ATOM     24  C   UNL     1      15.929  13.889  30.394  1.00  0.00     0.002 C 
ATOM     25  C   UNL     1      14.550  11.970  29.488  1.00  0.00     0.010 C 
ATOM     26  C   UNL     1      16.679  12.638  28.290  1.00  0.00     0.012 C 
ATOM     27  C   UNL     1      16.671  12.916  31.348  1.00  0.00     0.036 C 
ATOM     28  C   UNL     1      15.242  10.965  30.432  1.00  0.00     0.032 C 
ATOM     29  C   UNL     1      15.892  11.614  31.669  1.00  0.00     0.114 C 
BRANCH  29  30
ATOM     30  O   UNL     1      14.912  11.838  32.649  1.00  0.00    -0.393 OA
ATOM     31  H   UNL     1      14.285  11.070  32.613  1.00  0.00     0.210 HD
ENDBRANCH  29  30
ENDBRANCH   1  11
TORSDOF 6
ENDMDL
