MODEL 1
REMARK VINA RESULT:    -4.051      0.000      0.000
REMARK INTER + INTRA:          -5.541
REMARK INTER:                  -5.353
REMARK INTRA:                  -0.187
REMARK UNBOUND:                -0.187
REMARK SMILES CCCCC=CC=CCO
REMARK SMILES IDX 5 1 6 2 4 3 3 4 2 5 1 6 7 7 8 8 9 9 10 10
REMARK H PARENT 10 11
REMARK Flexibility Score: inf
ROOT
ATOM      1  C   UNL     1     411.043 -85.371 114.233  1.00  0.00    -0.027 C 
ATOM      2  C   UNL     1     409.974 -85.690 114.966  1.00  0.00    -0.005 C 
ENDROOT
BRANCH   1   3
ATOM      3  C   UNL     1     412.441 -85.650 114.712  1.00  0.00     0.027 C 
BRANCH   3   4
ATOM      4  C   UNL     1     412.630 -85.262 116.189  1.00  0.00     0.004 C 
BRANCH   4   5
ATOM      5  C   UNL     1     413.554 -86.215 116.967  1.00  0.00    -0.003 C 
ATOM      6  C   UNL     1     414.346 -85.519 118.073  1.00  0.00     0.004 C 
ENDBRANCH   4   5
ENDBRANCH   3   4
ENDBRANCH   1   3
BRANCH   2   7
ATOM      7  C   UNL     1     408.614 -85.387 114.491  1.00  0.00    -0.002 C 
ATOM      8  C   UNL     1     407.553 -86.018 114.998  1.00  0.00     0.001 C 
BRANCH   8   9
ATOM      9  C   UNL     1     406.166 -85.710 114.522  1.00  0.00     0.183 C 
BRANCH   9  10
ATOM     10  O   UNL     1     405.801 -86.612 113.516  1.00  0.00    -0.392 OA
ATOM     11  H   UNL     1     404.855 -86.854 113.694  1.00  0.00     0.210 HD
ENDBRANCH   9  10
ENDBRANCH   8   9
ENDBRANCH   2   7
TORSDOF 6
ENDMDL
MODEL 2
REMARK VINA RESULT:    -3.861      1.333      2.150
REMARK INTER + INTRA:          -5.289
REMARK INTER:                  -4.940
REMARK INTRA:                  -0.350
REMARK UNBOUND:                -0.187
REMARK SMILES CCCCC=CC=CCO
REMARK SMILES IDX 5 1 6 2 4 3 3 4 2 5 1 6 7 7 8 8 9 9 10 10
REMARK H PARENT 10 11
REMARK Flexibility Score: inf
ROOT
ATOM      1  C   UNL     1     408.932 -84.647 114.239  1.00  0.00    -0.027 C 
ATOM      2  C   UNL     1     408.469 -85.656 114.981  1.00  0.00    -0.005 C 
ENDROOT
BRANCH   1   3
ATOM      3  C   UNL     1     410.371 -84.215 114.304  1.00  0.00     0.027 C 
BRANCH   3   4
ATOM      4  C   UNL     1     411.323 -85.306 113.786  1.00  0.00     0.004 C 
BRANCH   4   5
ATOM      5  C   UNL     1     412.459 -85.653 114.764  1.00  0.00    -0.003 C 
ATOM      6  C   UNL     1     412.317 -84.966 116.122  1.00  0.00     0.004 C 
ENDBRANCH   4   5
ENDBRANCH   3   4
ENDBRANCH   1   3
BRANCH   2   7
ATOM      7  C   UNL     1     407.052 -86.049 114.923  1.00  0.00    -0.002 C 
ATOM      8  C   UNL     1     406.307 -85.777 113.849  1.00  0.00     0.001 C 
BRANCH   8   9
ATOM      9  C   UNL     1     404.866 -86.179 113.782  1.00  0.00     0.183 C 
BRANCH   9  10
ATOM     10  O   UNL     1     404.734 -87.345 113.019  1.00  0.00    -0.392 OA
ATOM     11  H   UNL     1     405.211 -88.056 113.519  1.00  0.00     0.210 HD
ENDBRANCH   9  10
ENDBRANCH   8   9
ENDBRANCH   2   7
TORSDOF 6
ENDMDL
MODEL 3
REMARK VINA RESULT:    -3.858      3.220      6.325
REMARK INTER + INTRA:          -5.285
REMARK INTER:                  -5.126
REMARK INTRA:                  -0.159
REMARK UNBOUND:                -0.187
REMARK SMILES CCCCC=CC=CCO
REMARK SMILES IDX 5 1 6 2 4 3 3 4 2 5 1 6 7 7 8 8 9 9 10 10
REMARK H PARENT 10 11
REMARK Flexibility Score: inf
ROOT
ATOM      1  C   UNL     1     410.596 -85.482 115.252  1.00  0.00    -0.027 C 
ATOM      2  C   UNL     1     411.909 -85.391 115.028  1.00  0.00    -0.005 C 
ENDROOT
BRANCH   1   3
ATOM      3  C   UNL     1     409.588 -85.066 114.218  1.00  0.00     0.027 C 
BRANCH   3   4
ATOM      4  C   UNL     1     408.190 -84.863 114.827  1.00  0.00     0.004 C 
BRANCH   4   5
ATOM      5  C   UNL     1     407.324 -86.135 114.829  1.00  0.00    -0.003 C 
ATOM      6  C   UNL     1     406.052 -86.000 113.992  1.00  0.00     0.004 C 
ENDBRANCH   4   5
ENDBRANCH   3   4
ENDBRANCH   1   3
BRANCH   2   7
ATOM      7  C   UNL     1     412.881 -85.781 116.062  1.00  0.00    -0.002 C 
ATOM      8  C   UNL     1     413.273 -84.914 116.999  1.00  0.00     0.001 C 
BRANCH   8   9
ATOM      9  C   UNL     1     414.258 -85.306 118.056  1.00  0.00     0.183 C 
BRANCH   9  10
ATOM     10  O   UNL     1     414.765 -86.582 117.780  1.00  0.00    -0.392 OA
ATOM     11  H   UNL     1     413.993 -87.124 117.475  1.00  0.00     0.210 HD
ENDBRANCH   9  10
ENDBRANCH   8   9
ENDBRANCH   2   7
TORSDOF 6
ENDMDL
MODEL 4
REMARK VINA RESULT:    -3.798      3.071      6.621
REMARK INTER + INTRA:          -5.206
REMARK INTER:                  -5.005
REMARK INTRA:                  -0.202
REMARK UNBOUND:                -0.187
REMARK SMILES CCCCC=CC=CCO
REMARK SMILES IDX 5 1 6 2 4 3 3 4 2 5 1 6 7 7 8 8 9 9 10 10
REMARK H PARENT 10 11
REMARK Flexibility Score: inf
ROOT
ATOM      1  C   UNL     1     407.730 -85.191 115.240  1.00  0.00    -0.027 C 
ATOM      2  C   UNL     1     408.643 -86.124 114.962  1.00  0.00    -0.005 C 
ENDROOT
BRANCH   1   3
ATOM      3  C   UNL     1     406.257 -85.485 115.183  1.00  0.00     0.027 C 
BRANCH   3   4
ATOM      4  C   UNL     1     405.700 -85.355 113.755  1.00  0.00     0.004 C 
BRANCH   4   5
ATOM      5  C   UNL     1     404.753 -86.499 113.352  1.00  0.00    -0.003 C 
ATOM      6  C   UNL     1     404.344 -86.455 111.881  1.00  0.00     0.004 C 
ENDBRANCH   4   5
ENDBRANCH   3   4
ENDBRANCH   1   3
BRANCH   2   7
ATOM      7  C   UNL     1     410.080 -85.811 114.999  1.00  0.00    -0.002 C 
ATOM      8  C   UNL     1     410.686 -85.239 113.957  1.00  0.00     0.001 C 
BRANCH   8   9
ATOM      9  C   UNL     1     412.148 -84.913 113.991  1.00  0.00     0.183 C 
BRANCH   9  10
ATOM     10  O   UNL     1     412.852 -85.963 114.593  1.00  0.00    -0.392 OA
ATOM     11  H   UNL     1     412.834 -85.782 115.568  1.00  0.00     0.210 HD
ENDBRANCH   9  10
ENDBRANCH   8   9
ENDBRANCH   2   7
TORSDOF 6
ENDMDL
MODEL 5
REMARK VINA RESULT:    -3.735      2.152      3.244
REMARK INTER + INTRA:          -5.123
REMARK INTER:                  -4.841
REMARK INTRA:                  -0.282
REMARK UNBOUND:                -0.187
REMARK SMILES CCCCC=CC=CCO
REMARK SMILES IDX 5 1 6 2 4 3 3 4 2 5 1 6 7 7 8 8 9 9 10 10
REMARK H PARENT 10 11
REMARK Flexibility Score: inf
ROOT
ATOM      1  C   UNL     1     409.155 -86.053 114.897  1.00  0.00    -0.027 C 
ATOM      2  C   UNL     1     408.008 -85.381 114.774  1.00  0.00    -0.005 C 
ENDROOT
BRANCH   1   3
ATOM      3  C   UNL     1     410.413 -85.388 115.381  1.00  0.00     0.027 C 
BRANCH   3   4
ATOM      4  C   UNL     1     411.431 -85.187 114.245  1.00  0.00     0.004 C 
BRANCH   4   5
ATOM      5  C   UNL     1     411.157 -83.945 113.379  1.00  0.00    -0.003 C 
ATOM      6  C   UNL     1     411.328 -84.203 111.883  1.00  0.00     0.004 C 
ENDBRANCH   4   5
ENDBRANCH   3   4
ENDBRANCH   1   3
BRANCH   2   7
ATOM      7  C   UNL     1     406.793 -86.043 114.275  1.00  0.00    -0.002 C 
ATOM      8  C   UNL     1     405.602 -85.445 114.354  1.00  0.00     0.001 C 
BRANCH   8   9
ATOM      9  C   UNL     1     404.362 -86.112 113.843  1.00  0.00     0.183 C 
BRANCH   9  10
ATOM     10  O   UNL     1     404.705 -87.273 113.140  1.00  0.00    -0.392 OA
ATOM     11  H   UNL     1     403.948 -87.902 113.262  1.00  0.00     0.210 HD
ENDBRANCH   9  10
ENDBRANCH   8   9
ENDBRANCH   2   7
TORSDOF 6
ENDMDL
MODEL 6
REMARK VINA RESULT:    -3.458     12.421     13.231
REMARK INTER + INTRA:          -4.757
REMARK INTER:                  -4.529
REMARK INTRA:                  -0.228
REMARK UNBOUND:                -0.187
REMARK SMILES CCCCC=CC=CCO
REMARK SMILES IDX 5 1 6 2 4 3 3 4 2 5 1 6 7 7 8 8 9 9 10 10
REMARK H PARENT 10 11
REMARK Flexibility Score: inf
ROOT
ATOM      1  C   UNL     1     404.987 -92.770 106.615  1.00  0.00    -0.027 C 
ATOM      2  C   UNL     1     404.659 -92.480 105.354  1.00  0.00    -0.005 C 
ENDROOT
BRANCH   1   3
ATOM      3  C   UNL     1     405.403 -94.155 107.025  1.00  0.00     0.027 C 
BRANCH   3   4
ATOM      4  C   UNL     1     404.622 -94.650 108.255  1.00  0.00     0.004 C 
BRANCH   4   5
ATOM      5  C   UNL     1     404.323 -96.159 108.234  1.00  0.00    -0.003 C 
ATOM      6  C   UNL     1     404.510 -96.792 106.855  1.00  0.00     0.004 C 
ENDBRANCH   4   5
ENDBRANCH   3   4
ENDBRANCH   1   3
BRANCH   2   7
ATOM      7  C   UNL     1     404.230 -91.124 104.977  1.00  0.00    -0.002 C 
ATOM      8  C   UNL     1     404.984 -90.061 105.261  1.00  0.00     0.001 C 
BRANCH   8   9
ATOM      9  C   UNL     1     404.555 -88.678 104.875  1.00  0.00     0.183 C 
BRANCH   9  10
ATOM     10  O   UNL     1     403.878 -88.077 105.943  1.00  0.00    -0.392 OA
ATOM     11  H   UNL     1     404.474 -88.167 106.731  1.00  0.00     0.210 HD
ENDBRANCH   9  10
ENDBRANCH   8   9
ENDBRANCH   2   7
TORSDOF 6
ENDMDL
MODEL 7
REMARK VINA RESULT:    -3.427     11.311     13.180
REMARK INTER + INTRA:          -4.716
REMARK INTER:                  -4.351
REMARK INTRA:                  -0.365
REMARK UNBOUND:                -0.187
REMARK SMILES CCCCC=CC=CCO
REMARK SMILES IDX 5 1 6 2 4 3 3 4 2 5 1 6 7 7 8 8 9 9 10 10
REMARK H PARENT 10 11
REMARK Flexibility Score: inf
ROOT
ATOM      1  C   UNL     1     420.390 -87.922 122.375  1.00  0.00    -0.027 C 
ATOM      2  C   UNL     1     420.354 -88.446 121.148  1.00  0.00    -0.005 C 
ENDROOT
BRANCH   1   3
ATOM      3  C   UNL     1     420.019 -86.489 122.634  1.00  0.00     0.027 C 
BRANCH   3   4
ATOM      4  C   UNL     1     420.747 -85.525 121.682  1.00  0.00     0.004 C 
BRANCH   4   5
ATOM      5  C   UNL     1     419.806 -84.751 120.742  1.00  0.00    -0.003 C 
ATOM      6  C   UNL     1     419.837 -85.262 119.302  1.00  0.00     0.004 C 
ENDBRANCH   4   5
ENDBRANCH   3   4
ENDBRANCH   1   3
BRANCH   2   7
ATOM      7  C   UNL     1     420.745 -89.844 120.910  1.00  0.00    -0.002 C 
ATOM      8  C   UNL     1     422.026 -90.183 120.754  1.00  0.00     0.001 C 
BRANCH   8   9
ATOM      9  C   UNL     1     422.431 -91.605 120.517  1.00  0.00     0.183 C 
BRANCH   9  10
ATOM     10  O   UNL     1     421.387 -92.295 119.887  1.00  0.00    -0.392 OA
ATOM     11  H   UNL     1     420.842 -92.691 120.615  1.00  0.00     0.210 HD
ENDBRANCH   9  10
ENDBRANCH   8   9
ENDBRANCH   2   7
TORSDOF 6
ENDMDL
MODEL 8
REMARK VINA RESULT:    -3.406      2.066      2.784
REMARK INTER + INTRA:          -4.689
REMARK INTER:                  -4.406
REMARK INTRA:                  -0.283
REMARK UNBOUND:                -0.187
REMARK SMILES CCCCC=CC=CCO
REMARK SMILES IDX 5 1 6 2 4 3 3 4 2 5 1 6 7 7 8 8 9 9 10 10
REMARK H PARENT 10 11
REMARK Flexibility Score: inf
ROOT
ATOM      1  C   UNL     1     408.922 -84.680 114.626  1.00  0.00    -0.027 C 
ATOM      2  C   UNL     1     407.984 -85.626 114.537  1.00  0.00    -0.005 C 
ENDROOT
BRANCH   1   3
ATOM      3  C   UNL     1     410.013 -84.549 113.601  1.00  0.00     0.027 C 
BRANCH   3   4
ATOM      4  C   UNL     1     411.358 -85.084 114.121  1.00  0.00     0.004 C 
BRANCH   4   5
ATOM      5  C   UNL     1     411.396 -85.292 115.645  1.00  0.00    -0.003 C 
ATOM      6  C   UNL     1     412.812 -85.439 116.199  1.00  0.00     0.004 C 
ENDBRANCH   4   5
ENDBRANCH   3   4
ENDBRANCH   1   3
BRANCH   2   7
ATOM      7  C   UNL     1     406.938 -85.754 115.564  1.00  0.00    -0.002 C 
ATOM      8  C   UNL     1     406.560 -84.703 116.294  1.00  0.00     0.001 C 
BRANCH   8   9
ATOM      9  C   UNL     1     405.492 -84.827 117.338  1.00  0.00     0.183 C 
BRANCH   9  10
ATOM     10  O   UNL     1     405.846 -85.818 118.261  1.00  0.00    -0.392 OA
ATOM     11  H   UNL     1     405.822 -86.677 117.765  1.00  0.00     0.210 HD
ENDBRANCH   9  10
ENDBRANCH   8   9
ENDBRANCH   2   7
TORSDOF 6
ENDMDL
MODEL 9
REMARK VINA RESULT:    -3.394     12.522     13.500
REMARK INTER + INTRA:          -4.672
REMARK INTER:                  -4.481
REMARK INTRA:                  -0.191
REMARK UNBOUND:                -0.187
REMARK SMILES CCCCC=CC=CCO
REMARK SMILES IDX 5 1 6 2 4 3 3 4 2 5 1 6 7 7 8 8 9 9 10 10
REMARK H PARENT 10 11
REMARK Flexibility Score: inf
ROOT
ATOM      1  C   UNL     1     420.510 -88.007 122.302  1.00  0.00    -0.027 C 
ATOM      2  C   UNL     1     420.290 -88.500 121.081  1.00  0.00    -0.005 C 
ENDROOT
BRANCH   1   3
ATOM      3  C   UNL     1     420.111 -86.605 122.671  1.00  0.00     0.027 C 
BRANCH   3   4
ATOM      4  C   UNL     1     420.115 -86.389 124.194  1.00  0.00     0.004 C 
BRANCH   4   5
ATOM      5  C   UNL     1     418.743 -86.607 124.855  1.00  0.00    -0.003 C 
ATOM      6  C   UNL     1     417.847 -85.370 124.809  1.00  0.00     0.004 C 
ENDBRANCH   4   5
ENDBRANCH   3   4
ENDBRANCH   1   3
BRANCH   2   7
ATOM      7  C   UNL     1     420.709 -89.866 120.730  1.00  0.00    -0.002 C 
ATOM      8  C   UNL     1     421.960 -90.278 120.948  1.00  0.00     0.001 C 
BRANCH   8   9
ATOM      9  C   UNL     1     422.392 -91.669 120.597  1.00  0.00     0.183 C 
BRANCH   9  10
ATOM     10  O   UNL     1     421.380 -92.310 119.873  1.00  0.00    -0.392 OA
ATOM     11  H   UNL     1     421.058 -91.649 119.207  1.00  0.00     0.210 HD
ENDBRANCH   9  10
ENDBRANCH   8   9
ENDBRANCH   2   7
TORSDOF 6
ENDMDL
