MODEL 1
REMARK VINA RESULT:    -3.818      0.000      0.000
REMARK INTER + INTRA:          -3.953
REMARK INTER:                  -4.711
REMARK INTRA:                   0.758
REMARK UNBOUND:                 0.758
REMARK SMILES CC1=CC=CC(C)(C)CC1=O
REMARK SMILES IDX 1 1 2 2 3 3 10 4 11 5 9 6 4 8 5 9 6 10 7 11 8 12
REMARK H PARENT
REMARK Flexibility Score: 80.00
ROOT
ATOM      1  C   UNL     1     122.133 176.659 122.758  1.00  0.00     0.048 C 
ATOM      2  C   UNL     1     122.911 176.855 121.479  1.00  0.00    -0.008 C 
ATOM      3  C   UNL     1     122.367 176.378 120.337  1.00  0.00     0.007 C 
ENDROOT
BRANCH   2   4
ATOM      4  C   UNL     1     124.248 177.490 121.591  1.00  0.00     0.159 C 
ATOM      5  O   UNL     1     124.753 177.646 122.736  1.00  0.00    -0.295 OA
BRANCH   4   6
ATOM      6  C   UNL     1     125.034 177.971 120.411  1.00  0.00     0.091 CG0
ATOM      7  G   UNL     1     125.363 176.852 119.398  1.00  0.00     0.000 G0
ENDBRANCH   4   6
ENDBRANCH   2   4
BRANCH   3   8
ATOM      8  C   UNL     1     122.895 176.395 118.953  1.00  0.00    -0.003 C 
ATOM      9  C   UNL     1     124.153 176.578 118.531  1.00  0.00    -0.020 C 
BRANCH   9  10
ATOM     10  C   UNL     1     125.360 176.848 119.399  1.00  0.00    -0.010 CG0
ATOM     11  C   UNL     1     125.825 175.538 120.078  1.00  0.00     0.016 C 
ATOM     12  C   UNL     1     126.508 177.347 118.491  1.00  0.00     0.016 C 
ATOM     13  G   UNL     1     125.032 177.962 120.417  1.00  0.00     0.000 G0
ENDBRANCH   9  10
ENDBRANCH   3   8
TORSDOF 0
ENDMDL
MODEL 2
REMARK VINA RESULT:    -3.675      8.350     10.293
REMARK INTER + INTRA:          -3.776
REMARK INTER:                  -4.533
REMARK INTRA:                   0.757
REMARK UNBOUND:                 0.758
REMARK SMILES CC1=CC=CC(C)(C)CC1=O
REMARK SMILES IDX 1 1 2 2 3 3 10 4 11 5 9 6 4 8 5 9 6 10 7 11 8 12
REMARK H PARENT
REMARK Flexibility Score: 80.00
ROOT
ATOM      1  C   UNL     1     122.001 178.952 127.223  1.00  0.00     0.048 C 
ATOM      2  C   UNL     1     121.076 178.249 128.188  1.00  0.00    -0.008 C 
ATOM      3  C   UNL     1     121.556 177.962 129.418  1.00  0.00     0.007 C 
ENDROOT
BRANCH   2   4
ATOM      4  C   UNL     1     119.737 177.862 127.679  1.00  0.00     0.159 C 
ATOM      5  O   UNL     1     119.509 177.944 126.441  1.00  0.00    -0.295 OA
BRANCH   4   6
ATOM      6  C   UNL     1     118.625 177.386 128.561  1.00  0.00     0.091 CG0
ATOM      7  G   UNL     1     118.973 176.099 129.342  1.00  0.00     0.000 G0
ENDBRANCH   4   6
ENDBRANCH   2   4
BRANCH   3   8
ATOM      8  C   UNL     1     120.907 177.266 130.553  1.00  0.00    -0.003 C 
ATOM      9  C   UNL     1     119.833 176.466 130.551  1.00  0.00    -0.020 C 
BRANCH   9  10
ATOM     10  C   UNL     1     118.991 176.098 129.352  1.00  0.00    -0.010 CG0
ATOM     11  C   UNL     1     119.730 175.047 128.491  1.00  0.00     0.016 C 
ATOM     12  C   UNL     1     117.678 175.459 129.859  1.00  0.00     0.016 C 
ATOM     13  G   UNL     1     118.631 177.372 128.556  1.00  0.00     0.000 G0
ENDBRANCH   9  10
ENDBRANCH   3   8
TORSDOF 0
ENDMDL
MODEL 3
REMARK VINA RESULT:    -3.670      6.911      8.737
REMARK INTER + INTRA:          -3.770
REMARK INTER:                  -4.520
REMARK INTRA:                   0.750
REMARK UNBOUND:                 0.758
REMARK SMILES CC1=CC=CC(C)(C)CC1=O
REMARK SMILES IDX 1 1 2 2 3 3 10 4 11 5 9 6 4 8 5 9 6 10 7 11 8 12
REMARK H PARENT
REMARK Flexibility Score: 80.00
ROOT
ATOM      1  C   UNL     1     119.713 177.759 130.740  1.00  0.00     0.048 C 
ATOM      2  C   UNL     1     120.165 177.636 129.304  1.00  0.00    -0.008 C 
ATOM      3  C   UNL     1     121.328 178.232 128.961  1.00  0.00     0.007 C 
ENDROOT
BRANCH   2   4
ATOM      4  C   UNL     1     119.254 176.932 128.367  1.00  0.00     0.159 C 
ATOM      5  O   UNL     1     118.089 176.644 128.754  1.00  0.00    -0.295 OA
BRANCH   4   6
ATOM      6  C   UNL     1     119.647 176.531 126.980  1.00  0.00     0.091 CG0
ATOM      7  G   UNL     1     120.080 177.723 126.098  1.00  0.00     0.000 G0
ENDBRANCH   4   6
ENDBRANCH   2   4
BRANCH   3   8
ATOM      8  C   UNL     1     122.007 178.306 127.647  1.00  0.00    -0.003 C 
ATOM      9  C   UNL     1     121.501 178.104 126.423  1.00  0.00    -0.020 C 
BRANCH   9  10
ATOM     10  C   UNL     1     120.081 177.712 126.092  1.00  0.00    -0.010 CG0
ATOM     11  C   UNL     1     119.151 178.941 126.222  1.00  0.00     0.016 C 
ATOM     12  C   UNL     1     120.038 177.236 124.622  1.00  0.00     0.016 C 
ATOM     13  G   UNL     1     119.641 176.536 126.992  1.00  0.00     0.000 G0
ENDBRANCH   9  10
ENDBRANCH   3   8
TORSDOF 0
ENDMDL
MODEL 4
REMARK VINA RESULT:    -3.621      7.933      9.610
REMARK INTER + INTRA:          -3.709
REMARK INTER:                  -4.476
REMARK INTRA:                   0.767
REMARK UNBOUND:                 0.758
REMARK SMILES CC1=CC=CC(C)(C)CC1=O
REMARK SMILES IDX 1 1 2 2 3 3 10 4 11 5 9 6 4 8 5 9 6 10 7 11 8 12
REMARK H PARENT
REMARK Flexibility Score: 80.00
ROOT
ATOM      1  C   UNL     1     116.378 179.565 126.580  1.00  0.00     0.048 C 
ATOM      2  C   UNL     1     117.066 178.274 126.950  1.00  0.00    -0.008 C 
ATOM      3  C   UNL     1     118.017 178.324 127.910  1.00  0.00     0.007 C 
ENDROOT
BRANCH   2   4
ATOM      4  C   UNL     1     116.695 177.063 126.176  1.00  0.00     0.159 C 
ATOM      5  O   UNL     1     115.984 177.197 125.143  1.00  0.00    -0.295 OA
BRANCH   4   6
ATOM      6  C   UNL     1     117.109 175.677 126.561  1.00  0.00     0.091 CG0
ATOM      7  G   UNL     1     118.641 175.498 126.642  1.00  0.00     0.000 G0
ENDBRANCH   4   6
ENDBRANCH   2   4
BRANCH   3   8
ATOM      8  C   UNL     1     118.870 177.246 128.460  1.00  0.00    -0.003 C 
ATOM      9  C   UNL     1     119.157 176.046 127.938  1.00  0.00    -0.020 C 
BRANCH   9  10
ATOM     10  C   UNL     1     118.635 175.486 126.636  1.00  0.00    -0.010 CG0
ATOM     11  C   UNL     1     119.373 176.145 125.446  1.00  0.00     0.016 C 
ATOM     12  C   UNL     1     118.938 173.971 126.604  1.00  0.00     0.016 C 
ATOM     13  G   UNL     1     117.104 175.674 126.564  1.00  0.00     0.000 G0
ENDBRANCH   9  10
ENDBRANCH   3   8
TORSDOF 0
ENDMDL
MODEL 5
REMARK VINA RESULT:    -3.619      6.966      9.224
REMARK INTER + INTRA:          -3.707
REMARK INTER:                  -4.463
REMARK INTRA:                   0.756
REMARK UNBOUND:                 0.758
REMARK SMILES CC1=CC=CC(C)(C)CC1=O
REMARK SMILES IDX 1 1 2 2 3 3 10 4 11 5 9 6 4 8 5 9 6 10 7 11 8 12
REMARK H PARENT
REMARK Flexibility Score: 80.00
ROOT
ATOM      1  C   UNL     1     119.004 178.360 123.277  1.00  0.00     0.048 C 
ATOM      2  C   UNL     1     118.226 177.595 124.320  1.00  0.00    -0.008 C 
ATOM      3  C   UNL     1     116.891 177.800 124.379  1.00  0.00     0.007 C 
ENDROOT
BRANCH   2   4
ATOM      4  C   UNL     1     119.002 176.735 125.247  1.00  0.00     0.159 C 
ATOM      5  O   UNL     1     120.258 176.851 125.277  1.00  0.00    -0.295 OA
BRANCH   4   6
ATOM      6  C   UNL     1     118.376 175.717 126.149  1.00  0.00     0.091 CG0
ATOM      7  G   UNL     1     117.371 176.327 127.152  1.00  0.00     0.000 G0
ENDBRANCH   4   6
ENDBRANCH   2   4
BRANCH   3   8
ATOM      8  C   UNL     1     115.881 177.224 125.297  1.00  0.00    -0.003 C 
ATOM      9  C   UNL     1     116.061 176.614 126.476  1.00  0.00    -0.020 C 
BRANCH   9  10
ATOM     10  C   UNL     1     117.384 176.340 127.151  1.00  0.00    -0.010 CG0
ATOM     11  C   UNL     1     117.925 177.637 127.796  1.00  0.00     0.016 C 
ATOM     12  C   UNL     1     117.148 175.310 128.280  1.00  0.00     0.016 C 
ATOM     13  G   UNL     1     118.370 175.724 126.135  1.00  0.00     0.000 G0
ENDBRANCH   9  10
ENDBRANCH   3   8
TORSDOF 0
ENDMDL
MODEL 6
REMARK VINA RESULT:    -3.615      7.681      9.112
REMARK INTER + INTRA:          -3.702
REMARK INTER:                  -4.453
REMARK INTRA:                   0.751
REMARK UNBOUND:                 0.758
REMARK SMILES CC1=CC=CC(C)(C)CC1=O
REMARK SMILES IDX 1 1 2 2 3 3 10 4 11 5 9 6 4 8 5 9 6 10 7 11 8 12
REMARK H PARENT
REMARK Flexibility Score: 80.00
ROOT
ATOM      1  C   UNL     1     121.233 178.077 127.620  1.00  0.00     0.048 C 
ATOM      2  C   UNL     1     120.020 177.808 126.762  1.00  0.00    -0.008 C 
ATOM      3  C   UNL     1     120.072 178.191 125.468  1.00  0.00     0.007 C 
ENDROOT
BRANCH   2   4
ATOM      4  C   UNL     1     118.838 177.209 127.432  1.00  0.00     0.159 C 
ATOM      5  O   UNL     1     118.822 177.144 128.691  1.00  0.00    -0.295 OA
BRANCH   4   6
ATOM      6  C   UNL     1     117.658 176.663 126.690  1.00  0.00     0.091 CG0
ATOM      7  G   UNL     1     116.952 177.715 125.807  1.00  0.00     0.000 G0
ENDBRANCH   4   6
ENDBRANCH   2   4
BRANCH   3   8
ATOM      8  C   UNL     1     119.046 178.087 124.404  1.00  0.00    -0.003 C 
ATOM      9  C   UNL     1     117.726 177.897 124.519  1.00  0.00    -0.020 C 
BRANCH   9  10
ATOM     10  C   UNL     1     116.955 177.710 125.805  1.00  0.00    -0.010 CG0
ATOM     11  C   UNL     1     116.768 179.073 126.511  1.00  0.00     0.016 C 
ATOM     12  C   UNL     1     115.554 177.159 125.455  1.00  0.00     0.016 C 
ATOM     13  G   UNL     1     117.672 176.672 126.697  1.00  0.00     0.000 G0
ENDBRANCH   9  10
ENDBRANCH   3   8
TORSDOF 0
ENDMDL
MODEL 7
REMARK VINA RESULT:    -3.600      7.023      8.761
REMARK INTER + INTRA:          -3.684
REMARK INTER:                  -4.438
REMARK INTRA:                   0.754
REMARK UNBOUND:                 0.758
REMARK SMILES CC1=CC=CC(C)(C)CC1=O
REMARK SMILES IDX 1 1 2 2 3 3 10 4 11 5 9 6 4 8 5 9 6 10 7 11 8 12
REMARK H PARENT
REMARK Flexibility Score: 80.00
ROOT
ATOM      1  C   UNL     1     122.356 178.051 126.616  1.00  0.00     0.048 C 
ATOM      2  C   UNL     1     120.861 177.894 126.759  1.00  0.00    -0.008 C 
ATOM      3  C   UNL     1     120.339 177.975 128.003  1.00  0.00     0.007 C 
ENDROOT
BRANCH   2   4
ATOM      4  C   UNL     1     120.093 177.587 125.526  1.00  0.00     0.159 C 
ATOM      5  O   UNL     1     120.724 177.287 124.476  1.00  0.00    -0.295 OA
BRANCH   4   6
ATOM      6  C   UNL     1     118.598 177.625 125.454  1.00  0.00     0.091 CG0
ATOM      7  G   UNL     1     117.914 176.662 126.449  1.00  0.00     0.000 G0
ENDBRANCH   4   6
ENDBRANCH   2   4
BRANCH   3   8
ATOM      8  C   UNL     1     118.936 177.838 128.456  1.00  0.00    -0.003 C 
ATOM      9  C   UNL     1     117.895 177.281 127.823  1.00  0.00    -0.020 C 
BRANCH   9  10
ATOM     10  C   UNL     1     117.907 176.670 126.442  1.00  0.00    -0.010 CG0
ATOM     11  C   UNL     1     118.569 175.273 126.489  1.00  0.00     0.016 C 
ATOM     12  C   UNL     1     116.443 176.488 125.979  1.00  0.00     0.016 C 
ATOM     13  G   UNL     1     118.609 177.627 125.454  1.00  0.00     0.000 G0
ENDBRANCH   9  10
ENDBRANCH   3   8
TORSDOF 0
ENDMDL
MODEL 8
REMARK VINA RESULT:    -3.576      7.837      9.128
REMARK INTER + INTRA:          -3.654
REMARK INTER:                  -4.415
REMARK INTRA:                   0.761
REMARK UNBOUND:                 0.758
REMARK SMILES CC1=CC=CC(C)(C)CC1=O
REMARK SMILES IDX 1 1 2 2 3 3 10 4 11 5 9 6 4 8 5 9 6 10 7 11 8 12
REMARK H PARENT
REMARK Flexibility Score: 80.00
ROOT
ATOM      1  C   UNL     1     114.635 178.158 126.229  1.00  0.00     0.048 C 
ATOM      2  C   UNL     1     116.027 177.579 126.159  1.00  0.00    -0.008 C 
ATOM      3  C   UNL     1     116.154 176.239 126.281  1.00  0.00     0.007 C 
ENDROOT
BRANCH   2   4
ATOM      4  C   UNL     1     117.153 178.538 126.036  1.00  0.00     0.159 C 
ATOM      5  O   UNL     1     116.928 179.766 126.217  1.00  0.00    -0.295 OA
BRANCH   4   6
ATOM      6  C   UNL     1     118.552 178.129 125.694  1.00  0.00     0.091 CG0
ATOM      7  G   UNL     1     119.168 177.147 126.714  1.00  0.00     0.000 G0
ENDBRANCH   4   6
ENDBRANCH   2   4
BRANCH   3   8
ATOM      8  C   UNL     1     117.372 175.395 126.279  1.00  0.00    -0.003 C 
ATOM      9  C   UNL     1     118.648 175.753 126.474  1.00  0.00    -0.020 C 
BRANCH   9  10
ATOM     10  C   UNL     1     119.159 177.153 126.721  1.00  0.00    -0.010 CG0
ATOM     11  C   UNL     1     118.869 177.570 128.182  1.00  0.00     0.016 C 
ATOM     12  C   UNL     1     120.692 177.151 126.521  1.00  0.00     0.016 C 
ATOM     13  G   UNL     1     118.540 178.124 125.691  1.00  0.00     0.000 G0
ENDBRANCH   9  10
ENDBRANCH   3   8
TORSDOF 0
ENDMDL
MODEL 9
REMARK VINA RESULT:    -3.492      7.799      9.968
REMARK INTER + INTRA:          -3.551
REMARK INTER:                  -4.305
REMARK INTRA:                   0.754
REMARK UNBOUND:                 0.758
REMARK SMILES CC1=CC=CC(C)(C)CC1=O
REMARK SMILES IDX 1 1 2 2 3 3 10 4 11 5 9 6 4 8 5 9 6 10 7 11 8 12
REMARK H PARENT
REMARK Flexibility Score: 80.00
ROOT
ATOM      1  C   UNL     1     117.551 175.112 130.951  1.00  0.00     0.048 C 
ATOM      2  C   UNL     1     118.627 175.788 130.135  1.00  0.00    -0.008 C 
ATOM      3  C   UNL     1     119.254 176.852 130.684  1.00  0.00     0.007 C 
ENDROOT
BRANCH   2   4
ATOM      4  C   UNL     1     118.858 175.273 128.762  1.00  0.00     0.159 C 
ATOM      5  O   UNL     1     118.030 174.458 128.271  1.00  0.00    -0.295 OA
BRANCH   4   6
ATOM      6  C   UNL     1     120.035 175.660 127.922  1.00  0.00     0.091 CG0
ATOM      7  G   UNL     1     120.121 177.178 127.653  1.00  0.00     0.000 G0
ENDBRANCH   4   6
ENDBRANCH   2   4
BRANCH   3   8
ATOM      8  C   UNL     1     120.315 177.722 130.126  1.00  0.00    -0.003 C 
ATOM      9  C   UNL     1     120.690 177.886 128.851  1.00  0.00    -0.020 C 
BRANCH   9  10
ATOM     10  C   UNL     1     120.115 177.175 127.648  1.00  0.00    -0.010 CG0
ATOM     11  C   UNL     1     118.743 177.787 127.280  1.00  0.00     0.016 C 
ATOM     12  C   UNL     1     121.070 177.394 126.453  1.00  0.00     0.016 C 
ATOM     13  G   UNL     1     120.034 175.658 127.929  1.00  0.00     0.000 G0
ENDBRANCH   9  10
ENDBRANCH   3   8
TORSDOF 0
ENDMDL
