MODEL 1
REMARK VINA RESULT:    -6.207      0.000      0.000
REMARK INTER + INTRA:         -11.959
REMARK INTER:                  -9.655
REMARK INTRA:                  -2.304
REMARK UNBOUND:                -2.304
REMARK SMILES COc1cc(CNC(=O)CCCCC=CC(C)C)ccc1O
REMARK SMILES IDX 11 1 12 2 13 3 14 4 15 5 16 6 17 7 18 8 10 9 8 10 9 11 7 12
REMARK SMILES IDX 6 14 5 15 4 16 19 17 3 18 20 19 21 20 2 21 1 22 22 23
REMARK H PARENT 7 13 22 24
REMARK Flexibility Score: inf
ROOT
ATOM      1  C   UNL     1     -37.397  37.852  44.999  1.00  0.00     0.010 C 
ENDROOT
BRANCH   1   2
ATOM      2  C   UNL     1     -36.313  38.497  45.882  1.00  0.00     0.005 C 
BRANCH   2   3
ATOM      3  C   UNL     1     -34.887  38.012  45.567  1.00  0.00     0.027 C 
BRANCH   3   4
ATOM      4  C   UNL     1     -34.524  38.186  44.112  1.00  0.00    -0.031 C 
ATOM      5  C   UNL     1     -33.998  39.301  43.570  1.00  0.00    -0.028 C 
BRANCH   5   6
ATOM      6  C   UNL     1     -33.707  40.585  44.315  1.00  0.00     0.005 C 
ATOM      7  C   UNL     1     -32.477  41.264  43.711  1.00  0.00     0.012 C 
ATOM      8  C   UNL     1     -34.925  41.511  44.238  1.00  0.00     0.012 C 
ENDBRANCH   5   6
ENDBRANCH   3   4
ENDBRANCH   2   3
ENDBRANCH   1   2
BRANCH   1   9
ATOM      9  C   UNL     1     -38.215  38.887  44.219  1.00  0.00     0.100 C 
BRANCH   9  10
ATOM     10  C   UNL     1     -37.917  38.782  42.754  1.00  0.00     0.220 C 
ATOM     11  O   UNL     1     -37.560  37.672  42.272  1.00  0.00    -0.275 OA
ATOM     12  N   UNL     1     -37.981  39.950  41.920  1.00  0.00    -0.352 N 
ATOM     13  H   UNL     1     -38.265  40.862  42.343  1.00  0.00     0.163 HD
BRANCH  12  14
ATOM     14  C   UNL     1     -37.608  39.926  40.506  1.00  0.00     0.151 C 
BRANCH  14  15
ATOM     15  C   UNL     1     -36.121  40.099  40.353  1.00  0.00    -0.025 A 
ATOM     16  C   UNL     1     -35.524  41.354  40.560  1.00  0.00     0.056 A 
ATOM     17  C   UNL     1     -35.317  39.000  40.020  1.00  0.00     0.009 A 
ATOM     18  C   UNL     1     -34.131  41.514  40.433  1.00  0.00     0.160 A 
ATOM     19  C   UNL     1     -33.937  39.152  39.892  1.00  0.00     0.050 A 
ATOM     20  C   UNL     1     -33.340  40.400  40.097  1.00  0.00     0.157 A 
BRANCH  18  21
ATOM     21  O   UNL     1     -33.505  42.754  40.635  1.00  0.00    -0.493 OA
ATOM     22  C   UNL     1     -33.417  43.785  39.657  1.00  0.00     0.278 C 
ENDBRANCH  18  21
BRANCH  20  23
ATOM     23  O   UNL     1     -31.957  40.514  39.965  1.00  0.00    -0.504 OA
ATOM     24  H   UNL     1     -31.503  40.546  39.060  1.00  0.00     0.293 HD
ENDBRANCH  20  23
ENDBRANCH  14  15
ENDBRANCH  12  14
ENDBRANCH   9  10
ENDBRANCH   1   9
TORSDOF 10
ENDMDL
MODEL 2
REMARK VINA RESULT:    -6.143      2.475      6.459
REMARK INTER + INTRA:         -11.859
REMARK INTER:                  -9.522
REMARK INTRA:                  -2.337
REMARK UNBOUND:                -2.304
REMARK SMILES COc1cc(CNC(=O)CCCCC=CC(C)C)ccc1O
REMARK SMILES IDX 11 1 12 2 13 3 14 4 15 5 16 6 17 7 18 8 10 9 8 10 9 11 7 12
REMARK SMILES IDX 6 14 5 15 4 16 19 17 3 18 20 19 21 20 2 21 1 22 22 23
REMARK H PARENT 7 13 22 24
REMARK Flexibility Score: inf
ROOT
ATOM      1  C   UNL     1     -34.463  41.975  41.823  1.00  0.00     0.010 C 
ENDROOT
BRANCH   1   2
ATOM      2  C   UNL     1     -34.979  40.747  41.049  1.00  0.00     0.005 C 
BRANCH   2   3
ATOM      3  C   UNL     1     -34.154  39.470  41.291  1.00  0.00     0.027 C 
BRANCH   3   4
ATOM      4  C   UNL     1     -34.146  39.052  42.742  1.00  0.00    -0.031 C 
ATOM      5  C   UNL     1     -35.132  38.378  43.362  1.00  0.00    -0.028 C 
BRANCH   5   6
ATOM      6  C   UNL     1     -36.436  37.948  42.724  1.00  0.00     0.005 C 
ATOM      7  C   UNL     1     -36.836  36.568  43.250  1.00  0.00     0.012 C 
ATOM      8  C   UNL     1     -37.525  38.978  43.035  1.00  0.00     0.012 C 
ENDBRANCH   5   6
ENDBRANCH   3   4
ENDBRANCH   2   3
ENDBRANCH   1   2
BRANCH   1   9
ATOM      9  C   UNL     1     -35.534  42.592  42.730  1.00  0.00     0.100 C 
BRANCH   9  10
ATOM     10  C   UNL     1     -35.212  42.316  44.168  1.00  0.00     0.220 C 
ATOM     11  O   UNL     1     -34.006  42.222  44.525  1.00  0.00    -0.275 OA
ATOM     12  N   UNL     1     -36.271  42.104  45.115  1.00  0.00    -0.352 N 
ATOM     13  H   UNL     1     -37.263  42.173  44.793  1.00  0.00     0.163 HD
BRANCH  12  14
ATOM     14  C   UNL     1     -36.016  41.738  46.507  1.00  0.00     0.151 C 
BRANCH  14  15
ATOM     15  C   UNL     1     -35.976  40.241  46.657  1.00  0.00    -0.025 A 
ATOM     16  C   UNL     1     -37.158  39.485  46.586  1.00  0.00     0.056 A 
ATOM     17  C   UNL     1     -34.750  39.588  46.848  1.00  0.00     0.009 A 
ATOM     18  C   UNL     1     -37.119  38.082  46.710  1.00  0.00     0.160 A 
ATOM     19  C   UNL     1     -34.706  38.199  46.972  1.00  0.00     0.050 A 
ATOM     20  C   UNL     1     -35.881  37.444  46.903  1.00  0.00     0.157 A 
BRANCH  18  21
ATOM     21  O   UNL     1     -38.283  37.300  46.642  1.00  0.00    -0.493 OA
ATOM     22  C   UNL     1     -39.494  37.588  47.332  1.00  0.00     0.278 C 
ENDBRANCH  18  21
BRANCH  20  23
ATOM     23  O   UNL     1     -35.798  36.058  47.026  1.00  0.00    -0.504 OA
ATOM     24  H   UNL     1     -34.915  35.564  46.980  1.00  0.00     0.293 HD
ENDBRANCH  20  23
ENDBRANCH  14  15
ENDBRANCH  12  14
ENDBRANCH   9  10
ENDBRANCH   1   9
TORSDOF 10
ENDMDL
MODEL 3
REMARK VINA RESULT:    -6.136      1.994      4.070
REMARK INTER + INTRA:         -11.848
REMARK INTER:                  -9.576
REMARK INTRA:                  -2.272
REMARK UNBOUND:                -2.304
REMARK SMILES COc1cc(CNC(=O)CCCCC=CC(C)C)ccc1O
REMARK SMILES IDX 11 1 12 2 13 3 14 4 15 5 16 6 17 7 18 8 10 9 8 10 9 11 7 12
REMARK SMILES IDX 6 14 5 15 4 16 19 17 3 18 20 19 21 20 2 21 1 22 22 23
REMARK H PARENT 7 13 22 24
REMARK Flexibility Score: inf
ROOT
ATOM      1  C   UNL     1     -37.594  38.569  45.657  1.00  0.00     0.010 C 
ENDROOT
BRANCH   1   2
ATOM      2  C   UNL     1     -39.033  39.117  45.646  1.00  0.00     0.005 C 
BRANCH   2   3
ATOM      3  C   UNL     1     -39.443  39.755  44.307  1.00  0.00     0.027 C 
BRANCH   3   4
ATOM      4  C   UNL     1     -38.424  40.748  43.802  1.00  0.00    -0.031 C 
ATOM      5  C   UNL     1     -37.654  40.586  42.710  1.00  0.00    -0.028 C 
BRANCH   5   6
ATOM      6  C   UNL     1     -37.651  39.366  41.814  1.00  0.00     0.005 C 
ATOM      7  C   UNL     1     -37.572  39.802  40.350  1.00  0.00     0.012 C 
ATOM      8  C   UNL     1     -36.464  38.468  42.173  1.00  0.00     0.012 C 
ENDBRANCH   5   6
ENDBRANCH   3   4
ENDBRANCH   2   3
ENDBRANCH   1   2
BRANCH   1   9
ATOM      9  C   UNL     1     -36.651  39.406  46.530  1.00  0.00     0.100 C 
BRANCH   9  10
ATOM     10  C   UNL     1     -35.429  39.786  45.750  1.00  0.00     0.220 C 
ATOM     11  O   UNL     1     -34.584  38.898  45.452  1.00  0.00    -0.275 OA
ATOM     12  N   UNL     1     -35.197  41.159  45.398  1.00  0.00    -0.352 N 
ATOM     13  H   UNL     1     -35.904  41.879  45.667  1.00  0.00     0.163 HD
BRANCH  12  14
ATOM     14  C   UNL     1     -33.978  41.600  44.722  1.00  0.00     0.151 C 
BRANCH  14  15
ATOM     15  C   UNL     1     -34.251  41.865  43.266  1.00  0.00    -0.025 A 
ATOM     16  C   UNL     1     -33.702  41.036  42.274  1.00  0.00     0.056 A 
ATOM     17  C   UNL     1     -35.077  42.934  42.891  1.00  0.00     0.009 A 
ATOM     18  C   UNL     1     -33.970  41.273  40.912  1.00  0.00     0.160 A 
ATOM     19  C   UNL     1     -35.346  43.175  41.543  1.00  0.00     0.050 A 
ATOM     20  C   UNL     1     -34.800  42.352  40.554  1.00  0.00     0.157 A 
BRANCH  18  21
ATOM     21  O   UNL     1     -33.436  40.462  39.898  1.00  0.00    -0.493 OA
ATOM     22  C   UNL     1     -34.027  39.253  39.434  1.00  0.00     0.278 C 
ENDBRANCH  18  21
BRANCH  20  23
ATOM     23  O   UNL     1     -35.093  42.620  39.218  1.00  0.00    -0.504 OA
ATOM     24  H   UNL     1     -36.044  42.717  38.884  1.00  0.00     0.293 HD
ENDBRANCH  20  23
ENDBRANCH  14  15
ENDBRANCH  12  14
ENDBRANCH   9  10
ENDBRANCH   1   9
TORSDOF 10
ENDMDL
MODEL 4
REMARK VINA RESULT:    -6.104      2.995      6.876
REMARK INTER + INTRA:         -11.798
REMARK INTER:                 -10.007
REMARK INTRA:                  -1.791
REMARK UNBOUND:                -2.304
REMARK SMILES COc1cc(CNC(=O)CCCCC=CC(C)C)ccc1O
REMARK SMILES IDX 11 1 12 2 13 3 14 4 15 5 16 6 17 7 18 8 10 9 8 10 9 11 7 12
REMARK SMILES IDX 6 14 5 15 4 16 19 17 3 18 20 19 21 20 2 21 1 22 22 23
REMARK H PARENT 7 13 22 24
REMARK Flexibility Score: inf
ROOT
ATOM      1  C   UNL     1     -35.960  39.085  40.835  1.00  0.00     0.010 C 
ENDROOT
BRANCH   1   2
ATOM      2  C   UNL     1     -34.731  39.035  41.761  1.00  0.00     0.005 C 
BRANCH   2   3
ATOM      3  C   UNL     1     -35.082  38.847  43.248  1.00  0.00     0.027 C 
BRANCH   3   4
ATOM      4  C   UNL     1     -34.403  37.644  43.856  1.00  0.00    -0.031 C 
ATOM      5  C   UNL     1     -35.034  36.567  44.361  1.00  0.00    -0.028 C 
BRANCH   5   6
ATOM      6  C   UNL     1     -36.535  36.387  44.437  1.00  0.00     0.005 C 
ATOM      7  C   UNL     1     -37.033  35.678  43.175  1.00  0.00     0.012 C 
ATOM      8  C   UNL     1     -36.893  35.576  45.685  1.00  0.00     0.012 C 
ENDBRANCH   5   6
ENDBRANCH   3   4
ENDBRANCH   2   3
ENDBRANCH   1   2
BRANCH   1   9
ATOM      9  C   UNL     1     -36.970  40.162  41.252  1.00  0.00     0.100 C 
BRANCH   9  10
ATOM     10  C   UNL     1     -38.056  39.554  42.086  1.00  0.00     0.220 C 
ATOM     11  O   UNL     1     -38.607  38.485  41.703  1.00  0.00    -0.275 OA
ATOM     12  N   UNL     1     -38.503  40.215  43.280  1.00  0.00    -0.352 N 
ATOM     13  H   UNL     1     -38.042  41.107  43.571  1.00  0.00     0.163 HD
BRANCH  12  14
ATOM     14  C   UNL     1     -39.622  39.719  44.080  1.00  0.00     0.151 C 
BRANCH  14  15
ATOM     15  C   UNL     1     -39.140  39.264  45.431  1.00  0.00    -0.025 A 
ATOM     16  C   UNL     1     -40.007  38.592  46.309  1.00  0.00     0.056 A 
ATOM     17  C   UNL     1     -37.811  39.491  45.815  1.00  0.00     0.009 A 
ATOM     18  C   UNL     1     -39.553  38.151  47.567  1.00  0.00     0.160 A 
ATOM     19  C   UNL     1     -37.355  39.058  47.060  1.00  0.00     0.050 A 
ATOM     20  C   UNL     1     -38.216  38.389  47.936  1.00  0.00     0.157 A 
BRANCH  18  21
ATOM     21  O   UNL     1     -40.395  37.476  48.465  1.00  0.00    -0.493 OA
ATOM     22  C   UNL     1     -40.600  36.068  48.480  1.00  0.00     0.278 C 
ENDBRANCH  18  21
BRANCH  20  23
ATOM     23  O   UNL     1     -37.725  37.966  49.170  1.00  0.00    -0.504 OA
ATOM     24  H   UNL     1     -37.506  36.996  49.360  1.00  0.00     0.293 HD
ENDBRANCH  20  23
ENDBRANCH  14  15
ENDBRANCH  12  14
ENDBRANCH   9  10
ENDBRANCH   1   9
TORSDOF 10
ENDMDL
MODEL 5
REMARK VINA RESULT:    -6.069      2.246      5.599
REMARK INTER + INTRA:         -11.743
REMARK INTER:                  -9.659
REMARK INTRA:                  -2.084
REMARK UNBOUND:                -2.304
REMARK SMILES COc1cc(CNC(=O)CCCCC=CC(C)C)ccc1O
REMARK SMILES IDX 11 1 12 2 13 3 14 4 15 5 16 6 17 7 18 8 10 9 8 10 9 11 7 12
REMARK SMILES IDX 6 14 5 15 4 16 19 17 3 18 20 19 21 20 2 21 1 22 22 23
REMARK H PARENT 7 13 22 24
REMARK Flexibility Score: inf
ROOT
ATOM      1  C   UNL     1     -35.486  42.819  41.561  1.00  0.00     0.010 C 
ENDROOT
BRANCH   1   2
ATOM      2  C   UNL     1     -36.103  42.526  42.941  1.00  0.00     0.005 C 
BRANCH   2   3
ATOM      3  C   UNL     1     -35.121  42.714  44.111  1.00  0.00     0.027 C 
BRANCH   3   4
ATOM      4  C   UNL     1     -34.798  41.415  44.810  1.00  0.00    -0.031 C 
ATOM      5  C   UNL     1     -33.758  40.612  44.516  1.00  0.00    -0.028 C 
BRANCH   5   6
ATOM      6  C   UNL     1     -32.750  40.852  43.413  1.00  0.00     0.005 C 
ATOM      7  C   UNL     1     -31.525  41.571  43.983  1.00  0.00     0.012 C 
ATOM      8  C   UNL     1     -32.344  39.515  42.787  1.00  0.00     0.012 C 
ENDBRANCH   5   6
ENDBRANCH   3   4
ENDBRANCH   2   3
ENDBRANCH   1   2
BRANCH   1   9
ATOM      9  C   UNL     1     -35.194  41.542  40.763  1.00  0.00     0.100 C 
BRANCH   9  10
ATOM     10  C   UNL     1     -36.231  40.502  41.058  1.00  0.00     0.220 C 
ATOM     11  O   UNL     1     -37.407  40.660  40.629  1.00  0.00    -0.275 OA
ATOM     12  N   UNL     1     -35.900  39.364  41.870  1.00  0.00    -0.352 N 
ATOM     13  H   UNL     1     -34.924  39.261  42.227  1.00  0.00     0.163 HD
BRANCH  12  14
ATOM     14  C   UNL     1     -36.894  38.369  42.269  1.00  0.00     0.151 C 
BRANCH  14  15
ATOM     15  C   UNL     1     -37.287  38.567  43.708  1.00  0.00    -0.025 A 
ATOM     16  C   UNL     1     -36.503  38.028  44.742  1.00  0.00     0.056 A 
ATOM     17  C   UNL     1     -38.431  39.310  44.028  1.00  0.00     0.009 A 
ATOM     18  C   UNL     1     -36.860  38.226  46.090  1.00  0.00     0.160 A 
ATOM     19  C   UNL     1     -38.791  39.509  45.361  1.00  0.00     0.050 A 
ATOM     20  C   UNL     1     -38.013  38.974  46.391  1.00  0.00     0.157 A 
BRANCH  18  21
ATOM     21  O   UNL     1     -36.096  37.701  47.144  1.00  0.00    -0.493 OA
ATOM     22  C   UNL     1     -34.908  38.295  47.658  1.00  0.00     0.278 C 
ENDBRANCH  18  21
BRANCH  20  23
ATOM     23  O   UNL     1     -38.400  39.196  47.712  1.00  0.00    -0.504 OA
ATOM     24  H   UNL     1     -38.075  38.614  48.474  1.00  0.00     0.293 HD
ENDBRANCH  20  23
ENDBRANCH  14  15
ENDBRANCH  12  14
ENDBRANCH   9  10
ENDBRANCH   1   9
TORSDOF 10
ENDMDL
MODEL 6
REMARK VINA RESULT:    -6.029      2.221      3.698
REMARK INTER + INTRA:         -11.682
REMARK INTER:                  -9.397
REMARK INTRA:                  -2.285
REMARK UNBOUND:                -2.304
REMARK SMILES COc1cc(CNC(=O)CCCCC=CC(C)C)ccc1O
REMARK SMILES IDX 11 1 12 2 13 3 14 4 15 5 16 6 17 7 18 8 10 9 8 10 9 11 7 12
REMARK SMILES IDX 6 14 5 15 4 16 19 17 3 18 20 19 21 20 2 21 1 22 22 23
REMARK H PARENT 7 13 22 24
REMARK Flexibility Score: inf
ROOT
ATOM      1  C   UNL     1     -34.762  38.460  45.716  1.00  0.00     0.010 C 
ENDROOT
BRANCH   1   2
ATOM      2  C   UNL     1     -35.621  37.240  45.335  1.00  0.00     0.005 C 
BRANCH   2   3
ATOM      3  C   UNL     1     -35.628  36.934  43.826  1.00  0.00     0.027 C 
BRANCH   3   4
ATOM      4  C   UNL     1     -34.986  38.030  43.010  1.00  0.00    -0.031 C 
ATOM      5  C   UNL     1     -35.650  38.939  42.271  1.00  0.00    -0.028 C 
BRANCH   5   6
ATOM      6  C   UNL     1     -37.152  39.004  42.102  1.00  0.00     0.005 C 
ATOM      7  C   UNL     1     -37.753  39.910  43.179  1.00  0.00     0.012 C 
ATOM      8  C   UNL     1     -37.491  39.532  40.706  1.00  0.00     0.012 C 
ENDBRANCH   5   6
ENDBRANCH   3   4
ENDBRANCH   2   3
ENDBRANCH   1   2
BRANCH   1   9
ATOM      9  C   UNL     1     -35.471  39.395  46.702  1.00  0.00     0.100 C 
BRANCH   9  10
ATOM     10  C   UNL     1     -35.543  40.781  46.137  1.00  0.00     0.220 C 
ATOM     11  O   UNL     1     -36.348  41.614  46.637  1.00  0.00    -0.275 OA
ATOM     12  N   UNL     1     -34.742  41.137  44.998  1.00  0.00    -0.352 N 
ATOM     13  H   UNL     1     -34.093  40.427  44.591  1.00  0.00     0.163 HD
BRANCH  12  14
ATOM     14  C   UNL     1     -34.842  42.442  44.347  1.00  0.00     0.151 C 
BRANCH  14  15
ATOM     15  C   UNL     1     -34.621  42.307  42.864  1.00  0.00    -0.025 A 
ATOM     16  C   UNL     1     -33.441  41.727  42.368  1.00  0.00     0.056 A 
ATOM     17  C   UNL     1     -35.605  42.741  41.966  1.00  0.00     0.009 A 
ATOM     18  C   UNL     1     -33.241  41.584  40.981  1.00  0.00     0.160 A 
ATOM     19  C   UNL     1     -35.412  42.604  40.591  1.00  0.00     0.050 A 
ATOM     20  C   UNL     1     -34.239  42.028  40.095  1.00  0.00     0.157 A 
BRANCH  18  21
ATOM     21  O   UNL     1     -32.073  41.009  40.456  1.00  0.00    -0.493 OA
ATOM     22  C   UNL     1     -30.759  41.254  40.945  1.00  0.00     0.278 C 
ENDBRANCH  18  21
BRANCH  20  23
ATOM     23  O   UNL     1     -34.082  41.903  38.715  1.00  0.00    -0.504 OA
ATOM     24  H   UNL     1     -33.595  41.120  38.297  1.00  0.00     0.293 HD
ENDBRANCH  20  23
ENDBRANCH  14  15
ENDBRANCH  12  14
ENDBRANCH   9  10
ENDBRANCH   1   9
TORSDOF 10
ENDMDL
MODEL 7
REMARK VINA RESULT:    -6.026      2.040      5.222
REMARK INTER + INTRA:         -11.677
REMARK INTER:                  -9.488
REMARK INTRA:                  -2.189
REMARK UNBOUND:                -2.304
REMARK SMILES COc1cc(CNC(=O)CCCCC=CC(C)C)ccc1O
REMARK SMILES IDX 11 1 12 2 13 3 14 4 15 5 16 6 17 7 18 8 10 9 8 10 9 11 7 12
REMARK SMILES IDX 6 14 5 15 4 16 19 17 3 18 20 19 21 20 2 21 1 22 22 23
REMARK H PARENT 7 13 22 24
REMARK Flexibility Score: inf
ROOT
ATOM      1  C   UNL     1     -30.950  40.492  43.312  1.00  0.00     0.010 C 
ENDROOT
BRANCH   1   2
ATOM      2  C   UNL     1     -31.619  41.711  43.973  1.00  0.00     0.005 C 
BRANCH   2   3
ATOM      3  C   UNL     1     -33.136  41.548  44.182  1.00  0.00     0.027 C 
BRANCH   3   4
ATOM      4  C   UNL     1     -33.589  40.115  44.045  1.00  0.00    -0.031 C 
ATOM      5  C   UNL     1     -34.477  39.500  44.849  1.00  0.00    -0.028 C 
BRANCH   5   6
ATOM      6  C   UNL     1     -35.151  40.126  46.051  1.00  0.00     0.005 C 
ATOM      7  C   UNL     1     -36.669  40.101  45.860  1.00  0.00     0.012 C 
ATOM      8  C   UNL     1     -34.756  39.363  47.318  1.00  0.00     0.012 C 
ENDBRANCH   5   6
ENDBRANCH   3   4
ENDBRANCH   2   3
ENDBRANCH   1   2
BRANCH   1   9
ATOM      9  C   UNL     1     -30.399  40.806  41.917  1.00  0.00     0.100 C 
BRANCH   9  10
ATOM     10  C   UNL     1     -31.526  40.999  40.948  1.00  0.00     0.220 C 
ATOM     11  O   UNL     1     -31.780  42.156  40.514  1.00  0.00    -0.275 OA
ATOM     12  N   UNL     1     -32.345  39.882  40.565  1.00  0.00    -0.352 N 
ATOM     13  H   UNL     1     -32.125  38.935  40.947  1.00  0.00     0.163 HD
BRANCH  12  14
ATOM     14  C   UNL     1     -33.515  40.028  39.700  1.00  0.00     0.151 C 
BRANCH  14  15
ATOM     15  C   UNL     1     -34.769  40.128  40.526  1.00  0.00    -0.025 A 
ATOM     16  C   UNL     1     -35.446  38.968  40.937  1.00  0.00     0.056 A 
ATOM     17  C   UNL     1     -35.258  41.384  40.909  1.00  0.00     0.009 A 
ATOM     18  C   UNL     1     -36.611  39.059  41.724  1.00  0.00     0.160 A 
ATOM     19  C   UNL     1     -36.411  41.482  41.688  1.00  0.00     0.050 A 
ATOM     20  C   UNL     1     -37.089  40.329  42.098  1.00  0.00     0.157 A 
BRANCH  18  21
ATOM     21  O   UNL     1     -37.310  37.919  42.150  1.00  0.00    -0.493 OA
ATOM     22  C   UNL     1     -36.868  37.036  43.176  1.00  0.00     0.278 C 
ENDBRANCH  18  21
BRANCH  20  23
ATOM     23  O   UNL     1     -38.235  40.464  42.879  1.00  0.00    -0.504 OA
ATOM     24  H   UNL     1     -38.218  40.906  43.789  1.00  0.00     0.293 HD
ENDBRANCH  20  23
ENDBRANCH  14  15
ENDBRANCH  12  14
ENDBRANCH   9  10
ENDBRANCH   1   9
TORSDOF 10
ENDMDL
MODEL 8
REMARK VINA RESULT:    -6.021      2.218      5.720
REMARK INTER + INTRA:         -11.669
REMARK INTER:                  -9.226
REMARK INTRA:                  -2.443
REMARK UNBOUND:                -2.304
REMARK SMILES COc1cc(CNC(=O)CCCCC=CC(C)C)ccc1O
REMARK SMILES IDX 11 1 12 2 13 3 14 4 15 5 16 6 17 7 18 8 10 9 8 10 9 11 7 12
REMARK SMILES IDX 6 14 5 15 4 16 19 17 3 18 20 19 21 20 2 21 1 22 22 23
REMARK H PARENT 7 13 22 24
REMARK Flexibility Score: inf
ROOT
ATOM      1  C   UNL     1     -34.086  40.499  41.170  1.00  0.00     0.010 C 
ENDROOT
BRANCH   1   2
ATOM      2  C   UNL     1     -33.239  41.637  41.768  1.00  0.00     0.005 C 
BRANCH   2   3
ATOM      3  C   UNL     1     -32.822  41.397  43.230  1.00  0.00     0.027 C 
BRANCH   3   4
ATOM      4  C   UNL     1     -33.601  40.278  43.879  1.00  0.00    -0.031 C 
ATOM      5  C   UNL     1     -34.689  40.437  44.656  1.00  0.00    -0.028 C 
BRANCH   5   6
ATOM      6  C   UNL     1     -35.303  41.766  45.043  1.00  0.00     0.005 C 
ATOM      7  C   UNL     1     -36.372  42.156  44.021  1.00  0.00     0.012 C 
ATOM      8  C   UNL     1     -35.912  41.661  46.444  1.00  0.00     0.012 C 
ENDBRANCH   5   6
ENDBRANCH   3   4
ENDBRANCH   2   3
ENDBRANCH   1   2
BRANCH   1   9
ATOM      9  C   UNL     1     -35.421  40.994  40.601  1.00  0.00     0.100 C 
BRANCH   9  10
ATOM     10  C   UNL     1     -36.525  40.058  40.987  1.00  0.00     0.220 C 
ATOM     11  O   UNL     1     -37.709  40.317  40.636  1.00  0.00    -0.275 OA
ATOM     12  N   UNL     1     -36.243  38.907  41.800  1.00  0.00    -0.352 N 
ATOM     13  H   UNL     1     -35.257  38.720  42.091  1.00  0.00     0.163 HD
BRANCH  12  14
ATOM     14  C   UNL     1     -37.293  38.014  42.286  1.00  0.00     0.151 C 
BRANCH  14  15
ATOM     15  C   UNL     1     -37.599  38.301  43.732  1.00  0.00    -0.025 A 
ATOM     16  C   UNL     1     -36.896  37.643  44.754  1.00  0.00     0.056 A 
ATOM     17  C   UNL     1     -38.578  39.247  44.066  1.00  0.00     0.009 A 
ATOM     18  C   UNL     1     -37.170  37.923  46.107  1.00  0.00     0.160 A 
ATOM     19  C   UNL     1     -38.854  39.528  45.404  1.00  0.00     0.050 A 
ATOM     20  C   UNL     1     -38.157  38.874  46.424  1.00  0.00     0.157 A 
BRANCH  18  21
ATOM     21  O   UNL     1     -36.484  37.282  47.151  1.00  0.00    -0.493 OA
ATOM     22  C   UNL     1     -35.249  37.727  47.701  1.00  0.00     0.278 C 
ENDBRANCH  18  21
BRANCH  20  23
ATOM     23  O   UNL     1     -38.457  39.183  47.750  1.00  0.00    -0.504 OA
ATOM     24  H   UNL     1     -38.527  38.472  48.467  1.00  0.00     0.293 HD
ENDBRANCH  20  23
ENDBRANCH  14  15
ENDBRANCH  12  14
ENDBRANCH   9  10
ENDBRANCH   1   9
TORSDOF 10
ENDMDL
MODEL 9
REMARK VINA RESULT:    -5.967      1.801      3.302
REMARK INTER + INTRA:         -11.585
REMARK INTER:                  -9.177
REMARK INTRA:                  -2.408
REMARK UNBOUND:                -2.304
REMARK SMILES COc1cc(CNC(=O)CCCCC=CC(C)C)ccc1O
REMARK SMILES IDX 11 1 12 2 13 3 14 4 15 5 16 6 17 7 18 8 10 9 8 10 9 11 7 12
REMARK SMILES IDX 6 14 5 15 4 16 19 17 3 18 20 19 21 20 2 21 1 22 22 23
REMARK H PARENT 7 13 22 24
REMARK Flexibility Score: inf
ROOT
ATOM      1  C   UNL     1     -36.653  38.568  45.333  1.00  0.00     0.010 C 
ENDROOT
BRANCH   1   2
ATOM      2  C   UNL     1     -37.013  37.280  44.570  1.00  0.00     0.005 C 
BRANCH   2   3
ATOM      3  C   UNL     1     -35.994  36.900  43.481  1.00  0.00     0.027 C 
BRANCH   3   4
ATOM      4  C   UNL     1     -34.966  37.980  43.246  1.00  0.00    -0.031 C 
ATOM      5  C   UNL     1     -34.916  38.786  42.169  1.00  0.00    -0.028 C 
BRANCH   5   6
ATOM      6  C   UNL     1     -35.862  38.730  40.989  1.00  0.00     0.005 C 
ATOM      7  C   UNL     1     -36.992  39.743  41.187  1.00  0.00     0.012 C 
ATOM      8  C   UNL     1     -35.093  39.028  39.699  1.00  0.00     0.012 C 
ENDBRANCH   5   6
ENDBRANCH   3   4
ENDBRANCH   2   3
ENDBRANCH   1   2
BRANCH   1   9
ATOM      9  C   UNL     1     -37.721  39.659  45.186  1.00  0.00     0.100 C 
BRANCH   9  10
ATOM     10  C   UNL     1     -37.085  40.948  44.760  1.00  0.00     0.220 C 
ATOM     11  O   UNL     1     -37.714  41.723  43.988  1.00  0.00    -0.275 OA
ATOM     12  N   UNL     1     -35.750  41.267  45.183  1.00  0.00    -0.352 N 
ATOM     13  H   UNL     1     -35.243  40.604  45.811  1.00  0.00     0.163 HD
BRANCH  12  14
ATOM     14  C   UNL     1     -35.046  42.463  44.722  1.00  0.00     0.151 C 
BRANCH  14  15
ATOM     15  C   UNL     1     -34.201  42.142  43.518  1.00  0.00    -0.025 A 
ATOM     16  C   UNL     1     -34.650  42.463  42.226  1.00  0.00     0.056 A 
ATOM     17  C   UNL     1     -32.947  41.538  43.682  1.00  0.00     0.009 A 
ATOM     18  C   UNL     1     -33.853  42.179  41.100  1.00  0.00     0.160 A 
ATOM     19  C   UNL     1     -32.153  41.254  42.571  1.00  0.00     0.050 A 
ATOM     20  C   UNL     1     -32.597  41.571  41.284  1.00  0.00     0.157 A 
BRANCH  18  21
ATOM     21  O   UNL     1     -34.273  42.489  39.797  1.00  0.00    -0.493 OA
ATOM     22  C   UNL     1     -34.421  43.809  39.286  1.00  0.00     0.278 C 
ENDBRANCH  18  21
BRANCH  20  23
ATOM     23  O   UNL     1     -31.776  41.276  40.197  1.00  0.00    -0.504 OA
ATOM     24  H   UNL     1     -32.104  40.741  39.403  1.00  0.00     0.293 HD
ENDBRANCH  20  23
ENDBRANCH  14  15
ENDBRANCH  12  14
ENDBRANCH   9  10
ENDBRANCH   1   9
TORSDOF 10
ENDMDL
