MODEL 1
REMARK VINA RESULT:    -3.148      0.000      0.000
REMARK INTER + INTRA:          -3.894
REMARK INTER:                  -3.792
REMARK INTRA:                  -0.102
REMARK UNBOUND:                -0.102
REMARK SMILES CC[C@@H](C)[C@@H]([NH3+])C(=O)[O-]
REMARK SMILES IDX 3 1 4 2 5 3 6 4 7 8 8 9 9 10 2 11 1 12
REMARK H PARENT 6 5 6 6 6 7
REMARK Flexibility Score: inf
ROOT
ATOM      1  C   UNL     1     125.445 114.728 130.723  1.00  0.00     0.050 C 
ATOM      2  C   UNL     1     126.513 113.657 131.018  1.00  0.00     0.014 C 
ENDROOT
BRANCH   1   3
ATOM      3  C   UNL     1     125.186 115.676 131.939  1.00  0.00     0.230 C 
BRANCH   3   4
ATOM      4  N   UNL     1     126.005 116.896 131.868  1.00  0.00    -0.350 N 
ATOM      5  H   UNL     1     125.389 117.739 131.819  1.00  0.00     0.345 HD
ATOM      6  H   UNL     1     126.590 116.871 131.001  1.00  0.00     0.345 HD
ATOM      7  H   UNL     1     126.642 116.980 132.692  1.00  0.00     0.345 HD
ENDBRANCH   3   4
BRANCH   3   8
ATOM      8  C   UNL     1     123.727 116.026 132.105  1.00  0.00     0.099 C 
ATOM      9  O   UNL     1     122.843 115.321 131.548  1.00  0.00    -0.544 OA
ATOM     10  O   UNL     1     123.342 117.136 132.848  1.00  0.00    -0.544 OA
ENDBRANCH   3   8
ENDBRANCH   1   3
BRANCH   1  11
ATOM     11  C   UNL     1     125.826 115.492 129.430  1.00  0.00     0.006 C 
ATOM     12  C   UNL     1     127.105 114.972 128.773  1.00  0.00     0.004 C 
ENDBRANCH   1  11
TORSDOF 4
ENDMDL
MODEL 2
REMARK VINA RESULT:    -3.039      2.852      4.021
REMARK INTER + INTRA:          -3.763
REMARK INTER:                  -3.698
REMARK INTRA:                  -0.065
REMARK UNBOUND:                -0.102
REMARK SMILES CC[C@@H](C)[C@@H]([NH3+])C(=O)[O-]
REMARK SMILES IDX 3 1 4 2 5 3 6 4 7 8 8 9 9 10 2 11 1 12
REMARK H PARENT 6 5 6 6 6 7
REMARK Flexibility Score: inf
ROOT
ATOM      1  C   UNL     1     125.579 115.813 131.178  1.00  0.00     0.050 C 
ATOM      2  C   UNL     1     126.203 117.148 131.628  1.00  0.00     0.014 C 
ENDROOT
BRANCH   1   3
ATOM      3  C   UNL     1     126.651 114.715 130.876  1.00  0.00     0.230 C 
BRANCH   3   4
ATOM      4  N   UNL     1     126.533 113.569 131.791  1.00  0.00    -0.350 N 
ATOM      5  H   UNL     1     126.009 112.792 131.327  1.00  0.00     0.345 HD
ATOM      6  H   UNL     1     125.999 113.858 132.643  1.00  0.00     0.345 HD
ATOM      7  H   UNL     1     127.471 113.221 132.094  1.00  0.00     0.345 HD
ENDBRANCH   3   4
BRANCH   3   8
ATOM      8  C   UNL     1     126.622 114.253 129.440  1.00  0.00     0.099 C 
ATOM      9  O   UNL     1     125.905 113.272 129.108  1.00  0.00    -0.544 OA
ATOM     10  O   UNL     1     127.399 114.883 128.475  1.00  0.00    -0.544 OA
ENDBRANCH   3   8
ENDBRANCH   1   3
BRANCH   1  11
ATOM     11  C   UNL     1     124.524 115.361 132.219  1.00  0.00     0.006 C 
ATOM     12  C   UNL     1     123.188 116.093 132.085  1.00  0.00     0.004 C 
ENDBRANCH   1  11
TORSDOF 4
ENDMDL
MODEL 3
REMARK VINA RESULT:    -2.879      2.717      3.913
REMARK INTER + INTRA:          -3.570
REMARK INTER:                  -3.576
REMARK INTRA:                   0.006
REMARK UNBOUND:                -0.102
REMARK SMILES CC[C@@H](C)[C@@H]([NH3+])C(=O)[O-]
REMARK SMILES IDX 3 1 4 2 5 3 6 4 7 8 8 9 9 10 2 11 1 12
REMARK H PARENT 6 5 6 6 6 7
REMARK Flexibility Score: inf
ROOT
ATOM      1  C   UNL     1     124.603 115.896 130.756  1.00  0.00     0.050 C 
ATOM      2  C   UNL     1     125.578 116.688 131.649  1.00  0.00     0.014 C 
ENDROOT
BRANCH   1   3
ATOM      3  C   UNL     1     125.272 114.654 130.083  1.00  0.00     0.230 C 
BRANCH   3   4
ATOM      4  N   UNL     1     125.448 114.843 128.635  1.00  0.00    -0.350 N 
ATOM      5  H   UNL     1     126.464 114.816 128.391  1.00  0.00     0.345 HD
ATOM      6  H   UNL     1     125.073 115.781 128.360  1.00  0.00     0.345 HD
ATOM      7  H   UNL     1     124.940 114.113 128.087  1.00  0.00     0.345 HD
ENDBRANCH   3   4
BRANCH   3   8
ATOM      8  C   UNL     1     126.581 114.274 130.732  1.00  0.00     0.099 C 
ATOM      9  O   UNL     1     127.670 114.656 130.225  1.00  0.00    -0.544 OA
ATOM     10  O   UNL     1     126.605 113.484 131.875  1.00  0.00    -0.544 OA
ENDBRANCH   3   8
ENDBRANCH   1   3
BRANCH   1  11
ATOM     11  C   UNL     1     123.337 115.536 131.572  1.00  0.00     0.006 C 
ATOM     12  C   UNL     1     123.564 115.551 133.084  1.00  0.00     0.004 C 
ENDBRANCH   1  11
TORSDOF 4
ENDMDL
MODEL 4
REMARK VINA RESULT:    -2.870      2.203      3.693
REMARK INTER + INTRA:          -3.559
REMARK INTER:                  -3.546
REMARK INTRA:                  -0.013
REMARK UNBOUND:                -0.102
REMARK SMILES CC[C@@H](C)[C@@H]([NH3+])C(=O)[O-]
REMARK SMILES IDX 3 1 4 2 5 3 6 4 7 8 8 9 9 10 2 11 1 12
REMARK H PARENT 6 5 6 6 6 7
REMARK Flexibility Score: inf
ROOT
ATOM      1  C   UNL     1     124.549 115.702 132.231  1.00  0.00     0.050 C 
ATOM      2  C   UNL     1     124.920 114.358 132.885  1.00  0.00     0.014 C 
ENDROOT
BRANCH   1   3
ATOM      3  C   UNL     1     125.562 116.137 131.122  1.00  0.00     0.230 C 
BRANCH   3   4
ATOM      4  N   UNL     1     126.658 116.950 131.670  1.00  0.00    -0.350 N 
ATOM      5  H   UNL     1     127.556 116.416 131.631  1.00  0.00     0.345 HD
ATOM      6  H   UNL     1     126.457 117.174 132.672  1.00  0.00     0.345 HD
ATOM      7  H   UNL     1     126.767 117.850 131.149  1.00  0.00     0.345 HD
ENDBRANCH   3   4
BRANCH   3   8
ATOM      8  C   UNL     1     126.109 114.966 130.342  1.00  0.00     0.099 C 
ATOM      9  O   UNL     1     127.343 114.711 130.371  1.00  0.00    -0.544 OA
ATOM     10  O   UNL     1     125.269 114.173 129.568  1.00  0.00    -0.544 OA
ENDBRANCH   3   8
ENDBRANCH   1   3
BRANCH   1  11
ATOM     11  C   UNL     1     123.086 115.641 131.725  1.00  0.00     0.006 C 
ATOM     12  C   UNL     1     122.055 115.959 132.809  1.00  0.00     0.004 C 
ENDBRANCH   1  11
TORSDOF 4
ENDMDL
MODEL 5
REMARK VINA RESULT:    -2.797      2.514      3.576
REMARK INTER + INTRA:          -3.471
REMARK INTER:                  -3.456
REMARK INTRA:                  -0.015
REMARK UNBOUND:                -0.102
REMARK SMILES CC[C@@H](C)[C@@H]([NH3+])C(=O)[O-]
REMARK SMILES IDX 3 1 4 2 5 3 6 4 7 8 8 9 9 10 2 11 1 12
REMARK H PARENT 6 5 6 6 6 7
REMARK Flexibility Score: inf
ROOT
ATOM      1  C   UNL     1     124.763 115.055 131.408  1.00  0.00     0.050 C 
ATOM      2  C   UNL     1     123.399 115.653 131.806  1.00  0.00     0.014 C 
ENDROOT
BRANCH   1   3
ATOM      3  C   UNL     1     125.670 116.073 130.643  1.00  0.00     0.230 C 
BRANCH   3   4
ATOM      4  N   UNL     1     126.676 116.683 131.526  1.00  0.00    -0.350 N 
ATOM      5  H   UNL     1     126.263 117.502 132.028  1.00  0.00     0.345 HD
ATOM      6  H   UNL     1     127.480 117.026 130.952  1.00  0.00     0.345 HD
ATOM      7  H   UNL     1     127.041 115.997 132.225  1.00  0.00     0.345 HD
ENDBRANCH   3   4
BRANCH   3   8
ATOM      8  C   UNL     1     126.330 115.465 129.428  1.00  0.00     0.099 C 
ATOM      9  O   UNL     1     127.379 114.779 129.557  1.00  0.00    -0.544 OA
ATOM     10  O   UNL     1     125.806 115.673 128.157  1.00  0.00    -0.544 OA
ENDBRANCH   3   8
ENDBRANCH   1   3
BRANCH   1  11
ATOM     11  C   UNL     1     125.447 114.456 132.662  1.00  0.00     0.006 C 
ATOM     12  C   UNL     1     126.381 113.288 132.344  1.00  0.00     0.004 C 
ENDBRANCH   1  11
TORSDOF 4
ENDMDL
MODEL 6
REMARK VINA RESULT:    -2.635     23.823     24.441
REMARK INTER + INTRA:          -3.276
REMARK INTER:                  -3.213
REMARK INTRA:                  -0.063
REMARK UNBOUND:                -0.102
REMARK SMILES CC[C@@H](C)[C@@H]([NH3+])C(=O)[O-]
REMARK SMILES IDX 3 1 4 2 5 3 6 4 7 8 8 9 9 10 2 11 1 12
REMARK H PARENT 6 5 6 6 6 7
REMARK Flexibility Score: inf
ROOT
ATOM      1  C   UNL     1     109.397 124.271 115.306  1.00  0.00     0.050 C 
ATOM      2  C   UNL     1     108.936 123.616 113.990  1.00  0.00     0.014 C 
ENDROOT
BRANCH   1   3
ATOM      3  C   UNL     1     108.887 125.741 115.463  1.00  0.00     0.230 C 
BRANCH   3   4
ATOM      4  N   UNL     1     108.875 126.170 116.870  1.00  0.00    -0.350 N 
ATOM      5  H   UNL     1     108.096 126.848 117.032  1.00  0.00     0.345 HD
ATOM      6  H   UNL     1     109.777 126.652 117.093  1.00  0.00     0.345 HD
ATOM      7  H   UNL     1     108.767 125.358 117.519  1.00  0.00     0.345 HD
ENDBRANCH   3   4
BRANCH   3   8
ATOM      8  C   UNL     1     109.664 126.720 114.616  1.00  0.00     0.099 C 
ATOM      9  O   UNL     1     110.771 127.165 115.022  1.00  0.00    -0.544 OA
ATOM     10  O   UNL     1     109.161 127.161 113.397  1.00  0.00    -0.544 OA
ENDBRANCH   3   8
ENDBRANCH   1   3
BRANCH   1  11
ATOM     11  C   UNL     1     109.004 123.363 116.498  1.00  0.00     0.006 C 
ATOM     12  C   UNL     1     110.192 122.965 117.375  1.00  0.00     0.004 C 
ENDBRANCH   1  11
TORSDOF 4
ENDMDL
MODEL 7
REMARK VINA RESULT:    -2.626     13.700     15.206
REMARK INTER + INTRA:          -3.266
REMARK INTER:                  -3.241
REMARK INTRA:                  -0.025
REMARK UNBOUND:                -0.102
REMARK SMILES CC[C@@H](C)[C@@H]([NH3+])C(=O)[O-]
REMARK SMILES IDX 3 1 4 2 5 3 6 4 7 8 8 9 9 10 2 11 1 12
REMARK H PARENT 6 5 6 6 6 7
REMARK Flexibility Score: inf
ROOT
ATOM      1  C   UNL     1     113.295 123.194 131.291  1.00  0.00     0.050 C 
ATOM      2  C   UNL     1     114.590 122.455 131.679  1.00  0.00     0.014 C 
ENDROOT
BRANCH   1   3
ATOM      3  C   UNL     1     112.231 122.251 130.640  1.00  0.00     0.230 C 
BRANCH   3   4
ATOM      4  N   UNL     1     111.065 122.055 131.514  1.00  0.00    -0.350 N 
ATOM      5  H   UNL     1     110.818 121.041 131.561  1.00  0.00     0.345 HD
ATOM      6  H   UNL     1     110.245 122.571 131.119  1.00  0.00     0.345 HD
ATOM      7  H   UNL     1     111.243 122.414 132.480  1.00  0.00     0.345 HD
ENDBRANCH   3   4
BRANCH   3   8
ATOM      8  C   UNL     1     111.797 122.720 129.272  1.00  0.00     0.099 C 
ATOM      9  O   UNL     1     110.933 123.631 129.163  1.00  0.00    -0.544 OA
ATOM     10  O   UNL     1     112.322 122.142 128.123  1.00  0.00    -0.544 OA
ENDBRANCH   3   8
ENDBRANCH   1   3
BRANCH   1  11
ATOM     11  C   UNL     1     112.753 123.962 132.522  1.00  0.00     0.006 C 
ATOM     12  C   UNL     1     111.950 125.210 132.154  1.00  0.00     0.004 C 
ENDBRANCH   1  11
TORSDOF 4
ENDMDL
MODEL 8
REMARK VINA RESULT:    -2.276     12.048     13.302
REMARK INTER + INTRA:          -2.844
REMARK INTER:                  -2.777
REMARK INTRA:                  -0.067
REMARK UNBOUND:                -0.102
REMARK SMILES CC[C@@H](C)[C@@H]([NH3+])C(=O)[O-]
REMARK SMILES IDX 3 1 4 2 5 3 6 4 7 8 8 9 9 10 2 11 1 12
REMARK H PARENT 6 5 6 6 6 7
REMARK Flexibility Score: inf
ROOT
ATOM      1  C   UNL     1     114.872 122.335 132.360  1.00  0.00     0.050 C 
ATOM      2  C   UNL     1     116.353 122.742 132.243  1.00  0.00     0.014 C 
ENDROOT
BRANCH   1   3
ATOM      3  C   UNL     1     113.974 122.994 131.263  1.00  0.00     0.230 C 
BRANCH   3   4
ATOM      4  N   UNL     1     113.754 122.093 130.121  1.00  0.00    -0.350 N 
ATOM      5  H   UNL     1     114.667 121.703 129.791  1.00  0.00     0.345 HD
ATOM      6  H   UNL     1     113.326 122.631 129.332  1.00  0.00     0.345 HD
ATOM      7  H   UNL     1     113.111 121.307 130.369  1.00  0.00     0.345 HD
ENDBRANCH   3   4
BRANCH   3   8
ATOM      8  C   UNL     1     112.657 123.490 131.809  1.00  0.00     0.099 C 
ATOM      9  O   UNL     1     112.639 124.331 132.747  1.00  0.00    -0.544 OA
ATOM     10  O   UNL     1     111.453 123.011 131.304  1.00  0.00    -0.544 OA
ENDBRANCH   3   8
ENDBRANCH   1   3
BRANCH   1  11
ATOM     11  C   UNL     1     114.764 120.790 132.386  1.00  0.00     0.006 C 
ATOM     12  C   UNL     1     115.919 120.113 133.125  1.00  0.00     0.004 C 
ENDBRANCH   1  11
TORSDOF 4
ENDMDL
MODEL 9
REMARK VINA RESULT:    -2.194     13.246     14.718
REMARK INTER + INTRA:          -2.745
REMARK INTER:                  -2.831
REMARK INTRA:                   0.086
REMARK UNBOUND:                -0.102
REMARK SMILES CC[C@@H](C)[C@@H]([NH3+])C(=O)[O-]
REMARK SMILES IDX 3 1 4 2 5 3 6 4 7 8 8 9 9 10 2 11 1 12
REMARK H PARENT 6 5 6 6 6 7
REMARK Flexibility Score: inf
ROOT
ATOM      1  C   UNL     1     113.085 122.819 131.871  1.00  0.00     0.050 C 
ATOM      2  C   UNL     1     112.635 124.259 132.183  1.00  0.00     0.014 C 
ENDROOT
BRANCH   1   3
ATOM      3  C   UNL     1     112.071 122.051 130.963  1.00  0.00     0.230 C 
BRANCH   3   4
ATOM      4  N   UNL     1     110.792 121.812 131.650  1.00  0.00    -0.350 N 
ATOM      5  H   UNL     1     110.805 120.877 132.117  1.00  0.00     0.345 HD
ATOM      6  H   UNL     1     110.016 121.814 130.948  1.00  0.00     0.345 HD
ATOM      7  H   UNL     1     110.593 122.551 132.361  1.00  0.00     0.345 HD
ENDBRANCH   3   4
BRANCH   3   8
ATOM      8  C   UNL     1     111.842 122.736 129.637  1.00  0.00     0.099 C 
ATOM      9  O   UNL     1     110.999 123.668 129.547  1.00  0.00    -0.544 OA
ATOM     10  O   UNL     1     112.535 122.335 128.501  1.00  0.00    -0.544 OA
ENDBRANCH   3   8
ENDBRANCH   1   3
BRANCH   1  11
ATOM     11  C   UNL     1     114.521 122.844 131.290  1.00  0.00     0.006 C 
ATOM     12  C   UNL     1     115.589 122.401 132.292  1.00  0.00     0.004 C 
ENDBRANCH   1  11
TORSDOF 4
ENDMDL
