MODEL 1
REMARK VINA RESULT:    -6.176      0.000      0.000
REMARK INTER + INTRA:         -13.941
REMARK INTER:                 -11.230
REMARK INTRA:                  -2.711
REMARK UNBOUND:                -2.711
REMARK SMILES CCCCCC=CCC=CCCCCCCCC(=O)[O-]
REMARK SMILES IDX 11 1 12 2 13 3 14 4 15 5 16 6 17 7 18 8 19 9 20 10 10 11
REMARK SMILES IDX 9 12 8 13 7 14 6 15 5 16 4 17 3 18 2 19 1 20
REMARK H PARENT
REMARK Flexibility Score: inf
ROOT
ATOM      1  C   UNL     1      22.512   0.589  -1.921  1.00  0.00     0.027 C 
ENDROOT
BRANCH   1   2
ATOM      2  C   UNL     1      22.435   0.178  -0.443  1.00  0.00     0.004 C 
BRANCH   2   3
ATOM      3  C   UNL     1      23.632  -0.697  -0.015  1.00  0.00     0.000 C 
BRANCH   3   4
ATOM      4  C   UNL     1      23.232  -1.964   0.772  1.00  0.00     0.000 C 
BRANCH   4   5
ATOM      5  C   UNL     1      21.778  -2.427   0.570  1.00  0.00     0.000 C 
BRANCH   5   6
ATOM      6  C   UNL     1      21.539  -3.872   1.043  1.00  0.00     0.006 C 
BRANCH   6   7
ATOM      7  C   UNL     1      22.105  -4.122   2.446  1.00  0.00     0.053 C 
BRANCH   7   8
ATOM      8  C   UNL     1      21.090  -4.751   3.352  1.00  0.00     0.041 C 
ATOM      9  O   UNL     1      20.732  -5.945   3.176  1.00  0.00    -0.550 OA
ATOM     10  O   UNL     1      20.529  -4.011   4.385  1.00  0.00    -0.550 OA
ENDBRANCH   7   8
ENDBRANCH   6   7
ENDBRANCH   5   6
ENDBRANCH   4   5
ENDBRANCH   3   4
ENDBRANCH   2   3
ENDBRANCH   1   2
BRANCH   1  11
ATOM     11  C   UNL     1      22.503  -0.622  -2.811  1.00  0.00    -0.031 C 
ATOM     12  C   UNL     1      21.504  -1.521  -2.765  1.00  0.00    -0.027 C 
BRANCH  12  13
ATOM     13  C   UNL     1      21.511  -2.742  -3.642  1.00  0.00     0.054 C 
BRANCH  13  14
ATOM     14  C   UNL     1      22.000  -3.949  -2.889  1.00  0.00    -0.027 C 
ATOM     15  C   UNL     1      23.254  -4.017  -2.410  1.00  0.00    -0.031 C 
BRANCH  15  16
ATOM     16  C   UNL     1      23.744  -5.219  -1.650  1.00  0.00     0.027 C 
BRANCH  16  17
ATOM     17  C   UNL     1      24.930  -4.858  -0.743  1.00  0.00     0.004 C 
BRANCH  17  18
ATOM     18  C   UNL     1      25.778  -3.702  -1.316  1.00  0.00     0.000 C 
BRANCH  18  19
ATOM     19  C   UNL     1      26.812  -3.150  -0.321  1.00  0.00    -0.003 C 
ATOM     20  C   UNL     1      26.587  -3.648   1.105  1.00  0.00     0.004 C 
ENDBRANCH  18  19
ENDBRANCH  17  18
ENDBRANCH  16  17
ENDBRANCH  15  16
ENDBRANCH  13  14
ENDBRANCH  12  13
ENDBRANCH   1  11
TORSDOF 14
ENDMDL
MODEL 2
REMARK VINA RESULT:    -6.118      1.057      3.866
REMARK INTER + INTRA:         -13.837
REMARK INTER:                 -11.125
REMARK INTRA:                  -2.712
REMARK UNBOUND:                -2.711
REMARK SMILES CCCCCC=CCC=CCCCCCCCC(=O)[O-]
REMARK SMILES IDX 11 1 12 2 13 3 14 4 15 5 16 6 17 7 18 8 19 9 20 10 10 11
REMARK SMILES IDX 9 12 8 13 7 14 6 15 5 16 4 17 3 18 2 19 1 20
REMARK H PARENT
REMARK Flexibility Score: inf
ROOT
ATOM      1  C   UNL     1      26.609  -3.915  -0.822  1.00  0.00     0.027 C 
ENDROOT
BRANCH   1   2
ATOM      2  C   UNL     1      26.599  -3.046   0.445  1.00  0.00     0.004 C 
BRANCH   2   3
ATOM      3  C   UNL     1      25.863  -3.728   1.618  1.00  0.00     0.000 C 
BRANCH   3   4
ATOM      4  C   UNL     1      24.529  -3.052   2.000  1.00  0.00     0.000 C 
BRANCH   4   5
ATOM      5  C   UNL     1      23.304  -3.984   2.015  1.00  0.00     0.000 C 
BRANCH   5   6
ATOM      6  C   UNL     1      22.091  -3.390   1.278  1.00  0.00     0.006 C 
BRANCH   6   7
ATOM      7  C   UNL     1      20.968  -4.419   1.090  1.00  0.00     0.053 C 
BRANCH   7   8
ATOM      8  C   UNL     1      20.053  -4.466   2.276  1.00  0.00     0.041 C 
ATOM      9  O   UNL     1      19.493  -3.416   2.691  1.00  0.00    -0.550 OA
ATOM     10  O   UNL     1      19.828  -5.669   2.931  1.00  0.00    -0.550 OA
ENDBRANCH   7   8
ENDBRANCH   6   7
ENDBRANCH   5   6
ENDBRANCH   4   5
ENDBRANCH   3   4
ENDBRANCH   2   3
ENDBRANCH   1   2
BRANCH   1  11
ATOM     11  C   UNL     1      25.258  -3.913  -1.479  1.00  0.00    -0.031 C 
ATOM     12  C   UNL     1      24.436  -4.974  -1.399  1.00  0.00    -0.027 C 
BRANCH  12  13
ATOM     13  C   UNL     1      23.095  -4.974  -2.078  1.00  0.00     0.054 C 
BRANCH  13  14
ATOM     14  C   UNL     1      22.757  -3.611  -2.615  1.00  0.00    -0.027 C 
ATOM     15  C   UNL     1      21.546  -3.060  -2.421  1.00  0.00    -0.031 C 
BRANCH  15  16
ATOM     16  C   UNL     1      21.207  -1.694  -2.951  1.00  0.00     0.027 C 
BRANCH  16  17
ATOM     17  C   UNL     1      22.463  -0.817  -3.070  1.00  0.00     0.004 C 
BRANCH  17  18
ATOM     18  C   UNL     1      22.320   0.521  -2.312  1.00  0.00     0.000 C 
BRANCH  18  19
ATOM     19  C   UNL     1      22.906   0.485  -0.891  1.00  0.00    -0.003 C 
ATOM     20  C   UNL     1      23.952  -0.613  -0.709  1.00  0.00     0.004 C 
ENDBRANCH  18  19
ENDBRANCH  17  18
ENDBRANCH  16  17
ENDBRANCH  15  16
ENDBRANCH  13  14
ENDBRANCH  12  13
ENDBRANCH   1  11
TORSDOF 14
ENDMDL
MODEL 3
REMARK VINA RESULT:    -6.100      2.901      5.844
REMARK INTER + INTRA:         -13.803
REMARK INTER:                 -11.121
REMARK INTRA:                  -2.683
REMARK UNBOUND:                -2.711
REMARK SMILES CCCCCC=CCC=CCCCCCCCC(=O)[O-]
REMARK SMILES IDX 11 1 12 2 13 3 14 4 15 5 16 6 17 7 18 8 19 9 20 10 10 11
REMARK SMILES IDX 9 12 8 13 7 14 6 15 5 16 4 17 3 18 2 19 1 20
REMARK H PARENT
REMARK Flexibility Score: inf
ROOT
ATOM      1  C   UNL     1      26.515  -3.681   0.898  1.00  0.00     0.027 C 
ENDROOT
BRANCH   1   2
ATOM      2  C   UNL     1      26.284  -3.822  -0.614  1.00  0.00     0.004 C 
BRANCH   2   3
ATOM      3  C   UNL     1      25.581  -2.586  -1.217  1.00  0.00     0.000 C 
BRANCH   3   4
ATOM      4  C   UNL     1      24.217  -2.898  -1.871  1.00  0.00     0.000 C 
BRANCH   4   5
ATOM      5  C   UNL     1      23.804  -4.380  -1.845  1.00  0.00     0.000 C 
BRANCH   5   6
ATOM      6  C   UNL     1      22.347  -4.603  -2.288  1.00  0.00     0.006 C 
BRANCH   6   7
ATOM      7  C   UNL     1      22.162  -4.388  -3.796  1.00  0.00     0.053 C 
BRANCH   7   8
ATOM      8  C   UNL     1      22.206  -5.681  -4.552  1.00  0.00     0.041 C 
ATOM      9  O   UNL     1      22.627  -6.730  -3.996  1.00  0.00    -0.550 OA
ATOM     10  O   UNL     1      21.794  -5.724  -5.877  1.00  0.00    -0.550 OA
ENDBRANCH   7   8
ENDBRANCH   6   7
ENDBRANCH   5   6
ENDBRANCH   4   5
ENDBRANCH   3   4
ENDBRANCH   2   3
ENDBRANCH   1   2
BRANCH   1  11
ATOM     11  C   UNL     1      25.206  -3.614   1.632  1.00  0.00    -0.031 C 
ATOM     12  C   UNL     1      24.323  -4.627   1.590  1.00  0.00    -0.027 C 
BRANCH  12  13
ATOM     13  C   UNL     1      23.006  -4.544   2.309  1.00  0.00     0.054 C 
BRANCH  13  14
ATOM     14  C   UNL     1      21.909  -4.092   1.384  1.00  0.00    -0.027 C 
ATOM     15  C   UNL     1      21.741  -2.795   1.077  1.00  0.00    -0.031 C 
BRANCH  15  16
ATOM     16  C   UNL     1      20.650  -2.339   0.147  1.00  0.00     0.027 C 
BRANCH  16  17
ATOM     17  C   UNL     1      21.133  -1.196  -0.758  1.00  0.00     0.004 C 
BRANCH  17  18
ATOM     18  C   UNL     1      22.183  -0.301  -0.066  1.00  0.00     0.000 C 
BRANCH  18  19
ATOM     19  C   UNL     1      22.957   0.602  -1.041  1.00  0.00    -0.003 C 
ATOM     20  C   UNL     1      22.575   0.362  -2.500  1.00  0.00     0.004 C 
ENDBRANCH  18  19
ENDBRANCH  17  18
ENDBRANCH  16  17
ENDBRANCH  15  16
ENDBRANCH  13  14
ENDBRANCH  12  13
ENDBRANCH   1  11
TORSDOF 14
ENDMDL
MODEL 4
REMARK VINA RESULT:    -6.066      1.950      4.114
REMARK INTER + INTRA:         -13.742
REMARK INTER:                 -11.583
REMARK INTRA:                  -2.159
REMARK UNBOUND:                -2.711
REMARK SMILES CCCCCC=CCC=CCCCCCCCC(=O)[O-]
REMARK SMILES IDX 11 1 12 2 13 3 14 4 15 5 16 6 17 7 18 8 19 9 20 10 10 11
REMARK SMILES IDX 9 12 8 13 7 14 6 15 5 16 4 17 3 18 2 19 1 20
REMARK H PARENT
REMARK Flexibility Score: inf
ROOT
ATOM      1  C   UNL     1      22.445   0.450  -2.456  1.00  0.00     0.027 C 
ENDROOT
BRANCH   1   2
ATOM      2  C   UNL     1      23.403   0.581  -1.263  1.00  0.00     0.004 C 
BRANCH   2   3
ATOM      3  C   UNL     1      22.921  -0.219  -0.034  1.00  0.00     0.000 C 
BRANCH   3   4
ATOM      4  C   UNL     1      23.926  -1.286   0.453  1.00  0.00     0.000 C 
BRANCH   4   5
ATOM      5  C   UNL     1      24.951  -1.746  -0.599  1.00  0.00     0.000 C 
BRANCH   5   6
ATOM      6  C   UNL     1      26.002  -2.715  -0.028  1.00  0.00     0.006 C 
BRANCH   6   7
ATOM      7  C   UNL     1      25.523  -3.387   1.266  1.00  0.00     0.053 C 
BRANCH   7   8
ATOM      8  C   UNL     1      24.903  -4.725   1.001  1.00  0.00     0.041 C 
ATOM      9  O   UNL     1      24.157  -5.263   1.862  1.00  0.00    -0.550 OA
ATOM     10  O   UNL     1      25.159  -5.384  -0.193  1.00  0.00    -0.550 OA
ENDBRANCH   7   8
ENDBRANCH   6   7
ENDBRANCH   5   6
ENDBRANCH   4   5
ENDBRANCH   3   4
ENDBRANCH   2   3
ENDBRANCH   1   2
BRANCH   1  11
ATOM     11  C   UNL     1      21.960  -0.966  -2.596  1.00  0.00    -0.031 C 
ATOM     12  C   UNL     1      22.630  -1.869  -3.333  1.00  0.00    -0.027 C 
BRANCH  12  13
ATOM     13  C   UNL     1      22.128  -3.277  -3.487  1.00  0.00     0.054 C 
BRANCH  13  14
ATOM     14  C   UNL     1      21.343  -3.709  -2.279  1.00  0.00    -0.027 C 
ATOM     15  C   UNL     1      21.953  -4.111  -1.151  1.00  0.00    -0.031 C 
BRANCH  15  16
ATOM     16  C   UNL     1      21.171  -4.535   0.061  1.00  0.00     0.027 C 
BRANCH  16  17
ATOM     17  C   UNL     1      21.213  -3.458   1.155  1.00  0.00     0.004 C 
BRANCH  17  18
ATOM     18  C   UNL     1      19.957  -3.483   2.053  1.00  0.00     0.000 C 
BRANCH  18  19
ATOM     19  C   UNL     1      20.237  -3.966   3.486  1.00  0.00    -0.003 C 
ATOM     20  C   UNL     1      18.995  -3.933   4.375  1.00  0.00     0.004 C 
ENDBRANCH  18  19
ENDBRANCH  17  18
ENDBRANCH  16  17
ENDBRANCH  15  16
ENDBRANCH  13  14
ENDBRANCH  12  13
ENDBRANCH   1  11
TORSDOF 14
ENDMDL
MODEL 5
REMARK VINA RESULT:    -6.002      2.641      4.372
REMARK INTER + INTRA:         -13.625
REMARK INTER:                 -11.237
REMARK INTRA:                  -2.388
REMARK UNBOUND:                -2.711
REMARK SMILES CCCCCC=CCC=CCCCCCCCC(=O)[O-]
REMARK SMILES IDX 11 1 12 2 13 3 14 4 15 5 16 6 17 7 18 8 19 9 20 10 10 11
REMARK SMILES IDX 9 12 8 13 7 14 6 15 5 16 4 17 3 18 2 19 1 20
REMARK H PARENT
REMARK Flexibility Score: inf
ROOT
ATOM      1  C   UNL     1      22.601   0.478  -0.553  1.00  0.00     0.027 C 
ENDROOT
BRANCH   1   2
ATOM      2  C   UNL     1      22.107   0.458  -2.007  1.00  0.00     0.004 C 
BRANCH   2   3
ATOM      3  C   UNL     1      22.774  -0.659  -2.837  1.00  0.00     0.000 C 
BRANCH   3   4
ATOM      4  C   UNL     1      21.804  -1.775  -3.281  1.00  0.00     0.000 C 
BRANCH   4   5
ATOM      5  C   UNL     1      22.468  -3.121  -3.620  1.00  0.00     0.000 C 
BRANCH   5   6
ATOM      6  C   UNL     1      22.138  -4.225  -2.599  1.00  0.00     0.006 C 
BRANCH   6   7
ATOM      7  C   UNL     1      22.921  -5.516  -2.871  1.00  0.00     0.053 C 
BRANCH   7   8
ATOM      8  C   UNL     1      22.141  -6.471  -3.723  1.00  0.00     0.041 C 
ATOM      9  O   UNL     1      22.666  -6.988  -4.744  1.00  0.00    -0.550 OA
ATOM     10  O   UNL     1      20.827  -6.780  -3.394  1.00  0.00    -0.550 OA
ENDBRANCH   7   8
ENDBRANCH   6   7
ENDBRANCH   5   6
ENDBRANCH   4   5
ENDBRANCH   3   4
ENDBRANCH   2   3
ENDBRANCH   1   2
BRANCH   1  11
ATOM     11  C   UNL     1      22.556  -0.900   0.044  1.00  0.00    -0.031 C 
ATOM     12  C   UNL     1      21.394  -1.550   0.225  1.00  0.00    -0.027 C 
BRANCH  12  13
ATOM     13  C   UNL     1      21.354  -2.920   0.843  1.00  0.00     0.054 C 
BRANCH  13  14
ATOM     14  C   UNL     1      22.707  -3.322   1.361  1.00  0.00    -0.027 C 
ATOM     15  C   UNL     1      23.313  -4.446   0.942  1.00  0.00    -0.031 C 
BRANCH  15  16
ATOM     16  C   UNL     1      24.670  -4.848   1.452  1.00  0.00     0.027 C 
BRANCH  16  17
ATOM     17  C   UNL     1      25.690  -3.714   1.269  1.00  0.00     0.004 C 
BRANCH  17  18
ATOM     18  C   UNL     1      26.779  -4.064   0.233  1.00  0.00     0.000 C 
BRANCH  18  19
ATOM     19  C   UNL     1      26.394  -3.696  -1.209  1.00  0.00    -0.003 C 
ATOM     20  C   UNL     1      25.471  -2.481  -1.283  1.00  0.00     0.004 C 
ENDBRANCH  18  19
ENDBRANCH  17  18
ENDBRANCH  16  17
ENDBRANCH  15  16
ENDBRANCH  13  14
ENDBRANCH  12  13
ENDBRANCH   1  11
TORSDOF 14
ENDMDL
MODEL 6
REMARK VINA RESULT:    -5.985      2.571      5.005
REMARK INTER + INTRA:         -13.595
REMARK INTER:                 -11.144
REMARK INTRA:                  -2.451
REMARK UNBOUND:                -2.711
REMARK SMILES CCCCCC=CCC=CCCCCCCCC(=O)[O-]
REMARK SMILES IDX 11 1 12 2 13 3 14 4 15 5 16 6 17 7 18 8 19 9 20 10 10 11
REMARK SMILES IDX 9 12 8 13 7 14 6 15 5 16 4 17 3 18 2 19 1 20
REMARK H PARENT
REMARK Flexibility Score: inf
ROOT
ATOM      1  C   UNL     1      21.374  -1.996  -3.045  1.00  0.00     0.027 C 
ENDROOT
BRANCH   1   2
ATOM      2  C   UNL     1      22.573  -1.044  -3.168  1.00  0.00     0.004 C 
BRANCH   2   3
ATOM      3  C   UNL     1      22.358   0.273  -2.392  1.00  0.00     0.000 C 
BRANCH   3   4
ATOM      4  C   UNL     1      23.256   0.420  -1.144  1.00  0.00     0.000 C 
BRANCH   4   5
ATOM      5  C   UNL     1      22.834  -0.429   0.068  1.00  0.00     0.000 C 
BRANCH   5   6
ATOM      6  C   UNL     1      23.942  -1.387   0.543  1.00  0.00     0.006 C 
BRANCH   6   7
ATOM      7  C   UNL     1      25.059  -1.538  -0.497  1.00  0.00     0.053 C 
BRANCH   7   8
ATOM      8  C   UNL     1      25.871  -2.776  -0.266  1.00  0.00     0.041 C 
ATOM      9  O   UNL     1      26.083  -3.189   0.905  1.00  0.00    -0.550 OA
ATOM     10  O   UNL     1      26.403  -3.468  -1.346  1.00  0.00    -0.550 OA
ENDBRANCH   7   8
ENDBRANCH   6   7
ENDBRANCH   5   6
ENDBRANCH   4   5
ENDBRANCH   3   4
ENDBRANCH   2   3
ENDBRANCH   1   2
BRANCH   1  11
ATOM     11  C   UNL     1      21.710  -3.164  -2.162  1.00  0.00    -0.031 C 
ATOM     12  C   UNL     1      22.842  -3.870  -2.331  1.00  0.00    -0.027 C 
BRANCH  12  13
ATOM     13  C   UNL     1      23.162  -5.051  -1.458  1.00  0.00     0.054 C 
BRANCH  13  14
ATOM     14  C   UNL     1      22.427  -4.974  -0.148  1.00  0.00    -0.027 C 
ATOM     15  C   UNL     1      23.084  -4.921   1.024  1.00  0.00    -0.031 C 
BRANCH  15  16
ATOM     16  C   UNL     1      22.353  -4.836   2.335  1.00  0.00     0.027 C 
BRANCH  16  17
ATOM     17  C   UNL     1      20.837  -4.976   2.137  1.00  0.00     0.004 C 
BRANCH  17  18
ATOM     18  C   UNL     1      20.081  -3.663   2.433  1.00  0.00     0.000 C 
BRANCH  18  19
ATOM     19  C   UNL     1      19.112  -3.769   3.623  1.00  0.00    -0.003 C 
ATOM     20  C   UNL     1      19.820  -3.670   4.973  1.00  0.00     0.004 C 
ENDBRANCH  18  19
ENDBRANCH  17  18
ENDBRANCH  16  17
ENDBRANCH  15  16
ENDBRANCH  13  14
ENDBRANCH  12  13
ENDBRANCH   1  11
TORSDOF 14
ENDMDL
MODEL 7
REMARK VINA RESULT:    -5.903      2.699      5.393
REMARK INTER + INTRA:         -13.446
REMARK INTER:                 -11.078
REMARK INTRA:                  -2.368
REMARK UNBOUND:                -2.711
REMARK SMILES CCCCCC=CCC=CCCCCCCCC(=O)[O-]
REMARK SMILES IDX 11 1 12 2 13 3 14 4 15 5 16 6 17 7 18 8 19 9 20 10 10 11
REMARK SMILES IDX 9 12 8 13 7 14 6 15 5 16 4 17 3 18 2 19 1 20
REMARK H PARENT
REMARK Flexibility Score: inf
ROOT
ATOM      1  C   UNL     1      26.201  -3.542   1.473  1.00  0.00     0.027 C 
ENDROOT
BRANCH   1   2
ATOM      2  C   UNL     1      27.004  -3.875   0.207  1.00  0.00     0.004 C 
BRANCH   2   3
ATOM      3  C   UNL     1      26.109  -3.977  -1.046  1.00  0.00     0.000 C 
BRANCH   3   4
ATOM      4  C   UNL     1      25.856  -2.625  -1.748  1.00  0.00     0.000 C 
BRANCH   4   5
ATOM      5  C   UNL     1      24.435  -2.059  -1.583  1.00  0.00     0.000 C 
BRANCH   5   6
ATOM      6  C   UNL     1      24.360  -0.925  -0.545  1.00  0.00     0.006 C 
BRANCH   6   7
ATOM      7  C   UNL     1      22.990  -0.861   0.142  1.00  0.00     0.053 C 
BRANCH   7   8
ATOM      8  C   UNL     1      21.913  -0.419  -0.802  1.00  0.00     0.041 C 
ATOM      9  O   UNL     1      20.851  -1.086  -0.916  1.00  0.00    -0.550 OA
ATOM     10  O   UNL     1      22.090   0.726  -1.567  1.00  0.00    -0.550 OA
ENDBRANCH   7   8
ENDBRANCH   6   7
ENDBRANCH   5   6
ENDBRANCH   4   5
ENDBRANCH   3   4
ENDBRANCH   2   3
ENDBRANCH   1   2
BRANCH   1  11
ATOM     11  C   UNL     1      24.916  -4.321   1.508  1.00  0.00    -0.031 C 
ATOM     12  C   UNL     1      23.761  -3.756   1.900  1.00  0.00    -0.027 C 
BRANCH  12  13
ATOM     13  C   UNL     1      22.484  -4.546   1.954  1.00  0.00     0.054 C 
BRANCH  13  14
ATOM     14  C   UNL     1      21.736  -4.459   0.652  1.00  0.00    -0.027 C 
ATOM     15  C   UNL     1      22.291  -4.858  -0.505  1.00  0.00    -0.031 C 
BRANCH  15  16
ATOM     16  C   UNL     1      21.543  -4.780  -1.807  1.00  0.00     0.027 C 
BRANCH  16  17
ATOM     17  C   UNL     1      22.507  -4.779  -3.003  1.00  0.00     0.004 C 
BRANCH  17  18
ATOM     18  C   UNL     1      21.781  -4.542  -4.344  1.00  0.00     0.000 C 
BRANCH  18  19
ATOM     19  C   UNL     1      22.147  -5.567  -5.430  1.00  0.00    -0.003 C 
ATOM     20  C   UNL     1      22.256  -6.991  -4.887  1.00  0.00     0.004 C 
ENDBRANCH  18  19
ENDBRANCH  17  18
ENDBRANCH  16  17
ENDBRANCH  15  16
ENDBRANCH  13  14
ENDBRANCH  12  13
ENDBRANCH   1  11
TORSDOF 14
ENDMDL
MODEL 8
REMARK VINA RESULT:    -5.884      2.171      4.286
REMARK INTER + INTRA:         -13.411
REMARK INTER:                 -11.161
REMARK INTRA:                  -2.251
REMARK UNBOUND:                -2.711
REMARK SMILES CCCCCC=CCC=CCCCCCCCC(=O)[O-]
REMARK SMILES IDX 11 1 12 2 13 3 14 4 15 5 16 6 17 7 18 8 19 9 20 10 10 11
REMARK SMILES IDX 9 12 8 13 7 14 6 15 5 16 4 17 3 18 2 19 1 20
REMARK H PARENT
REMARK Flexibility Score: inf
ROOT
ATOM      1  C   UNL     1      25.180  -1.936  -0.254  1.00  0.00     0.027 C 
ENDROOT
BRANCH   1   2
ATOM      2  C   UNL     1      25.568  -3.381   0.095  1.00  0.00     0.004 C 
BRANCH   2   3
ATOM      3  C   UNL     1      25.322  -4.353  -1.079  1.00  0.00     0.000 C 
BRANCH   3   4
ATOM      4  C   UNL     1      24.095  -5.272  -0.885  1.00  0.00     0.000 C 
BRANCH   4   5
ATOM      5  C   UNL     1      23.204  -4.925   0.320  1.00  0.00     0.000 C 
BRANCH   5   6
ATOM      6  C   UNL     1      21.824  -4.382  -0.093  1.00  0.00     0.006 C 
BRANCH   6   7
ATOM      7  C   UNL     1      21.296  -3.334   0.896  1.00  0.00     0.053 C 
BRANCH   7   8
ATOM      8  C   UNL     1      20.390  -3.945   1.922  1.00  0.00     0.041 C 
ATOM      9  O   UNL     1      19.617  -3.219   2.601  1.00  0.00    -0.550 OA
ATOM     10  O   UNL     1      20.409  -5.316   2.137  1.00  0.00    -0.550 OA
ENDBRANCH   7   8
ENDBRANCH   6   7
ENDBRANCH   5   6
ENDBRANCH   4   5
ENDBRANCH   3   4
ENDBRANCH   2   3
ENDBRANCH   1   2
BRANCH   1  11
ATOM     11  C   UNL     1      24.567  -1.865  -1.624  1.00  0.00    -0.031 C 
ATOM     12  C   UNL     1      23.447  -1.159  -1.858  1.00  0.00    -0.027 C 
BRANCH  12  13
ATOM     13  C   UNL     1      22.827  -1.111  -3.226  1.00  0.00     0.054 C 
BRANCH  13  14
ATOM     14  C   UNL     1      22.478  -2.490  -3.715  1.00  0.00    -0.027 C 
ATOM     15  C   UNL     1      21.317  -3.079  -3.383  1.00  0.00    -0.031 C 
BRANCH  15  16
ATOM     16  C   UNL     1      20.962  -4.455  -3.877  1.00  0.00     0.027 C 
BRANCH  16  17
ATOM     17  C   UNL     1      22.220  -5.258  -4.240  1.00  0.00     0.004 C 
BRANCH  17  18
ATOM     18  C   UNL     1      22.116  -5.916  -5.632  1.00  0.00     0.000 C 
BRANCH  18  19
ATOM     19  C   UNL     1      22.181  -7.451  -5.591  1.00  0.00    -0.003 C 
ATOM     20  C   UNL     1      20.820  -8.107  -5.823  1.00  0.00     0.004 C 
ENDBRANCH  18  19
ENDBRANCH  17  18
ENDBRANCH  16  17
ENDBRANCH  15  16
ENDBRANCH  13  14
ENDBRANCH  12  13
ENDBRANCH   1  11
TORSDOF 14
ENDMDL
MODEL 9
REMARK VINA RESULT:    -5.861      1.361      4.526
REMARK INTER + INTRA:         -13.370
REMARK INTER:                 -10.904
REMARK INTRA:                  -2.466
REMARK UNBOUND:                -2.711
REMARK SMILES CCCCCC=CCC=CCCCCCCCC(=O)[O-]
REMARK SMILES IDX 11 1 12 2 13 3 14 4 15 5 16 6 17 7 18 8 19 9 20 10 10 11
REMARK SMILES IDX 9 12 8 13 7 14 6 15 5 16 4 17 3 18 2 19 1 20
REMARK H PARENT
REMARK Flexibility Score: inf
ROOT
ATOM      1  C   UNL     1      23.065  -5.142  -2.093  1.00  0.00     0.027 C 
ENDROOT
BRANCH   1   2
ATOM      2  C   UNL     1      21.659  -4.705  -1.659  1.00  0.00     0.004 C 
BRANCH   2   3
ATOM      3  C   UNL     1      21.374  -5.035  -0.178  1.00  0.00     0.000 C 
BRANCH   3   4
ATOM      4  C   UNL     1      21.209  -3.790   0.721  1.00  0.00     0.000 C 
BRANCH   4   5
ATOM      5  C   UNL     1      21.888  -3.884   2.099  1.00  0.00     0.000 C 
BRANCH   5   6
ATOM      6  C   UNL     1      21.048  -4.660   3.128  1.00  0.00     0.006 C 
BRANCH   6   7
ATOM      7  C   UNL     1      19.545  -4.405   2.958  1.00  0.00     0.053 C 
BRANCH   7   8
ATOM      8  C   UNL     1      18.851  -4.261   4.278  1.00  0.00     0.041 C 
ATOM      9  O   UNL     1      19.125  -3.297   5.040  1.00  0.00    -0.550 OA
ATOM     10  O   UNL     1      17.909  -5.202   4.672  1.00  0.00    -0.550 OA
ENDBRANCH   7   8
ENDBRANCH   6   7
ENDBRANCH   5   6
ENDBRANCH   4   5
ENDBRANCH   3   4
ENDBRANCH   2   3
ENDBRANCH   1   2
BRANCH   1  11
ATOM     11  C   UNL     1      24.057  -4.033  -1.880  1.00  0.00    -0.031 C 
ATOM     12  C   UNL     1      24.653  -3.842  -0.690  1.00  0.00    -0.027 C 
BRANCH  12  13
ATOM     13  C   UNL     1      25.627  -2.717  -0.477  1.00  0.00     0.054 C 
BRANCH  13  14
ATOM     14  C   UNL     1      24.919  -1.392  -0.401  1.00  0.00    -0.027 C 
ATOM     15  C   UNL     1      23.840  -1.217   0.380  1.00  0.00    -0.031 C 
BRANCH  15  16
ATOM     16  C   UNL     1      23.134   0.109   0.465  1.00  0.00     0.027 C 
BRANCH  16  17
ATOM     17  C   UNL     1      22.326   0.391  -0.810  1.00  0.00     0.004 C 
BRANCH  17  18
ATOM     18  C   UNL     1      21.242  -0.678  -1.068  1.00  0.00     0.000 C 
BRANCH  18  19
ATOM     19  C   UNL     1      21.325  -1.311  -2.466  1.00  0.00    -0.003 C 
ATOM     20  C   UNL     1      22.637  -0.994  -3.182  1.00  0.00     0.004 C 
ENDBRANCH  18  19
ENDBRANCH  17  18
ENDBRANCH  16  17
ENDBRANCH  15  16
ENDBRANCH  13  14
ENDBRANCH  12  13
ENDBRANCH   1  11
TORSDOF 14
ENDMDL
