MODEL 1
REMARK VINA RESULT:    -2.900      0.000      0.000
REMARK INTER + INTRA:          -3.762
REMARK INTER:                  -3.409
REMARK INTRA:                  -0.353
REMARK UNBOUND:                -0.353
REMARK SMILES [NH3+][C@H](CO)C(=O)[O-]
REMARK SMILES IDX 3 1 2 2 1 3 5 7 6 8 7 9 4 10
REMARK H PARENT 1 4 1 5 1 6 4 11
REMARK Flexibility Score: inf
ROOT
ATOM      1  C   UNL     1      44.144  32.107  93.101  1.00  0.00     0.227 C 
ENDROOT
BRANCH   1   2
ATOM      2  C   UNL     1      44.387  30.871  92.219  1.00  0.00     0.253 C 
BRANCH   2   3
ATOM      3  N   UNL     1      43.146  30.113  92.009  1.00  0.00    -0.348 N 
ATOM      4  H   UNL     1      43.352  29.242  91.469  1.00  0.00     0.345 HD
ATOM      5  H   UNL     1      42.470  30.690  91.456  1.00  0.00     0.345 HD
ATOM      6  H   UNL     1      42.707  29.853  92.922  1.00  0.00     0.345 HD
ENDBRANCH   2   3
BRANCH   2   7
ATOM      7  C   UNL     1      45.008  31.265  90.904  1.00  0.00     0.102 C 
ATOM      8  O   UNL     1      44.286  31.548  89.912  1.00  0.00    -0.544 OA
ATOM      9  O   UNL     1      46.390  31.355  90.792  1.00  0.00    -0.544 OA
ENDBRANCH   2   7
ENDBRANCH   1   2
BRANCH   1  10
ATOM     10  O   UNL     1      44.911  33.193  92.656  1.00  0.00    -0.390 OA
ATOM     11  H   UNL     1      44.395  33.611  91.919  1.00  0.00     0.210 HD
ENDBRANCH   1  10
TORSDOF 4
ENDMDL
MODEL 2
REMARK VINA RESULT:    -2.882     17.349     18.313
REMARK INTER + INTRA:          -3.740
REMARK INTER:                  -3.505
REMARK INTRA:                  -0.234
REMARK UNBOUND:                -0.353
REMARK SMILES [NH3+][C@H](CO)C(=O)[O-]
REMARK SMILES IDX 3 1 2 2 1 3 5 7 6 8 7 9 4 10
REMARK H PARENT 1 4 1 5 1 6 4 11
REMARK Flexibility Score: inf
ROOT
ATOM      1  C   UNL     1      38.055  17.568  79.878  1.00  0.00     0.227 C 
ENDROOT
BRANCH   1   2
ATOM      2  C   UNL     1      37.858  19.092  79.951  1.00  0.00     0.253 C 
BRANCH   2   3
ATOM      3  N   UNL     1      37.140  19.478  81.172  1.00  0.00    -0.348 N 
ATOM      4  H   UNL     1      37.627  19.081  82.009  1.00  0.00     0.345 HD
ATOM      5  H   UNL     1      36.167  19.092  81.146  1.00  0.00     0.345 HD
ATOM      6  H   UNL     1      37.092  20.519  81.268  1.00  0.00     0.345 HD
ENDBRANCH   2   3
BRANCH   2   7
ATOM      7  C   UNL     1      39.180  19.809  79.852  1.00  0.00     0.102 C 
ATOM      8  O   UNL     1      40.235  19.272  80.282  1.00  0.00    -0.544 OA
ATOM      9  O   UNL     1      39.245  21.056  79.245  1.00  0.00    -0.544 OA
ENDBRANCH   2   7
ENDBRANCH   1   2
BRANCH   1  10
ATOM     10  O   UNL     1      38.741  17.212  78.708  1.00  0.00    -0.390 OA
ATOM     11  H   UNL     1      38.045  17.040  78.022  1.00  0.00     0.210 HD
ENDBRANCH   1  10
TORSDOF 4
ENDMDL
MODEL 3
REMARK VINA RESULT:    -2.877     17.335     18.344
REMARK INTER + INTRA:          -3.734
REMARK INTER:                  -3.729
REMARK INTRA:                  -0.005
REMARK UNBOUND:                -0.353
REMARK SMILES [NH3+][C@H](CO)C(=O)[O-]
REMARK SMILES IDX 3 1 2 2 1 3 5 7 6 8 7 9 4 10
REMARK H PARENT 1 4 1 5 1 6 4 11
REMARK Flexibility Score: inf
ROOT
ATOM      1  C   UNL     1      38.024  17.758  79.641  1.00  0.00     0.227 C 
ENDROOT
BRANCH   1   2
ATOM      2  C   UNL     1      38.896  18.916  80.156  1.00  0.00     0.253 C 
BRANCH   2   3
ATOM      3  N   UNL     1      39.939  19.270  79.185  1.00  0.00    -0.348 N 
ATOM      4  H   UNL     1      39.850  20.278  78.923  1.00  0.00     0.345 HD
ATOM      5  H   UNL     1      39.824  18.695  78.318  1.00  0.00     0.345 HD
ATOM      6  H   UNL     1      40.893  19.104  79.581  1.00  0.00     0.345 HD
ENDBRANCH   2   3
BRANCH   2   7
ATOM      7  C   UNL     1      38.048  20.113  80.500  1.00  0.00     0.102 C 
ATOM      8  O   UNL     1      37.405  20.154  81.582  1.00  0.00    -0.544 OA
ATOM      9  O   UNL     1      38.005  21.200  79.636  1.00  0.00    -0.544 OA
ENDBRANCH   2   7
ENDBRANCH   1   2
BRANCH   1  10
ATOM     10  O   UNL     1      38.768  16.906  78.813  1.00  0.00    -0.390 OA
ATOM     11  H   UNL     1      38.741  17.309  77.907  1.00  0.00     0.210 HD
ENDBRANCH   1  10
TORSDOF 4
ENDMDL
MODEL 4
REMARK VINA RESULT:    -2.821     19.683     20.355
REMARK INTER + INTRA:          -3.668
REMARK INTER:                  -3.274
REMARK INTRA:                  -0.394
REMARK UNBOUND:                -0.353
REMARK SMILES [NH3+][C@H](CO)C(=O)[O-]
REMARK SMILES IDX 3 1 2 2 1 3 5 7 6 8 7 9 4 10
REMARK H PARENT 1 4 1 5 1 6 4 11
REMARK Flexibility Score: inf
ROOT
ATOM      1  C   UNL     1      46.113  16.995  76.432  1.00  0.00     0.227 C 
ENDROOT
BRANCH   1   2
ATOM      2  C   UNL     1      46.149  18.402  77.054  1.00  0.00     0.253 C 
BRANCH   2   3
ATOM      3  N   UNL     1      47.176  18.495  78.099  1.00  0.00    -0.348 N 
ATOM      4  H   UNL     1      46.891  17.922  78.926  1.00  0.00     0.345 HD
ATOM      5  H   UNL     1      47.273  19.491  78.409  1.00  0.00     0.345 HD
ATOM      6  H   UNL     1      48.100  18.154  77.750  1.00  0.00     0.345 HD
ENDBRANCH   2   3
BRANCH   2   7
ATOM      7  C   UNL     1      46.359  19.451  75.993  1.00  0.00     0.102 C 
ATOM      8  O   UNL     1      47.506  19.922  75.776  1.00  0.00    -0.544 OA
ATOM      9  O   UNL     1      45.286  19.877  75.221  1.00  0.00    -0.544 OA
ENDBRANCH   2   7
ENDBRANCH   1   2
BRANCH   1  10
ATOM     10  O   UNL     1      46.349  17.057  75.051  1.00  0.00    -0.390 OA
ATOM     11  H   UNL     1      46.750  17.948  74.880  1.00  0.00     0.210 HD
ENDBRANCH   1  10
TORSDOF 4
ENDMDL
MODEL 5
REMARK VINA RESULT:    -2.687     20.730     21.520
REMARK INTER + INTRA:          -3.511
REMARK INTER:                  -3.277
REMARK INTRA:                  -0.234
REMARK UNBOUND:                -0.353
REMARK SMILES [NH3+][C@H](CO)C(=O)[O-]
REMARK SMILES IDX 3 1 2 2 1 3 5 7 6 8 7 9 4 10
REMARK H PARENT 1 4 1 5 1 6 4 11
REMARK Flexibility Score: inf
ROOT
ATOM      1  C   UNL     1      47.122  20.282  73.333  1.00  0.00     0.227 C 
ENDROOT
BRANCH   1   2
ATOM      2  C   UNL     1      46.331  19.036  73.766  1.00  0.00     0.253 C 
BRANCH   2   3
ATOM      3  N   UNL     1      46.760  17.847  73.019  1.00  0.00    -0.348 N 
ATOM      4  H   UNL     1      46.521  16.984  73.561  1.00  0.00     0.345 HD
ATOM      5  H   UNL     1      47.798  17.871  72.883  1.00  0.00     0.345 HD
ATOM      6  H   UNL     1      46.293  17.801  72.084  1.00  0.00     0.345 HD
ENDBRANCH   2   3
BRANCH   2   7
ATOM      7  C   UNL     1      46.450  18.814  75.251  1.00  0.00     0.102 C 
ATOM      8  O   UNL     1      46.154  17.700  75.759  1.00  0.00    -0.544 OA
ATOM      9  O   UNL     1      46.926  19.833  76.066  1.00  0.00    -0.544 OA
ENDBRANCH   2   7
ENDBRANCH   1   2
BRANCH   1  10
ATOM     10  O   UNL     1      48.487  20.124  73.612  1.00  0.00    -0.390 OA
ATOM     11  H   UNL     1      48.861  19.592  72.862  1.00  0.00     0.210 HD
ENDBRANCH   1  10
TORSDOF 4
ENDMDL
MODEL 6
REMARK VINA RESULT:    -2.592     17.329     17.870
REMARK INTER + INTRA:          -3.400
REMARK INTER:                  -3.186
REMARK INTRA:                  -0.214
REMARK UNBOUND:                -0.353
REMARK SMILES [NH3+][C@H](CO)C(=O)[O-]
REMARK SMILES IDX 3 1 2 2 1 3 5 7 6 8 7 9 4 10
REMARK H PARENT 1 4 1 5 1 6 4 11
REMARK Flexibility Score: inf
ROOT
ATOM      1  C   UNL     1      37.432  19.215  80.328  1.00  0.00     0.227 C 
ENDROOT
BRANCH   1   2
ATOM      2  C   UNL     1      38.857  18.736  80.001  1.00  0.00     0.253 C 
BRANCH   2   3
ATOM      3  N   UNL     1      38.843  17.681  78.980  1.00  0.00    -0.348 N 
ATOM      4  H   UNL     1      39.813  17.317  78.836  1.00  0.00     0.345 HD
ATOM      5  H   UNL     1      38.503  18.074  78.071  1.00  0.00     0.345 HD
ATOM      6  H   UNL     1      38.221  16.890  79.265  1.00  0.00     0.345 HD
ENDBRANCH   2   3
BRANCH   2   7
ATOM      7  C   UNL     1      39.726  19.891  79.574  1.00  0.00     0.102 C 
ATOM      8  O   UNL     1      40.578  19.748  78.658  1.00  0.00    -0.544 OA
ATOM      9  O   UNL     1      39.561  21.136  80.167  1.00  0.00    -0.544 OA
ENDBRANCH   2   7
ENDBRANCH   1   2
BRANCH   1  10
ATOM     10  O   UNL     1      37.346  19.643  81.660  1.00  0.00    -0.390 OA
ATOM     11  H   UNL     1      38.278  19.685  81.997  1.00  0.00     0.210 HD
ENDBRANCH   1  10
TORSDOF 4
ENDMDL
MODEL 7
REMARK VINA RESULT:    -2.591      9.562     10.371
REMARK INTER + INTRA:          -3.398
REMARK INTER:                  -3.386
REMARK INTRA:                  -0.012
REMARK UNBOUND:                -0.353
REMARK SMILES [NH3+][C@H](CO)C(=O)[O-]
REMARK SMILES IDX 3 1 2 2 1 3 5 7 6 8 7 9 4 10
REMARK H PARENT 1 4 1 5 1 6 4 11
REMARK Flexibility Score: inf
ROOT
ATOM      1  C   UNL     1      54.083  34.620  87.815  1.00  0.00     0.227 C 
ENDROOT
BRANCH   1   2
ATOM      2  C   UNL     1      53.056  35.439  87.014  1.00  0.00     0.253 C 
BRANCH   2   3
ATOM      3  N   UNL     1      53.332  35.376  85.573  1.00  0.00    -0.348 N 
ATOM      4  H   UNL     1      52.505  34.977  85.073  1.00  0.00     0.345 HD
ATOM      5  H   UNL     1      54.153  34.750  85.398  1.00  0.00     0.345 HD
ATOM      6  H   UNL     1      53.539  36.326  85.188  1.00  0.00     0.345 HD
ENDBRANCH   2   3
BRANCH   2   7
ATOM      7  C   UNL     1      51.653  34.982  87.317  1.00  0.00     0.102 C 
ATOM      8  O   UNL     1      51.441  33.839  87.802  1.00  0.00    -0.544 OA
ATOM      9  O   UNL     1      50.584  35.842  87.097  1.00  0.00    -0.544 OA
ENDBRANCH   2   7
ENDBRANCH   1   2
BRANCH   1  10
ATOM     10  O   UNL     1      55.336  34.645  87.187  1.00  0.00    -0.390 OA
ATOM     11  H   UNL     1      55.958  34.166  87.795  1.00  0.00     0.210 HD
ENDBRANCH   1  10
TORSDOF 4
ENDMDL
MODEL 8
REMARK VINA RESULT:    -2.590     18.470     19.393
REMARK INTER + INTRA:          -3.397
REMARK INTER:                  -3.037
REMARK INTRA:                  -0.360
REMARK UNBOUND:                -0.353
REMARK SMILES [NH3+][C@H](CO)C(=O)[O-]
REMARK SMILES IDX 3 1 2 2 1 3 5 7 6 8 7 9 4 10
REMARK H PARENT 1 4 1 5 1 6 4 11
REMARK Flexibility Score: inf
ROOT
ATOM      1  C   UNL     1      45.742  20.113  78.142  1.00  0.00     0.227 C 
ENDROOT
BRANCH   1   2
ATOM      2  C   UNL     1      46.826  19.242  77.482  1.00  0.00     0.253 C 
BRANCH   2   3
ATOM      3  N   UNL     1      47.551  18.448  78.481  1.00  0.00    -0.348 N 
ATOM      4  H   UNL     1      47.407  17.429  78.295  1.00  0.00     0.345 HD
ATOM      5  H   UNL     1      47.182  18.661  79.438  1.00  0.00     0.345 HD
ATOM      6  H   UNL     1      48.576  18.657  78.456  1.00  0.00     0.345 HD
ENDBRANCH   2   3
BRANCH   2   7
ATOM      7  C   UNL     1      46.229  18.359  76.418  1.00  0.00     0.102 C 
ATOM      8  O   UNL     1      46.047  18.795  75.250  1.00  0.00    -0.544 OA
ATOM      9  O   UNL     1      45.912  17.039  76.713  1.00  0.00    -0.544 OA
ENDBRANCH   2   7
ENDBRANCH   1   2
BRANCH   1  10
ATOM     10  O   UNL     1      44.464  19.605  77.869  1.00  0.00    -0.390 OA
ATOM     11  H   UNL     1      44.440  18.694  78.261  1.00  0.00     0.210 HD
ENDBRANCH   1  10
TORSDOF 4
ENDMDL
MODEL 9
REMARK VINA RESULT:    -2.492      8.640      8.984
REMARK INTER + INTRA:          -3.282
REMARK INTER:                  -2.900
REMARK INTRA:                  -0.382
REMARK UNBOUND:                -0.353
REMARK SMILES [NH3+][C@H](CO)C(=O)[O-]
REMARK SMILES IDX 3 1 2 2 1 3 5 7 6 8 7 9 4 10
REMARK H PARENT 1 4 1 5 1 6 4 11
REMARK Flexibility Score: inf
ROOT
ATOM      1  C   UNL     1      49.495  35.743  86.854  1.00  0.00     0.227 C 
ENDROOT
BRANCH   1   2
ATOM      2  C   UNL     1      49.328  34.755  85.687  1.00  0.00     0.253 C 
BRANCH   2   3
ATOM      3  N   UNL     1      48.626  35.379  84.557  1.00  0.00    -0.348 N 
ATOM      4  H   UNL     1      47.633  35.571  84.822  1.00  0.00     0.345 HD
ATOM      5  H   UNL     1      48.626  34.726  83.739  1.00  0.00     0.345 HD
ATOM      6  H   UNL     1      49.085  36.277  84.279  1.00  0.00     0.345 HD
ENDBRANCH   2   3
BRANCH   2   7
ATOM      7  C   UNL     1      50.662  34.203  85.257  1.00  0.00     0.102 C 
ATOM      8  O   UNL     1      51.223  34.625  84.211  1.00  0.00    -0.544 OA
ATOM      9  O   UNL     1      51.299  33.249  86.039  1.00  0.00    -0.544 OA
ENDBRANCH   2   7
ENDBRANCH   1   2
BRANCH   1  10
ATOM     10  O   UNL     1      50.837  36.125  86.993  1.00  0.00    -0.390 OA
ATOM     11  H   UNL     1      50.842  36.883  87.633  1.00  0.00     0.210 HD
ENDBRANCH   1  10
TORSDOF 4
ENDMDL
