MODEL 1
REMARK VINA RESULT:    -3.770      0.000      0.000
REMARK INTER + INTRA:          -6.306
REMARK INTER:                  -5.423
REMARK INTRA:                  -0.883
REMARK UNBOUND:                -0.883
REMARK SMILES O=C(CO)[C@H](O)[C@H](O)[C@@H](O)CO
REMARK SMILES IDX 7 1 9 2 11 3 12 4 10 6 5 8 2 9 1 10 3 11 4 12 6 14 8 16
REMARK H PARENT 12 5 10 7 4 13 6 15 8 17
REMARK Flexibility Score: inf
ROOT
ATOM      1  C   UNL     1     -33.119  -7.339 -31.019  1.00  0.00     0.181 C 
ENDROOT
BRANCH   1   2
ATOM      2  C   UNL     1     -33.059  -8.865 -30.751  1.00  0.00     0.171 C 
BRANCH   2   3
ATOM      3  C   UNL     1     -31.637  -9.325 -30.379  1.00  0.00     0.190 C 
BRANCH   3   4
ATOM      4  O   UNL     1     -30.997  -9.920 -31.476  1.00  0.00    -0.394 OA
ATOM      5  H   UNL     1     -30.021  -9.842 -31.312  1.00  0.00     0.210 HD
ENDBRANCH   3   4
ENDBRANCH   2   3
BRANCH   2   6
ATOM      6  O   UNL     1     -33.495  -9.567 -31.887  1.00  0.00    -0.388 OA
ATOM      7  H   UNL     1     -34.448  -9.325 -32.028  1.00  0.00     0.211 HD
ENDBRANCH   2   6
ENDBRANCH   1   2
BRANCH   1   8
ATOM      8  C   UNL     1     -34.199  -6.963 -32.065  1.00  0.00     0.214 C 
BRANCH   8   9
ATOM      9  C   UNL     1     -34.195  -5.467 -32.310  1.00  0.00     0.189 C 
ATOM     10  O   UNL     1     -33.821  -4.726 -31.413  1.00  0.00    -0.294 OA
BRANCH   9  11
ATOM     11  C   UNL     1     -34.626  -4.839 -33.615  1.00  0.00     0.234 C 
BRANCH  11  12
ATOM     12  O   UNL     1     -35.767  -5.449 -34.155  1.00  0.00    -0.388 OA
ATOM     13  H   UNL     1     -35.509  -6.379 -34.387  1.00  0.00     0.211 HD
ENDBRANCH  11  12
ENDBRANCH   9  11
ENDBRANCH   8   9
BRANCH   8  14
ATOM     14  O   UNL     1     -35.473  -7.329 -31.597  1.00  0.00    -0.382 OA
ATOM     15  H   UNL     1     -35.542  -7.028 -30.654  1.00  0.00     0.211 HD
ENDBRANCH   8  14
ENDBRANCH   1   8
BRANCH   1  16
ATOM     16  O   UNL     1     -31.857  -6.852 -31.409  1.00  0.00    -0.387 OA
ATOM     17  H   UNL     1     -31.222  -7.616 -31.403  1.00  0.00     0.211 HD
ENDBRANCH   1  16
TORSDOF 10
ENDMDL
MODEL 2
REMARK VINA RESULT:    -3.766     14.769     16.358
REMARK INTER + INTRA:          -6.300
REMARK INTER:                  -5.389
REMARK INTRA:                  -0.911
REMARK UNBOUND:                -0.883
REMARK SMILES O=C(CO)[C@H](O)[C@H](O)[C@@H](O)CO
REMARK SMILES IDX 7 1 9 2 11 3 12 4 10 6 5 8 2 9 1 10 3 11 4 12 6 14 8 16
REMARK H PARENT 12 5 10 7 4 13 6 15 8 17
REMARK Flexibility Score: inf
ROOT
ATOM      1  C   UNL     1     -24.216   6.624 -30.629  1.00  0.00     0.181 C 
ENDROOT
BRANCH   1   2
ATOM      2  C   UNL     1     -24.902   7.343 -29.440  1.00  0.00     0.171 C 
BRANCH   2   3
ATOM      3  C   UNL     1     -24.788   6.529 -28.137  1.00  0.00     0.190 C 
BRANCH   3   4
ATOM      4  O   UNL     1     -23.475   6.552 -27.643  1.00  0.00    -0.394 OA
ATOM      5  H   UNL     1     -23.219   7.507 -27.562  1.00  0.00     0.210 HD
ENDBRANCH   3   4
ENDBRANCH   2   3
BRANCH   2   6
ATOM      6  O   UNL     1     -26.257   7.567 -29.734  1.00  0.00    -0.388 OA
ATOM      7  H   UNL     1     -26.554   8.328 -29.169  1.00  0.00     0.211 HD
ENDBRANCH   2   6
ENDBRANCH   1   2
BRANCH   1   8
ATOM      8  C   UNL     1     -24.924   5.298 -31.009  1.00  0.00     0.214 C 
BRANCH   8   9
ATOM      9  C   UNL     1     -24.012   4.440 -31.862  1.00  0.00     0.189 C 
ATOM     10  O   UNL     1     -23.682   4.851 -32.965  1.00  0.00    -0.294 OA
BRANCH   9  11
ATOM     11  C   UNL     1     -23.481   3.096 -31.418  1.00  0.00     0.234 C 
BRANCH  11  12
ATOM     12  O   UNL     1     -22.290   3.204 -30.686  1.00  0.00    -0.388 OA
ATOM     13  H   UNL     1     -21.572   2.819 -31.254  1.00  0.00     0.211 HD
ENDBRANCH  11  12
ENDBRANCH   9  11
ENDBRANCH   8   9
BRANCH   8  14
ATOM     14  O   UNL     1     -26.091   5.567 -31.746  1.00  0.00    -0.382 OA
ATOM     15  H   UNL     1     -25.822   6.075 -32.555  1.00  0.00     0.211 HD
ENDBRANCH   8  14
ENDBRANCH   1   8
BRANCH   1  16
ATOM     16  O   UNL     1     -22.853   6.399 -30.357  1.00  0.00    -0.387 OA
ATOM     17  H   UNL     1     -22.652   6.799 -29.471  1.00  0.00     0.211 HD
ENDBRANCH   1  16
TORSDOF 10
ENDMDL
MODEL 3
REMARK VINA RESULT:    -3.640     14.120     15.219
REMARK INTER + INTRA:          -6.118
REMARK INTER:                  -5.360
REMARK INTRA:                  -0.758
REMARK UNBOUND:                -0.883
REMARK SMILES O=C(CO)[C@H](O)[C@H](O)[C@@H](O)CO
REMARK SMILES IDX 7 1 9 2 11 3 12 4 10 6 5 8 2 9 1 10 3 11 4 12 6 14 8 16
REMARK H PARENT 12 5 10 7 4 13 6 15 8 17
REMARK Flexibility Score: inf
ROOT
ATOM      1  C   UNL     1     -23.261   2.831 -32.503  1.00  0.00     0.181 C 
ENDROOT
BRANCH   1   2
ATOM      2  C   UNL     1     -22.480   1.580 -32.027  1.00  0.00     0.171 C 
BRANCH   2   3
ATOM      3  C   UNL     1     -20.964   1.730 -32.257  1.00  0.00     0.190 C 
BRANCH   3   4
ATOM      4  O   UNL     1     -20.348   2.350 -31.160  1.00  0.00    -0.394 OA
ATOM      5  H   UNL     1     -20.013   1.623 -30.574  1.00  0.00     0.210 HD
ENDBRANCH   3   4
ENDBRANCH   2   3
BRANCH   2   6
ATOM      6  O   UNL     1     -22.945   0.440 -32.704  1.00  0.00    -0.388 OA
ATOM      7  H   UNL     1     -22.942   0.658 -33.673  1.00  0.00     0.211 HD
ENDBRANCH   2   6
ENDBRANCH   1   2
BRANCH   1   8
ATOM      8  C   UNL     1     -23.759   3.704 -31.323  1.00  0.00     0.214 C 
BRANCH   8   9
ATOM      9  C   UNL     1     -23.986   5.130 -31.783  1.00  0.00     0.189 C 
ATOM     10  O   UNL     1     -24.039   5.360 -32.982  1.00  0.00    -0.294 OA
BRANCH   9  11
ATOM     11  C   UNL     1     -24.156   6.292 -30.831  1.00  0.00     0.234 C 
BRANCH  11  12
ATOM     12  O   UNL     1     -22.964   6.630 -30.176  1.00  0.00    -0.388 OA
ATOM     13  H   UNL     1     -22.224   6.400 -30.797  1.00  0.00     0.211 HD
ENDBRANCH  11  12
ENDBRANCH   9  11
ENDBRANCH   8   9
BRANCH   8  14
ATOM     14  O   UNL     1     -22.801   3.720 -30.295  1.00  0.00    -0.382 OA
ATOM     15  H   UNL     1     -22.608   4.669 -30.082  1.00  0.00     0.211 HD
ENDBRANCH   8  14
ENDBRANCH   1   8
BRANCH   1  16
ATOM     16  O   UNL     1     -24.334   2.462 -33.337  1.00  0.00    -0.387 OA
ATOM     17  H   UNL     1     -24.807   3.292 -33.606  1.00  0.00     0.211 HD
ENDBRANCH   1  16
TORSDOF 10
ENDMDL
MODEL 4
REMARK VINA RESULT:    -3.628     13.751     14.740
REMARK INTER + INTRA:          -6.102
REMARK INTER:                  -5.277
REMARK INTRA:                  -0.825
REMARK UNBOUND:                -0.883
REMARK SMILES O=C(CO)[C@H](O)[C@H](O)[C@@H](O)CO
REMARK SMILES IDX 7 1 9 2 11 3 12 4 10 6 5 8 2 9 1 10 3 11 4 12 6 14 8 16
REMARK H PARENT 12 5 10 7 4 13 6 15 8 17
REMARK Flexibility Score: inf
ROOT
ATOM      1  C   UNL     1     -22.386   1.216 -31.230  1.00  0.00     0.181 C 
ENDROOT
BRANCH   1   2
ATOM      2  C   UNL     1     -21.127   1.657 -32.018  1.00  0.00     0.171 C 
BRANCH   2   3
ATOM      3  C   UNL     1     -20.355   0.451 -32.584  1.00  0.00     0.190 C 
BRANCH   3   4
ATOM      4  O   UNL     1     -19.498  -0.097 -31.617  1.00  0.00    -0.394 OA
ATOM      5  H   UNL     1     -19.692  -1.070 -31.585  1.00  0.00     0.210 HD
ENDBRANCH   3   4
ENDBRANCH   2   3
BRANCH   2   6
ATOM      6  O   UNL     1     -20.280   2.406 -31.185  1.00  0.00    -0.388 OA
ATOM      7  H   UNL     1     -20.863   2.949 -30.593  1.00  0.00     0.211 HD
ENDBRANCH   2   6
ENDBRANCH   1   2
BRANCH   1   8
ATOM      8  C   UNL     1     -23.369   2.388 -30.976  1.00  0.00     0.214 C 
BRANCH   8   9
ATOM      9  C   UNL     1     -24.145   2.707 -32.237  1.00  0.00     0.189 C 
ATOM     10  O   UNL     1     -24.818   1.825 -32.751  1.00  0.00    -0.294 OA
BRANCH   9  11
ATOM     11  C   UNL     1     -24.137   4.066 -32.896  1.00  0.00     0.234 C 
BRANCH  11  12
ATOM     12  O   UNL     1     -22.899   4.375 -33.477  1.00  0.00    -0.388 OA
ATOM     13  H   UNL     1     -22.647   3.596 -34.039  1.00  0.00     0.211 HD
ENDBRANCH  11  12
ENDBRANCH   9  11
ENDBRANCH   8   9
BRANCH   8  14
ATOM     14  O   UNL     1     -22.658   3.539 -30.593  1.00  0.00    -0.382 OA
ATOM     15  H   UNL     1     -22.865   3.714 -29.638  1.00  0.00     0.211 HD
ENDBRANCH   8  14
ENDBRANCH   1   8
BRANCH   1  16
ATOM     16  O   UNL     1     -22.024   0.599 -30.017  1.00  0.00    -0.387 OA
ATOM     17  H   UNL     1     -21.057   0.769 -29.868  1.00  0.00     0.211 HD
ENDBRANCH   1  16
TORSDOF 10
ENDMDL
MODEL 5
REMARK VINA RESULT:    -3.622     14.321     15.517
REMARK INTER + INTRA:          -6.093
REMARK INTER:                  -5.165
REMARK INTRA:                  -0.929
REMARK UNBOUND:                -0.883
REMARK SMILES O=C(CO)[C@H](O)[C@H](O)[C@@H](O)CO
REMARK SMILES IDX 7 1 9 2 11 3 12 4 10 6 5 8 2 9 1 10 3 11 4 12 6 14 8 16
REMARK H PARENT 12 5 10 7 4 13 6 15 8 17
REMARK Flexibility Score: inf
ROOT
ATOM      1  C   UNL     1     -21.676   0.688 -32.350  1.00  0.00     0.181 C 
ENDROOT
BRANCH   1   2
ATOM      2  C   UNL     1     -21.767   1.655 -31.142  1.00  0.00     0.171 C 
BRANCH   2   3
ATOM      3  C   UNL     1     -23.011   2.559 -31.225  1.00  0.00     0.190 C 
BRANCH   3   4
ATOM      4  O   UNL     1     -22.800   3.627 -32.110  1.00  0.00    -0.394 OA
ATOM      5  H   UNL     1     -21.860   3.555 -32.422  1.00  0.00     0.210 HD
ENDBRANCH   3   4
ENDBRANCH   2   3
BRANCH   2   6
ATOM      6  O   UNL     1     -20.612   2.453 -31.081  1.00  0.00    -0.388 OA
ATOM      7  H   UNL     1     -19.877   1.930 -31.495  1.00  0.00     0.211 HD
ENDBRANCH   2   6
ENDBRANCH   1   2
BRANCH   1   8
ATOM      8  C   UNL     1     -20.211   0.377 -32.752  1.00  0.00     0.214 C 
BRANCH   8   9
ATOM      9  C   UNL     1     -20.176  -0.699 -33.819  1.00  0.00     0.189 C 
ATOM     10  O   UNL     1     -20.338  -0.374 -34.986  1.00  0.00    -0.294 OA
BRANCH   9  11
ATOM     11  C   UNL     1     -19.944  -2.161 -33.516  1.00  0.00     0.234 C 
BRANCH  11  12
ATOM     12  O   UNL     1     -18.735  -2.385 -32.842  1.00  0.00    -0.388 OA
ATOM     13  H   UNL     1     -18.074  -2.664 -33.528  1.00  0.00     0.211 HD
ENDBRANCH  11  12
ENDBRANCH   9  11
ENDBRANCH   8   9
BRANCH   8  14
ATOM     14  O   UNL     1     -19.492  -0.085 -31.636  1.00  0.00    -0.382 OA
ATOM     15  H   UNL     1     -20.095  -0.031 -30.850  1.00  0.00     0.211 HD
ENDBRANCH   8  14
ENDBRANCH   1   8
BRANCH   1  16
ATOM     16  O   UNL     1     -22.396   1.194 -33.449  1.00  0.00    -0.387 OA
ATOM     17  H   UNL     1     -22.427   0.484 -34.143  1.00  0.00     0.211 HD
ENDBRANCH   1  16
TORSDOF 10
ENDMDL
MODEL 6
REMARK VINA RESULT:    -3.601      1.786      3.074
REMARK INTER + INTRA:          -6.063
REMARK INTER:                  -4.854
REMARK INTRA:                  -1.209
REMARK UNBOUND:                -0.883
REMARK SMILES O=C(CO)[C@H](O)[C@H](O)[C@@H](O)CO
REMARK SMILES IDX 7 1 9 2 11 3 12 4 10 6 5 8 2 9 1 10 3 11 4 12 6 14 8 16
REMARK H PARENT 12 5 10 7 4 13 6 15 8 17
REMARK Flexibility Score: inf
ROOT
ATOM      1  C   UNL     1     -34.966  -5.390 -31.773  1.00  0.00     0.181 C 
ENDROOT
BRANCH   1   2
ATOM      2  C   UNL     1     -35.102  -6.819 -31.186  1.00  0.00     0.171 C 
BRANCH   2   3
ATOM      3  C   UNL     1     -33.781  -7.604 -31.281  1.00  0.00     0.190 C 
BRANCH   3   4
ATOM      4  O   UNL     1     -32.778  -6.998 -30.509  1.00  0.00    -0.394 OA
ATOM      5  H   UNL     1     -32.500  -6.180 -30.996  1.00  0.00     0.210 HD
ENDBRANCH   3   4
ENDBRANCH   2   3
BRANCH   2   6
ATOM      6  O   UNL     1     -36.113  -7.519 -31.864  1.00  0.00    -0.388 OA
ATOM      7  H   UNL     1     -35.843  -7.564 -32.819  1.00  0.00     0.211 HD
ENDBRANCH   2   6
ENDBRANCH   1   2
BRANCH   1   8
ATOM      8  C   UNL     1     -34.418  -5.395 -33.223  1.00  0.00     0.214 C 
BRANCH   8   9
ATOM      9  C   UNL     1     -33.505  -4.205 -33.444  1.00  0.00     0.189 C 
ATOM     10  O   UNL     1     -34.006  -3.102 -33.601  1.00  0.00    -0.294 OA
BRANCH   9  11
ATOM     11  C   UNL     1     -31.998  -4.310 -33.477  1.00  0.00     0.234 C 
BRANCH  11  12
ATOM     12  O   UNL     1     -31.479  -4.951 -32.343  1.00  0.00    -0.388 OA
ATOM     13  H   UNL     1     -30.541  -4.638 -32.244  1.00  0.00     0.211 HD
ENDBRANCH  11  12
ENDBRANCH   9  11
ENDBRANCH   8   9
BRANCH   8  14
ATOM     14  O   UNL     1     -35.480  -5.311 -34.141  1.00  0.00    -0.382 OA
ATOM     15  H   UNL     1     -35.502  -6.164 -34.648  1.00  0.00     0.211 HD
ENDBRANCH   8  14
ENDBRANCH   1   8
BRANCH   1  16
ATOM     16  O   UNL     1     -34.165  -4.583 -30.941  1.00  0.00    -0.387 OA
ATOM     17  H   UNL     1     -34.772  -4.051 -30.363  1.00  0.00     0.211 HD
ENDBRANCH   1  16
TORSDOF 10
ENDMDL
MODEL 7
REMARK VINA RESULT:    -3.594     14.440     15.859
REMARK INTER + INTRA:          -6.053
REMARK INTER:                  -5.134
REMARK INTRA:                  -0.919
REMARK UNBOUND:                -0.883
REMARK SMILES O=C(CO)[C@H](O)[C@H](O)[C@@H](O)CO
REMARK SMILES IDX 7 1 9 2 11 3 12 4 10 6 5 8 2 9 1 10 3 11 4 12 6 14 8 16
REMARK H PARENT 12 5 10 7 4 13 6 15 8 17
REMARK Flexibility Score: inf
ROOT
ATOM      1  C   UNL     1     -24.479   5.939 -31.636  1.00  0.00     0.181 C 
ENDROOT
BRANCH   1   2
ATOM      2  C   UNL     1     -24.194   5.198 -32.968  1.00  0.00     0.171 C 
BRANCH   2   3
ATOM      3  C   UNL     1     -25.457   4.510 -33.520  1.00  0.00     0.190 C 
BRANCH   3   4
ATOM      4  O   UNL     1     -26.379   5.455 -33.993  1.00  0.00    -0.394 OA
ATOM      5  H   UNL     1     -25.850   6.188 -34.401  1.00  0.00     0.210 HD
ENDBRANCH   3   4
ENDBRANCH   2   3
BRANCH   2   6
ATOM      6  O   UNL     1     -23.186   4.239 -32.774  1.00  0.00    -0.388 OA
ATOM      7  H   UNL     1     -22.663   4.526 -31.980  1.00  0.00     0.211 HD
ENDBRANCH   2   6
ENDBRANCH   1   2
BRANCH   1   8
ATOM      8  C   UNL     1     -23.429   5.617 -30.542  1.00  0.00     0.214 C 
BRANCH   8   9
ATOM      9  C   UNL     1     -24.052   4.777 -29.446  1.00  0.00     0.189 C 
ATOM     10  O   UNL     1     -24.671   5.340 -28.554  1.00  0.00    -0.294 OA
BRANCH   9  11
ATOM     11  C   UNL     1     -23.954   3.270 -29.397  1.00  0.00     0.234 C 
BRANCH  11  12
ATOM     12  O   UNL     1     -22.918   2.772 -30.200  1.00  0.00    -0.388 OA
ATOM     13  H   UNL     1     -22.405   2.135 -29.638  1.00  0.00     0.211 HD
ENDBRANCH  11  12
ENDBRANCH   9  11
ENDBRANCH   8   9
BRANCH   8  14
ATOM     14  O   UNL     1     -22.951   6.807 -29.966  1.00  0.00    -0.382 OA
ATOM     15  H   UNL     1     -23.736   7.385 -29.779  1.00  0.00     0.211 HD
ENDBRANCH   8  14
ENDBRANCH   1   8
BRANCH   1  16
ATOM     16  O   UNL     1     -25.779   5.657 -31.176  1.00  0.00    -0.387 OA
ATOM     17  H   UNL     1     -25.975   4.706 -31.388  1.00  0.00     0.211 HD
ENDBRANCH   1  16
TORSDOF 10
ENDMDL
MODEL 8
REMARK VINA RESULT:    -3.576      1.080      4.510
REMARK INTER + INTRA:          -6.026
REMARK INTER:                  -5.285
REMARK INTRA:                  -0.741
REMARK UNBOUND:                -0.883
REMARK SMILES O=C(CO)[C@H](O)[C@H](O)[C@@H](O)CO
REMARK SMILES IDX 7 1 9 2 11 3 12 4 10 6 5 8 2 9 1 10 3 11 4 12 6 14 8 16
REMARK H PARENT 12 5 10 7 4 13 6 15 8 17
REMARK Flexibility Score: inf
ROOT
ATOM      1  C   UNL     1     -33.080  -5.727 -31.655  1.00  0.00     0.181 C 
ENDROOT
BRANCH   1   2
ATOM      2  C   UNL     1     -34.217  -4.760 -32.074  1.00  0.00     0.171 C 
BRANCH   2   3
ATOM      3  C   UNL     1     -34.226  -4.514 -33.594  1.00  0.00     0.190 C 
BRANCH   3   4
ATOM      4  O   UNL     1     -34.972  -5.498 -34.259  1.00  0.00    -0.394 OA
ATOM      5  H   UNL     1     -35.250  -6.157 -33.572  1.00  0.00     0.210 HD
ENDBRANCH   3   4
ENDBRANCH   2   3
BRANCH   2   6
ATOM      6  O   UNL     1     -34.074  -3.535 -31.402  1.00  0.00    -0.388 OA
ATOM      7  H   UNL     1     -33.646  -3.733 -30.528  1.00  0.00     0.211 HD
ENDBRANCH   2   6
ENDBRANCH   1   2
BRANCH   1   8
ATOM      8  C   UNL     1     -33.618  -7.069 -31.096  1.00  0.00     0.214 C 
BRANCH   8   9
ATOM      9  C   UNL     1     -32.503  -8.093 -31.023  1.00  0.00     0.189 C 
ATOM     10  O   UNL     1     -31.347  -7.713 -31.142  1.00  0.00    -0.294 OA
BRANCH   9  11
ATOM     11  C   UNL     1     -32.744  -9.569 -30.805  1.00  0.00     0.234 C 
BRANCH  11  12
ATOM     12  O   UNL     1     -33.099 -10.237 -31.986  1.00  0.00    -0.388 OA
ATOM     13  H   UNL     1     -32.283 -10.707 -32.301  1.00  0.00     0.211 HD
ENDBRANCH  11  12
ENDBRANCH   9  11
ENDBRANCH   8   9
BRANCH   8  14
ATOM     14  O   UNL     1     -34.624  -7.574 -31.938  1.00  0.00    -0.382 OA
ATOM     15  H   UNL     1     -34.178  -8.071 -32.672  1.00  0.00     0.211 HD
ENDBRANCH   8  14
ENDBRANCH   1   8
BRANCH   1  16
ATOM     16  O   UNL     1     -32.219  -5.111 -30.725  1.00  0.00    -0.387 OA
ATOM     17  H   UNL     1     -32.305  -4.129 -30.839  1.00  0.00     0.211 HD
ENDBRANCH   1  16
TORSDOF 10
ENDMDL
MODEL 9
REMARK VINA RESULT:    -3.495      2.378      4.689
REMARK INTER + INTRA:          -5.911
REMARK INTER:                  -4.556
REMARK INTRA:                  -1.355
REMARK UNBOUND:                -0.883
REMARK SMILES O=C(CO)[C@H](O)[C@H](O)[C@@H](O)CO
REMARK SMILES IDX 7 1 9 2 11 3 12 4 10 6 5 8 2 9 1 10 3 11 4 12 6 14 8 16
REMARK H PARENT 12 5 10 7 4 13 6 15 8 17
REMARK Flexibility Score: inf
ROOT
ATOM      1  C   UNL     1     -33.142  -4.597 -33.395  1.00  0.00     0.181 C 
ENDROOT
BRANCH   1   2
ATOM      2  C   UNL     1     -32.792  -3.104 -33.625  1.00  0.00     0.171 C 
BRANCH   2   3
ATOM      3  C   UNL     1     -32.045  -2.500 -32.421  1.00  0.00     0.190 C 
BRANCH   3   4
ATOM      4  O   UNL     1     -32.889  -2.393 -31.306  1.00  0.00    -0.394 OA
ATOM      5  H   UNL     1     -33.076  -3.318 -31.001  1.00  0.00     0.210 HD
ENDBRANCH   3   4
ENDBRANCH   2   3
BRANCH   2   6
ATOM      6  O   UNL     1     -33.965  -2.370 -33.863  1.00  0.00    -0.388 OA
ATOM      7  H   UNL     1     -34.031  -1.688 -33.144  1.00  0.00     0.211 HD
ENDBRANCH   2   6
ENDBRANCH   1   2
BRANCH   1   8
ATOM      8  C   UNL     1     -34.660  -4.824 -33.181  1.00  0.00     0.214 C 
BRANCH   8   9
ATOM      9  C   UNL     1     -34.925  -5.320 -31.773  1.00  0.00     0.189 C 
ATOM     10  O   UNL     1     -34.816  -4.534 -30.843  1.00  0.00    -0.294 OA
BRANCH   9  11
ATOM     11  C   UNL     1     -35.324  -6.742 -31.455  1.00  0.00     0.234 C 
BRANCH  11  12
ATOM     12  O   UNL     1     -34.350  -7.673 -31.844  1.00  0.00    -0.388 OA
ATOM     13  H   UNL     1     -33.469  -7.270 -31.628  1.00  0.00     0.211 HD
ENDBRANCH  11  12
ENDBRANCH   9  11
ENDBRANCH   8   9
BRANCH   8  14
ATOM     14  O   UNL     1     -35.136  -5.789 -34.085  1.00  0.00    -0.382 OA
ATOM     15  H   UNL     1     -35.475  -6.555 -33.552  1.00  0.00     0.211 HD
ENDBRANCH   8  14
ENDBRANCH   1   8
BRANCH   1  16
ATOM     16  O   UNL     1     -32.404  -5.122 -32.316  1.00  0.00    -0.387 OA
ATOM     17  H   UNL     1     -31.839  -5.859 -32.667  1.00  0.00     0.211 HD
ENDBRANCH   1  16
TORSDOF 10
ENDMDL
