MODEL 1
REMARK VINA RESULT:     7.138      0.000      0.000
REMARK INTER + INTRA:          12.364
REMARK INTER:                  13.398
REMARK INTRA:                  -1.034
REMARK UNBOUND:                -1.034
REMARK SMILES O=C([O-])CCCCCCCCCCCCCCC(=O)[O-]
REMARK SMILES IDX 10 1 9 2 8 3 7 4 6 5 5 6 4 7 2 8 1 9 3 10 11 11 12 12 13 13
REMARK SMILES IDX 14 14 15 15 16 16 17 17 18 18 19 19 20 20
REMARK H PARENT
REMARK Flexibility Score: inf
ROOT
ATOM      1  C   UNL     1      15.952  14.980 -12.783  1.00  0.00     0.000 C 
ENDROOT
BRANCH   1   2
ATOM      2  C   UNL     1      15.169  14.186 -11.723  1.00  0.00     0.000 C 
BRANCH   2   3
ATOM      3  C   UNL     1      14.460  15.098 -10.706  1.00  0.00     0.000 C 
BRANCH   3   4
ATOM      4  C   UNL     1      15.438  15.732  -9.704  1.00  0.00     0.000 C 
BRANCH   4   5
ATOM      5  C   UNL     1      15.386  15.065  -8.319  1.00  0.00     0.000 C 
BRANCH   5   6
ATOM      6  C   UNL     1      15.023  16.054  -7.196  1.00  0.00     0.006 C 
BRANCH   6   7
ATOM      7  C   UNL     1      13.515  16.317  -7.052  1.00  0.00     0.053 C 
BRANCH   7   8
ATOM      8  C   UNL     1      13.233  17.476  -6.146  1.00  0.00     0.041 C 
ATOM      9  O   UNL     1      12.335  17.390  -5.268  1.00  0.00    -0.550 OA
ATOM     10  O   UNL     1      13.940  18.662  -6.295  1.00  0.00    -0.550 OA
ENDBRANCH   7   8
ENDBRANCH   6   7
ENDBRANCH   5   6
ENDBRANCH   4   5
ENDBRANCH   3   4
ENDBRANCH   2   3
ENDBRANCH   1   2
BRANCH   1  11
ATOM     11  C   UNL     1      17.167  14.205 -13.321  1.00  0.00     0.000 C 
BRANCH  11  12
ATOM     12  C   UNL     1      18.453  15.050 -13.319  1.00  0.00     0.000 C 
BRANCH  12  13
ATOM     13  C   UNL     1      18.169  16.560 -13.236  1.00  0.00     0.000 C 
BRANCH  13  14
ATOM     14  C   UNL     1      19.035  17.265 -12.180  1.00  0.00     0.000 C 
BRANCH  14  15
ATOM     15  C   UNL     1      18.206  17.834 -11.015  1.00  0.00     0.000 C 
BRANCH  15  16
ATOM     16  C   UNL     1      18.015  19.356 -11.115  1.00  0.00     0.006 C 
BRANCH  16  17
ATOM     17  C   UNL     1      18.462  19.918 -12.470  1.00  0.00     0.053 C 
BRANCH  17  18
ATOM     18  C   UNL     1      19.658  20.801 -12.301  1.00  0.00     0.041 C 
ATOM     19  O   UNL     1      19.515  22.048 -12.200  1.00  0.00    -0.550 OA
ATOM     20  O   UNL     1      20.934  20.253 -12.305  1.00  0.00    -0.550 OA
ENDBRANCH  17  18
ENDBRANCH  16  17
ENDBRANCH  15  16
ENDBRANCH  14  15
ENDBRANCH  13  14
ENDBRANCH  12  13
ENDBRANCH  11  12
ENDBRANCH   1  11
TORSDOF 15
ENDMDL
MODEL 2
REMARK VINA RESULT:     7.172      0.183      6.957
REMARK INTER + INTRA:          12.428
REMARK INTER:                  13.439
REMARK INTRA:                  -1.010
REMARK UNBOUND:                -1.034
REMARK SMILES O=C([O-])CCCCCCCCCCCCCCC(=O)[O-]
REMARK SMILES IDX 10 1 9 2 8 3 7 4 6 5 5 6 4 7 2 8 1 9 3 10 11 11 12 12 13 13
REMARK SMILES IDX 14 14 15 15 16 16 17 17 18 18 19 19 20 20
REMARK H PARENT
REMARK Flexibility Score: inf
ROOT
ATOM      1  C   UNL     1      17.009  14.265 -13.342  1.00  0.00     0.000 C 
ENDROOT
BRANCH   1   2
ATOM      2  C   UNL     1      18.250  15.174 -13.347  1.00  0.00     0.000 C 
BRANCH   2   3
ATOM      3  C   UNL     1      17.918  16.629 -12.970  1.00  0.00     0.000 C 
BRANCH   3   4
ATOM      4  C   UNL     1      18.958  17.242 -12.018  1.00  0.00     0.000 C 
BRANCH   4   5
ATOM      5  C   UNL     1      18.315  18.061 -10.885  1.00  0.00     0.000 C 
BRANCH   5   6
ATOM      6  C   UNL     1      17.825  19.443 -11.354  1.00  0.00     0.006 C 
BRANCH   6   7
ATOM      7  C   UNL     1      18.494  19.944 -12.643  1.00  0.00     0.053 C 
BRANCH   7   8
ATOM      8  C   UNL     1      19.702  20.783 -12.358  1.00  0.00     0.041 C 
ATOM      9  O   UNL     1      19.574  22.005 -12.084  1.00  0.00    -0.550 OA
ATOM     10  O   UNL     1      20.970  20.222 -12.428  1.00  0.00    -0.550 OA
ENDBRANCH   7   8
ENDBRANCH   6   7
ENDBRANCH   5   6
ENDBRANCH   4   5
ENDBRANCH   3   4
ENDBRANCH   2   3
ENDBRANCH   1   2
BRANCH   1  11
ATOM     11  C   UNL     1      15.762  14.971 -12.782  1.00  0.00     0.000 C 
BRANCH  11  12
ATOM     12  C   UNL     1      15.107  14.187 -11.632  1.00  0.00     0.000 C 
BRANCH  12  13
ATOM     13  C   UNL     1      14.448  15.105 -10.589  1.00  0.00     0.000 C 
BRANCH  13  14
ATOM     14  C   UNL     1      15.468  15.723  -9.620  1.00  0.00     0.000 C 
BRANCH  14  15
ATOM     15  C   UNL     1      15.445  15.062  -8.231  1.00  0.00     0.000 C 
BRANCH  15  16
ATOM     16  C   UNL     1      15.072  16.049  -7.114  1.00  0.00     0.006 C 
BRANCH  16  17
ATOM     17  C   UNL     1      13.568  16.350  -7.072  1.00  0.00     0.053 C 
BRANCH  17  18
ATOM     18  C   UNL     1      13.290  17.497  -6.153  1.00  0.00     0.041 C 
ATOM     19  O   UNL     1      12.297  17.463  -5.380  1.00  0.00    -0.550 OA
ATOM     20  O   UNL     1      14.099  18.626  -6.184  1.00  0.00    -0.550 OA
ENDBRANCH  17  18
ENDBRANCH  16  17
ENDBRANCH  15  16
ENDBRANCH  14  15
ENDBRANCH  13  14
ENDBRANCH  12  13
ENDBRANCH  11  12
ENDBRANCH   1  11
TORSDOF 15
ENDMDL
MODEL 3
REMARK VINA RESULT:     8.442      6.146      9.957
REMARK INTER + INTRA:          14.812
REMARK INTER:                  15.118
REMARK INTRA:                  -0.307
REMARK UNBOUND:                -1.034
REMARK SMILES O=C([O-])CCCCCCCCCCCCCCC(=O)[O-]
REMARK SMILES IDX 10 1 9 2 8 3 7 4 6 5 5 6 4 7 2 8 1 9 3 10 11 11 12 12 13 13
REMARK SMILES IDX 14 14 15 15 16 16 17 17 18 18 19 19 20 20
REMARK H PARENT
REMARK Flexibility Score: inf
ROOT
ATOM      1  C   UNL     1      10.457  13.987  -1.429  1.00  0.00     0.000 C 
ENDROOT
BRANCH   1   2
ATOM      2  C   UNL     1      10.931  12.876  -0.477  1.00  0.00     0.000 C 
BRANCH   2   3
ATOM      3  C   UNL     1      12.424  12.999  -0.123  1.00  0.00     0.000 C 
BRANCH   3   4
ATOM      4  C   UNL     1      12.670  13.014   1.394  1.00  0.00     0.000 C 
BRANCH   4   5
ATOM      5  C   UNL     1      11.806  14.058   2.125  1.00  0.00     0.000 C 
BRANCH   5   6
ATOM      6  C   UNL     1      11.754  15.408   1.386  1.00  0.00     0.006 C 
BRANCH   6   7
ATOM      7  C   UNL     1      10.823  16.445   2.035  1.00  0.00     0.053 C 
BRANCH   7   8
ATOM      8  C   UNL     1       9.381  16.173   1.729  1.00  0.00     0.041 C 
ATOM      9  O   UNL     1       8.621  17.112   1.378  1.00  0.00    -0.550 OA
ATOM     10  O   UNL     1       8.873  14.888   1.863  1.00  0.00    -0.550 OA
ENDBRANCH   7   8
ENDBRANCH   6   7
ENDBRANCH   5   6
ENDBRANCH   4   5
ENDBRANCH   3   4
ENDBRANCH   2   3
ENDBRANCH   1   2
BRANCH   1  11
ATOM     11  C   UNL     1      11.275  14.037  -2.731  1.00  0.00     0.000 C 
BRANCH  11  12
ATOM     12  C   UNL     1      10.844  15.189  -3.655  1.00  0.00     0.000 C 
BRANCH  12  13
ATOM     13  C   UNL     1      11.970  15.643  -4.600  1.00  0.00     0.000 C 
BRANCH  13  14
ATOM     14  C   UNL     1      11.590  16.891  -5.412  1.00  0.00     0.000 C 
BRANCH  14  15
ATOM     15  C   UNL     1      12.816  17.625  -5.983  1.00  0.00     0.000 C 
BRANCH  15  16
ATOM     16  C   UNL     1      14.009  16.686  -6.219  1.00  0.00     0.006 C 
BRANCH  16  17
ATOM     17  C   UNL     1      13.929  15.959  -7.568  1.00  0.00     0.053 C 
BRANCH  17  18
ATOM     18  C   UNL     1      15.301  15.637  -8.070  1.00  0.00     0.041 C 
ATOM     19  O   UNL     1      16.083  14.938  -7.372  1.00  0.00    -0.550 OA
ATOM     20  O   UNL     1      15.735  16.150  -9.285  1.00  0.00    -0.550 OA
ENDBRANCH  17  18
ENDBRANCH  16  17
ENDBRANCH  15  16
ENDBRANCH  14  15
ENDBRANCH  13  14
ENDBRANCH  12  13
ENDBRANCH  11  12
ENDBRANCH   1  11
TORSDOF 15
ENDMDL
MODEL 4
REMARK VINA RESULT:     8.827      4.833      7.486
REMARK INTER + INTRA:          15.533
REMARK INTER:                  16.285
REMARK INTRA:                  -0.752
REMARK UNBOUND:                -1.034
REMARK SMILES O=C([O-])CCCCCCCCCCCCCCC(=O)[O-]
REMARK SMILES IDX 10 1 9 2 8 3 7 4 6 5 5 6 4 7 2 8 1 9 3 10 11 11 12 12 13 13
REMARK SMILES IDX 14 14 15 15 16 16 17 17 18 18 19 19 20 20
REMARK H PARENT
REMARK Flexibility Score: inf
ROOT
ATOM      1  C   UNL     1      19.413  21.360 -12.214  1.00  0.00     0.000 C 
ENDROOT
BRANCH   1   2
ATOM      2  C   UNL     1      18.595  20.100 -12.543  1.00  0.00     0.000 C 
BRANCH   2   3
ATOM      3  C   UNL     1      18.101  19.370 -11.282  1.00  0.00     0.000 C 
BRANCH   3   4
ATOM      4  C   UNL     1      18.276  17.846 -11.379  1.00  0.00     0.000 C 
BRANCH   4   5
ATOM      5  C   UNL     1      18.109  17.319 -12.815  1.00  0.00     0.000 C 
BRANCH   5   6
ATOM      6  C   UNL     1      17.489  15.910 -12.863  1.00  0.00     0.006 C 
BRANCH   6   7
ATOM      7  C   UNL     1      18.190  14.946 -13.833  1.00  0.00     0.053 C 
BRANCH   7   8
ATOM      8  C   UNL     1      19.102  13.996 -13.117  1.00  0.00     0.041 C 
ATOM      9  O   UNL     1      18.675  12.875 -12.736  1.00  0.00    -0.550 OA
ATOM     10  O   UNL     1      20.412  14.364 -12.843  1.00  0.00    -0.550 OA
ENDBRANCH   7   8
ENDBRANCH   6   7
ENDBRANCH   5   6
ENDBRANCH   4   5
ENDBRANCH   3   4
ENDBRANCH   2   3
ENDBRANCH   1   2
BRANCH   1  11
ATOM     11  C   UNL     1      20.929  21.096 -12.220  1.00  0.00     0.000 C 
BRANCH  11  12
ATOM     12  C   UNL     1      21.533  21.162 -13.634  1.00  0.00     0.000 C 
BRANCH  12  13
ATOM     13  C   UNL     1      22.230  22.504 -13.918  1.00  0.00     0.000 C 
BRANCH  13  14
ATOM     14  C   UNL     1      21.802  23.116 -15.261  1.00  0.00     0.000 C 
BRANCH  14  15
ATOM     15  C   UNL     1      22.233  24.587 -15.408  1.00  0.00     0.000 C 
BRANCH  15  16
ATOM     16  C   UNL     1      21.037  25.552 -15.435  1.00  0.00     0.006 C 
BRANCH  16  17
ATOM     17  C   UNL     1      19.851  24.997 -16.235  1.00  0.00     0.053 C 
BRANCH  17  18
ATOM     18  C   UNL     1      18.573  25.627 -15.778  1.00  0.00     0.041 C 
ATOM     19  O   UNL     1      18.176  26.703 -16.297  1.00  0.00    -0.550 OA
ATOM     20  O   UNL     1      17.846  25.053 -14.743  1.00  0.00    -0.550 OA
ENDBRANCH  17  18
ENDBRANCH  16  17
ENDBRANCH  15  16
ENDBRANCH  14  15
ENDBRANCH  13  14
ENDBRANCH  12  13
ENDBRANCH  11  12
ENDBRANCH   1  11
TORSDOF 15
ENDMDL
MODEL 5
REMARK VINA RESULT:     8.973      6.452     10.655
REMARK INTER + INTRA:          15.807
REMARK INTER:                  15.067
REMARK INTRA:                   0.740
REMARK UNBOUND:                -1.034
REMARK SMILES O=C([O-])CCCCCCCCCCCCCCC(=O)[O-]
REMARK SMILES IDX 10 1 9 2 8 3 7 4 6 5 5 6 4 7 2 8 1 9 3 10 11 11 12 12 13 13
REMARK SMILES IDX 14 14 15 15 16 16 17 17 18 18 19 19 20 20
REMARK H PARENT
REMARK Flexibility Score: inf
ROOT
ATOM      1  C   UNL     1       9.916  14.207  -1.267  1.00  0.00     0.000 C 
ENDROOT
BRANCH   1   2
ATOM      2  C   UNL     1      10.111  13.215  -0.107  1.00  0.00     0.000 C 
BRANCH   2   3
ATOM      3  C   UNL     1      11.594  12.906   0.164  1.00  0.00     0.000 C 
BRANCH   3   4
ATOM      4  C   UNL     1      11.981  13.124   1.635  1.00  0.00     0.000 C 
BRANCH   4   5
ATOM      5  C   UNL     1      11.675  14.551   2.125  1.00  0.00     0.000 C 
BRANCH   5   6
ATOM      6  C   UNL     1      10.969  15.407   1.058  1.00  0.00     0.006 C 
BRANCH   6   7
ATOM      7  C   UNL     1      10.200  16.611   1.624  1.00  0.00     0.053 C 
BRANCH   7   8
ATOM      8  C   UNL     1       8.779  16.266   1.949  1.00  0.00     0.041 C 
ATOM      9  O   UNL     1       7.927  17.177   2.112  1.00  0.00    -0.550 OA
ATOM     10  O   UNL     1       8.405  14.937   2.104  1.00  0.00    -0.550 OA
ENDBRANCH   7   8
ENDBRANCH   6   7
ENDBRANCH   5   6
ENDBRANCH   4   5
ENDBRANCH   3   4
ENDBRANCH   2   3
ENDBRANCH   1   2
BRANCH   1  11
ATOM     11  C   UNL     1      11.040  14.117  -2.314  1.00  0.00     0.000 C 
BRANCH  11  12
ATOM     12  C   UNL     1      10.820  12.972  -3.318  1.00  0.00     0.000 C 
BRANCH  12  13
ATOM     13  C   UNL     1      11.039  13.413  -4.776  1.00  0.00     0.000 C 
BRANCH  13  14
ATOM     14  C   UNL     1       9.976  14.415  -5.253  1.00  0.00     0.000 C 
BRANCH  14  15
ATOM     15  C   UNL     1      10.589  15.655  -5.929  1.00  0.00     0.000 C 
BRANCH  15  16
ATOM     16  C   UNL     1      12.037  15.914  -5.483  1.00  0.00     0.006 C 
BRANCH  16  17
ATOM     17  C   UNL     1      12.444  17.386  -5.629  1.00  0.00     0.053 C 
BRANCH  17  18
ATOM     18  C   UNL     1      13.783  17.495  -6.287  1.00  0.00     0.041 C 
ATOM     19  O   UNL     1      14.345  18.616  -6.398  1.00  0.00    -0.550 OA
ATOM     20  O   UNL     1      14.388  16.366  -6.824  1.00  0.00    -0.550 OA
ENDBRANCH  17  18
ENDBRANCH  16  17
ENDBRANCH  15  16
ENDBRANCH  14  15
ENDBRANCH  13  14
ENDBRANCH  12  13
ENDBRANCH  11  12
ENDBRANCH   1  11
TORSDOF 15
ENDMDL
MODEL 6
REMARK VINA RESULT:     9.133      4.932      7.495
REMARK INTER + INTRA:          16.108
REMARK INTER:                  16.548
REMARK INTRA:                  -0.440
REMARK UNBOUND:                -1.034
REMARK SMILES O=C([O-])CCCCCCCCCCCCCCC(=O)[O-]
REMARK SMILES IDX 10 1 9 2 8 3 7 4 6 5 5 6 4 7 2 8 1 9 3 10 11 11 12 12 13 13
REMARK SMILES IDX 14 14 15 15 16 16 17 17 18 18 19 19 20 20
REMARK H PARENT
REMARK Flexibility Score: inf
ROOT
ATOM      1  C   UNL     1      11.896  16.332  -5.548  1.00  0.00     0.000 C 
ENDROOT
BRANCH   1   2
ATOM      2  C   UNL     1      12.114  15.782  -4.128  1.00  0.00     0.000 C 
BRANCH   2   3
ATOM      3  C   UNL     1      11.069  14.721  -3.739  1.00  0.00     0.000 C 
BRANCH   3   4
ATOM      4  C   UNL     1      11.421  14.004  -2.425  1.00  0.00     0.000 C 
BRANCH   4   5
ATOM      5  C   UNL     1      10.254  13.998  -1.421  1.00  0.00     0.000 C 
BRANCH   5   6
ATOM      6  C   UNL     1      10.730  14.023   0.043  1.00  0.00     0.006 C 
BRANCH   6   7
ATOM      7  C   UNL     1       9.681  14.547   1.037  1.00  0.00     0.053 C 
BRANCH   7   8
ATOM      8  C   UNL     1       9.966  15.955   1.461  1.00  0.00     0.041 C 
ATOM      9  O   UNL     1       9.071  16.641   2.021  1.00  0.00    -0.550 OA
ATOM     10  O   UNL     1      11.209  16.520   1.208  1.00  0.00    -0.550 OA
ENDBRANCH   7   8
ENDBRANCH   6   7
ENDBRANCH   5   6
ENDBRANCH   4   5
ENDBRANCH   3   4
ENDBRANCH   2   3
ENDBRANCH   1   2
BRANCH   1  11
ATOM     11  C   UNL     1      12.893  17.447  -5.908  1.00  0.00     0.000 C 
BRANCH  11  12
ATOM     12  C   UNL     1      14.210  16.898  -6.483  1.00  0.00     0.000 C 
BRANCH  12  13
ATOM     13  C   UNL     1      13.993  16.029  -7.734  1.00  0.00     0.000 C 
BRANCH  13  14
ATOM     14  C   UNL     1      15.266  15.893  -8.584  1.00  0.00     0.000 C 
BRANCH  14  15
ATOM     15  C   UNL     1      14.974  15.438 -10.025  1.00  0.00     0.000 C 
BRANCH  15  16
ATOM     16  C   UNL     1      16.010  15.963 -11.031  1.00  0.00     0.006 C 
BRANCH  16  17
ATOM     17  C   UNL     1      16.053  15.132 -12.320  1.00  0.00     0.053 C 
BRANCH  17  18
ATOM     18  C   UNL     1      17.380  15.283 -12.994  1.00  0.00     0.041 C 
ATOM     19  O   UNL     1      18.018  14.265 -13.373  1.00  0.00    -0.550 OA
ATOM     20  O   UNL     1      17.936  16.545 -13.160  1.00  0.00    -0.550 OA
ENDBRANCH  17  18
ENDBRANCH  16  17
ENDBRANCH  15  16
ENDBRANCH  14  15
ENDBRANCH  13  14
ENDBRANCH  12  13
ENDBRANCH  11  12
ENDBRANCH   1  11
TORSDOF 15
ENDMDL
MODEL 7
REMARK VINA RESULT:     9.998      4.115      9.550
REMARK INTER + INTRA:          17.731
REMARK INTER:                  18.492
REMARK INTRA:                  -0.761
REMARK UNBOUND:                -1.034
REMARK SMILES O=C([O-])CCCCCCCCCCCCCCC(=O)[O-]
REMARK SMILES IDX 10 1 9 2 8 3 7 4 6 5 5 6 4 7 2 8 1 9 3 10 11 11 12 12 13 13
REMARK SMILES IDX 14 14 15 15 16 16 17 17 18 18 19 19 20 20
REMARK H PARENT
REMARK Flexibility Score: inf
ROOT
ATOM      1  C   UNL     1      20.548  21.093 -12.138  1.00  0.00     0.000 C 
ENDROOT
BRANCH   1   2
ATOM      2  C   UNL     1      21.462  20.992 -13.371  1.00  0.00     0.000 C 
BRANCH   2   3
ATOM      3  C   UNL     1      22.271  22.279 -13.614  1.00  0.00     0.000 C 
BRANCH   3   4
ATOM      4  C   UNL     1      22.333  22.662 -15.101  1.00  0.00     0.000 C 
BRANCH   4   5
ATOM      5  C   UNL     1      21.997  24.144 -15.348  1.00  0.00     0.000 C 
BRANCH   5   6
ATOM      6  C   UNL     1      20.586  24.344 -15.930  1.00  0.00     0.006 C 
BRANCH   6   7
ATOM      7  C   UNL     1      20.077  25.793 -15.864  1.00  0.00     0.053 C 
BRANCH   7   8
ATOM      8  C   UNL     1      18.585  25.859 -15.744  1.00  0.00     0.041 C 
ATOM      9  O   UNL     1      17.939  26.750 -16.354  1.00  0.00    -0.550 OA
ATOM     10  O   UNL     1      17.914  24.955 -14.931  1.00  0.00    -0.550 OA
ENDBRANCH   7   8
ENDBRANCH   6   7
ENDBRANCH   5   6
ENDBRANCH   4   5
ENDBRANCH   3   4
ENDBRANCH   2   3
ENDBRANCH   1   2
BRANCH   1  11
ATOM     11  C   UNL     1      19.070  21.295 -12.514  1.00  0.00     0.000 C 
BRANCH  11  12
ATOM     12  C   UNL     1      18.253  19.995 -12.416  1.00  0.00     0.000 C 
BRANCH  12  13
ATOM     13  C   UNL     1      18.299  19.372 -11.010  1.00  0.00     0.000 C 
BRANCH  13  14
ATOM     14  C   UNL     1      18.110  17.847 -11.035  1.00  0.00     0.000 C 
BRANCH  14  15
ATOM     15  C   UNL     1      18.914  17.167 -12.157  1.00  0.00     0.000 C 
BRANCH  15  16
ATOM     16  C   UNL     1      18.020  16.663 -13.301  1.00  0.00     0.006 C 
BRANCH  16  17
ATOM     17  C   UNL     1      17.742  15.157 -13.211  1.00  0.00     0.053 C 
BRANCH  17  18
ATOM     18  C   UNL     1      16.320  14.911 -12.816  1.00  0.00     0.041 C 
ATOM     19  O   UNL     1      15.842  15.466 -11.791  1.00  0.00    -0.550 OA
ATOM     20  O   UNL     1      15.536  14.031 -13.551  1.00  0.00    -0.550 OA
ENDBRANCH  17  18
ENDBRANCH  16  17
ENDBRANCH  15  16
ENDBRANCH  14  15
ENDBRANCH  13  14
ENDBRANCH  12  13
ENDBRANCH  11  12
ENDBRANCH   1  11
TORSDOF 15
ENDMDL
MODEL 8
REMARK VINA RESULT:    10.027      4.798      9.558
REMARK INTER + INTRA:          17.786
REMARK INTER:                  18.650
REMARK INTRA:                  -0.864
REMARK UNBOUND:                -1.034
REMARK SMILES O=C([O-])CCCCCCCCCCCCCCC(=O)[O-]
REMARK SMILES IDX 10 1 9 2 8 3 7 4 6 5 5 6 4 7 2 8 1 9 3 10 11 11 12 12 13 13
REMARK SMILES IDX 14 14 15 15 16 16 17 17 18 18 19 19 20 20
REMARK H PARENT
REMARK Flexibility Score: inf
ROOT
ATOM      1  C   UNL     1      20.609  20.902 -12.297  1.00  0.00     0.000 C 
ENDROOT
BRANCH   1   2
ATOM      2  C   UNL     1      21.586  21.008 -13.481  1.00  0.00     0.000 C 
BRANCH   2   3
ATOM      3  C   UNL     1      22.165  22.425 -13.644  1.00  0.00     0.000 C 
BRANCH   3   4
ATOM      4  C   UNL     1      22.479  22.766 -15.109  1.00  0.00     0.000 C 
BRANCH   4   5
ATOM      5  C   UNL     1      22.011  24.178 -15.503  1.00  0.00     0.000 C 
BRANCH   5   6
ATOM      6  C   UNL     1      20.480  24.332 -15.454  1.00  0.00     0.006 C 
BRANCH   6   7
ATOM      7  C   UNL     1      19.942  25.534 -16.246  1.00  0.00     0.053 C 
BRANCH   7   8
ATOM      8  C   UNL     1      18.541  25.886 -15.848  1.00  0.00     0.041 C 
ATOM      9  O   UNL     1      17.883  25.117 -15.100  1.00  0.00    -0.550 OA
ATOM     10  O   UNL     1      17.952  27.047 -16.331  1.00  0.00    -0.550 OA
ENDBRANCH   7   8
ENDBRANCH   6   7
ENDBRANCH   5   6
ENDBRANCH   4   5
ENDBRANCH   3   4
ENDBRANCH   2   3
ENDBRANCH   1   2
BRANCH   1  11
ATOM     11  C   UNL     1      19.212  21.450 -12.635  1.00  0.00     0.000 C 
BRANCH  11  12
ATOM     12  C   UNL     1      18.196  20.332 -12.930  1.00  0.00     0.000 C 
BRANCH  12  13
ATOM     13  C   UNL     1      18.222  19.215 -11.873  1.00  0.00     0.000 C 
BRANCH  13  14
ATOM     14  C   UNL     1      18.590  17.847 -12.471  1.00  0.00     0.000 C 
BRANCH  14  15
ATOM     15  C   UNL     1      17.785  16.691 -11.852  1.00  0.00     0.000 C 
BRANCH  15  16
ATOM     16  C   UNL     1      17.237  15.720 -12.909  1.00  0.00     0.006 C 
BRANCH  16  17
ATOM     17  C   UNL     1      18.342  15.131 -13.796  1.00  0.00     0.053 C 
BRANCH  17  18
ATOM     18  C   UNL     1      19.078  14.052 -13.065  1.00  0.00     0.041 C 
ATOM     19  O   UNL     1      18.632  12.875 -13.056  1.00  0.00    -0.550 OA
ATOM     20  O   UNL     1      20.230  14.357 -12.352  1.00  0.00    -0.550 OA
ENDBRANCH  17  18
ENDBRANCH  16  17
ENDBRANCH  15  16
ENDBRANCH  14  15
ENDBRANCH  13  14
ENDBRANCH  12  13
ENDBRANCH  11  12
ENDBRANCH   1  11
TORSDOF 15
ENDMDL
