MODEL 1
REMARK VINA RESULT:    23.470      0.000      0.000
REMARK INTER + INTRA:          28.611
REMARK INTER:                  28.958
REMARK INTRA:                  -0.347
REMARK UNBOUND:                -0.347
REMARK SMILES O=c1c(O)c(-c2cc(O)c(O)c(O)c2)oc2cc(O)cc(O)c12
REMARK SMILES IDX 5 1 3 2 2 3 1 4 23 5 21 6 20 7 18 8 17 9 16 10 15 11 6 12
REMARK SMILES IDX 7 13 8 14 14 15 10 16 12 17 9 18 11 20 13 22 4 24 22 26
REMARK SMILES IDX 19 28
REMARK H PARENT 9 19 11 21 13 23 4 25 22 27 19 29
REMARK Flexibility Score: inf
ROOT
ATOM      1  C   UNL     1      12.243  -2.930  10.237  1.00  0.00     0.180 A 
ATOM      2  C   UNL     1      10.903  -3.221  10.544  1.00  0.00     0.208 A 
ATOM      3  C   UNL     1      10.030  -3.588   9.509  1.00  0.00     0.238 A 
ATOM      4  O   UNL     1       8.851  -3.919   9.800  1.00  0.00    -0.285 OA
ATOM      5  C   UNL     1      10.493  -3.607   8.170  1.00  0.00     0.111 A 
ATOM      6  C   UNL     1       9.685  -3.920   7.035  1.00  0.00     0.134 A 
ATOM      7  C   UNL     1      10.278  -4.010   5.769  1.00  0.00     0.093 A 
ATOM      8  C   UNL     1      11.631  -3.737   5.586  1.00  0.00     0.123 A 
ATOM      9  C   UNL     1      12.420  -3.376   6.680  1.00  0.00     0.094 A 
ATOM     10  C   UNL     1      11.867  -3.315   7.961  1.00  0.00     0.146 A 
ATOM     11  O   UNL     1      12.656  -2.988   8.977  1.00  0.00    -0.452 OA
ENDROOT
BRANCH   1  12
ATOM     12  C   UNL     1      13.226  -2.551  11.277  1.00  0.00     0.029 A 
ATOM     13  C   UNL     1      13.861  -3.520  12.073  1.00  0.00     0.062 A 
ATOM     14  C   UNL     1      14.806  -3.141  13.036  1.00  0.00     0.162 A 
ATOM     15  C   UNL     1      13.576  -1.201  11.435  1.00  0.00     0.062 A 
ATOM     16  C   UNL     1      15.133  -1.789  13.203  1.00  0.00     0.200 A 
ATOM     17  C   UNL     1      14.519  -0.816  12.398  1.00  0.00     0.162 A 
BRANCH  14  18
ATOM     18  O   UNL     1      15.429  -4.104  13.828  1.00  0.00    -0.504 OA
ATOM     19  H   UNL     1      16.423  -4.286  13.757  1.00  0.00     0.293 HD
ENDBRANCH  14  18
BRANCH  16  20
ATOM     20  O   UNL     1      16.073  -1.430  14.170  1.00  0.00    -0.502 OA
ATOM     21  H   UNL     1      15.961  -1.672  15.147  1.00  0.00     0.293 HD
ENDBRANCH  16  20
BRANCH  17  22
ATOM     22  O   UNL     1      14.848   0.530  12.555  1.00  0.00    -0.504 OA
ATOM     23  H   UNL     1      15.732   0.903  12.231  1.00  0.00     0.293 HD
ENDBRANCH  17  22
ENDBRANCH   1  12
BRANCH   2  24
ATOM     24  O   UNL     1      10.446  -3.123  11.862  1.00  0.00    -0.502 OA
ATOM     25  H   UNL     1      10.007  -2.286  12.225  1.00  0.00     0.293 HD
ENDBRANCH   2  24
BRANCH   6  26
ATOM     26  O   UNL     1       8.302  -4.125   7.090  1.00  0.00    -0.507 OA
ATOM     27  H   UNL     1       7.800  -4.818   6.558  1.00  0.00     0.293 HD
ENDBRANCH   6  26
BRANCH   8  28
ATOM     28  O   UNL     1      12.184  -3.820   4.309  1.00  0.00    -0.508 OA
ATOM     29  H   UNL     1      11.778  -3.325   3.523  1.00  0.00     0.293 HD
ENDBRANCH   8  28
TORSDOF 7
ENDMDL
