MODEL 1
REMARK VINA RESULT:    -3.156      0.000      0.000
REMARK INTER + INTRA:          -8.158
REMARK INTER:                  -5.924
REMARK INTRA:                  -2.233
REMARK UNBOUND:                -2.233
REMARK SMILES O=C([O-])CCCCCCCCCCCCCCC(=O)[O-]
REMARK SMILES IDX 10 1 9 2 8 3 7 4 6 5 5 6 4 7 2 8 1 9 3 10 11 11 12 12 13 13
REMARK SMILES IDX 14 14 15 15 16 16 17 17 18 18 19 19 20 20
REMARK H PARENT
REMARK Flexibility Score: inf
ROOT
ATOM      1  C   UNL     1      60.261  35.343  59.250  1.00  0.00     0.000 C 
ENDROOT
BRANCH   1   2
ATOM      2  C   UNL     1      61.351  34.868  58.276  1.00  0.00     0.000 C 
BRANCH   2   3
ATOM      3  C   UNL     1      61.217  33.375  57.927  1.00  0.00     0.000 C 
BRANCH   3   4
ATOM      4  C   UNL     1      60.220  32.641  58.838  1.00  0.00     0.000 C 
BRANCH   4   5
ATOM      5  C   UNL     1      60.886  31.532  59.667  1.00  0.00     0.000 C 
BRANCH   5   6
ATOM      6  C   UNL     1      61.103  31.987  61.118  1.00  0.00     0.006 C 
BRANCH   6   7
ATOM      7  C   UNL     1      60.984  30.827  62.115  1.00  0.00     0.053 C 
BRANCH   7   8
ATOM      8  C   UNL     1      62.134  29.873  61.997  1.00  0.00     0.041 C 
ATOM      9  O   UNL     1      61.928  28.632  61.960  1.00  0.00    -0.550 OA
ATOM     10  O   UNL     1      63.432  30.359  61.893  1.00  0.00    -0.550 OA
ENDBRANCH   7   8
ENDBRANCH   6   7
ENDBRANCH   5   6
ENDBRANCH   4   5
ENDBRANCH   3   4
ENDBRANCH   2   3
ENDBRANCH   1   2
BRANCH   1  11
ATOM     11  C   UNL     1      60.818  35.657  60.650  1.00  0.00     0.000 C 
BRANCH  11  12
ATOM     12  C   UNL     1      61.811  36.829  60.640  1.00  0.00     0.000 C 
BRANCH  12  13
ATOM     13  C   UNL     1      63.129  36.495  61.354  1.00  0.00     0.000 C 
BRANCH  13  14
ATOM     14  C   UNL     1      63.369  34.979  61.381  1.00  0.00     0.000 C 
BRANCH  14  15
ATOM     15  C   UNL     1      64.469  34.526  60.406  1.00  0.00     0.000 C 
BRANCH  15  16
ATOM     16  C   UNL     1      64.341  33.077  59.898  1.00  0.00     0.006 C 
BRANCH  16  17
ATOM     17  C   UNL     1      65.245  32.752  58.693  1.00  0.00     0.053 C 
BRANCH  17  18
ATOM     18  C   UNL     1      65.542  31.287  58.578  1.00  0.00     0.041 C 
ATOM     19  O   UNL     1      66.260  30.716  59.441  1.00  0.00    -0.550 OA
ATOM     20  O   UNL     1      64.992  30.543  57.542  1.00  0.00    -0.550 OA
ENDBRANCH  17  18
ENDBRANCH  16  17
ENDBRANCH  15  16
ENDBRANCH  14  15
ENDBRANCH  13  14
ENDBRANCH  12  13
ENDBRANCH  11  12
ENDBRANCH   1  11
TORSDOF 15
ENDMDL
MODEL 2
REMARK VINA RESULT:    -3.155      1.505      4.468
REMARK INTER + INTRA:          -8.154
REMARK INTER:                  -6.390
REMARK INTRA:                  -1.764
REMARK UNBOUND:                -2.233
REMARK SMILES O=C([O-])CCCCCCCCCCCCCCC(=O)[O-]
REMARK SMILES IDX 10 1 9 2 8 3 7 4 6 5 5 6 4 7 2 8 1 9 3 10 11 11 12 12 13 13
REMARK SMILES IDX 14 14 15 15 16 16 17 17 18 18 19 19 20 20
REMARK H PARENT
REMARK Flexibility Score: inf
ROOT
ATOM      1  C   UNL     1      59.752  34.513  58.224  1.00  0.00     0.000 C 
ENDROOT
BRANCH   1   2
ATOM      2  C   UNL     1      60.576  35.768  58.553  1.00  0.00     0.000 C 
BRANCH   2   3
ATOM      3  C   UNL     1      60.501  36.148  60.043  1.00  0.00     0.000 C 
BRANCH   3   4
ATOM      4  C   UNL     1      61.513  35.373  60.902  1.00  0.00     0.000 C 
BRANCH   4   5
ATOM      5  C   UNL     1      62.732  36.225  61.288  1.00  0.00     0.000 C 
BRANCH   5   6
ATOM      6  C   UNL     1      64.037  35.442  61.077  1.00  0.00     0.006 C 
BRANCH   6   7
ATOM      7  C   UNL     1      63.852  33.934  61.293  1.00  0.00     0.053 C 
BRANCH   7   8
ATOM      8  C   UNL     1      64.316  33.143  60.108  1.00  0.00     0.041 C 
ATOM      9  O   UNL     1      64.208  33.617  58.947  1.00  0.00    -0.550 OA
ATOM     10  O   UNL     1      64.899  31.895  60.291  1.00  0.00    -0.550 OA
ENDBRANCH   7   8
ENDBRANCH   6   7
ENDBRANCH   5   6
ENDBRANCH   4   5
ENDBRANCH   3   4
ENDBRANCH   2   3
ENDBRANCH   1   2
BRANCH   1  11
ATOM     11  C   UNL     1      60.636  33.286  57.940  1.00  0.00     0.000 C 
BRANCH  11  12
ATOM     12  C   UNL     1      60.090  32.004  58.588  1.00  0.00     0.000 C 
BRANCH  12  13
ATOM     13  C   UNL     1      61.078  31.375  59.581  1.00  0.00     0.000 C 
BRANCH  13  14
ATOM     14  C   UNL     1      60.846  31.912  61.000  1.00  0.00     0.000 C 
BRANCH  14  15
ATOM     15  C   UNL     1      60.998  30.832  62.085  1.00  0.00     0.000 C 
BRANCH  15  16
ATOM     16  C   UNL     1      62.334  30.062  62.063  1.00  0.00     0.006 C 
BRANCH  16  17
ATOM     17  C   UNL     1      62.182  28.550  61.811  1.00  0.00     0.053 C 
BRANCH  17  18
ATOM     18  C   UNL     1      63.268  28.003  60.935  1.00  0.00     0.041 C 
ATOM     19  O   UNL     1      63.754  28.709  60.012  1.00  0.00    -0.550 OA
ATOM     20  O   UNL     1      63.774  26.729  61.163  1.00  0.00    -0.550 OA
ENDBRANCH  17  18
ENDBRANCH  16  17
ENDBRANCH  15  16
ENDBRANCH  14  15
ENDBRANCH  13  14
ENDBRANCH  12  13
ENDBRANCH  11  12
ENDBRANCH   1  11
TORSDOF 15
ENDMDL
MODEL 3
REMARK VINA RESULT:    -3.151      2.714      4.437
REMARK INTER + INTRA:          -8.148
REMARK INTER:                  -6.335
REMARK INTRA:                  -1.813
REMARK UNBOUND:                -2.233
REMARK SMILES O=C([O-])CCCCCCCCCCCCCCC(=O)[O-]
REMARK SMILES IDX 10 1 9 2 8 3 7 4 6 5 5 6 4 7 2 8 1 9 3 10 11 11 12 12 13 13
REMARK SMILES IDX 14 14 15 15 16 16 17 17 18 18 19 19 20 20
REMARK H PARENT
REMARK Flexibility Score: inf
ROOT
ATOM      1  C   UNL     1      63.001  33.211  59.752  1.00  0.00     0.000 C 
ENDROOT
BRANCH   1   2
ATOM      2  C   UNL     1      62.199  32.863  61.015  1.00  0.00     0.000 C 
BRANCH   2   3
ATOM      3  C   UNL     1      60.945  32.027  60.705  1.00  0.00     0.000 C 
BRANCH   3   4
ATOM      4  C   UNL     1      60.803  30.807  61.629  1.00  0.00     0.000 C 
BRANCH   4   5
ATOM      5  C   UNL     1      62.162  30.249  62.081  1.00  0.00     0.000 C 
BRANCH   5   6
ATOM      6  C   UNL     1      62.647  29.147  61.126  1.00  0.00     0.006 C 
BRANCH   6   7
ATOM      7  C   UNL     1      62.477  27.745  61.723  1.00  0.00     0.053 C 
BRANCH   7   8
ATOM      8  C   UNL     1      61.241  27.070  61.212  1.00  0.00     0.041 C 
ATOM      9  O   UNL     1      60.285  26.822  61.993  1.00  0.00    -0.550 OA
ATOM     10  O   UNL     1      61.131  26.746  59.866  1.00  0.00    -0.550 OA
ENDBRANCH   7   8
ENDBRANCH   6   7
ENDBRANCH   5   6
ENDBRANCH   4   5
ENDBRANCH   3   4
ENDBRANCH   2   3
ENDBRANCH   1   2
BRANCH   1  11
ATOM     11  C   UNL     1      64.266  34.030  60.064  1.00  0.00     0.000 C 
BRANCH  11  12
ATOM     12  C   UNL     1      64.340  34.463  61.536  1.00  0.00     0.000 C 
BRANCH  12  13
ATOM     13  C   UNL     1      64.400  35.989  61.702  1.00  0.00     0.000 C 
BRANCH  13  14
ATOM     14  C   UNL     1      63.427  36.684  60.741  1.00  0.00     0.000 C 
BRANCH  14  15
ATOM     15  C   UNL     1      62.082  37.038  61.398  1.00  0.00     0.000 C 
BRANCH  15  16
ATOM     16  C   UNL     1      60.848  36.343  60.789  1.00  0.00     0.006 C 
BRANCH  16  17
ATOM     17  C   UNL     1      60.933  36.140  59.264  1.00  0.00     0.053 C 
BRANCH  17  18
ATOM     18  C   UNL     1      59.721  35.453  58.710  1.00  0.00     0.041 C 
ATOM     19  O   UNL     1      58.602  36.031  58.724  1.00  0.00    -0.550 OA
ATOM     20  O   UNL     1      59.833  34.191  58.140  1.00  0.00    -0.550 OA
ENDBRANCH  17  18
ENDBRANCH  16  17
ENDBRANCH  15  16
ENDBRANCH  14  15
ENDBRANCH  13  14
ENDBRANCH  12  13
ENDBRANCH  11  12
ENDBRANCH   1  11
TORSDOF 15
ENDMDL
MODEL 4
REMARK VINA RESULT:    -3.140     10.810     12.537
REMARK INTER + INTRA:          -8.127
REMARK INTER:                  -5.544
REMARK INTRA:                  -2.583
REMARK UNBOUND:                -2.233
REMARK SMILES O=C([O-])CCCCCCCCCCCCCCC(=O)[O-]
REMARK SMILES IDX 10 1 9 2 8 3 7 4 6 5 5 6 4 7 2 8 1 9 3 10 11 11 12 12 13 13
REMARK SMILES IDX 14 14 15 15 16 16 17 17 18 18 19 19 20 20
REMARK H PARENT
REMARK Flexibility Score: inf
ROOT
ATOM      1  C   UNL     1      58.159  28.698  52.240  1.00  0.00     0.000 C 
ENDROOT
BRANCH   1   2
ATOM      2  C   UNL     1      58.485  27.208  52.436  1.00  0.00     0.000 C 
BRANCH   2   3
ATOM      3  C   UNL     1      57.248  26.308  52.264  1.00  0.00     0.000 C 
BRANCH   3   4
ATOM      4  C   UNL     1      57.205  25.619  50.891  1.00  0.00     0.000 C 
BRANCH   4   5
ATOM      5  C   UNL     1      56.149  26.229  49.957  1.00  0.00     0.000 C 
BRANCH   5   6
ATOM      6  C   UNL     1      55.100  27.017  50.757  1.00  0.00     0.006 C 
BRANCH   6   7
ATOM      7  C   UNL     1      54.921  28.446  50.229  1.00  0.00     0.053 C 
BRANCH   7   8
ATOM      8  C   UNL     1      54.375  29.363  51.281  1.00  0.00     0.041 C 
ATOM      9  O   UNL     1      53.711  30.380  50.953  1.00  0.00    -0.550 OA
ATOM     10  O   UNL     1      54.571  29.073  52.626  1.00  0.00    -0.550 OA
ENDBRANCH   7   8
ENDBRANCH   6   7
ENDBRANCH   5   6
ENDBRANCH   4   5
ENDBRANCH   3   4
ENDBRANCH   2   3
ENDBRANCH   1   2
BRANCH   1  11
ATOM     11  C   UNL     1      59.040  29.357  51.164  1.00  0.00     0.000 C 
BRANCH  11  12
ATOM     12  C   UNL     1      58.574  29.027  49.737  1.00  0.00     0.000 C 
BRANCH  12  13
ATOM     13  C   UNL     1      59.523  28.061  49.013  1.00  0.00     0.000 C 
BRANCH  13  14
ATOM     14  C   UNL     1      60.939  28.140  49.601  1.00  0.00     0.000 C 
BRANCH  14  15
ATOM     15  C   UNL     1      61.619  26.765  49.717  1.00  0.00     0.000 C 
BRANCH  15  16
ATOM     16  C   UNL     1      60.660  25.559  49.765  1.00  0.00     0.006 C 
BRANCH  16  17
ATOM     17  C   UNL     1      60.845  24.660  51.002  1.00  0.00     0.053 C 
BRANCH  17  18
ATOM     18  C   UNL     1      61.129  23.234  50.636  1.00  0.00     0.041 C 
ATOM     19  O   UNL     1      61.428  22.397  51.529  1.00  0.00    -0.550 OA
ATOM     20  O   UNL     1      61.024  22.818  49.314  1.00  0.00    -0.550 OA
ENDBRANCH  17  18
ENDBRANCH  16  17
ENDBRANCH  15  16
ENDBRANCH  14  15
ENDBRANCH  13  14
ENDBRANCH  12  13
ENDBRANCH  11  12
ENDBRANCH   1  11
TORSDOF 15
ENDMDL
MODEL 5
REMARK VINA RESULT:    -3.108      1.352      2.374
REMARK INTER + INTRA:          -8.066
REMARK INTER:                  -5.911
REMARK INTRA:                  -2.155
REMARK UNBOUND:                -2.233
REMARK SMILES O=C([O-])CCCCCCCCCCCCCCC(=O)[O-]
REMARK SMILES IDX 10 1 9 2 8 3 7 4 6 5 5 6 4 7 2 8 1 9 3 10 11 11 12 12 13 13
REMARK SMILES IDX 14 14 15 15 16 16 17 17 18 18 19 19 20 20
REMARK H PARENT
REMARK Flexibility Score: inf
ROOT
ATOM      1  C   UNL     1      61.557  33.331  58.302  1.00  0.00     0.000 C 
ENDROOT
BRANCH   1   2
ATOM      2  C   UNL     1      61.470  31.878  58.796  1.00  0.00     0.000 C 
BRANCH   2   3
ATOM      3  C   UNL     1      60.283  31.651  59.750  1.00  0.00     0.000 C 
BRANCH   3   4
ATOM      4  C   UNL     1      60.684  30.885  61.021  1.00  0.00     0.000 C 
BRANCH   4   5
ATOM      5  C   UNL     1      62.127  31.181  61.456  1.00  0.00     0.000 C 
BRANCH   5   6
ATOM      6  C   UNL     1      62.911  29.878  61.679  1.00  0.00     0.006 C 
BRANCH   6   7
ATOM      7  C   UNL     1      62.232  28.671  61.018  1.00  0.00     0.053 C 
BRANCH   7   8
ATOM      8  C   UNL     1      62.566  27.392  61.722  1.00  0.00     0.041 C 
ATOM      9  O   UNL     1      63.648  26.797  61.476  1.00  0.00    -0.550 OA
ATOM     10  O   UNL     1      61.698  26.875  62.675  1.00  0.00    -0.550 OA
ENDBRANCH   7   8
ENDBRANCH   6   7
ENDBRANCH   5   6
ENDBRANCH   4   5
ENDBRANCH   3   4
ENDBRANCH   2   3
ENDBRANCH   1   2
BRANCH   1  11
ATOM     11  C   UNL     1      60.356  34.181  58.755  1.00  0.00     0.000 C 
BRANCH  11  12
ATOM     12  C   UNL     1      60.780  35.412  59.571  1.00  0.00     0.000 C 
BRANCH  12  13
ATOM     13  C   UNL     1      61.526  35.040  60.861  1.00  0.00     0.000 C 
BRANCH  13  14
ATOM     14  C   UNL     1      62.592  36.091  61.199  1.00  0.00     0.000 C 
BRANCH  14  15
ATOM     15  C   UNL     1      63.963  35.473  61.524  1.00  0.00     0.000 C 
BRANCH  15  16
ATOM     16  C   UNL     1      64.212  34.074  60.929  1.00  0.00     0.006 C 
BRANCH  16  17
ATOM     17  C   UNL     1      64.914  34.091  59.558  1.00  0.00     0.053 C 
BRANCH  17  18
ATOM     18  C   UNL     1      65.099  32.715  58.992  1.00  0.00     0.041 C 
ATOM     19  O   UNL     1      65.244  31.727  59.759  1.00  0.00    -0.550 OA
ATOM     20  O   UNL     1      65.069  32.516  57.617  1.00  0.00    -0.550 OA
ENDBRANCH  17  18
ENDBRANCH  16  17
ENDBRANCH  15  16
ENDBRANCH  14  15
ENDBRANCH  13  14
ENDBRANCH  12  13
ENDBRANCH  11  12
ENDBRANCH   1  11
TORSDOF 15
ENDMDL
MODEL 6
REMARK VINA RESULT:    -3.106      9.876     12.817
REMARK INTER + INTRA:          -8.062
REMARK INTER:                  -6.050
REMARK INTRA:                  -2.012
REMARK UNBOUND:                -2.233
REMARK SMILES O=C([O-])CCCCCCCCCCCCCCC(=O)[O-]
REMARK SMILES IDX 10 1 9 2 8 3 7 4 6 5 5 6 4 7 2 8 1 9 3 10 11 11 12 12 13 13
REMARK SMILES IDX 14 14 15 15 16 16 17 17 18 18 19 19 20 20
REMARK H PARENT
REMARK Flexibility Score: inf
ROOT
ATOM      1  C   UNL     1      56.879  26.723  51.378  1.00  0.00     0.000 C 
ENDROOT
BRANCH   1   2
ATOM      2  C   UNL     1      57.944  27.822  51.233  1.00  0.00     0.000 C 
BRANCH   2   3
ATOM      3  C   UNL     1      57.716  28.702  49.990  1.00  0.00     0.000 C 
BRANCH   3   4
ATOM      4  C   UNL     1      59.016  28.989  49.222  1.00  0.00     0.000 C 
BRANCH   4   5
ATOM      5  C   UNL     1      59.913  27.747  49.097  1.00  0.00     0.000 C 
BRANCH   5   6
ATOM      6  C   UNL     1      61.345  28.056  49.559  1.00  0.00     0.006 C 
BRANCH   6   7
ATOM      7  C   UNL     1      61.436  29.385  50.320  1.00  0.00     0.053 C 
BRANCH   7   8
ATOM      8  C   UNL     1      62.480  30.288  49.738  1.00  0.00     0.041 C 
ATOM      9  O   UNL     1      63.531  29.805  49.240  1.00  0.00    -0.550 OA
ATOM     10  O   UNL     1      62.276  31.662  49.714  1.00  0.00    -0.550 OA
ENDBRANCH   7   8
ENDBRANCH   6   7
ENDBRANCH   5   6
ENDBRANCH   4   5
ENDBRANCH   3   4
ENDBRANCH   2   3
ENDBRANCH   1   2
BRANCH   1  11
ATOM     11  C   UNL     1      56.609  25.985  50.055  1.00  0.00     0.000 C 
BRANCH  11  12
ATOM     12  C   UNL     1      55.120  25.983  49.675  1.00  0.00     0.000 C 
BRANCH  12  13
ATOM     13  C   UNL     1      54.267  26.842  50.619  1.00  0.00     0.000 C 
BRANCH  13  14
ATOM     14  C   UNL     1      53.884  28.171  49.955  1.00  0.00     0.000 C 
BRANCH  14  15
ATOM     15  C   UNL     1      54.296  29.399  50.784  1.00  0.00     0.000 C 
BRANCH  15  16
ATOM     16  C   UNL     1      54.050  29.280  52.302  1.00  0.00     0.006 C 
BRANCH  16  17
ATOM     17  C   UNL     1      54.689  30.410  53.131  1.00  0.00     0.053 C 
BRANCH  17  18
ATOM     18  C   UNL     1      56.140  30.161  53.415  1.00  0.00     0.041 C 
ATOM     19  O   UNL     1      57.026  30.848  52.843  1.00  0.00    -0.550 OA
ATOM     20  O   UNL     1      56.514  29.197  54.345  1.00  0.00    -0.550 OA
ENDBRANCH  17  18
ENDBRANCH  16  17
ENDBRANCH  15  16
ENDBRANCH  14  15
ENDBRANCH  13  14
ENDBRANCH  12  13
ENDBRANCH  11  12
ENDBRANCH   1  11
TORSDOF 15
ENDMDL
MODEL 7
REMARK VINA RESULT:    -3.076      3.039      5.710
REMARK INTER + INTRA:          -8.006
REMARK INTER:                  -5.463
REMARK INTRA:                  -2.542
REMARK UNBOUND:                -2.233
REMARK SMILES O=C([O-])CCCCCCCCCCCCCCC(=O)[O-]
REMARK SMILES IDX 10 1 9 2 8 3 7 4 6 5 5 6 4 7 2 8 1 9 3 10 11 11 12 12 13 13
REMARK SMILES IDX 14 14 15 15 16 16 17 17 18 18 19 19 20 20
REMARK H PARENT
REMARK Flexibility Score: inf
ROOT
ATOM      1  C   UNL     1      62.904  28.897  59.778  1.00  0.00     0.000 C 
ENDROOT
BRANCH   1   2
ATOM      2  C   UNL     1      64.166  29.774  59.784  1.00  0.00     0.000 C 
BRANCH   2   3
ATOM      3  C   UNL     1      64.052  30.976  58.830  1.00  0.00     0.000 C 
BRANCH   3   4
ATOM      4  C   UNL     1      64.698  32.248  59.403  1.00  0.00     0.000 C 
BRANCH   4   5
ATOM      5  C   UNL     1      64.461  32.402  60.912  1.00  0.00     0.000 C 
BRANCH   5   6
ATOM      6  C   UNL     1      63.757  33.732  61.224  1.00  0.00     0.006 C 
BRANCH   6   7
ATOM      7  C   UNL     1      64.710  34.930  61.131  1.00  0.00     0.053 C 
BRANCH   7   8
ATOM      8  C   UNL     1      64.098  36.172  61.703  1.00  0.00     0.041 C 
ATOM      9  O   UNL     1      64.820  37.026  62.281  1.00  0.00    -0.550 OA
ATOM     10  O   UNL     1      62.735  36.403  61.566  1.00  0.00    -0.550 OA
ENDBRANCH   7   8
ENDBRANCH   6   7
ENDBRANCH   5   6
ENDBRANCH   4   5
ENDBRANCH   3   4
ENDBRANCH   2   3
ENDBRANCH   1   2
BRANCH   1  11
ATOM     11  C   UNL     1      62.399  28.579  61.196  1.00  0.00     0.000 C 
BRANCH  11  12
ATOM     12  C   UNL     1      62.094  29.846  62.011  1.00  0.00     0.000 C 
BRANCH  12  13
ATOM     13  C   UNL     1      60.706  30.427  61.704  1.00  0.00     0.000 C 
BRANCH  13  14
ATOM     14  C   UNL     1      60.811  31.892  61.257  1.00  0.00     0.000 C 
BRANCH  14  15
ATOM     15  C   UNL     1      60.739  32.061  59.730  1.00  0.00     0.000 C 
BRANCH  15  16
ATOM     16  C   UNL     1      60.713  33.520  59.231  1.00  0.00     0.006 C 
BRANCH  16  17
ATOM     17  C   UNL     1      61.668  33.797  58.054  1.00  0.00     0.053 C 
BRANCH  17  18
ATOM     18  C   UNL     1      62.259  35.174  58.109  1.00  0.00     0.041 C 
ATOM     19  O   UNL     1      63.451  35.367  57.751  1.00  0.00    -0.550 OA
ATOM     20  O   UNL     1      61.481  36.252  58.514  1.00  0.00    -0.550 OA
ENDBRANCH  17  18
ENDBRANCH  16  17
ENDBRANCH  15  16
ENDBRANCH  14  15
ENDBRANCH  13  14
ENDBRANCH  12  13
ENDBRANCH  11  12
ENDBRANCH   1  11
TORSDOF 15
ENDMDL
MODEL 8
REMARK VINA RESULT:    -3.053      9.987     12.562
REMARK INTER + INTRA:          -7.964
REMARK INTER:                  -5.322
REMARK INTRA:                  -2.642
REMARK UNBOUND:                -2.233
REMARK SMILES O=C([O-])CCCCCCCCCCCCCCC(=O)[O-]
REMARK SMILES IDX 10 1 9 2 8 3 7 4 6 5 5 6 4 7 2 8 1 9 3 10 11 11 12 12 13 13
REMARK SMILES IDX 14 14 15 15 16 16 17 17 18 18 19 19 20 20
REMARK H PARENT
REMARK Flexibility Score: inf
ROOT
ATOM      1  C   UNL     1      60.818  27.223  49.653  1.00  0.00     0.000 C 
ENDROOT
BRANCH   1   2
ATOM      2  C   UNL     1      59.628  27.866  48.922  1.00  0.00     0.000 C 
BRANCH   2   3
ATOM      3  C   UNL     1      59.264  29.249  49.492  1.00  0.00     0.000 C 
BRANCH   3   4
ATOM      4  C   UNL     1      58.006  29.213  50.374  1.00  0.00     0.000 C 
BRANCH   4   5
ATOM      5  C   UNL     1      58.256  29.774  51.781  1.00  0.00     0.000 C 
BRANCH   5   6
ATOM      6  C   UNL     1      58.314  28.643  52.820  1.00  0.00     0.006 C 
BRANCH   6   7
ATOM      7  C   UNL     1      59.746  28.153  53.067  1.00  0.00     0.053 C 
BRANCH   7   8
ATOM      8  C   UNL     1      60.712  29.293  53.176  1.00  0.00     0.041 C 
ATOM      9  O   UNL     1      61.520  29.531  52.241  1.00  0.00    -0.550 OA
ATOM     10  O   UNL     1      60.696  30.114  54.297  1.00  0.00    -0.550 OA
ENDBRANCH   7   8
ENDBRANCH   6   7
ENDBRANCH   5   6
ENDBRANCH   4   5
ENDBRANCH   3   4
ENDBRANCH   2   3
ENDBRANCH   1   2
BRANCH   1  11
ATOM     11  C   UNL     1      60.516  25.790  50.123  1.00  0.00     0.000 C 
BRANCH  11  12
ATOM     12  C   UNL     1      59.029  25.426  49.989  1.00  0.00     0.000 C 
BRANCH  12  13
ATOM     13  C   UNL     1      58.372  25.112  51.341  1.00  0.00     0.000 C 
BRANCH  13  14
ATOM     14  C   UNL     1      56.940  25.662  51.396  1.00  0.00     0.000 C 
BRANCH  14  15
ATOM     15  C   UNL     1      56.405  26.086  50.017  1.00  0.00     0.000 C 
BRANCH  15  16
ATOM     16  C   UNL     1      54.910  26.460  49.979  1.00  0.00     0.006 C 
BRANCH  16  17
ATOM     17  C   UNL     1      54.641  27.974  50.064  1.00  0.00     0.053 C 
BRANCH  17  18
ATOM     18  C   UNL     1      54.118  28.388  51.407  1.00  0.00     0.041 C 
ATOM     19  O   UNL     1      54.054  27.553  52.348  1.00  0.00    -0.550 OA
ATOM     20  O   UNL     1      53.741  29.706  51.634  1.00  0.00    -0.550 OA
ENDBRANCH  17  18
ENDBRANCH  16  17
ENDBRANCH  15  16
ENDBRANCH  14  15
ENDBRANCH  13  14
ENDBRANCH  12  13
ENDBRANCH  11  12
ENDBRANCH   1  11
TORSDOF 15
ENDMDL
MODEL 9
REMARK VINA RESULT:    -3.030     10.998     12.886
REMARK INTER + INTRA:          -7.920
REMARK INTER:                  -5.499
REMARK INTRA:                  -2.421
REMARK UNBOUND:                -2.233
REMARK SMILES O=C([O-])CCCCCCCCCCCCCCC(=O)[O-]
REMARK SMILES IDX 10 1 9 2 8 3 7 4 6 5 5 6 4 7 2 8 1 9 3 10 11 11 12 12 13 13
REMARK SMILES IDX 14 14 15 15 16 16 17 17 18 18 19 19 20 20
REMARK H PARENT
REMARK Flexibility Score: inf
ROOT
ATOM      1  C   UNL     1      55.294  29.322  51.654  1.00  0.00     0.000 C 
ENDROOT
BRANCH   1   2
ATOM      2  C   UNL     1      56.818  29.247  51.470  1.00  0.00     0.000 C 
BRANCH   2   3
ATOM      3  C   UNL     1      57.220  28.922  50.020  1.00  0.00     0.000 C 
BRANCH   3   4
ATOM      4  C   UNL     1      58.714  29.164  49.752  1.00  0.00     0.000 C 
BRANCH   4   5
ATOM      5  C   UNL     1      59.608  28.089  50.388  1.00  0.00     0.000 C 
BRANCH   5   6
ATOM      6  C   UNL     1      60.029  27.040  49.348  1.00  0.00     0.006 C 
BRANCH   6   7
ATOM      7  C   UNL     1      61.203  26.180  49.832  1.00  0.00     0.053 C 
BRANCH   7   8
ATOM      8  C   UNL     1      60.740  25.028  50.671  1.00  0.00     0.041 C 
ATOM      9  O   UNL     1      60.084  24.089  50.151  1.00  0.00    -0.550 OA
ATOM     10  O   UNL     1      61.064  24.977  52.021  1.00  0.00    -0.550 OA
ENDBRANCH   7   8
ENDBRANCH   6   7
ENDBRANCH   5   6
ENDBRANCH   4   5
ENDBRANCH   3   4
ENDBRANCH   2   3
ENDBRANCH   1   2
BRANCH   1  11
ATOM     11  C   UNL     1      54.525  28.871  50.400  1.00  0.00     0.000 C 
BRANCH  11  12
ATOM     12  C   UNL     1      53.526  27.742  50.695  1.00  0.00     0.000 C 
BRANCH  12  13
ATOM     13  C   UNL     1      53.608  26.597  49.676  1.00  0.00     0.000 C 
BRANCH  13  14
ATOM     14  C   UNL     1      55.021  25.997  49.639  1.00  0.00     0.000 C 
BRANCH  14  15
ATOM     15  C   UNL     1      55.524  25.557  51.024  1.00  0.00     0.000 C 
BRANCH  15  16
ATOM     16  C   UNL     1      57.057  25.507  51.181  1.00  0.00     0.006 C 
BRANCH  16  17
ATOM     17  C   UNL     1      57.551  25.799  52.610  1.00  0.00     0.053 C 
BRANCH  17  18
ATOM     18  C   UNL     1      57.829  24.548  53.387  1.00  0.00     0.041 C 
ATOM     19  O   UNL     1      58.061  23.466  52.786  1.00  0.00    -0.550 OA
ATOM     20  O   UNL     1      57.873  24.584  54.776  1.00  0.00    -0.550 OA
ENDBRANCH  17  18
ENDBRANCH  16  17
ENDBRANCH  15  16
ENDBRANCH  14  15
ENDBRANCH  13  14
ENDBRANCH  12  13
ENDBRANCH  11  12
ENDBRANCH   1  11
TORSDOF 15
ENDMDL
