MODEL 1
REMARK VINA RESULT:    -1.098      0.000      0.000
REMARK INTER + INTRA:          -2.509
REMARK INTER:                  -1.516
REMARK INTRA:                  -0.994
REMARK UNBOUND:                -0.994
REMARK SMILES O=C([O-])[C@H]1O[C@H](Oc2cc3oc(-c4ccccc4)cc(=O)c3c(O)c2O)[C@@H](O)[C@@H](O)[C@H]1O
REMARK SMILES IDX 7 1 6 2 4 3 31 4 5 5 29 6 27 7 2 8 1 9 3 10 32 11 30 13
REMARK SMILES IDX 28 15 8 17 25 18 9 19 23 20 10 21 22 22 11 23 20 24 12 25
REMARK SMILES IDX 19 26 21 27 26 28 24 30 13 32 14 33 18 34 15 35 17 36 16 37
REMARK H PARENT 32 12 30 14 28 16 26 29 24 31
REMARK Flexibility Score: inf
ROOT
ATOM      1  O   UNL     1      22.523 -24.052 -25.764  1.00  0.00    -0.458 OA
ENDROOT
BRANCH   1   2
ATOM      2  C   UNL     1      23.758 -24.438 -25.157  1.00  0.00     0.339 C 
ATOM      3  C   UNL     1      26.029 -23.870 -24.980  1.00  0.00     0.199 C 
ATOM      4  C   UNL     1      26.079 -24.682 -23.645  1.00  0.00     0.180 C 
ATOM      5  O   UNL     1      24.723 -23.418 -25.326  1.00  0.00    -0.328 OA
ATOM      6  C   UNL     1      24.797 -24.447 -22.818  1.00  0.00     0.181 C 
ATOM      7  C   UNL     1      23.514 -24.692 -23.651  1.00  0.00     0.214 C 
BRANCH   3   8
ATOM      8  C   UNL     1      26.707 -24.565 -26.136  1.00  0.00     0.073 C 
ATOM      9  O   UNL     1      26.263 -24.452 -27.308  1.00  0.00    -0.547 OA
ATOM     10  O   UNL     1      27.872 -25.291 -25.919  1.00  0.00    -0.547 OA
ENDBRANCH   3   8
BRANCH   4  11
ATOM     11  O   UNL     1      26.324 -26.056 -23.843  1.00  0.00    -0.387 OA
ATOM     12  H   UNL     1      27.068 -26.156 -24.489  1.00  0.00     0.211 HD
ENDBRANCH   4  11
BRANCH   6  13
ATOM     13  O   UNL     1      24.795 -25.250 -21.665  1.00  0.00    -0.387 OA
ATOM     14  H   UNL     1      24.467 -26.147 -21.938  1.00  0.00     0.211 HD
ENDBRANCH   6  13
BRANCH   7  15
ATOM     15  O   UNL     1      23.044 -26.004 -23.455  1.00  0.00    -0.384 OA
ATOM     16  H   UNL     1      22.128 -26.042 -23.837  1.00  0.00     0.211 HD
ENDBRANCH   7  15
ENDBRANCH   1   2
BRANCH   1  17
ATOM     17  C   UNL     1      22.396 -23.688 -27.112  1.00  0.00     0.172 A 
ATOM     18  C   UNL     1      22.177 -24.688 -28.076  1.00  0.00     0.201 A 
ATOM     19  C   UNL     1      22.473 -22.347 -27.514  1.00  0.00     0.098 A 
ATOM     20  C   UNL     1      22.081 -24.351 -29.440  1.00  0.00     0.176 A 
ATOM     21  C   UNL     1      22.376 -22.002 -28.861  1.00  0.00     0.146 A 
ATOM     22  C   UNL     1      22.187 -22.999 -29.842  1.00  0.00     0.111 A 
ATOM     23  O   UNL     1      22.467 -20.722 -29.205  1.00  0.00    -0.456 OA
ATOM     24  C   UNL     1      22.121 -22.583 -31.187  1.00  0.00     0.197 A 
ATOM     25  C   UNL     1      22.402 -20.291 -30.463  1.00  0.00     0.138 A 
ATOM     26  C   UNL     1      22.234 -21.227 -31.498  1.00  0.00     0.100 A 
ATOM     27  O   UNL     1      21.969 -23.413 -32.123  1.00  0.00    -0.289 OA
BRANCH  18  28
ATOM     28  O   UNL     1      22.075 -26.027 -27.692  1.00  0.00    -0.502 OA
ATOM     29  H   UNL     1      22.394 -26.784 -28.282  1.00  0.00     0.293 HD
ENDBRANCH  18  28
BRANCH  20  30
ATOM     30  O   UNL     1      21.889 -25.357 -30.392  1.00  0.00    -0.504 OA
ATOM     31  H   UNL     1      22.632 -25.675 -31.004  1.00  0.00     0.293 HD
ENDBRANCH  20  30
BRANCH  25  32
ATOM     32  C   UNL     1      22.533 -18.831 -30.716  1.00  0.00     0.017 A 
ATOM     33  C   UNL     1      23.313 -17.991 -29.892  1.00  0.00     0.012 A 
ATOM     34  C   UNL     1      21.876 -18.261 -31.826  1.00  0.00     0.012 A 
ATOM     35  C   UNL     1      23.405 -16.622 -30.161  1.00  0.00     0.001 A 
ATOM     36  C   UNL     1      21.978 -16.893 -32.093  1.00  0.00     0.001 A 
ATOM     37  C   UNL     1      22.737 -16.072 -31.258  1.00  0.00     0.000 A 
ENDBRANCH  25  32
ENDBRANCH   1  17
TORSDOF 9
ENDMDL
