MODEL 1
REMARK VINA RESULT:    -4.505      0.000      0.000
REMARK INTER + INTRA:          -6.202
REMARK INTER:                  -6.348
REMARK INTRA:                   0.146
REMARK UNBOUND:                 0.146
REMARK SMILES CC1=CCC(=C(C)C)C(=O)CC(C)=CCC1
REMARK SMILES IDX 12 1 14 2 13 3 15 4 16 5 2 6 1 7 3 8 11 10 9 11 10 12 5 13
REMARK SMILES IDX 6 14 7 15 8 16 4 17
REMARK H PARENT
REMARK Flexibility Score: 60.00
ROOT
ATOM      1  C   UNL     1       6.828 -19.508  24.750  1.00  0.00    -0.070 C 
ATOM      2  C   UNL     1       6.980 -20.717  24.137  1.00  0.00    -0.027 C 
ATOM      3  C   UNL     1       7.044 -19.473  26.246  1.00  0.00     0.039 C 
ENDROOT
BRANCH   2   4
ATOM      4  C   UNL     1       6.792 -21.144  22.687  1.00  0.00     0.032 C 
BRANCH   4   5
ATOM      5  C   UNL     1       8.044 -21.573  21.912  1.00  0.00     0.034 C 
BRANCH   5   6
ATOM      6  C   UNL     1       9.118 -20.514  21.621  1.00  0.00    -0.077 C 
ATOM      7  C   UNL     1      10.544 -20.945  21.889  1.00  0.00     0.039 C 
ATOM      8  C   UNL     1       8.960 -19.213  21.234  1.00  0.00    -0.023 CG0
ATOM      9  G   UNL     1       7.709 -18.410  20.934  1.00  0.00     0.000 G0
ENDBRANCH   5   6
ENDBRANCH   4   5
ENDBRANCH   2   4
BRANCH   1  10
ATOM     10  C   UNL     1       6.472 -18.187  24.085  1.00  0.00     0.111 C 
BRANCH  10  11
ATOM     11  C   UNL     1       7.631 -17.614  23.329  1.00  0.00     0.163 C 
ATOM     12  O   UNL     1       8.710 -17.390  23.942  1.00  0.00    -0.294 OA
BRANCH  11  13
ATOM     13  C   UNL     1       7.505 -17.270  21.889  1.00  0.00    -0.002 C 
ATOM     14  C   UNL     1       7.207 -16.002  21.481  1.00  0.00    -0.069 C 
ATOM     15  C   UNL     1       6.972 -15.672  20.024  1.00  0.00     0.039 C 
ATOM     16  C   UNL     1       7.115 -14.865  22.473  1.00  0.00     0.039 C 
BRANCH  13  17
ATOM     17  C   UNL     1       7.706 -18.411  20.913  1.00  0.00     0.066 CG0
ATOM     18  G   UNL     1       8.955 -19.212  21.227  1.00  0.00     0.000 G0
ENDBRANCH  13  17
ENDBRANCH  11  13
ENDBRANCH  10  11
ENDBRANCH   1  10
TORSDOF 0
ENDMDL
MODEL 2
REMARK VINA RESULT:    -4.198      2.202      3.964
REMARK INTER + INTRA:          -5.769
REMARK INTER:                  -5.768
REMARK INTRA:                  -0.001
REMARK UNBOUND:                 0.146
REMARK SMILES CC1=CCC(=C(C)C)C(=O)CC(C)=CCC1
REMARK SMILES IDX 12 1 14 2 13 3 15 4 16 5 2 6 1 7 3 8 11 10 9 11 10 12 5 13
REMARK SMILES IDX 6 14 7 15 8 16 4 17
REMARK H PARENT
REMARK Flexibility Score: 60.00
ROOT
ATOM      1  C   UNL     1       7.373 -18.484  25.205  1.00  0.00    -0.070 C 
ATOM      2  C   UNL     1       8.207 -17.524  25.699  1.00  0.00    -0.027 C 
ATOM      3  C   UNL     1       7.134 -19.692  26.082  1.00  0.00     0.039 C 
ENDROOT
BRANCH   2   4
ATOM      4  C   UNL     1       8.719 -16.223  25.094  1.00  0.00     0.032 C 
BRANCH   4   5
ATOM      5  C   UNL     1      10.058 -16.272  24.348  1.00  0.00     0.034 C 
BRANCH   5   6
ATOM      6  C   UNL     1      10.844 -17.592  24.351  1.00  0.00    -0.077 C 
ATOM      7  C   UNL     1      11.849 -17.746  25.472  1.00  0.00     0.039 C 
ATOM      8  C   UNL     1      10.821 -18.608  23.438  1.00  0.00    -0.023 CG0
ATOM      9  G   UNL     1      10.009 -18.787  22.169  1.00  0.00     0.000 G0
ENDBRANCH   5   6
ENDBRANCH   4   5
ENDBRANCH   2   4
BRANCH   1  10
ATOM     10  C   UNL     1       6.650 -18.462  23.867  1.00  0.00     0.111 C 
BRANCH  10  11
ATOM     11  C   UNL     1       7.598 -18.270  22.724  1.00  0.00     0.163 C 
ATOM     12  O   UNL     1       7.498 -17.233  22.013  1.00  0.00    -0.294 OA
BRANCH  11  13
ATOM     13  C   UNL     1       8.615 -19.303  22.399  1.00  0.00    -0.002 C 
ATOM     14  C   UNL     1       8.294 -20.629  22.344  1.00  0.00    -0.069 C 
ATOM     15  C   UNL     1       9.347 -21.691  22.120  1.00  0.00     0.039 C 
ATOM     16  C   UNL     1       6.862 -21.092  22.490  1.00  0.00     0.039 C 
BRANCH  13  17
ATOM     17  C   UNL     1      10.021 -18.798  22.153  1.00  0.00     0.066 CG0
ATOM     18  G   UNL     1      10.794 -18.619  23.446  1.00  0.00     0.000 G0
ENDBRANCH  13  17
ENDBRANCH  11  13
ENDBRANCH  10  11
ENDBRANCH   1  10
TORSDOF 0
ENDMDL
MODEL 3
REMARK VINA RESULT:    -4.119      1.871      4.899
REMARK INTER + INTRA:          -5.658
REMARK INTER:                  -5.580
REMARK INTRA:                  -0.078
REMARK UNBOUND:                 0.146
REMARK SMILES CC1=CCC(=C(C)C)C(=O)CC(C)=CCC1
REMARK SMILES IDX 12 1 14 2 13 3 15 4 16 5 2 6 1 7 3 8 11 10 9 11 10 12 5 13
REMARK SMILES IDX 6 14 7 15 8 16 4 17
REMARK H PARENT
REMARK Flexibility Score: 60.00
ROOT
ATOM      1  C   UNL     1       7.165 -16.230  20.372  1.00  0.00    -0.070 C 
ATOM      2  C   UNL     1       6.907 -15.487  21.486  1.00  0.00    -0.027 C 
ATOM      3  C   UNL     1       7.189 -15.491  19.054  1.00  0.00     0.039 C 
ENDROOT
BRANCH   2   4
ATOM      4  C   UNL     1       6.750 -15.882  22.949  1.00  0.00     0.032 C 
BRANCH   4   5
ATOM      5  C   UNL     1       8.007 -16.354  23.690  1.00  0.00     0.034 C 
BRANCH   5   6
ATOM      6  C   UNL     1       8.059 -17.808  24.181  1.00  0.00    -0.077 C 
ATOM      7  C   UNL     1       7.167 -18.126  25.362  1.00  0.00     0.039 C 
ATOM      8  C   UNL     1       8.857 -18.832  23.755  1.00  0.00    -0.023 CG0
ATOM      9  G   UNL     1       9.906 -18.885  22.661  1.00  0.00     0.000 G0
ENDBRANCH   5   6
ENDBRANCH   4   5
ENDBRANCH   2   4
BRANCH   1  10
ATOM     10  C   UNL     1       7.440 -17.725  20.318  1.00  0.00     0.111 C 
BRANCH  10  11
ATOM     11  C   UNL     1       8.896 -18.031  20.492  1.00  0.00     0.163 C 
ATOM     12  O   UNL     1       9.748 -17.302  19.913  1.00  0.00    -0.294 OA
BRANCH  11  13
ATOM     13  C   UNL     1       9.337 -19.200  21.296  1.00  0.00    -0.002 C 
ATOM     14  C   UNL     1       9.199 -20.477  20.835  1.00  0.00    -0.069 C 
ATOM     15  C   UNL     1       9.546 -21.672  21.693  1.00  0.00     0.039 C 
ATOM     16  C   UNL     1       8.705 -20.750  19.432  1.00  0.00     0.039 C 
BRANCH  13  17
ATOM     17  C   UNL     1       9.925 -18.887  22.656  1.00  0.00     0.066 CG0
ATOM     18  G   UNL     1       8.862 -18.839  23.737  1.00  0.00     0.000 G0
ENDBRANCH  13  17
ENDBRANCH  11  13
ENDBRANCH  10  11
ENDBRANCH   1  10
TORSDOF 0
ENDMDL
MODEL 4
REMARK VINA RESULT:    -4.079      1.817      3.641
REMARK INTER + INTRA:          -5.602
REMARK INTER:                  -5.735
REMARK INTRA:                   0.133
REMARK UNBOUND:                 0.146
REMARK SMILES CC1=CCC(=C(C)C)C(=O)CC(C)=CCC1
REMARK SMILES IDX 12 1 14 2 13 3 15 4 16 5 2 6 1 7 3 8 11 10 9 11 10 12 5 13
REMARK SMILES IDX 6 14 7 15 8 16 4 17
REMARK H PARENT
REMARK Flexibility Score: 60.00
ROOT
ATOM      1  C   UNL     1       6.800 -19.814  24.264  1.00  0.00    -0.070 C 
ATOM      2  C   UNL     1       6.792 -18.490  24.588  1.00  0.00    -0.027 C 
ATOM      3  C   UNL     1       6.744 -20.794  25.413  1.00  0.00     0.039 C 
ENDROOT
BRANCH   2   4
ATOM      4  C   UNL     1       6.892 -17.238  23.724  1.00  0.00     0.032 C 
BRANCH   4   5
ATOM      5  C   UNL     1       8.168 -16.397  23.850  1.00  0.00     0.034 C 
BRANCH   5   6
ATOM      6  C   UNL     1       9.364 -16.751  22.955  1.00  0.00    -0.077 C 
ATOM      7  C   UNL     1      10.702 -16.217  23.420  1.00  0.00     0.039 C 
ATOM      8  C   UNL     1       9.378 -17.409  21.757  1.00  0.00    -0.023 CG0
ATOM      9  G   UNL     1       8.252 -18.024  20.948  1.00  0.00     0.000 G0
ENDBRANCH   5   6
ENDBRANCH   4   5
ENDBRANCH   2   4
BRANCH   1  10
ATOM     10  C   UNL     1       6.850 -20.410  22.865  1.00  0.00     0.111 C 
BRANCH  10  11
ATOM     11  C   UNL     1       8.198 -20.241  22.235  1.00  0.00     0.163 C 
ATOM     12  O   UNL     1       9.218 -20.658  22.850  1.00  0.00    -0.294 OA
BRANCH  11  13
ATOM     13  C   UNL     1       8.344 -19.554  20.926  1.00  0.00    -0.002 C 
ATOM     14  C   UNL     1       8.565 -20.253  19.774  1.00  0.00    -0.069 C 
ATOM     15  C   UNL     1       8.821 -19.553  18.458  1.00  0.00     0.039 C 
ATOM     16  C   UNL     1       8.546 -21.765  19.763  1.00  0.00     0.039 C 
BRANCH  13  17
ATOM     17  C   UNL     1       8.254 -18.043  20.954  1.00  0.00     0.066 CG0
ATOM     18  G   UNL     1       9.392 -17.421  21.741  1.00  0.00     0.000 G0
ENDBRANCH  13  17
ENDBRANCH  11  13
ENDBRANCH  10  11
ENDBRANCH   1  10
TORSDOF 0
ENDMDL
MODEL 5
REMARK VINA RESULT:    -3.999      1.953      3.649
REMARK INTER + INTRA:          -5.489
REMARK INTER:                  -5.597
REMARK INTRA:                   0.108
REMARK UNBOUND:                 0.146
REMARK SMILES CC1=CCC(=C(C)C)C(=O)CC(C)=CCC1
REMARK SMILES IDX 12 1 14 2 13 3 15 4 16 5 2 6 1 7 3 8 11 10 9 11 10 12 5 13
REMARK SMILES IDX 6 14 7 15 8 16 4 17
REMARK H PARENT
REMARK Flexibility Score: 60.00
ROOT
ATOM      1  C   UNL     1       8.272 -19.874  19.396  1.00  0.00    -0.070 C 
ATOM      2  C   UNL     1       8.365 -21.231  19.499  1.00  0.00    -0.027 C 
ATOM      3  C   UNL     1       8.921 -19.240  18.187  1.00  0.00     0.039 C 
ENDROOT
BRANCH   2   4
ATOM      4  C   UNL     1       7.894 -22.196  20.581  1.00  0.00     0.032 C 
BRANCH   4   5
ATOM      5  C   UNL     1       8.949 -22.727  21.558  1.00  0.00     0.034 C 
BRANCH   5   6
ATOM      6  C   UNL     1       9.972 -21.737  22.133  1.00  0.00    -0.077 C 
ATOM      7  C   UNL     1      11.424 -22.103  21.914  1.00  0.00     0.039 C 
ATOM      8  C   UNL     1       9.756 -20.616  22.885  1.00  0.00    -0.023 CG0
ATOM      9  G   UNL     1       8.467 -19.971  23.360  1.00  0.00     0.000 G0
ENDBRANCH   5   6
ENDBRANCH   4   5
ENDBRANCH   2   4
BRANCH   1  10
ATOM     10  C   UNL     1       7.575 -18.932  20.366  1.00  0.00     0.111 C 
BRANCH  10  11
ATOM     11  C   UNL     1       8.526 -18.373  21.379  1.00  0.00     0.163 C 
ATOM     12  O   UNL     1       9.557 -17.765  20.981  1.00  0.00    -0.294 OA
BRANCH  11  13
ATOM     13  C   UNL     1       8.287 -18.565  22.833  1.00  0.00    -0.002 C 
ATOM     14  C   UNL     1       7.952 -17.520  23.646  1.00  0.00    -0.069 C 
ATOM     15  C   UNL     1       7.813 -17.692  25.142  1.00  0.00     0.039 C 
ATOM     16  C   UNL     1       7.689 -16.144  23.078  1.00  0.00     0.039 C 
BRANCH  13  17
ATOM     17  C   UNL     1       8.456 -19.977  23.354  1.00  0.00     0.066 CG0
ATOM     18  G   UNL     1       9.758 -20.601  22.888  1.00  0.00     0.000 G0
ENDBRANCH  13  17
ENDBRANCH  11  13
ENDBRANCH  10  11
ENDBRANCH   1  10
TORSDOF 0
ENDMDL
MODEL 6
REMARK VINA RESULT:    -3.996      2.615      5.238
REMARK INTER + INTRA:          -5.485
REMARK INTER:                  -5.715
REMARK INTRA:                   0.230
REMARK UNBOUND:                 0.146
REMARK SMILES CC1=CCC(=C(C)C)C(=O)CC(C)=CCC1
REMARK SMILES IDX 12 1 14 2 13 3 15 4 16 5 2 6 1 7 3 8 11 10 9 11 10 12 5 13
REMARK SMILES IDX 6 14 7 15 8 16 4 17
REMARK H PARENT
REMARK Flexibility Score: 60.00
ROOT
ATOM      1  C   UNL     1      11.806 -17.244  22.774  1.00  0.00    -0.070 C 
ATOM      2  C   UNL     1      11.545 -16.525  23.903  1.00  0.00    -0.027 C 
ATOM      3  C   UNL     1      13.084 -16.914  22.038  1.00  0.00     0.039 C 
ENDROOT
BRANCH   2   4
ATOM      4  C   UNL     1      10.356 -16.536  24.855  1.00  0.00     0.032 C 
BRANCH   4   5
ATOM      5  C   UNL     1       9.136 -15.691  24.467  1.00  0.00     0.034 C 
BRANCH   5   6
ATOM      6  C   UNL     1       8.059 -16.333  23.580  1.00  0.00    -0.077 C 
ATOM      7  C   UNL     1       7.248 -15.366  22.743  1.00  0.00     0.039 C 
ATOM      8  C   UNL     1       7.677 -17.642  23.501  1.00  0.00    -0.023 CG0
ATOM      9  G   UNL     1       8.197 -18.874  24.218  1.00  0.00     0.000 G0
ENDBRANCH   5   6
ENDBRANCH   4   5
ENDBRANCH   2   4
BRANCH   1  10
ATOM     10  C   UNL     1      10.948 -18.352  22.181  1.00  0.00     0.111 C 
BRANCH  10  11
ATOM     11  C   UNL     1      10.494 -19.324  23.226  1.00  0.00     0.163 C 
ATOM     12  O   UNL     1      11.347 -19.825  24.009  1.00  0.00    -0.294 OA
BRANCH  11  13
ATOM     13  C   UNL     1       9.067 -19.731  23.317  1.00  0.00    -0.002 C 
ATOM     14  C   UNL     1       8.581 -20.793  22.610  1.00  0.00    -0.069 C 
ATOM     15  C   UNL     1       7.110 -21.143  22.616  1.00  0.00     0.039 C 
ATOM     16  C   UNL     1       9.502 -21.678  21.800  1.00  0.00     0.039 C 
BRANCH  13  17
ATOM     17  C   UNL     1       8.192 -18.888  24.219  1.00  0.00     0.066 CG0
ATOM     18  G   UNL     1       7.680 -17.645  23.515  1.00  0.00     0.000 G0
ENDBRANCH  13  17
ENDBRANCH  11  13
ENDBRANCH  10  11
ENDBRANCH   1  10
TORSDOF 0
ENDMDL
MODEL 7
REMARK VINA RESULT:    -3.979      2.079      3.427
REMARK INTER + INTRA:          -5.462
REMARK INTER:                  -5.456
REMARK INTRA:                  -0.006
REMARK UNBOUND:                 0.146
REMARK SMILES CC1=CCC(=C(C)C)C(=O)CC(C)=CCC1
REMARK SMILES IDX 12 1 14 2 13 3 15 4 16 5 2 6 1 7 3 8 11 10 9 11 10 12 5 13
REMARK SMILES IDX 6 14 7 15 8 16 4 17
REMARK H PARENT
REMARK Flexibility Score: 60.00
ROOT
ATOM      1  C   UNL     1       7.812 -18.260  23.050  1.00  0.00    -0.070 C 
ATOM      2  C   UNL     1       6.951 -19.273  23.351  1.00  0.00    -0.027 C 
ATOM      3  C   UNL     1       7.376 -16.863  23.429  1.00  0.00     0.039 C 
ENDROOT
BRANCH   2   4
ATOM      4  C   UNL     1       7.019 -20.771  23.079  1.00  0.00     0.032 C 
BRANCH   4   5
ATOM      5  C   UNL     1       6.842 -21.231  21.627  1.00  0.00     0.034 C 
BRANCH   5   6
ATOM      6  C   UNL     1       8.042 -21.873  20.916  1.00  0.00    -0.077 C 
ATOM      7  C   UNL     1       8.436 -23.245  21.419  1.00  0.00     0.039 C 
ATOM      8  C   UNL     1       8.851 -21.346  19.949  1.00  0.00    -0.023 CG0
ATOM      9  G   UNL     1       8.818 -20.001  19.249  1.00  0.00     0.000 G0
ENDBRANCH   5   6
ENDBRANCH   4   5
ENDBRANCH   2   4
BRANCH   1  10
ATOM     10  C   UNL     1       9.172 -18.388  22.382  1.00  0.00     0.111 C 
BRANCH  10  11
ATOM     11  C   UNL     1       9.103 -18.087  20.916  1.00  0.00     0.163 C 
ATOM     12  O   UNL     1       8.459 -17.074  20.529  1.00  0.00    -0.294 OA
BRANCH  11  13
ATOM     13  C   UNL     1       9.745 -18.987  19.924  1.00  0.00    -0.002 C 
ATOM     14  C   UNL     1      11.076 -18.895  19.632  1.00  0.00    -0.069 C 
ATOM     15  C   UNL     1      11.709 -19.736  18.546  1.00  0.00     0.039 C 
ATOM     16  C   UNL     1      11.979 -17.954  20.397  1.00  0.00     0.039 C 
BRANCH  13  17
ATOM     17  C   UNL     1       8.834 -19.991  19.249  1.00  0.00     0.066 CG0
ATOM     18  G   UNL     1       8.846 -21.333  19.956  1.00  0.00     0.000 G0
ENDBRANCH  13  17
ENDBRANCH  11  13
ENDBRANCH  10  11
ENDBRANCH   1  10
TORSDOF 0
ENDMDL
MODEL 8
REMARK VINA RESULT:    -3.935      2.644      4.169
REMARK INTER + INTRA:          -5.399
REMARK INTER:                  -5.474
REMARK INTRA:                   0.075
REMARK UNBOUND:                 0.146
REMARK SMILES CC1=CCC(=C(C)C)C(=O)CC(C)=CCC1
REMARK SMILES IDX 12 1 14 2 13 3 15 4 16 5 2 6 1 7 3 8 11 10 9 11 10 12 5 13
REMARK SMILES IDX 6 14 7 15 8 16 4 17
REMARK H PARENT
REMARK Flexibility Score: 60.00
ROOT
ATOM      1  C   UNL     1       7.715 -16.270  23.457  1.00  0.00    -0.070 C 
ATOM      2  C   UNL     1       6.885 -17.196  24.017  1.00  0.00    -0.027 C 
ATOM      3  C   UNL     1       7.111 -15.360  22.413  1.00  0.00     0.039 C 
ENDROOT
BRANCH   2   4
ATOM      4  C   UNL     1       7.144 -18.298  25.038  1.00  0.00     0.032 C 
BRANCH   4   5
ATOM      5  C   UNL     1       7.263 -19.732  24.510  1.00  0.00     0.034 C 
BRANCH   5   6
ATOM      6  C   UNL     1       8.125 -19.979  23.262  1.00  0.00    -0.077 C 
ATOM      7  C   UNL     1       7.431 -20.702  22.128  1.00  0.00     0.039 C 
ATOM      8  C   UNL     1       9.450 -19.711  23.066  1.00  0.00    -0.023 CG0
ATOM      9  G   UNL     1      10.479 -19.066  23.974  1.00  0.00     0.000 G0
ENDBRANCH   5   6
ENDBRANCH   4   5
ENDBRANCH   2   4
BRANCH   1  10
ATOM     10  C   UNL     1       9.186 -16.051  23.780  1.00  0.00     0.111 C 
BRANCH  10  11
ATOM     11  C   UNL     1      10.080 -16.827  22.863  1.00  0.00     0.163 C 
ATOM     12  O   UNL     1       9.958 -16.675  21.617  1.00  0.00    -0.294 OA
BRANCH  11  13
ATOM     13  C   UNL     1      11.068 -17.796  23.404  1.00  0.00    -0.002 C 
ATOM     14  C   UNL     1      12.409 -17.544  23.366  1.00  0.00    -0.069 C 
ATOM     15  C   UNL     1      13.422 -18.573  23.816  1.00  0.00     0.039 C 
ATOM     16  C   UNL     1      12.940 -16.214  22.882  1.00  0.00     0.039 C 
BRANCH  13  17
ATOM     17  C   UNL     1      10.498 -19.076  23.978  1.00  0.00     0.066 CG0
ATOM     18  G   UNL     1       9.459 -19.695  23.063  1.00  0.00     0.000 G0
ENDBRANCH  13  17
ENDBRANCH  11  13
ENDBRANCH  10  11
ENDBRANCH   1  10
TORSDOF 0
ENDMDL
MODEL 9
REMARK VINA RESULT:    -3.861      2.148      4.659
REMARK INTER + INTRA:          -5.294
REMARK INTER:                  -5.529
REMARK INTRA:                   0.234
REMARK UNBOUND:                 0.146
REMARK SMILES CC1=CCC(=C(C)C)C(=O)CC(C)=CCC1
REMARK SMILES IDX 12 1 14 2 13 3 15 4 16 5 2 6 1 7 3 8 11 10 9 11 10 12 5 13
REMARK SMILES IDX 6 14 7 15 8 16 4 17
REMARK H PARENT
REMARK Flexibility Score: 60.00
ROOT
ATOM      1  C   UNL     1       7.967 -21.652  22.026  1.00  0.00    -0.070 C 
ATOM      2  C   UNL     1       7.017 -21.093  22.830  1.00  0.00    -0.027 C 
ATOM      3  C   UNL     1       7.469 -22.497  20.876  1.00  0.00     0.039 C 
ENDROOT
BRANCH   2   4
ATOM      4  C   UNL     1       7.134 -20.246  24.092  1.00  0.00     0.032 C 
BRANCH   4   5
ATOM      5  C   UNL     1       6.633 -18.799  24.016  1.00  0.00     0.034 C 
BRANCH   5   6
ATOM      6  C   UNL     1       7.664 -17.683  23.787  1.00  0.00    -0.077 C 
ATOM      7  C   UNL     1       7.094 -16.358  23.328  1.00  0.00     0.039 C 
ATOM      8  C   UNL     1       9.027 -17.743  23.860  1.00  0.00    -0.023 CG0
ATOM      9  G   UNL     1       9.954 -18.890  24.215  1.00  0.00     0.000 G0
ENDBRANCH   5   6
ENDBRANCH   4   5
ENDBRANCH   2   4
BRANCH   1  10
ATOM     10  C   UNL     1       9.475 -21.507  22.161  1.00  0.00     0.111 C 
BRANCH  10  11
ATOM     11  C   UNL     1       9.918 -20.089  21.972  1.00  0.00     0.163 C 
ATOM     12  O   UNL     1       9.627 -19.495  20.897  1.00  0.00    -0.294 OA
BRANCH  11  13
ATOM     13  C   UNL     1      10.725 -19.400  23.011  1.00  0.00    -0.002 C 
ATOM     14  C   UNL     1      12.077 -19.258  22.887  1.00  0.00    -0.069 C 
ATOM     15  C   UNL     1      12.916 -18.653  23.991  1.00  0.00     0.039 C 
ATOM     16  C   UNL     1      12.795 -19.687  21.627  1.00  0.00     0.039 C 
BRANCH  13  17
ATOM     17  C   UNL     1       9.962 -18.887  24.214  1.00  0.00     0.066 CG0
ATOM     18  G   UNL     1       9.027 -17.748  23.850  1.00  0.00     0.000 G0
ENDBRANCH  13  17
ENDBRANCH  11  13
ENDBRANCH  10  11
ENDBRANCH   1  10
TORSDOF 0
ENDMDL
