MODEL 1
REMARK VINA RESULT:    -2.880      0.000      0.000
REMARK INTER + INTRA:          -3.258
REMARK INTER:                  -3.217
REMARK INTRA:                  -0.040
REMARK UNBOUND:                -0.040
REMARK SMILES CCCC(=O)[O-]
REMARK SMILES IDX 3 1 4 2 5 3 6 4 2 5 1 6
REMARK H PARENT
REMARK Flexibility Score: inf
ROOT
ATOM      1  C   UNL     1      -2.481 -48.853  18.145  1.00  0.00     0.052 C 
ENDROOT
BRANCH   1   2
ATOM      2  C   UNL     1      -1.864 -47.534  17.790  1.00  0.00     0.041 C 
ATOM      3  O   UNL     1      -1.599 -46.696  18.692  1.00  0.00    -0.550 OA
ATOM      4  O   UNL     1      -1.613 -47.219  16.462  1.00  0.00    -0.550 OA
ENDBRANCH   1   2
BRANCH   1   5
ATOM      5  C   UNL     1      -3.877 -48.679  18.758  1.00  0.00     0.003 C 
ATOM      6  C   UNL     1      -4.986 -48.747  17.707  1.00  0.00     0.004 C 
ENDBRANCH   1   5
TORSDOF 2
ENDMDL
MODEL 2
REMARK VINA RESULT:    -2.848      2.090      2.952
REMARK INTER + INTRA:          -3.221
REMARK INTER:                  -3.150
REMARK INTRA:                  -0.072
REMARK UNBOUND:                -0.040
REMARK SMILES CCCC(=O)[O-]
REMARK SMILES IDX 3 1 4 2 5 3 6 4 2 5 1 6
REMARK H PARENT
REMARK Flexibility Score: inf
ROOT
ATOM      1  C   UNL     1      -2.359 -48.761  18.103  1.00  0.00     0.052 C 
ENDROOT
BRANCH   1   2
ATOM      2  C   UNL     1      -3.845 -48.611  18.220  1.00  0.00     0.041 C 
ATOM      3  O   UNL     1      -4.432 -48.922  19.290  1.00  0.00    -0.550 OA
ATOM      4  O   UNL     1      -4.585 -48.160  17.135  1.00  0.00    -0.550 OA
ENDBRANCH   1   2
BRANCH   1   5
ATOM      5  C   UNL     1      -1.683 -47.439  17.715  1.00  0.00     0.003 C 
ATOM      6  C   UNL     1      -1.959 -46.327  18.727  1.00  0.00     0.004 C 
ENDBRANCH   1   5
TORSDOF 2
ENDMDL
MODEL 3
REMARK VINA RESULT:    -2.847      0.186      1.331
REMARK INTER + INTRA:          -3.221
REMARK INTER:                  -3.180
REMARK INTRA:                  -0.041
REMARK UNBOUND:                -0.040
REMARK SMILES CCCC(=O)[O-]
REMARK SMILES IDX 3 1 4 2 5 3 6 4 2 5 1 6
REMARK H PARENT
REMARK Flexibility Score: inf
ROOT
ATOM      1  C   UNL     1      -2.428 -48.786  18.104  1.00  0.00     0.052 C 
ENDROOT
BRANCH   1   2
ATOM      2  C   UNL     1      -1.889 -47.414  17.833  1.00  0.00     0.041 C 
ATOM      3  O   UNL     1      -1.524 -47.095  16.670  1.00  0.00    -0.550 OA
ATOM      4  O   UNL     1      -1.760 -46.500  18.870  1.00  0.00    -0.550 OA
ENDBRANCH   1   2
BRANCH   1   5
ATOM      5  C   UNL     1      -3.841 -48.733  18.699  1.00  0.00     0.003 C 
ATOM      6  C   UNL     1      -4.926 -48.742  17.621  1.00  0.00     0.004 C 
ENDBRANCH   1   5
TORSDOF 2
ENDMDL
MODEL 4
REMARK VINA RESULT:    -2.831      2.144      3.209
REMARK INTER + INTRA:          -3.203
REMARK INTER:                  -3.134
REMARK INTRA:                  -0.069
REMARK UNBOUND:                -0.040
REMARK SMILES CCCC(=O)[O-]
REMARK SMILES IDX 3 1 4 2 5 3 6 4 2 5 1 6
REMARK H PARENT
REMARK Flexibility Score: inf
ROOT
ATOM      1  C   UNL     1      -2.381 -48.732  18.135  1.00  0.00     0.052 C 
ENDROOT
BRANCH   1   2
ATOM      2  C   UNL     1      -3.878 -48.674  18.157  1.00  0.00     0.041 C 
ATOM      3  O   UNL     1      -4.513 -48.298  17.137  1.00  0.00    -0.550 OA
ATOM      4  O   UNL     1      -4.569 -49.002  19.316  1.00  0.00    -0.550 OA
ENDBRANCH   1   2
BRANCH   1   5
ATOM      5  C   UNL     1      -1.765 -47.377  17.764  1.00  0.00     0.003 C 
ATOM      6  C   UNL     1      -2.089 -46.291  18.790  1.00  0.00     0.004 C 
ENDBRANCH   1   5
TORSDOF 2
ENDMDL
MODEL 5
REMARK VINA RESULT:    -2.784      2.017      2.951
REMARK INTER + INTRA:          -3.150
REMARK INTER:                  -3.097
REMARK INTRA:                  -0.053
REMARK UNBOUND:                -0.040
REMARK SMILES CCCC(=O)[O-]
REMARK SMILES IDX 3 1 4 2 5 3 6 4 2 5 1 6
REMARK H PARENT
REMARK Flexibility Score: inf
ROOT
ATOM      1  C   UNL     1      -1.696 -46.731  18.453  1.00  0.00     0.052 C 
ENDROOT
BRANCH   1   2
ATOM      2  C   UNL     1      -2.016 -48.067  17.855  1.00  0.00     0.041 C 
ATOM      3  O   UNL     1      -3.117 -48.626  18.104  1.00  0.00    -0.550 OA
ATOM      4  O   UNL     1      -1.085 -48.710  17.050  1.00  0.00    -0.550 OA
ENDBRANCH   1   2
BRANCH   1   5
ATOM      5  C   UNL     1      -2.403 -45.592  17.708  1.00  0.00     0.003 C 
ATOM      6  C   UNL     1      -1.717 -45.248  16.385  1.00  0.00     0.004 C 
ENDBRANCH   1   5
TORSDOF 2
ENDMDL
MODEL 6
REMARK VINA RESULT:    -2.717      1.930      2.727
REMARK INTER + INTRA:          -3.075
REMARK INTER:                  -3.037
REMARK INTRA:                  -0.039
REMARK UNBOUND:                -0.040
REMARK SMILES CCCC(=O)[O-]
REMARK SMILES IDX 3 1 4 2 5 3 6 4 2 5 1 6
REMARK H PARENT
REMARK Flexibility Score: inf
ROOT
ATOM      1  C   UNL     1      -4.849 -48.827  17.786  1.00  0.00     0.052 C 
ENDROOT
BRANCH   1   2
ATOM      2  C   UNL     1      -3.632 -49.065  16.944  1.00  0.00     0.041 C 
ATOM      3  O   UNL     1      -3.749 -49.297  15.712  1.00  0.00    -0.550 OA
ATOM      4  O   UNL     1      -2.373 -49.063  17.528  1.00  0.00    -0.550 OA
ENDBRANCH   1   2
BRANCH   1   5
ATOM      5  C   UNL     1      -4.498 -48.733  19.277  1.00  0.00     0.003 C 
ATOM      6  C   UNL     1      -4.553 -47.296  19.797  1.00  0.00     0.004 C 
ENDBRANCH   1   5
TORSDOF 2
ENDMDL
MODEL 7
REMARK VINA RESULT:    -2.709      2.406      3.086
REMARK INTER + INTRA:          -3.067
REMARK INTER:                  -3.001
REMARK INTRA:                  -0.066
REMARK UNBOUND:                -0.040
REMARK SMILES CCCC(=O)[O-]
REMARK SMILES IDX 3 1 4 2 5 3 6 4 2 5 1 6
REMARK H PARENT
REMARK Flexibility Score: inf
ROOT
ATOM      1  C   UNL     1      -4.130 -48.766  19.086  1.00  0.00     0.052 C 
ENDROOT
BRANCH   1   2
ATOM      2  C   UNL     1      -4.746 -47.429  19.362  1.00  0.00     0.041 C 
ATOM      3  O   UNL     1      -4.627 -46.897  20.497  1.00  0.00    -0.550 OA
ATOM      4  O   UNL     1      -5.481 -46.785  18.375  1.00  0.00    -0.550 OA
ENDBRANCH   1   2
BRANCH   1   5
ATOM      5  C   UNL     1      -3.102 -48.693  17.949  1.00  0.00     0.003 C 
ATOM      6  C   UNL     1      -2.038 -47.622  18.195  1.00  0.00     0.004 C 
ENDBRANCH   1   5
TORSDOF 2
ENDMDL
MODEL 8
REMARK VINA RESULT:    -2.670      2.312      2.988
REMARK INTER + INTRA:          -3.023
REMARK INTER:                  -3.017
REMARK INTRA:                  -0.005
REMARK UNBOUND:                -0.040
REMARK SMILES CCCC(=O)[O-]
REMARK SMILES IDX 3 1 4 2 5 3 6 4 2 5 1 6
REMARK H PARENT
REMARK Flexibility Score: inf
ROOT
ATOM      1  C   UNL     1      -2.434 -48.541  18.106  1.00  0.00     0.052 C 
ENDROOT
BRANCH   1   2
ATOM      2  C   UNL     1      -2.300 -49.360  16.858  1.00  0.00     0.041 C 
ATOM      3  O   UNL     1      -3.313 -49.618  16.156  1.00  0.00    -0.550 OA
ATOM      4  O   UNL     1      -1.061 -49.866  16.490  1.00  0.00    -0.550 OA
ENDBRANCH   1   2
BRANCH   1   5
ATOM      5  C   UNL     1      -1.582 -47.267  18.042  1.00  0.00     0.003 C 
ATOM      6  C   UNL     1      -2.182 -46.126  18.866  1.00  0.00     0.004 C 
ENDBRANCH   1   5
TORSDOF 2
ENDMDL
MODEL 9
REMARK VINA RESULT:    -2.656      1.947      2.740
REMARK INTER + INTRA:          -3.007
REMARK INTER:                  -2.985
REMARK INTRA:                  -0.022
REMARK UNBOUND:                -0.040
REMARK SMILES CCCC(=O)[O-]
REMARK SMILES IDX 3 1 4 2 5 3 6 4 2 5 1 6
REMARK H PARENT
REMARK Flexibility Score: inf
ROOT
ATOM      1  C   UNL     1      -1.678 -46.747  18.531  1.00  0.00     0.052 C 
ENDROOT
BRANCH   1   2
ATOM      2  C   UNL     1      -2.346 -45.436  18.247  1.00  0.00     0.041 C 
ATOM      3  O   UNL     1      -2.575 -45.084  17.060  1.00  0.00    -0.550 OA
ATOM      4  O   UNL     1      -2.685 -44.588  19.294  1.00  0.00    -0.550 OA
ENDBRANCH   1   2
BRANCH   1   5
ATOM      5  C   UNL     1      -2.582 -47.933  18.171  1.00  0.00     0.003 C 
ATOM      6  C   UNL     1      -1.840 -49.007  17.373  1.00  0.00     0.004 C 
ENDBRANCH   1   5
TORSDOF 2
ENDMDL
