MODEL 1
REMARK VINA RESULT:    -6.049      0.000      0.000
REMARK INTER + INTRA:          -8.854
REMARK INTER:                  -8.171
REMARK INTRA:                  -0.682
REMARK UNBOUND:                -0.682
REMARK SMILES COc1ccc(-c2cc(=O)c3c(OC)c(OC)c(OC)c(OC)c3o2)cc1
REMARK SMILES IDX 7 1 8 2 9 3 10 4 11 5 24 6 25 7 21 8 18 9 15 10 12 11 6 12
REMARK SMILES IDX 3 13 4 14 27 15 5 16 26 17 2 18 1 19 22 20 23 21 13 22 14 23
REMARK SMILES IDX 19 24 20 25 16 26 17 27
REMARK H PARENT
REMARK Flexibility Score: inf
ROOT
ATOM      1  C   UNL     1       8.640  13.538 -17.569  1.00  0.00     0.138 A 
ATOM      2  C   UNL     1       9.273  12.655 -18.447  1.00  0.00     0.100 A 
ATOM      3  C   UNL     1       9.490  11.339 -18.052  1.00  0.00     0.197 A 
ATOM      4  O   UNL     1      10.063  10.560 -18.859  1.00  0.00    -0.289 OA
ATOM      5  C   UNL     1       9.071  10.909 -16.768  1.00  0.00     0.115 A 
ATOM      6  C   UNL     1       8.422  11.855 -15.940  1.00  0.00     0.188 A 
ATOM      7  O   UNL     1       8.242  13.100 -16.378  1.00  0.00    -0.452 OA
ATOM      8  C   UNL     1       7.978  11.492 -14.648  1.00  0.00     0.209 A 
ATOM      9  C   UNL     1       8.189  10.170 -14.179  1.00  0.00     0.211 A 
ATOM     10  C   UNL     1       8.859   9.223 -15.001  1.00  0.00     0.208 A 
ATOM     11  C   UNL     1       9.290   9.591 -16.302  1.00  0.00     0.179 A 
ENDROOT
BRANCH   1  12
ATOM     12  C   UNL     1       8.396  14.954 -17.938  1.00  0.00     0.018 A 
ATOM     13  C   UNL     1       7.953  17.643 -18.682  1.00  0.00     0.118 A 
ATOM     14  C   UNL     1       6.963  16.922 -18.007  1.00  0.00     0.047 A 
ATOM     15  C   UNL     1       9.171  17.010 -18.990  1.00  0.00     0.047 A 
ATOM     16  C   UNL     1       7.176  15.590 -17.640  1.00  0.00     0.016 A 
ATOM     17  C   UNL     1       9.387  15.678 -18.622  1.00  0.00     0.016 A 
BRANCH  13  18
ATOM     18  O   UNL     1       7.690  18.977 -19.027  1.00  0.00    -0.497 OA
ATOM     19  C   UNL     1       8.158  20.104 -18.294  1.00  0.00     0.278 C 
ENDBRANCH  13  18
ENDBRANCH   1  12
BRANCH   8  20
ATOM     20  O   UNL     1       7.342  12.410 -13.790  1.00  0.00    -0.490 OA
ATOM     21  C   UNL     1       5.948  12.675 -13.683  1.00  0.00     0.278 C 
ENDBRANCH   8  20
BRANCH  11  22
ATOM     22  O   UNL     1       9.944   8.690 -17.172  1.00  0.00    -0.492 OA
ATOM     23  C   UNL     1      11.267   8.174 -17.067  1.00  0.00     0.278 C 
ENDBRANCH  11  22
BRANCH   9  24
ATOM     24  O   UNL     1       7.752   9.746 -12.909  1.00  0.00    -0.490 OA
ATOM     25  C   UNL     1       6.497   9.171 -12.558  1.00  0.00     0.279 C 
ENDBRANCH   9  24
BRANCH  10  26
ATOM     26  O   UNL     1       9.117   7.905 -14.573  1.00  0.00    -0.490 OA
ATOM     27  C   UNL     1       8.320   6.742 -14.772  1.00  0.00     0.278 C 
ENDBRANCH  10  26
TORSDOF 6
ENDMDL
MODEL 2
REMARK VINA RESULT:    -5.982      2.714      7.683
REMARK INTER + INTRA:          -8.762
REMARK INTER:                  -8.246
REMARK INTRA:                  -0.516
REMARK UNBOUND:                -0.682
REMARK SMILES COc1ccc(-c2cc(=O)c3c(OC)c(OC)c(OC)c(OC)c3o2)cc1
REMARK SMILES IDX 7 1 8 2 9 3 10 4 11 5 24 6 25 7 21 8 18 9 15 10 12 11 6 12
REMARK SMILES IDX 3 13 4 14 27 15 5 16 26 17 2 18 1 19 22 20 23 21 13 22 14 23
REMARK SMILES IDX 19 24 20 25 16 26 17 27
REMARK H PARENT
REMARK Flexibility Score: inf
ROOT
ATOM      1  C   UNL     1       7.161   9.921 -15.638  1.00  0.00     0.138 A 
ATOM      2  C   UNL     1       6.410   9.517 -16.744  1.00  0.00     0.100 A 
ATOM      3  C   UNL     1       6.588  10.163 -17.963  1.00  0.00     0.197 A 
ATOM      4  O   UNL     1       5.900   9.782 -18.947  1.00  0.00    -0.289 OA
ATOM      5  C   UNL     1       7.526  11.220 -18.071  1.00  0.00     0.115 A 
ATOM      6  C   UNL     1       8.263  11.562 -16.913  1.00  0.00     0.188 A 
ATOM      7  O   UNL     1       8.046  10.905 -15.775  1.00  0.00    -0.452 OA
ATOM      8  C   UNL     1       9.215  12.608 -16.952  1.00  0.00     0.209 A 
ATOM      9  C   UNL     1       9.428  13.317 -18.161  1.00  0.00     0.211 A 
ATOM     10  C   UNL     1       8.674  12.989 -19.321  1.00  0.00     0.208 A 
ATOM     11  C   UNL     1       7.731  11.929 -19.278  1.00  0.00     0.179 A 
ENDROOT
BRANCH   1  12
ATOM     12  C   UNL     1       6.999   9.275 -14.313  1.00  0.00     0.018 A 
ATOM     13  C   UNL     1       6.720   8.008 -11.803  1.00  0.00     0.118 A 
ATOM     14  C   UNL     1       6.836   9.400 -11.886  1.00  0.00     0.047 A 
ATOM     15  C   UNL     1       6.749   7.247 -12.986  1.00  0.00     0.047 A 
ATOM     16  C   UNL     1       6.978  10.030 -13.125  1.00  0.00     0.016 A 
ATOM     17  C   UNL     1       6.889   7.877 -14.227  1.00  0.00     0.016 A 
BRANCH  13  18
ATOM     18  O   UNL     1       6.578   7.424 -10.535  1.00  0.00    -0.497 OA
ATOM     19  C   UNL     1       7.307   7.824  -9.381  1.00  0.00     0.278 C 
ENDBRANCH  13  18
ENDBRANCH   1  12
BRANCH   8  20
ATOM     20  O   UNL     1       9.956  12.987 -15.816  1.00  0.00    -0.490 OA
ATOM     21  C   UNL     1       9.621  13.980 -14.854  1.00  0.00     0.278 C 
ENDBRANCH   8  20
BRANCH  11  22
ATOM     22  O   UNL     1       6.966  11.543 -20.401  1.00  0.00    -0.492 OA
ATOM     23  C   UNL     1       5.875  12.236 -21.000  1.00  0.00     0.278 C 
ENDBRANCH  11  22
BRANCH   9  24
ATOM     24  O   UNL     1      10.376  14.354 -18.265  1.00  0.00    -0.490 OA
ATOM     25  C   UNL     1      10.158  15.758 -18.165  1.00  0.00     0.279 C 
ENDBRANCH   9  24
BRANCH  10  26
ATOM     26  O   UNL     1       8.829  13.679 -20.539  1.00  0.00    -0.490 OA
ATOM     27  C   UNL     1       8.198  14.886 -20.956  1.00  0.00     0.278 C 
ENDBRANCH  10  26
TORSDOF 6
ENDMDL
MODEL 3
REMARK VINA RESULT:    -5.921      2.748      7.856
REMARK INTER + INTRA:          -8.680
REMARK INTER:                  -8.162
REMARK INTRA:                  -0.518
REMARK UNBOUND:                -0.682
REMARK SMILES COc1ccc(-c2cc(=O)c3c(OC)c(OC)c(OC)c(OC)c3o2)cc1
REMARK SMILES IDX 7 1 8 2 9 3 10 4 11 5 24 6 25 7 21 8 18 9 15 10 12 11 6 12
REMARK SMILES IDX 3 13 4 14 27 15 5 16 26 17 2 18 1 19 22 20 23 21 13 22 14 23
REMARK SMILES IDX 19 24 20 25 16 26 17 27
REMARK H PARENT
REMARK Flexibility Score: inf
ROOT
ATOM      1  C   UNL     1       7.929  10.541 -14.765  1.00  0.00     0.138 A 
ATOM      2  C   UNL     1       8.875  11.541 -14.524  1.00  0.00     0.100 A 
ATOM      3  C   UNL     1       9.284  12.359 -15.571  1.00  0.00     0.197 A 
ATOM      4  O   UNL     1      10.138  13.255 -15.332  1.00  0.00    -0.289 OA
ATOM      5  C   UNL     1       8.742  12.172 -16.868  1.00  0.00     0.115 A 
ATOM      6  C   UNL     1       7.776  11.151 -17.031  1.00  0.00     0.188 A 
ATOM      7  O   UNL     1       7.426  10.402 -15.988  1.00  0.00    -0.452 OA
ATOM      8  C   UNL     1       7.195  10.911 -18.298  1.00  0.00     0.209 A 
ATOM      9  C   UNL     1       7.587  11.699 -19.410  1.00  0.00     0.211 A 
ATOM     10  C   UNL     1       8.571  12.713 -19.253  1.00  0.00     0.208 A 
ATOM     11  C   UNL     1       9.140  12.957 -17.975  1.00  0.00     0.179 A 
ENDROOT
BRANCH   1  12
ATOM     12  C   UNL     1       7.470   9.634 -13.685  1.00  0.00     0.018 A 
ATOM     13  C   UNL     1       6.631   7.875 -11.641  1.00  0.00     0.118 A 
ATOM     14  C   UNL     1       6.634   9.258 -11.429  1.00  0.00     0.047 A 
ATOM     15  C   UNL     1       7.057   7.371 -12.883  1.00  0.00     0.047 A 
ATOM     16  C   UNL     1       7.051  10.131 -12.437  1.00  0.00     0.016 A 
ATOM     17  C   UNL     1       7.473   8.245 -13.893  1.00  0.00     0.016 A 
BRANCH  13  18
ATOM     18  O   UNL     1       6.201   7.041 -10.597  1.00  0.00    -0.497 OA
ATOM     19  C   UNL     1       6.649   7.143  -9.250  1.00  0.00     0.278 C 
ENDBRANCH  13  18
ENDBRANCH   1  12
BRANCH   8  20
ATOM     20  O   UNL     1       6.243   9.894 -18.503  1.00  0.00    -0.490 OA
ATOM     21  C   UNL     1       6.479   8.496 -18.625  1.00  0.00     0.278 C 
ENDBRANCH   8  20
BRANCH  11  22
ATOM     22  O   UNL     1      10.108  13.961 -17.751  1.00  0.00    -0.492 OA
ATOM     23  C   UNL     1       9.922  15.373 -17.746  1.00  0.00     0.278 C 
ENDBRANCH  11  22
BRANCH   9  24
ATOM     24  O   UNL     1       7.028  11.519 -20.691  1.00  0.00    -0.490 OA
ATOM     25  C   UNL     1       5.876  12.148 -21.244  1.00  0.00     0.279 C 
ENDBRANCH   9  24
BRANCH  10  26
ATOM     26  O   UNL     1       9.013  13.506 -20.330  1.00  0.00    -0.490 OA
ATOM     27  C   UNL     1       8.431  14.700 -20.844  1.00  0.00     0.278 C 
ENDBRANCH  10  26
TORSDOF 6
ENDMDL
MODEL 4
REMARK VINA RESULT:    -5.499      2.449      8.310
REMARK INTER + INTRA:          -8.110
REMARK INTER:                  -7.599
REMARK INTRA:                  -0.511
REMARK UNBOUND:                -0.682
REMARK SMILES COc1ccc(-c2cc(=O)c3c(OC)c(OC)c(OC)c(OC)c3o2)cc1
REMARK SMILES IDX 7 1 8 2 9 3 10 4 11 5 24 6 25 7 21 8 18 9 15 10 12 11 6 12
REMARK SMILES IDX 3 13 4 14 27 15 5 16 26 17 2 18 1 19 22 20 23 21 13 22 14 23
REMARK SMILES IDX 19 24 20 25 16 26 17 27
REMARK H PARENT
REMARK Flexibility Score: inf
ROOT
ATOM      1  C   UNL     1       7.743   9.511 -15.923  1.00  0.00     0.138 A 
ATOM      2  C   UNL     1       8.180  10.239 -14.814  1.00  0.00     0.100 A 
ATOM      3  C   UNL     1       8.458  11.594 -14.954  1.00  0.00     0.197 A 
ATOM      4  O   UNL     1       8.852  12.232 -13.940  1.00  0.00    -0.289 OA
ATOM      5  C   UNL     1       8.297  12.222 -16.214  1.00  0.00     0.115 A 
ATOM      6  C   UNL     1       7.834  11.424 -17.288  1.00  0.00     0.188 A 
ATOM      7  O   UNL     1       7.584  10.131 -17.088  1.00  0.00    -0.452 OA
ATOM      8  C   UNL     1       7.652  11.988 -18.572  1.00  0.00     0.209 A 
ATOM      9  C   UNL     1       7.938  13.361 -18.783  1.00  0.00     0.211 A 
ATOM     10  C   UNL     1       8.422  14.159 -17.711  1.00  0.00     0.208 A 
ATOM     11  C   UNL     1       8.590  13.590 -16.422  1.00  0.00     0.179 A 
ENDROOT
BRANCH   1  12
ATOM     12  C   UNL     1       7.446   8.061 -15.829  1.00  0.00     0.018 A 
ATOM     13  C   UNL     1       6.920   5.289 -15.678  1.00  0.00     0.118 A 
ATOM     14  C   UNL     1       6.748   6.106 -14.555  1.00  0.00     0.047 A 
ATOM     15  C   UNL     1       7.364   5.865 -16.883  1.00  0.00     0.047 A 
ATOM     16  C   UNL     1       7.011   7.477 -14.625  1.00  0.00     0.016 A 
ATOM     17  C   UNL     1       7.625   7.238 -16.954  1.00  0.00     0.016 A 
BRANCH  13  18
ATOM     18  O   UNL     1       6.642   3.919 -15.557  1.00  0.00    -0.497 OA
ATOM     19  C   UNL     1       7.261   2.902 -16.335  1.00  0.00     0.278 C 
ENDBRANCH  13  18
ENDBRANCH   1  12
BRANCH   8  20
ATOM     20  O   UNL     1       7.208  11.222 -19.668  1.00  0.00    -0.490 OA
ATOM     21  C   UNL     1       5.875  11.083 -20.145  1.00  0.00     0.278 C 
ENDBRANCH   8  20
BRANCH  11  22
ATOM     22  O   UNL     1       9.049  14.336 -15.313  1.00  0.00    -0.492 OA
ATOM     23  C   UNL     1      10.394  14.641 -14.958  1.00  0.00     0.278 C 
ENDBRANCH  11  22
BRANCH   9  24
ATOM     24  O   UNL     1       7.756  13.980 -20.035  1.00  0.00    -0.490 OA
ATOM     25  C   UNL     1       8.656  14.013 -21.139  1.00  0.00     0.279 C 
ENDBRANCH   9  24
BRANCH  10  26
ATOM     26  O   UNL     1       8.745  15.521 -17.874  1.00  0.00    -0.490 OA
ATOM     27  C   UNL     1       9.937  16.087 -18.411  1.00  0.00     0.278 C 
ENDBRANCH  10  26
TORSDOF 6
ENDMDL
MODEL 5
REMARK VINA RESULT:    -5.492      1.960      7.450
REMARK INTER + INTRA:          -8.100
REMARK INTER:                  -7.564
REMARK INTRA:                  -0.536
REMARK UNBOUND:                -0.682
REMARK SMILES COc1ccc(-c2cc(=O)c3c(OC)c(OC)c(OC)c(OC)c3o2)cc1
REMARK SMILES IDX 7 1 8 2 9 3 10 4 11 5 24 6 25 7 21 8 18 9 15 10 12 11 6 12
REMARK SMILES IDX 3 13 4 14 27 15 5 16 26 17 2 18 1 19 22 20 23 21 13 22 14 23
REMARK SMILES IDX 19 24 20 25 16 26 17 27
REMARK H PARENT
REMARK Flexibility Score: inf
ROOT
ATOM      1  C   UNL     1       8.075  10.276 -15.199  1.00  0.00     0.138 A 
ATOM      2  C   UNL     1       8.691   9.630 -16.274  1.00  0.00     0.100 A 
ATOM      3  C   UNL     1       9.044  10.365 -17.400  1.00  0.00     0.197 A 
ATOM      4  O   UNL     1       9.598   9.762 -18.358  1.00  0.00    -0.289 OA
ATOM      5  C   UNL     1       8.777  11.756 -17.448  1.00  0.00     0.115 A 
ATOM      6  C   UNL     1       8.167  12.344 -16.315  1.00  0.00     0.188 A 
ATOM      7  O   UNL     1       7.854  11.585 -15.266  1.00  0.00    -0.452 OA
ATOM      8  C   UNL     1       7.873  13.727 -16.296  1.00  0.00     0.209 A 
ATOM      9  C   UNL     1       8.191  14.527 -17.424  1.00  0.00     0.211 A 
ATOM     10  C   UNL     1       8.786  13.935 -18.571  1.00  0.00     0.208 A 
ATOM     11  C   UNL     1       9.090  12.549 -18.577  1.00  0.00     0.179 A 
ENDROOT
BRANCH   1  12
ATOM     12  C   UNL     1       7.667   9.535 -13.981  1.00  0.00     0.018 A 
ATOM     13  C   UNL     1       6.933   8.103 -11.659  1.00  0.00     0.118 A 
ATOM     14  C   UNL     1       6.562   9.443 -11.813  1.00  0.00     0.047 A 
ATOM     15  C   UNL     1       7.681   7.479 -12.674  1.00  0.00     0.047 A 
ATOM     16  C   UNL     1       6.926  10.156 -12.958  1.00  0.00     0.016 A 
ATOM     17  C   UNL     1       8.044   8.191 -13.822  1.00  0.00     0.016 A 
BRANCH  13  18
ATOM     18  O   UNL     1       6.541   7.431 -10.491  1.00  0.00    -0.497 OA
ATOM     19  C   UNL     1       7.266   7.459  -9.267  1.00  0.00     0.278 C 
ENDBRANCH  13  18
ENDBRANCH   1  12
BRANCH   8  20
ATOM     20  O   UNL     1       7.252  14.345 -15.194  1.00  0.00    -0.490 OA
ATOM     21  C   UNL     1       5.875  14.303 -14.837  1.00  0.00     0.278 C 
ENDBRANCH   8  20
BRANCH  11  22
ATOM     22  O   UNL     1       9.698  11.907 -19.678  1.00  0.00    -0.492 OA
ATOM     23  C   UNL     1       9.156  11.693 -20.978  1.00  0.00     0.278 C 
ENDBRANCH  11  22
BRANCH   9  24
ATOM     24  O   UNL     1       7.939  15.913 -17.454  1.00  0.00    -0.490 OA
ATOM     25  C   UNL     1       6.696  16.576 -17.666  1.00  0.00     0.279 C 
ENDBRANCH   9  24
BRANCH  10  26
ATOM     26  O   UNL     1       9.098  14.680 -19.725  1.00  0.00    -0.490 OA
ATOM     27  C   UNL     1       8.211  15.162 -20.731  1.00  0.00     0.278 C 
ENDBRANCH  10  26
TORSDOF 6
ENDMDL
MODEL 6
REMARK VINA RESULT:    -5.405      2.277      3.135
REMARK INTER + INTRA:          -7.983
REMARK INTER:                  -7.491
REMARK INTRA:                  -0.492
REMARK UNBOUND:                -0.682
REMARK SMILES COc1ccc(-c2cc(=O)c3c(OC)c(OC)c(OC)c(OC)c3o2)cc1
REMARK SMILES IDX 7 1 8 2 9 3 10 4 11 5 24 6 25 7 21 8 18 9 15 10 12 11 6 12
REMARK SMILES IDX 3 13 4 14 27 15 5 16 26 17 2 18 1 19 22 20 23 21 13 22 14 23
REMARK SMILES IDX 19 24 20 25 16 26 17 27
REMARK H PARENT
REMARK Flexibility Score: inf
ROOT
ATOM      1  C   UNL     1       8.998  13.463 -17.837  1.00  0.00     0.138 A 
ATOM      2  C   UNL     1      10.144  13.045 -17.156  1.00  0.00     0.100 A 
ATOM      3  C   UNL     1      10.294  11.700 -16.834  1.00  0.00     0.197 A 
ATOM      4  O   UNL     1      11.335  11.346 -16.219  1.00  0.00    -0.289 OA
ATOM      5  C   UNL     1       9.288  10.770 -17.198  1.00  0.00     0.115 A 
ATOM      6  C   UNL     1       8.164  11.265 -17.901  1.00  0.00     0.188 A 
ATOM      7  O   UNL     1       8.080  12.564 -18.181  1.00  0.00    -0.452 OA
ATOM      8  C   UNL     1       7.124  10.391 -18.294  1.00  0.00     0.209 A 
ATOM      9  C   UNL     1       7.210   9.011 -17.978  1.00  0.00     0.211 A 
ATOM     10  C   UNL     1       8.328   8.516 -17.253  1.00  0.00     0.208 A 
ATOM     11  C   UNL     1       9.375   9.396 -16.874  1.00  0.00     0.179 A 
ENDROOT
BRANCH   1  12
ATOM     12  C   UNL     1       8.784  14.887 -18.191  1.00  0.00     0.018 A 
ATOM     13  C   UNL     1       8.351  17.606 -18.825  1.00  0.00     0.118 A 
ATOM     14  C   UNL     1       9.598  17.014 -19.053  1.00  0.00     0.047 A 
ATOM     15  C   UNL     1       7.316  16.830 -18.271  1.00  0.00     0.047 A 
ATOM     16  C   UNL     1       9.818  15.671 -18.737  1.00  0.00     0.016 A 
ATOM     17  C   UNL     1       7.534  15.484 -17.957  1.00  0.00     0.016 A 
BRANCH  13  18
ATOM     18  O   UNL     1       8.181  18.958 -19.161  1.00  0.00    -0.497 OA
ATOM     19  C   UNL     1       8.462  20.043 -18.285  1.00  0.00     0.278 C 
ENDBRANCH  13  18
ENDBRANCH   1  12
BRANCH   8  20
ATOM     20  O   UNL     1       5.983  10.848 -18.982  1.00  0.00    -0.490 OA
ATOM     21  C   UNL     1       5.875  11.176 -20.362  1.00  0.00     0.278 C 
ENDBRANCH   8  20
BRANCH  11  22
ATOM     22  O   UNL     1      10.519   8.961 -16.171  1.00  0.00    -0.492 OA
ATOM     23  C   UNL     1      10.579   8.333 -14.893  1.00  0.00     0.278 C 
ENDBRANCH  11  22
BRANCH   9  24
ATOM     24  O   UNL     1       6.214   8.091 -18.360  1.00  0.00    -0.490 OA
ATOM     25  C   UNL     1       6.187   7.253 -19.512  1.00  0.00     0.279 C 
ENDBRANCH   9  24
BRANCH  10  26
ATOM     26  O   UNL     1       8.449   7.159 -16.892  1.00  0.00    -0.490 OA
ATOM     27  C   UNL     1       7.662   6.420 -15.963  1.00  0.00     0.278 C 
ENDBRANCH  10  26
TORSDOF 6
ENDMDL
MODEL 7
REMARK VINA RESULT:    -5.382      2.286      2.700
REMARK INTER + INTRA:          -7.952
REMARK INTER:                  -7.358
REMARK INTRA:                  -0.593
REMARK UNBOUND:                -0.682
REMARK SMILES COc1ccc(-c2cc(=O)c3c(OC)c(OC)c(OC)c(OC)c3o2)cc1
REMARK SMILES IDX 7 1 8 2 9 3 10 4 11 5 24 6 25 7 21 8 18 9 15 10 12 11 6 12
REMARK SMILES IDX 3 13 4 14 27 15 5 16 26 17 2 18 1 19 22 20 23 21 13 22 14 23
REMARK SMILES IDX 19 24 20 25 16 26 17 27
REMARK H PARENT
REMARK Flexibility Score: inf
ROOT
ATOM      1  C   UNL     1       7.477  11.924 -17.709  1.00  0.00     0.138 A 
ATOM      2  C   UNL     1       6.850  11.092 -18.639  1.00  0.00     0.100 A 
ATOM      3  C   UNL     1       6.508   9.795 -18.272  1.00  0.00     0.197 A 
ATOM      4  O   UNL     1       5.943   9.061 -19.128  1.00  0.00    -0.289 OA
ATOM      5  C   UNL     1       6.797   9.331 -16.965  1.00  0.00     0.115 A 
ATOM      6  C   UNL     1       7.418  10.236 -16.072  1.00  0.00     0.188 A 
ATOM      7  O   UNL     1       7.720  11.466 -16.484  1.00  0.00    -0.452 OA
ATOM      8  C   UNL     1       7.734   9.837 -14.752  1.00  0.00     0.209 A 
ATOM      9  C   UNL     1       7.428   8.520 -14.325  1.00  0.00     0.211 A 
ATOM     10  C   UNL     1       6.823   7.603 -15.226  1.00  0.00     0.208 A 
ATOM     11  C   UNL     1       6.496   8.014 -16.544  1.00  0.00     0.179 A 
ENDROOT
BRANCH   1  12
ATOM     12  C   UNL     1       7.875  13.310 -18.054  1.00  0.00     0.018 A 
ATOM     13  C   UNL     1       8.585  15.964 -18.713  1.00  0.00     0.118 A 
ATOM     14  C   UNL     1       9.315  15.252 -17.755  1.00  0.00     0.047 A 
ATOM     15  C   UNL     1       7.489  15.343 -19.340  1.00  0.00     0.047 A 
ATOM     16  C   UNL     1       8.965  13.940 -17.423  1.00  0.00     0.016 A 
ATOM     17  C   UNL     1       7.139  14.030 -19.011  1.00  0.00     0.016 A 
BRANCH  13  18
ATOM     18  O   UNL     1       8.978  17.278 -19.011  1.00  0.00    -0.497 OA
ATOM     19  C   UNL     1       8.105  18.400 -18.995  1.00  0.00     0.278 C 
ENDBRANCH  13  18
ENDBRANCH   1  12
BRANCH   8  20
ATOM     20  O   UNL     1       8.366  10.705 -13.840  1.00  0.00    -0.490 OA
ATOM     21  C   UNL     1       7.749  11.632 -12.955  1.00  0.00     0.278 C 
ENDBRANCH   8  20
BRANCH  11  22
ATOM     22  O   UNL     1       5.877   7.155 -17.480  1.00  0.00    -0.492 OA
ATOM     23  C   UNL     1       6.471   6.100 -18.230  1.00  0.00     0.278 C 
ENDBRANCH  11  22
BRANCH   9  24
ATOM     24  O   UNL     1       7.702   8.074 -13.017  1.00  0.00    -0.490 OA
ATOM     25  C   UNL     1       6.815   8.015 -11.904  1.00  0.00     0.279 C 
ENDBRANCH   9  24
BRANCH  10  26
ATOM     26  O   UNL     1       6.522   6.276 -14.859  1.00  0.00    -0.490 OA
ATOM     27  C   UNL     1       7.378   5.139 -14.880  1.00  0.00     0.278 C 
ENDBRANCH  10  26
TORSDOF 6
ENDMDL
MODEL 8
REMARK VINA RESULT:    -5.297      2.791      8.146
REMARK INTER + INTRA:          -7.837
REMARK INTER:                  -7.277
REMARK INTRA:                  -0.560
REMARK UNBOUND:                -0.682
REMARK SMILES COc1ccc(-c2cc(=O)c3c(OC)c(OC)c(OC)c(OC)c3o2)cc1
REMARK SMILES IDX 7 1 8 2 9 3 10 4 11 5 24 6 25 7 21 8 18 9 15 10 12 11 6 12
REMARK SMILES IDX 3 13 4 14 27 15 5 16 26 17 2 18 1 19 22 20 23 21 13 22 14 23
REMARK SMILES IDX 19 24 20 25 16 26 17 27
REMARK H PARENT
REMARK Flexibility Score: inf
ROOT
ATOM      1  C   UNL     1       8.515   9.152 -17.085  1.00  0.00     0.138 A 
ATOM      2  C   UNL     1       9.722   9.507 -16.478  1.00  0.00     0.100 A 
ATOM      3  C   UNL     1      10.143  10.832 -16.521  1.00  0.00     0.197 A 
ATOM      4  O   UNL     1      11.235  11.131 -15.968  1.00  0.00    -0.289 OA
ATOM      5  C   UNL     1       9.347  11.805 -17.177  1.00  0.00     0.115 A 
ATOM      6  C   UNL     1       8.129  11.373 -17.754  1.00  0.00     0.188 A 
ATOM      7  O   UNL     1       7.782  10.090 -17.678  1.00  0.00    -0.452 OA
ATOM      8  C   UNL     1       7.288  12.292 -18.424  1.00  0.00     0.209 A 
ATOM      9  C   UNL     1       7.672  13.654 -18.518  1.00  0.00     0.211 A 
ATOM     10  C   UNL     1       8.905  14.086 -17.957  1.00  0.00     0.208 A 
ATOM     11  C   UNL     1       9.737  13.161 -17.275  1.00  0.00     0.179 A 
ENDROOT
BRANCH   1  12
ATOM     12  C   UNL     1       8.029   7.750 -17.079  1.00  0.00     0.018 A 
ATOM     13  C   UNL     1       7.074   5.092 -17.030  1.00  0.00     0.118 A 
ATOM     14  C   UNL     1       7.247   5.761 -18.246  1.00  0.00     0.047 A 
ATOM     15  C   UNL     1       7.376   5.763 -15.831  1.00  0.00     0.047 A 
ATOM     16  C   UNL     1       7.716   7.077 -18.275  1.00  0.00     0.016 A 
ATOM     17  C   UNL     1       7.848   7.080 -15.858  1.00  0.00     0.016 A 
BRANCH  13  18
ATOM     18  O   UNL     1       6.602   3.771 -17.055  1.00  0.00    -0.497 OA
ATOM     19  C   UNL     1       7.405   2.626 -16.789  1.00  0.00     0.278 C 
ENDBRANCH  13  18
ENDBRANCH   1  12
BRANCH   8  20
ATOM     20  O   UNL     1       6.077  11.897 -19.023  1.00  0.00    -0.490 OA
ATOM     21  C   UNL     1       5.879  11.421 -20.349  1.00  0.00     0.278 C 
ENDBRANCH   8  20
BRANCH  11  22
ATOM     22  O   UNL     1      10.964  13.533 -16.681  1.00  0.00    -0.492 OA
ATOM     23  C   UNL     1      11.175  14.414 -15.581  1.00  0.00     0.278 C 
ENDBRANCH  11  22
BRANCH   9  24
ATOM     24  O   UNL     1       6.866  14.617 -19.156  1.00  0.00    -0.490 OA
ATOM     25  C   UNL     1       5.988  15.565 -18.556  1.00  0.00     0.279 C 
ENDBRANCH   9  24
BRANCH  10  26
ATOM     26  O   UNL     1       9.344  15.422 -18.046  1.00  0.00    -0.490 OA
ATOM     27  C   UNL     1      10.331  15.970 -18.914  1.00  0.00     0.278 C 
ENDBRANCH  10  26
TORSDOF 6
ENDMDL
