MODEL 1
REMARK VINA RESULT:    -3.208      0.000      0.000
REMARK INTER + INTRA:          -4.223
REMARK INTER:                  -4.146
REMARK INTRA:                  -0.077
REMARK UNBOUND:                -0.077
REMARK SMILES CCCCCCC(=O)[O-]
REMARK SMILES IDX 5 1 6 2 7 3 8 4 9 5 4 6 3 7 2 8 1 9
REMARK H PARENT
REMARK Flexibility Score: inf
ROOT
ATOM      1  C   UNL     1       8.414 -21.048  13.339  1.00  0.00     0.006 C 
ENDROOT
BRANCH   1   2
ATOM      2  C   UNL     1       8.780 -19.788  12.539  1.00  0.00     0.053 C 
BRANCH   2   3
ATOM      3  C   UNL     1       8.141 -19.780  11.184  1.00  0.00     0.041 C 
ATOM      4  O   UNL     1       6.980 -19.318  11.034  1.00  0.00    -0.550 OA
ATOM      5  O   UNL     1       8.841 -20.253  10.082  1.00  0.00    -0.550 OA
ENDBRANCH   2   3
ENDBRANCH   1   2
BRANCH   1   6
ATOM      6  C   UNL     1       8.526 -20.885  14.866  1.00  0.00     0.000 C 
BRANCH   6   7
ATOM      7  C   UNL     1       7.889 -22.049  15.638  1.00  0.00    -0.000 C 
BRANCH   7   8
ATOM      8  C   UNL     1       7.715 -21.695  17.120  1.00  0.00    -0.003 C 
ATOM      9  C   UNL     1       6.253 -21.798  17.543  1.00  0.00     0.004 C 
ENDBRANCH   7   8
ENDBRANCH   6   7
ENDBRANCH   1   6
TORSDOF 5
ENDMDL
MODEL 2
REMARK VINA RESULT:    -2.858      2.954      5.339
REMARK INTER + INTRA:          -3.771
REMARK INTER:                  -3.670
REMARK INTRA:                  -0.102
REMARK UNBOUND:                -0.077
REMARK SMILES CCCCCCC(=O)[O-]
REMARK SMILES IDX 5 1 6 2 7 3 8 4 9 5 4 6 3 7 2 8 1 9
REMARK H PARENT
REMARK Flexibility Score: inf
ROOT
ATOM      1  C   UNL     1       8.531 -21.063  13.545  1.00  0.00     0.006 C 
ENDROOT
BRANCH   1   2
ATOM      2  C   UNL     1       8.599 -20.779  15.053  1.00  0.00     0.053 C 
BRANCH   2   3
ATOM      3  C   UNL     1       7.791 -21.761  15.845  1.00  0.00     0.041 C 
ATOM      4  O   UNL     1       7.803 -21.724  17.103  1.00  0.00    -0.550 OA
ATOM      5  O   UNL     1       7.001 -22.698  15.192  1.00  0.00    -0.550 OA
ENDBRANCH   2   3
ENDBRANCH   1   2
BRANCH   1   6
ATOM      6  C   UNL     1       8.986 -19.889  12.657  1.00  0.00     0.000 C 
BRANCH   6   7
ATOM      7  C   UNL     1       8.534 -20.036  11.197  1.00  0.00    -0.000 C 
BRANCH   7   8
ATOM      8  C   UNL     1       7.195 -19.326  10.964  1.00  0.00    -0.003 C 
ATOM      9  C   UNL     1       6.770 -19.418   9.502  1.00  0.00     0.004 C 
ENDBRANCH   7   8
ENDBRANCH   6   7
ENDBRANCH   1   6
TORSDOF 5
ENDMDL
MODEL 3
REMARK VINA RESULT:    -2.855      3.026      5.360
REMARK INTER + INTRA:          -3.767
REMARK INTER:                  -3.378
REMARK INTRA:                  -0.389
REMARK UNBOUND:                -0.077
REMARK SMILES CCCCCCC(=O)[O-]
REMARK SMILES IDX 5 1 6 2 7 3 8 4 9 5 4 6 3 7 2 8 1 9
REMARK H PARENT
REMARK Flexibility Score: inf
ROOT
ATOM      1  C   UNL     1       7.299 -19.360  11.105  1.00  0.00     0.006 C 
ENDROOT
BRANCH   1   2
ATOM      2  C   UNL     1       8.629 -19.733  11.779  1.00  0.00     0.053 C 
BRANCH   2   3
ATOM      3  C   UNL     1       8.443 -20.754  12.859  1.00  0.00     0.041 C 
ATOM      4  O   UNL     1       8.000 -21.899  12.579  1.00  0.00    -0.550 OA
ATOM      5  O   UNL     1       8.788 -20.451  14.169  1.00  0.00    -0.550 OA
ENDBRANCH   2   3
ENDBRANCH   1   2
BRANCH   1   6
ATOM      6  C   UNL     1       7.155 -19.874   9.660  1.00  0.00     0.000 C 
BRANCH   6   7
ATOM      7  C   UNL     1       8.450 -20.494   9.116  1.00  0.00    -0.000 C 
BRANCH   7   8
ATOM      8  C   UNL     1       8.252 -21.978   8.788  1.00  0.00    -0.003 C 
ATOM      9  C   UNL     1       6.809 -22.409   9.034  1.00  0.00     0.004 C 
ENDBRANCH   7   8
ENDBRANCH   6   7
ENDBRANCH   1   6
TORSDOF 5
ENDMDL
MODEL 4
REMARK VINA RESULT:    -2.782      1.373      2.557
REMARK INTER + INTRA:          -3.673
REMARK INTER:                  -3.463
REMARK INTRA:                  -0.210
REMARK UNBOUND:                -0.077
REMARK SMILES CCCCCCC(=O)[O-]
REMARK SMILES IDX 5 1 6 2 7 3 8 4 9 5 4 6 3 7 2 8 1 9
REMARK H PARENT
REMARK Flexibility Score: inf
ROOT
ATOM      1  C   UNL     1       7.779 -20.360  11.867  1.00  0.00     0.006 C 
ENDROOT
BRANCH   1   2
ATOM      2  C   UNL     1       8.203 -21.011  10.541  1.00  0.00     0.053 C 
BRANCH   2   3
ATOM      3  C   UNL     1       7.939 -20.117   9.369  1.00  0.00     0.041 C 
ATOM      4  O   UNL     1       8.761 -20.059   8.417  1.00  0.00    -0.550 OA
ATOM      5  O   UNL     1       6.769 -19.371   9.313  1.00  0.00    -0.550 OA
ENDBRANCH   2   3
ENDBRANCH   1   2
BRANCH   1   6
ATOM      6  C   UNL     1       8.886 -19.540  12.554  1.00  0.00     0.000 C 
BRANCH   6   7
ATOM      7  C   UNL     1       9.065 -19.904  14.035  1.00  0.00    -0.000 C 
BRANCH   7   8
ATOM      8  C   UNL     1       8.391 -21.244  14.355  1.00  0.00    -0.003 C 
ATOM      9  C   UNL     1       7.980 -21.317  15.823  1.00  0.00     0.004 C 
ENDBRANCH   7   8
ENDBRANCH   6   7
ENDBRANCH   1   6
TORSDOF 5
ENDMDL
MODEL 5
REMARK VINA RESULT:    -2.700     18.129     19.334
REMARK INTER + INTRA:          -3.566
REMARK INTER:                  -3.363
REMARK INTRA:                  -0.203
REMARK UNBOUND:                -0.077
REMARK SMILES CCCCCCC(=O)[O-]
REMARK SMILES IDX 5 1 6 2 7 3 8 4 9 5 4 6 3 7 2 8 1 9
REMARK H PARENT
REMARK Flexibility Score: inf
ROOT
ATOM      1  C   UNL     1      -9.357 -21.223  18.424  1.00  0.00     0.006 C 
ENDROOT
BRANCH   1   2
ATOM      2  C   UNL     1      -9.814 -21.465  19.871  1.00  0.00     0.053 C 
BRANCH   2   3
ATOM      3  C   UNL     1     -10.064 -20.180  20.601  1.00  0.00     0.041 C 
ATOM      4  O   UNL     1     -10.105 -19.091  19.971  1.00  0.00    -0.550 OA
ATOM      5  O   UNL     1     -10.283 -20.191  21.972  1.00  0.00    -0.550 OA
ENDBRANCH   2   3
ENDBRANCH   1   2
BRANCH   1   6
ATOM      6  C   UNL     1     -10.457 -21.434  17.367  1.00  0.00     0.000 C 
BRANCH   6   7
ATOM      7  C   UNL     1     -10.750 -20.166  16.552  1.00  0.00    -0.000 C 
BRANCH   7   8
ATOM      8  C   UNL     1     -10.772 -20.474  15.050  1.00  0.00    -0.003 C 
ATOM      9  C   UNL     1      -9.360 -20.501  14.471  1.00  0.00     0.004 C 
ENDBRANCH   7   8
ENDBRANCH   6   7
ENDBRANCH   1   6
TORSDOF 5
ENDMDL
MODEL 6
REMARK VINA RESULT:    -2.692     15.669     17.557
REMARK INTER + INTRA:          -3.557
REMARK INTER:                  -3.211
REMARK INTRA:                  -0.345
REMARK UNBOUND:                -0.077
REMARK SMILES CCCCCCC(=O)[O-]
REMARK SMILES IDX 5 1 6 2 7 3 8 4 9 5 4 6 3 7 2 8 1 9
REMARK H PARENT
REMARK Flexibility Score: inf
ROOT
ATOM      1  C   UNL     1      -9.421 -22.773  17.875  1.00  0.00     0.006 C 
ENDROOT
BRANCH   1   2
ATOM      2  C   UNL     1      -8.142 -21.947  18.087  1.00  0.00     0.053 C 
BRANCH   2   3
ATOM      3  C   UNL     1      -7.011 -22.437  17.236  1.00  0.00     0.041 C 
ATOM      4  O   UNL     1      -7.071 -22.335  15.983  1.00  0.00    -0.550 OA
ATOM      5  O   UNL     1      -5.877 -22.976  17.829  1.00  0.00    -0.550 OA
ENDBRANCH   2   3
ENDBRANCH   1   2
BRANCH   1   6
ATOM      6  C   UNL     1     -10.668 -21.935  17.539  1.00  0.00     0.000 C 
BRANCH   6   7
ATOM      7  C   UNL     1     -10.321 -20.560  16.949  1.00  0.00    -0.000 C 
BRANCH   7   8
ATOM      8  C   UNL     1     -10.803 -20.449  15.498  1.00  0.00    -0.003 C 
ATOM      9  C   UNL     1      -9.625 -20.388  14.530  1.00  0.00     0.004 C 
ENDBRANCH   7   8
ENDBRANCH   6   7
ENDBRANCH   1   6
TORSDOF 5
ENDMDL
MODEL 7
REMARK VINA RESULT:    -2.680     15.804     17.688
REMARK INTER + INTRA:          -3.541
REMARK INTER:                  -3.300
REMARK INTRA:                  -0.241
REMARK UNBOUND:                -0.077
REMARK SMILES CCCCCCC(=O)[O-]
REMARK SMILES IDX 5 1 6 2 7 3 8 4 9 5 4 6 3 7 2 8 1 9
REMARK H PARENT
REMARK Flexibility Score: inf
ROOT
ATOM      1  C   UNL     1      -9.571 -21.838  17.615  1.00  0.00     0.006 C 
ENDROOT
BRANCH   1   2
ATOM      2  C   UNL     1      -8.194 -21.970  18.283  1.00  0.00     0.053 C 
BRANCH   2   3
ATOM      3  C   UNL     1      -7.112 -22.251  17.286  1.00  0.00     0.041 C 
ATOM      4  O   UNL     1      -6.005 -22.716  17.665  1.00  0.00    -0.550 OA
ATOM      5  O   UNL     1      -7.337 -22.028  15.934  1.00  0.00    -0.550 OA
ENDBRANCH   2   3
ENDBRANCH   1   2
BRANCH   1   6
ATOM      6  C   UNL     1     -10.323 -20.540  17.962  1.00  0.00     0.000 C 
BRANCH   6   7
ATOM      7  C   UNL     1     -10.818 -19.787  16.719  1.00  0.00    -0.000 C 
BRANCH   7   8
ATOM      8  C   UNL     1     -10.934 -20.732  15.516  1.00  0.00    -0.003 C 
ATOM      9  C   UNL     1      -9.981 -20.319  14.398  1.00  0.00     0.004 C 
ENDBRANCH   7   8
ENDBRANCH   6   7
ENDBRANCH   1   6
TORSDOF 5
ENDMDL
MODEL 8
REMARK VINA RESULT:    -2.620      3.022      3.826
REMARK INTER + INTRA:          -3.463
REMARK INTER:                  -3.163
REMARK INTRA:                  -0.300
REMARK UNBOUND:                -0.077
REMARK SMILES CCCCCCC(=O)[O-]
REMARK SMILES IDX 5 1 6 2 7 3 8 4 9 5 4 6 3 7 2 8 1 9
REMARK H PARENT
REMARK Flexibility Score: inf
ROOT
ATOM      1  C   UNL     1       8.411 -19.734  11.555  1.00  0.00     0.006 C 
ENDROOT
BRANCH   1   2
ATOM      2  C   UNL     1       7.063 -19.240  11.007  1.00  0.00     0.053 C 
BRANCH   2   3
ATOM      3  C   UNL     1       7.017 -19.285   9.510  1.00  0.00     0.041 C 
ATOM      4  O   UNL     1       6.120 -18.660   8.885  1.00  0.00    -0.550 OA
ATOM      5  O   UNL     1       7.983 -19.990   8.805  1.00  0.00    -0.550 OA
ENDBRANCH   2   3
ENDBRANCH   1   2
BRANCH   1   6
ATOM      6  C   UNL     1       8.467 -21.247  11.831  1.00  0.00     0.000 C 
BRANCH   6   7
ATOM      7  C   UNL     1       7.146 -21.801  12.382  1.00  0.00    -0.000 C 
BRANCH   7   8
ATOM      8  C   UNL     1       6.779 -23.125  11.701  1.00  0.00    -0.003 C 
ATOM      9  C   UNL     1       6.759 -22.976  10.182  1.00  0.00     0.004 C 
ENDBRANCH   7   8
ENDBRANCH   6   7
ENDBRANCH   1   6
TORSDOF 5
ENDMDL
MODEL 9
REMARK VINA RESULT:    -2.582     17.753     18.840
REMARK INTER + INTRA:          -3.413
REMARK INTER:                  -3.063
REMARK INTRA:                  -0.350
REMARK UNBOUND:                -0.077
REMARK SMILES CCCCCCC(=O)[O-]
REMARK SMILES IDX 5 1 6 2 7 3 8 4 9 5 4 6 3 7 2 8 1 9
REMARK H PARENT
REMARK Flexibility Score: inf
ROOT
ATOM      1  C   UNL     1      -9.923 -19.674  20.171  1.00  0.00     0.006 C 
ENDROOT
BRANCH   1   2
ATOM      2  C   UNL     1     -10.140 -20.442  18.857  1.00  0.00     0.053 C 
BRANCH   2   3
ATOM      3  C   UNL     1      -9.065 -21.457  18.618  1.00  0.00     0.041 C 
ATOM      4  O   UNL     1      -8.551 -22.077  19.586  1.00  0.00    -0.550 OA
ATOM      5  O   UNL     1      -8.652 -21.741  17.323  1.00  0.00    -0.550 OA
ENDBRANCH   2   3
ENDBRANCH   1   2
BRANCH   1   6
ATOM      6  C   UNL     1     -11.045 -19.863  21.208  1.00  0.00     0.000 C 
BRANCH   6   7
ATOM      7  C   UNL     1     -10.579 -20.623  22.458  1.00  0.00    -0.000 C 
BRANCH   7   8
ATOM      8  C   UNL     1      -9.084 -20.392  22.714  1.00  0.00    -0.003 C 
ATOM      9  C   UNL     1      -8.389 -21.687  23.122  1.00  0.00     0.004 C 
ENDBRANCH   7   8
ENDBRANCH   6   7
ENDBRANCH   1   6
TORSDOF 5
ENDMDL
