MODEL 1
REMARK VINA RESULT:    -3.696      0.000      0.000
REMARK INTER + INTRA:          -8.577
REMARK INTER:                  -6.721
REMARK INTRA:                  -1.856
REMARK UNBOUND:                -1.856
REMARK SMILES CCCCCC=CCC=CCCCCCCCC(=O)[O-]
REMARK SMILES IDX 11 1 12 2 13 3 14 4 15 5 16 6 17 7 18 8 19 9 20 10 10 11
REMARK SMILES IDX 9 12 8 13 7 14 6 15 5 16 4 17 3 18 2 19 1 20
REMARK H PARENT
REMARK Flexibility Score: inf
ROOT
ATOM      1  C   UNL     1      14.446 -17.260  -4.371  1.00  0.00     0.027 C 
ENDROOT
BRANCH   1   2
ATOM      2  C   UNL     1      13.676 -18.590  -4.332  1.00  0.00     0.004 C 
BRANCH   2   3
ATOM      3  C   UNL     1      12.640 -18.733  -5.463  1.00  0.00     0.000 C 
BRANCH   3   4
ATOM      4  C   UNL     1      11.199 -18.815  -4.928  1.00  0.00     0.000 C 
BRANCH   4   5
ATOM      5  C   UNL     1      11.143 -18.844  -3.395  1.00  0.00     0.000 C 
BRANCH   5   6
ATOM      6  C   UNL     1      10.073 -17.899  -2.829  1.00  0.00     0.006 C 
BRANCH   6   7
ATOM      7  C   UNL     1       9.134 -17.372  -3.920  1.00  0.00     0.053 C 
BRANCH   7   8
ATOM      8  C   UNL     1       8.736 -15.948  -3.667  1.00  0.00     0.041 C 
ATOM      9  O   UNL     1       7.776 -15.436  -4.302  1.00  0.00    -0.550 OA
ATOM     10  O   UNL     1       9.396 -15.196  -2.699  1.00  0.00    -0.550 OA
ENDBRANCH   7   8
ENDBRANCH   6   7
ENDBRANCH   5   6
ENDBRANCH   4   5
ENDBRANCH   3   4
ENDBRANCH   2   3
ENDBRANCH   1   2
BRANCH   1  11
ATOM     11  C   UNL     1      13.887 -16.267  -3.377  1.00  0.00    -0.031 C 
ATOM     12  C   UNL     1      12.873 -15.408  -3.604  1.00  0.00    -0.027 C 
BRANCH  12  13
ATOM     13  C   UNL     1      12.063 -15.319  -4.873  1.00  0.00     0.054 C 
BRANCH  13  14
ATOM     14  C   UNL     1      11.472 -13.947  -5.026  1.00  0.00    -0.027 C 
ATOM     15  C   UNL     1      12.239 -12.854  -5.137  1.00  0.00    -0.031 C 
BRANCH  15  16
ATOM     16  C   UNL     1      11.643 -11.481  -5.289  1.00  0.00     0.027 C 
BRANCH  16  17
ATOM     17  C   UNL     1      12.522 -10.560  -6.152  1.00  0.00     0.004 C 
BRANCH  17  18
ATOM     18  C   UNL     1      11.965  -9.122  -6.271  1.00  0.00     0.000 C 
BRANCH  18  19
ATOM     19  C   UNL     1      10.440  -9.034  -6.087  1.00  0.00    -0.003 C 
ATOM     20  C   UNL     1       9.692  -8.771  -7.393  1.00  0.00     0.004 C 
ENDBRANCH  18  19
ENDBRANCH  17  18
ENDBRANCH  16  17
ENDBRANCH  15  16
ENDBRANCH  13  14
ENDBRANCH  12  13
ENDBRANCH   1  11
TORSDOF 14
ENDMDL
MODEL 2
REMARK VINA RESULT:    -3.641      1.532      3.313
REMARK INTER + INTRA:          -8.477
REMARK INTER:                  -6.991
REMARK INTRA:                  -1.485
REMARK UNBOUND:                -1.856
REMARK SMILES CCCCCC=CCC=CCCCCCCCC(=O)[O-]
REMARK SMILES IDX 11 1 12 2 13 3 14 4 15 5 16 6 17 7 18 8 19 9 20 10 10 11
REMARK SMILES IDX 9 12 8 13 7 14 6 15 5 16 4 17 3 18 2 19 1 20
REMARK H PARENT
REMARK Flexibility Score: inf
ROOT
ATOM      1  C   UNL     1       9.450 -17.347  -4.292  1.00  0.00     0.027 C 
ENDROOT
BRANCH   1   2
ATOM      2  C   UNL     1      10.121 -18.115  -3.142  1.00  0.00     0.004 C 
BRANCH   2   3
ATOM      3  C   UNL     1      11.179 -19.129  -3.615  1.00  0.00     0.000 C 
BRANCH   3   4
ATOM      4  C   UNL     1      11.987 -18.611  -4.818  1.00  0.00     0.000 C 
BRANCH   4   5
ATOM      5  C   UNL     1      13.480 -18.954  -4.714  1.00  0.00     0.000 C 
BRANCH   5   6
ATOM      6  C   UNL     1      14.341 -17.728  -4.376  1.00  0.00     0.006 C 
BRANCH   6   7
ATOM      7  C   UNL     1      13.515 -16.437  -4.335  1.00  0.00     0.053 C 
BRANCH   7   8
ATOM      8  C   UNL     1      13.507 -15.828  -2.964  1.00  0.00     0.041 C 
ATOM      9  O   UNL     1      14.592 -15.527  -2.399  1.00  0.00    -0.550 OA
ATOM     10  O   UNL     1      12.301 -15.551  -2.327  1.00  0.00    -0.550 OA
ENDBRANCH   7   8
ENDBRANCH   6   7
ENDBRANCH   5   6
ENDBRANCH   4   5
ENDBRANCH   3   4
ENDBRANCH   2   3
ENDBRANCH   1   2
BRANCH   1  11
ATOM     11  C   UNL     1       9.025 -15.962  -3.861  1.00  0.00    -0.031 C 
ATOM     12  C   UNL     1       9.567 -14.802  -4.285  1.00  0.00    -0.027 C 
BRANCH  12  13
ATOM     13  C   UNL     1      10.658 -14.667  -5.318  1.00  0.00     0.054 C 
BRANCH  13  14
ATOM     14  C   UNL     1      11.563 -13.517  -4.981  1.00  0.00    -0.027 C 
ATOM     15  C   UNL     1      11.482 -12.341  -5.619  1.00  0.00    -0.031 C 
BRANCH  15  16
ATOM     16  C   UNL     1      12.391 -11.192  -5.279  1.00  0.00     0.027 C 
BRANCH  16  17
ATOM     17  C   UNL     1      12.382 -10.105  -6.366  1.00  0.00     0.004 C 
BRANCH  17  18
ATOM     18  C   UNL     1      11.236  -9.079  -6.194  1.00  0.00     0.000 C 
BRANCH  18  19
ATOM     19  C   UNL     1      10.248  -9.055  -7.373  1.00  0.00    -0.003 C 
ATOM     20  C   UNL     1       8.803  -8.819  -6.938  1.00  0.00     0.004 C 
ENDBRANCH  18  19
ENDBRANCH  17  18
ENDBRANCH  16  17
ENDBRANCH  15  16
ENDBRANCH  13  14
ENDBRANCH  12  13
ENDBRANCH   1  11
TORSDOF 14
ENDMDL
MODEL 3
REMARK VINA RESULT:    -3.552      2.594      7.052
REMARK INTER + INTRA:          -8.316
REMARK INTER:                  -6.687
REMARK INTRA:                  -1.629
REMARK UNBOUND:                -1.856
REMARK SMILES CCCCCC=CCC=CCCCCCCCC(=O)[O-]
REMARK SMILES IDX 11 1 12 2 13 3 14 4 15 5 16 6 17 7 18 8 19 9 20 10 10 11
REMARK SMILES IDX 9 12 8 13 7 14 6 15 5 16 4 17 3 18 2 19 1 20
REMARK H PARENT
REMARK Flexibility Score: inf
ROOT
ATOM      1  C   UNL     1       9.998 -14.956  -3.951  1.00  0.00     0.027 C 
ENDROOT
BRANCH   1   2
ATOM      2  C   UNL     1      10.958 -14.574  -5.089  1.00  0.00     0.004 C 
BRANCH   2   3
ATOM      3  C   UNL     1      11.873 -13.383  -4.748  1.00  0.00     0.000 C 
BRANCH   3   4
ATOM      4  C   UNL     1      11.467 -12.101  -5.497  1.00  0.00     0.000 C 
BRANCH   4   5
ATOM      5  C   UNL     1      12.620 -11.093  -5.602  1.00  0.00     0.000 C 
BRANCH   5   6
ATOM      6  C   UNL     1      12.276  -9.901  -6.507  1.00  0.00     0.006 C 
BRANCH   6   7
ATOM      7  C   UNL     1      11.116  -9.069  -5.950  1.00  0.00     0.053 C 
BRANCH   7   8
ATOM      8  C   UNL     1      10.101  -8.755  -7.009  1.00  0.00     0.041 C 
ATOM      9  O   UNL     1      10.474  -8.427  -8.166  1.00  0.00    -0.550 OA
ATOM     10  O   UNL     1       8.741  -8.865  -6.732  1.00  0.00    -0.550 OA
ENDBRANCH   7   8
ENDBRANCH   6   7
ENDBRANCH   5   6
ENDBRANCH   4   5
ENDBRANCH   3   4
ENDBRANCH   2   3
ENDBRANCH   1   2
BRANCH   1  11
ATOM     11  C   UNL     1       9.074 -16.081  -4.359  1.00  0.00    -0.031 C 
ATOM     12  C   UNL     1       9.023 -17.305  -3.795  1.00  0.00    -0.027 C 
BRANCH  12  13
ATOM     13  C   UNL     1       9.836 -17.762  -2.610  1.00  0.00     0.054 C 
BRANCH  13  14
ATOM     14  C   UNL     1      11.114 -18.406  -3.064  1.00  0.00    -0.027 C 
ATOM     15  C   UNL     1      11.591 -18.234  -4.305  1.00  0.00    -0.031 C 
BRANCH  15  16
ATOM     16  C   UNL     1      12.872 -18.882  -4.757  1.00  0.00     0.027 C 
BRANCH  16  17
ATOM     17  C   UNL     1      14.108 -18.051  -4.374  1.00  0.00     0.004 C 
BRANCH  17  18
ATOM     18  C   UNL     1      13.810 -16.538  -4.244  1.00  0.00     0.000 C 
BRANCH  18  19
ATOM     19  C   UNL     1      14.343 -15.915  -2.943  1.00  0.00    -0.003 C 
ATOM     20  C   UNL     1      13.237 -15.366  -2.044  1.00  0.00     0.004 C 
ENDBRANCH  18  19
ENDBRANCH  17  18
ENDBRANCH  16  17
ENDBRANCH  15  16
ENDBRANCH  13  14
ENDBRANCH  12  13
ENDBRANCH   1  11
TORSDOF 14
ENDMDL
MODEL 4
REMARK VINA RESULT:    -3.281      2.402      3.803
REMARK INTER + INTRA:          -7.823
REMARK INTER:                  -6.504
REMARK INTRA:                  -1.319
REMARK UNBOUND:                -1.856
REMARK SMILES CCCCCC=CCC=CCCCCCCCC(=O)[O-]
REMARK SMILES IDX 11 1 12 2 13 3 14 4 15 5 16 6 17 7 18 8 19 9 20 10 10 11
REMARK SMILES IDX 9 12 8 13 7 14 6 15 5 16 4 17 3 18 2 19 1 20
REMARK H PARENT
REMARK Flexibility Score: inf
ROOT
ATOM      1  C   UNL     1       9.116 -16.133  -4.017  1.00  0.00     0.027 C 
ENDROOT
BRANCH   1   2
ATOM      2  C   UNL     1       9.178 -17.535  -4.646  1.00  0.00     0.004 C 
BRANCH   2   3
ATOM      3  C   UNL     1       9.640 -17.529  -6.116  1.00  0.00     0.000 C 
BRANCH   3   4
ATOM      4  C   UNL     1      11.167 -17.663  -6.249  1.00  0.00     0.000 C 
BRANCH   4   5
ATOM      5  C   UNL     1      11.714 -18.896  -5.515  1.00  0.00     0.000 C 
BRANCH   5   6
ATOM      6  C   UNL     1      12.734 -18.527  -4.428  1.00  0.00     0.006 C 
BRANCH   6   7
ATOM      7  C   UNL     1      14.165 -18.905  -4.828  1.00  0.00     0.053 C 
BRANCH   7   8
ATOM      8  C   UNL     1      15.182 -18.121  -4.054  1.00  0.00     0.041 C 
ATOM      9  O   UNL     1      14.899 -16.974  -3.617  1.00  0.00    -0.550 OA
ATOM     10  O   UNL     1      16.430 -18.672  -3.776  1.00  0.00    -0.550 OA
ENDBRANCH   7   8
ENDBRANCH   6   7
ENDBRANCH   5   6
ENDBRANCH   4   5
ENDBRANCH   3   4
ENDBRANCH   2   3
ENDBRANCH   1   2
BRANCH   1  11
ATOM     11  C   UNL     1      10.106 -15.989  -2.885  1.00  0.00    -0.031 C 
ATOM     12  C   UNL     1      11.378 -15.556  -2.999  1.00  0.00    -0.027 C 
BRANCH  12  13
ATOM     13  C   UNL     1      12.033 -15.075  -4.270  1.00  0.00     0.054 C 
BRANCH  13  14
ATOM     14  C   UNL     1      11.385 -13.809  -4.750  1.00  0.00    -0.027 C 
ATOM     15  C   UNL     1      12.102 -12.722  -5.067  1.00  0.00    -0.031 C 
BRANCH  15  16
ATOM     16  C   UNL     1      11.449 -11.455  -5.547  1.00  0.00     0.027 C 
BRANCH  16  17
ATOM     17  C   UNL     1      12.461 -10.483  -6.175  1.00  0.00     0.004 C 
BRANCH  17  18
ATOM     18  C   UNL     1      11.991  -9.009  -6.145  1.00  0.00     0.000 C 
BRANCH  18  19
ATOM     19  C   UNL     1      10.461  -8.851  -6.102  1.00  0.00    -0.003 C 
ATOM     20  C   UNL     1       9.811  -8.936  -7.483  1.00  0.00     0.004 C 
ENDBRANCH  18  19
ENDBRANCH  17  18
ENDBRANCH  16  17
ENDBRANCH  15  16
ENDBRANCH  13  14
ENDBRANCH  12  13
ENDBRANCH   1  11
TORSDOF 14
ENDMDL
MODEL 5
REMARK VINA RESULT:    -3.135      1.377      2.145
REMARK INTER + INTRA:          -7.557
REMARK INTER:                  -6.162
REMARK INTRA:                  -1.394
REMARK UNBOUND:                -1.856
REMARK SMILES CCCCCC=CCC=CCCCCCCCC(=O)[O-]
REMARK SMILES IDX 11 1 12 2 13 3 14 4 15 5 16 6 17 7 18 8 19 9 20 10 10 11
REMARK SMILES IDX 9 12 8 13 7 14 6 15 5 16 4 17 3 18 2 19 1 20
REMARK H PARENT
REMARK Flexibility Score: inf
ROOT
ATOM      1  C   UNL     1      13.712 -16.128  -4.358  1.00  0.00     0.027 C 
ENDROOT
BRANCH   1   2
ATOM      2  C   UNL     1      14.379 -17.458  -3.970  1.00  0.00     0.004 C 
BRANCH   2   3
ATOM      3  C   UNL     1      13.830 -18.670  -4.744  1.00  0.00     0.000 C 
BRANCH   3   4
ATOM      4  C   UNL     1      12.310 -18.834  -4.571  1.00  0.00     0.000 C 
BRANCH   4   5
ATOM      5  C   UNL     1      11.543 -18.618  -5.883  1.00  0.00     0.000 C 
BRANCH   5   6
ATOM      6  C   UNL     1      10.736 -17.312  -5.884  1.00  0.00     0.006 C 
BRANCH   6   7
ATOM      7  C   UNL     1       9.303 -17.518  -5.379  1.00  0.00     0.053 C 
BRANCH   7   8
ATOM      8  C   UNL     1       9.089 -16.876  -4.041  1.00  0.00     0.041 C 
ATOM      9  O   UNL     1       9.599 -17.384  -3.007  1.00  0.00    -0.550 OA
ATOM     10  O   UNL     1       8.363 -15.693  -3.938  1.00  0.00    -0.550 OA
ENDBRANCH   7   8
ENDBRANCH   6   7
ENDBRANCH   5   6
ENDBRANCH   4   5
ENDBRANCH   3   4
ENDBRANCH   2   3
ENDBRANCH   1   2
BRANCH   1  11
ATOM     11  C   UNL     1      12.858 -15.587  -3.234  1.00  0.00    -0.031 C 
ATOM     12  C   UNL     1      11.855 -14.695  -3.363  1.00  0.00    -0.027 C 
BRANCH  12  13
ATOM     13  C   UNL     1      11.355 -14.116  -4.663  1.00  0.00     0.054 C 
BRANCH  13  14
ATOM     14  C   UNL     1      12.201 -12.946  -5.078  1.00  0.00    -0.027 C 
ATOM     15  C   UNL     1      11.659 -11.802  -5.517  1.00  0.00    -0.031 C 
BRANCH  15  16
ATOM     16  C   UNL     1      12.509 -10.632  -5.932  1.00  0.00     0.027 C 
BRANCH  16  17
ATOM     17  C   UNL     1      11.668  -9.377  -6.218  1.00  0.00     0.004 C 
BRANCH  17  18
ATOM     18  C   UNL     1      12.299  -8.080  -5.658  1.00  0.00     0.000 C 
BRANCH  18  19
ATOM     19  C   UNL     1      12.281  -8.000  -4.122  1.00  0.00    -0.003 C 
ATOM     20  C   UNL     1      13.442  -7.185  -3.550  1.00  0.00     0.004 C 
ENDBRANCH  18  19
ENDBRANCH  17  18
ENDBRANCH  16  17
ENDBRANCH  15  16
ENDBRANCH  13  14
ENDBRANCH  12  13
ENDBRANCH   1  11
TORSDOF 14
ENDMDL
MODEL 6
REMARK VINA RESULT:    -3.054      1.014      2.142
REMARK INTER + INTRA:          -7.409
REMARK INTER:                  -5.778
REMARK INTRA:                  -1.631
REMARK UNBOUND:                -1.856
REMARK SMILES CCCCCC=CCC=CCCCCCCCC(=O)[O-]
REMARK SMILES IDX 11 1 12 2 13 3 14 4 15 5 16 6 17 7 18 8 19 9 20 10 10 11
REMARK SMILES IDX 9 12 8 13 7 14 6 15 5 16 4 17 3 18 2 19 1 20
REMARK H PARENT
REMARK Flexibility Score: inf
ROOT
ATOM      1  C   UNL     1      13.444 -18.916  -4.378  1.00  0.00     0.027 C 
ENDROOT
BRANCH   1   2
ATOM      2  C   UNL     1      12.276 -18.821  -5.374  1.00  0.00     0.004 C 
BRANCH   2   3
ATOM      3  C   UNL     1      10.987 -18.246  -4.756  1.00  0.00     0.000 C 
BRANCH   3   4
ATOM      4  C   UNL     1      10.859 -18.577  -3.259  1.00  0.00     0.000 C 
BRANCH   4   5
ATOM      5  C   UNL     1       9.916 -17.615  -2.523  1.00  0.00     0.000 C 
BRANCH   5   6
ATOM      6  C   UNL     1       9.310 -16.558  -3.458  1.00  0.00     0.006 C 
BRANCH   6   7
ATOM      7  C   UNL     1       8.129 -17.111  -4.264  1.00  0.00     0.053 C 
BRANCH   7   8
ATOM      8  C   UNL     1       6.984 -16.143  -4.304  1.00  0.00     0.041 C 
ATOM      9  O   UNL     1       5.799 -16.565  -4.366  1.00  0.00    -0.550 OA
ATOM     10  O   UNL     1       7.221 -14.773  -4.229  1.00  0.00    -0.550 OA
ENDBRANCH   7   8
ENDBRANCH   6   7
ENDBRANCH   5   6
ENDBRANCH   4   5
ENDBRANCH   3   4
ENDBRANCH   2   3
ENDBRANCH   1   2
BRANCH   1  11
ATOM     11  C   UNL     1      14.467 -17.830  -4.618  1.00  0.00    -0.031 C 
ATOM     12  C   UNL     1      14.530 -16.648  -3.973  1.00  0.00    -0.027 C 
BRANCH  12  13
ATOM     13  C   UNL     1      13.627 -16.212  -2.846  1.00  0.00     0.054 C 
BRANCH  13  14
ATOM     14  C   UNL     1      12.771 -15.056  -3.274  1.00  0.00    -0.027 C 
ATOM     15  C   UNL     1      12.237 -14.987  -4.502  1.00  0.00    -0.031 C 
BRANCH  15  16
ATOM     16  C   UNL     1      11.380 -13.827  -4.928  1.00  0.00     0.027 C 
BRANCH  16  17
ATOM     17  C   UNL     1      12.192 -12.530  -5.078  1.00  0.00     0.004 C 
BRANCH  17  18
ATOM     18  C   UNL     1      11.447 -11.432  -5.874  1.00  0.00     0.000 C 
BRANCH  18  19
ATOM     19  C   UNL     1      12.338 -10.240  -6.264  1.00  0.00    -0.003 C 
ATOM     20  C   UNL     1      11.695  -8.887  -5.964  1.00  0.00     0.004 C 
ENDBRANCH  18  19
ENDBRANCH  17  18
ENDBRANCH  16  17
ENDBRANCH  15  16
ENDBRANCH  13  14
ENDBRANCH  12  13
ENDBRANCH   1  11
TORSDOF 14
ENDMDL
MODEL 7
REMARK VINA RESULT:    -3.053      2.568      6.290
REMARK INTER + INTRA:          -7.408
REMARK INTER:                  -6.209
REMARK INTRA:                  -1.198
REMARK UNBOUND:                -1.856
REMARK SMILES CCCCCC=CCC=CCCCCCCCC(=O)[O-]
REMARK SMILES IDX 11 1 12 2 13 3 14 4 15 5 16 6 17 7 18 8 19 9 20 10 10 11
REMARK SMILES IDX 9 12 8 13 7 14 6 15 5 16 4 17 3 18 2 19 1 20
REMARK H PARENT
REMARK Flexibility Score: inf
ROOT
ATOM      1  C   UNL     1      13.708 -16.085  -4.376  1.00  0.00     0.027 C 
ENDROOT
BRANCH   1   2
ATOM      2  C   UNL     1      13.040 -15.428  -3.157  1.00  0.00     0.004 C 
BRANCH   2   3
ATOM      3  C   UNL     1      11.644 -14.852  -3.458  1.00  0.00     0.000 C 
BRANCH   3   4
ATOM      4  C   UNL     1      11.584 -14.153  -4.828  1.00  0.00     0.000 C 
BRANCH   4   5
ATOM      5  C   UNL     1      12.210 -12.752  -4.801  1.00  0.00     0.000 C 
BRANCH   5   6
ATOM      6  C   UNL     1      11.530 -11.786  -5.782  1.00  0.00     0.006 C 
BRANCH   6   7
ATOM      7  C   UNL     1      12.451 -10.628  -6.182  1.00  0.00     0.053 C 
BRANCH   7   8
ATOM      8  C   UNL     1      11.722  -9.317  -6.187  1.00  0.00     0.041 C 
ATOM      9  O   UNL     1      12.216  -8.316  -5.604  1.00  0.00    -0.550 OA
ATOM     10  O   UNL     1      10.517  -9.187  -6.872  1.00  0.00    -0.550 OA
ENDBRANCH   7   8
ENDBRANCH   6   7
ENDBRANCH   5   6
ENDBRANCH   4   5
ENDBRANCH   3   4
ENDBRANCH   2   3
ENDBRANCH   1   2
BRANCH   1  11
ATOM     11  C   UNL     1      14.334 -17.413  -4.018  1.00  0.00    -0.031 C 
ATOM     12  C   UNL     1      13.931 -18.621  -4.461  1.00  0.00    -0.027 C 
BRANCH  12  13
ATOM     13  C   UNL     1      12.819 -18.869  -5.449  1.00  0.00     0.054 C 
BRANCH  13  14
ATOM     14  C   UNL     1      11.506 -18.397  -4.894  1.00  0.00    -0.027 C 
ATOM     15  C   UNL     1      11.190 -18.546  -3.600  1.00  0.00    -0.031 C 
BRANCH  15  16
ATOM     16  C   UNL     1       9.874 -18.072  -3.047  1.00  0.00     0.027 C 
BRANCH  16  17
ATOM     17  C   UNL     1       9.013 -17.378  -4.115  1.00  0.00     0.004 C 
BRANCH  17  18
ATOM     18  C   UNL     1       8.572 -15.951  -3.710  1.00  0.00     0.000 C 
BRANCH  18  19
ATOM     19  C   UNL     1       7.270 -15.492  -4.389  1.00  0.00    -0.003 C 
ATOM     20  C   UNL     1       6.176 -16.559  -4.372  1.00  0.00     0.004 C 
ENDBRANCH  18  19
ENDBRANCH  17  18
ENDBRANCH  16  17
ENDBRANCH  15  16
ENDBRANCH  13  14
ENDBRANCH  12  13
ENDBRANCH   1  11
TORSDOF 14
ENDMDL
MODEL 8
REMARK VINA RESULT:    -3.038      2.244      3.896
REMARK INTER + INTRA:          -7.380
REMARK INTER:                  -5.952
REMARK INTRA:                  -1.428
REMARK UNBOUND:                -1.856
REMARK SMILES CCCCCC=CCC=CCCCCCCCC(=O)[O-]
REMARK SMILES IDX 11 1 12 2 13 3 14 4 15 5 16 6 17 7 18 8 19 9 20 10 10 11
REMARK SMILES IDX 9 12 8 13 7 14 6 15 5 16 4 17 3 18 2 19 1 20
REMARK H PARENT
REMARK Flexibility Score: inf
ROOT
ATOM      1  C   UNL     1       9.026 -15.877  -4.085  1.00  0.00     0.027 C 
ENDROOT
BRANCH   1   2
ATOM      2  C   UNL     1       9.066 -17.398  -3.866  1.00  0.00     0.004 C 
BRANCH   2   3
ATOM      3  C   UNL     1       9.932 -17.824  -2.666  1.00  0.00     0.000 C 
BRANCH   3   4
ATOM      4  C   UNL     1      10.941 -18.925  -3.035  1.00  0.00     0.000 C 
BRANCH   4   5
ATOM      5  C   UNL     1      11.339 -18.883  -4.517  1.00  0.00     0.000 C 
BRANCH   5   6
ATOM      6  C   UNL     1      12.798 -18.448  -4.721  1.00  0.00     0.006 C 
BRANCH   6   7
ATOM      7  C   UNL     1      12.984 -16.940  -4.519  1.00  0.00     0.053 C 
BRANCH   7   8
ATOM      8  C   UNL     1      14.148 -16.641  -3.622  1.00  0.00     0.041 C 
ATOM      9  O   UNL     1      15.160 -17.391  -3.626  1.00  0.00    -0.550 OA
ATOM     10  O   UNL     1      14.137 -15.509  -2.811  1.00  0.00    -0.550 OA
ENDBRANCH   7   8
ENDBRANCH   6   7
ENDBRANCH   5   6
ENDBRANCH   4   5
ENDBRANCH   3   4
ENDBRANCH   2   3
ENDBRANCH   1   2
BRANCH   1  11
ATOM     11  C   UNL     1      10.058 -15.167  -3.239  1.00  0.00    -0.031 C 
ATOM     12  C   UNL     1      10.940 -14.246  -3.676  1.00  0.00    -0.027 C 
BRANCH  12  13
ATOM     13  C   UNL     1      11.022 -13.704  -5.081  1.00  0.00     0.054 C 
BRANCH  13  14
ATOM     14  C   UNL     1      11.965 -12.537  -5.142  1.00  0.00    -0.027 C 
ATOM     15  C   UNL     1      11.701 -11.451  -5.881  1.00  0.00    -0.031 C 
BRANCH  15  16
ATOM     16  C   UNL     1      12.649 -10.284  -5.940  1.00  0.00     0.027 C 
BRANCH  16  17
ATOM     17  C   UNL     1      11.912  -8.935  -5.892  1.00  0.00     0.004 C 
BRANCH  17  18
ATOM     18  C   UNL     1      11.921  -8.285  -4.488  1.00  0.00     0.000 C 
BRANCH  18  19
ATOM     19  C   UNL     1      12.985  -7.185  -4.326  1.00  0.00    -0.003 C 
ATOM     20  C   UNL     1      13.790  -7.317  -3.034  1.00  0.00     0.004 C 
ENDBRANCH  18  19
ENDBRANCH  17  18
ENDBRANCH  16  17
ENDBRANCH  15  16
ENDBRANCH  13  14
ENDBRANCH  12  13
ENDBRANCH   1  11
TORSDOF 14
ENDMDL
MODEL 9
REMARK VINA RESULT:    -2.700      3.273      7.782
REMARK INTER + INTRA:          -6.766
REMARK INTER:                  -5.440
REMARK INTRA:                  -1.326
REMARK UNBOUND:                -1.856
REMARK SMILES CCCCCC=CCC=CCCCCCCCC(=O)[O-]
REMARK SMILES IDX 11 1 12 2 13 3 14 4 15 5 16 6 17 7 18 8 19 9 20 10 10 11
REMARK SMILES IDX 9 12 8 13 7 14 6 15 5 16 4 17 3 18 2 19 1 20
REMARK H PARENT
REMARK Flexibility Score: inf
ROOT
ATOM      1  C   UNL     1      10.784 -14.385  -5.007  1.00  0.00     0.027 C 
ENDROOT
BRANCH   1   2
ATOM      2  C   UNL     1      11.895 -13.323  -5.029  1.00  0.00     0.004 C 
BRANCH   2   3
ATOM      3  C   UNL     1      11.410 -11.934  -5.487  1.00  0.00     0.000 C 
BRANCH   3   4
ATOM      4  C   UNL     1      12.576 -11.000  -5.854  1.00  0.00     0.000 C 
BRANCH   4   5
ATOM      5  C   UNL     1      12.103  -9.588  -6.227  1.00  0.00     0.000 C 
BRANCH   5   6
ATOM      6  C   UNL     1      11.922  -8.686  -4.997  1.00  0.00     0.006 C 
BRANCH   6   7
ATOM      7  C   UNL     1      12.741  -7.395  -5.104  1.00  0.00     0.053 C 
BRANCH   7   8
ATOM      8  C   UNL     1      13.256  -6.953  -3.767  1.00  0.00     0.041 C 
ATOM      9  O   UNL     1      13.836  -7.774  -3.009  1.00  0.00    -0.550 OA
ATOM     10  O   UNL     1      13.135  -5.623  -3.373  1.00  0.00    -0.550 OA
ENDBRANCH   7   8
ENDBRANCH   6   7
ENDBRANCH   5   6
ENDBRANCH   4   5
ENDBRANCH   3   4
ENDBRANCH   2   3
ENDBRANCH   1   2
BRANCH   1  11
ATOM     11  C   UNL     1      10.375 -14.730  -3.593  1.00  0.00    -0.031 C 
ATOM     12  C   UNL     1       9.573 -15.752  -3.230  1.00  0.00    -0.027 C 
BRANCH  12  13
ATOM     13  C   UNL     1       8.983 -16.781  -4.162  1.00  0.00     0.054 C 
BRANCH  13  14
ATOM     14  C   UNL     1      10.036 -17.755  -4.607  1.00  0.00    -0.027 C 
ATOM     15  C   UNL     1      10.975 -18.213  -3.768  1.00  0.00    -0.031 C 
BRANCH  15  16
ATOM     16  C   UNL     1      12.029 -19.188  -4.217  1.00  0.00     0.027 C 
BRANCH  16  17
ATOM     17  C   UNL     1      13.346 -18.488  -4.591  1.00  0.00     0.004 C 
BRANCH  17  18
ATOM     18  C   UNL     1      13.277 -16.948  -4.455  1.00  0.00     0.000 C 
BRANCH  18  19
ATOM     19  C   UNL     1      14.327 -16.367  -3.493  1.00  0.00    -0.003 C 
ATOM     20  C   UNL     1      13.731 -15.409  -2.463  1.00  0.00     0.004 C 
ENDBRANCH  18  19
ENDBRANCH  17  18
ENDBRANCH  16  17
ENDBRANCH  15  16
ENDBRANCH  13  14
ENDBRANCH  12  13
ENDBRANCH   1  11
TORSDOF 14
ENDMDL
