MODEL 1
REMARK VINA RESULT:    -5.047      0.000      0.000
REMARK INTER + INTRA:         -12.057
REMARK INTER:                  -9.473
REMARK INTRA:                  -2.584
REMARK UNBOUND:                -2.584
REMARK SMILES CCCCCCCCC=CCCCCCCCC(=O)[O-]
REMARK SMILES IDX 10 1 9 2 11 3 12 4 13 5 14 6 15 7 16 8 17 9 18 10 19 11
REMARK SMILES IDX 20 12 8 13 7 14 6 15 5 16 4 17 3 18 2 19 1 20
REMARK H PARENT
REMARK Flexibility Score: inf
ROOT
ATOM      1  C   UNL     1      -2.676  66.887 -24.600  1.00  0.00    -0.031 C 
ATOM      2  C   UNL     1      -2.250  67.117 -23.343  1.00  0.00    -0.031 C 
ENDROOT
BRANCH   1   3
ATOM      3  C   UNL     1      -2.956  67.960 -25.620  1.00  0.00     0.027 C 
BRANCH   3   4
ATOM      4  C   UNL     1      -3.931  67.475 -26.703  1.00  0.00     0.004 C 
BRANCH   4   5
ATOM      5  C   UNL     1      -5.262  68.248 -26.674  1.00  0.00     0.000 C 
BRANCH   5   6
ATOM      6  C   UNL     1      -5.310  69.292 -25.546  1.00  0.00     0.000 C 
BRANCH   6   7
ATOM      7  C   UNL     1      -6.351  68.950 -24.464  1.00  0.00     0.000 C 
BRANCH   7   8
ATOM      8  C   UNL     1      -5.707  68.649 -23.100  1.00  0.00     0.006 C 
BRANCH   8   9
ATOM      9  C   UNL     1      -6.713  68.711 -21.944  1.00  0.00     0.053 C 
BRANCH   9  10
ATOM     10  C   UNL     1      -7.997  68.048 -22.332  1.00  0.00     0.041 C 
ATOM     11  O   UNL     1      -9.073  68.699 -22.323  1.00  0.00    -0.550 OA
ATOM     12  O   UNL     1      -8.014  66.698 -22.653  1.00  0.00    -0.550 OA
ENDBRANCH   9  10
ENDBRANCH   8   9
ENDBRANCH   7   8
ENDBRANCH   6   7
ENDBRANCH   5   6
ENDBRANCH   4   5
ENDBRANCH   3   4
ENDBRANCH   1   3
BRANCH   2  13
ATOM     13  C   UNL     1      -2.107  68.484 -22.720  1.00  0.00     0.027 C 
BRANCH  13  14
ATOM     14  C   UNL     1      -1.082  68.493 -21.576  1.00  0.00     0.004 C 
BRANCH  14  15
ATOM     15  C   UNL     1      -1.699  68.331 -20.172  1.00  0.00     0.000 C 
BRANCH  15  16
ATOM     16  C   UNL     1      -3.212  68.637 -20.119  1.00  0.00     0.000 C 
BRANCH  16  17
ATOM     17  C   UNL     1      -4.056  67.371 -19.902  1.00  0.00    -0.000 C 
BRANCH  17  18
ATOM     18  C   UNL     1      -3.212  66.086 -19.866  1.00  0.00    -0.000 C 
BRANCH  18  19
ATOM     19  C   UNL     1      -3.864  64.894 -20.603  1.00  0.00    -0.003 C 
ATOM     20  C   UNL     1      -4.943  65.342 -21.593  1.00  0.00     0.004 C 
ENDBRANCH  18  19
ENDBRANCH  17  18
ENDBRANCH  16  17
ENDBRANCH  15  16
ENDBRANCH  14  15
ENDBRANCH  13  14
ENDBRANCH   2  13
TORSDOF 15
ENDMDL
MODEL 2
REMARK VINA RESULT:    -5.039      2.075      4.240
REMARK INTER + INTRA:         -12.042
REMARK INTER:                  -9.718
REMARK INTRA:                  -2.324
REMARK UNBOUND:                -2.584
REMARK SMILES CCCCCCCCC=CCCCCCCCC(=O)[O-]
REMARK SMILES IDX 10 1 9 2 11 3 12 4 13 5 14 6 15 7 16 8 17 9 18 10 19 11
REMARK SMILES IDX 20 12 8 13 7 14 6 15 5 16 4 17 3 18 2 19 1 20
REMARK H PARENT
REMARK Flexibility Score: inf
ROOT
ATOM      1  C   UNL     1      -2.416  65.706 -20.196  1.00  0.00    -0.031 C 
ATOM      2  C   UNL     1      -3.331  66.457 -19.556  1.00  0.00    -0.031 C 
ENDROOT
BRANCH   1   3
ATOM      3  C   UNL     1      -1.324  66.252 -21.079  1.00  0.00     0.027 C 
BRANCH   3   4
ATOM      4  C   UNL     1      -1.866  66.699 -22.444  1.00  0.00     0.004 C 
BRANCH   4   5
ATOM      5  C   UNL     1      -1.648  68.203 -22.690  1.00  0.00     0.000 C 
BRANCH   5   6
ATOM      6  C   UNL     1      -2.447  68.722 -23.897  1.00  0.00     0.000 C 
BRANCH   6   7
ATOM      7  C   UNL     1      -2.685  67.637 -24.963  1.00  0.00     0.000 C 
BRANCH   7   8
ATOM      8  C   UNL     1      -3.872  67.967 -25.885  1.00  0.00     0.006 C 
BRANCH   8   9
ATOM      9  C   UNL     1      -4.746  69.104 -25.339  1.00  0.00     0.053 C 
BRANCH   9  10
ATOM     10  C   UNL     1      -6.159  68.950 -25.808  1.00  0.00     0.041 C 
ATOM     11  O   UNL     1      -6.465  69.232 -26.995  1.00  0.00    -0.550 OA
ATOM     12  O   UNL     1      -7.145  68.543 -24.922  1.00  0.00    -0.550 OA
ENDBRANCH   9  10
ENDBRANCH   8   9
ENDBRANCH   7   8
ENDBRANCH   6   7
ENDBRANCH   5   6
ENDBRANCH   4   5
ENDBRANCH   3   4
ENDBRANCH   1   3
BRANCH   2  13
ATOM     13  C   UNL     1      -3.487  67.950 -19.722  1.00  0.00     0.027 C 
BRANCH  13  14
ATOM     14  C   UNL     1      -4.940  68.349 -20.022  1.00  0.00     0.004 C 
BRANCH  14  15
ATOM     15  C   UNL     1      -5.284  68.408 -21.524  1.00  0.00     0.000 C 
BRANCH  15  16
ATOM     16  C   UNL     1      -5.557  67.025 -22.154  1.00  0.00     0.000 C 
BRANCH  16  17
ATOM     17  C   UNL     1      -6.587  66.212 -21.354  1.00  0.00    -0.000 C 
BRANCH  17  18
ATOM     18  C   UNL     1      -7.965  66.893 -21.284  1.00  0.00    -0.000 C 
BRANCH  18  19
ATOM     19  C   UNL     1      -8.741  66.591 -19.981  1.00  0.00    -0.003 C 
ATOM     20  C   UNL     1      -7.865  66.742 -18.734  1.00  0.00     0.004 C 
ENDBRANCH  18  19
ENDBRANCH  17  18
ENDBRANCH  16  17
ENDBRANCH  15  16
ENDBRANCH  14  15
ENDBRANCH  13  14
ENDBRANCH   2  13
TORSDOF 15
ENDMDL
MODEL 3
REMARK VINA RESULT:    -5.008      1.865      4.443
REMARK INTER + INTRA:         -11.983
REMARK INTER:                  -9.474
REMARK INTRA:                  -2.509
REMARK UNBOUND:                -2.584
REMARK SMILES CCCCCCCCC=CCCCCCCCC(=O)[O-]
REMARK SMILES IDX 10 1 9 2 11 3 12 4 13 5 14 6 15 7 16 8 17 9 18 10 19 11
REMARK SMILES IDX 20 12 8 13 7 14 6 15 5 16 4 17 3 18 2 19 1 20
REMARK H PARENT
REMARK Flexibility Score: inf
ROOT
ATOM      1  C   UNL     1      -4.139  64.235 -19.664  1.00  0.00    -0.031 C 
ATOM      2  C   UNL     1      -2.917  64.746 -19.423  1.00  0.00    -0.031 C 
ENDROOT
BRANCH   1   3
ATOM      3  C   UNL     1      -4.737  64.054 -21.036  1.00  0.00     0.027 C 
BRANCH   3   4
ATOM      4  C   UNL     1      -5.789  65.129 -21.344  1.00  0.00     0.004 C 
BRANCH   4   5
ATOM      5  C   UNL     1      -5.220  66.266 -22.212  1.00  0.00     0.000 C 
BRANCH   5   6
ATOM      6  C   UNL     1      -5.411  67.649 -21.567  1.00  0.00     0.000 C 
BRANCH   6   7
ATOM      7  C   UNL     1      -5.452  67.588 -20.029  1.00  0.00     0.000 C 
BRANCH   7   8
ATOM      8  C   UNL     1      -6.786  68.095 -19.455  1.00  0.00     0.006 C 
BRANCH   8   9
ATOM      9  C   UNL     1      -7.651  66.964 -18.884  1.00  0.00     0.053 C 
BRANCH   9  10
ATOM     10  C   UNL     1      -8.841  66.723 -19.759  1.00  0.00     0.041 C 
ATOM     11  O   UNL     1      -9.861  66.151 -19.296  1.00  0.00    -0.550 OA
ATOM     12  O   UNL     1      -8.804  67.082 -21.098  1.00  0.00    -0.550 OA
ENDBRANCH   9  10
ENDBRANCH   8   9
ENDBRANCH   7   8
ENDBRANCH   6   7
ENDBRANCH   5   6
ENDBRANCH   4   5
ENDBRANCH   3   4
ENDBRANCH   1   3
BRANCH   2  13
ATOM     13  C   UNL     1      -2.007  65.333 -20.474  1.00  0.00     0.027 C 
BRANCH  13  14
ATOM     14  C   UNL     1      -1.979  66.868 -20.421  1.00  0.00     0.004 C 
BRANCH  14  15
ATOM     15  C   UNL     1      -1.065  67.522 -21.477  1.00  0.00     0.000 C 
BRANCH  15  16
ATOM     16  C   UNL     1      -1.798  68.522 -22.399  1.00  0.00     0.000 C 
BRANCH  16  17
ATOM     17  C   UNL     1      -2.244  67.879 -23.721  1.00  0.00    -0.000 C 
BRANCH  17  18
ATOM     18  C   UNL     1      -3.102  68.818 -24.585  1.00  0.00    -0.000 C 
BRANCH  18  19
ATOM     19  C   UNL     1      -4.000  68.078 -25.604  1.00  0.00    -0.003 C 
ATOM     20  C   UNL     1      -3.233  67.005 -26.381  1.00  0.00     0.004 C 
ENDBRANCH  18  19
ENDBRANCH  17  18
ENDBRANCH  16  17
ENDBRANCH  15  16
ENDBRANCH  14  15
ENDBRANCH  13  14
ENDBRANCH   2  13
TORSDOF 15
ENDMDL
MODEL 4
REMARK VINA RESULT:    -5.003      1.889      3.610
REMARK INTER + INTRA:         -11.974
REMARK INTER:                  -9.159
REMARK INTRA:                  -2.815
REMARK UNBOUND:                -2.584
REMARK SMILES CCCCCCCCC=CCCCCCCCC(=O)[O-]
REMARK SMILES IDX 10 1 9 2 11 3 12 4 13 5 14 6 15 7 16 8 17 9 18 10 19 11
REMARK SMILES IDX 20 12 8 13 7 14 6 15 5 16 4 17 3 18 2 19 1 20
REMARK H PARENT
REMARK Flexibility Score: inf
ROOT
ATOM      1  C   UNL     1      -3.276  68.863 -24.402  1.00  0.00    -0.031 C 
ATOM      2  C   UNL     1      -2.377  68.248 -23.611  1.00  0.00    -0.031 C 
ENDROOT
BRANCH   1   3
ATOM      3  C   UNL     1      -4.538  68.224 -24.923  1.00  0.00     0.027 C 
BRANCH   3   4
ATOM      4  C   UNL     1      -5.793  68.859 -24.308  1.00  0.00     0.004 C 
BRANCH   4   5
ATOM      5  C   UNL     1      -6.269  68.107 -23.052  1.00  0.00     0.000 C 
BRANCH   5   6
ATOM      6  C   UNL     1      -5.939  68.864 -21.754  1.00  0.00     0.000 C 
BRANCH   6   7
ATOM      7  C   UNL     1      -7.003  68.658 -20.660  1.00  0.00     0.000 C 
BRANCH   7   8
ATOM      8  C   UNL     1      -6.494  67.786 -19.500  1.00  0.00     0.006 C 
BRANCH   8   9
ATOM      9  C   UNL     1      -7.188  66.419 -19.439  1.00  0.00     0.053 C 
BRANCH   9  10
ATOM     10  C   UNL     1      -6.331  65.368 -20.072  1.00  0.00     0.041 C 
ATOM     11  O   UNL     1      -5.362  64.877 -19.439  1.00  0.00    -0.550 OA
ATOM     12  O   UNL     1      -6.572  64.969 -21.379  1.00  0.00    -0.550 OA
ENDBRANCH   9  10
ENDBRANCH   8   9
ENDBRANCH   7   8
ENDBRANCH   6   7
ENDBRANCH   5   6
ENDBRANCH   4   5
ENDBRANCH   3   4
ENDBRANCH   1   3
BRANCH   2  13
ATOM     13  C   UNL     1      -2.425  66.790 -23.225  1.00  0.00     0.027 C 
BRANCH  13  14
ATOM     14  C   UNL     1      -3.228  66.560 -21.935  1.00  0.00     0.004 C 
BRANCH  14  15
ATOM     15  C   UNL     1      -2.361  66.343 -20.679  1.00  0.00     0.000 C 
BRANCH  15  16
ATOM     16  C   UNL     1      -2.773  67.224 -19.479  1.00  0.00     0.000 C 
BRANCH  16  17
ATOM     17  C   UNL     1      -2.804  68.719 -19.836  1.00  0.00    -0.000 C 
BRANCH  17  18
ATOM     18  C   UNL     1      -1.461  69.424 -19.580  1.00  0.00    -0.000 C 
BRANCH  18  19
ATOM     19  C   UNL     1      -0.595  69.590 -20.850  1.00  0.00    -0.003 C 
ATOM     20  C   UNL     1       0.632  68.674 -20.840  1.00  0.00     0.004 C 
ENDBRANCH  18  19
ENDBRANCH  17  18
ENDBRANCH  16  17
ENDBRANCH  15  16
ENDBRANCH  14  15
ENDBRANCH  13  14
ENDBRANCH   2  13
TORSDOF 15
ENDMDL
MODEL 5
REMARK VINA RESULT:    -4.950      2.385      5.132
REMARK INTER + INTRA:         -11.875
REMARK INTER:                  -9.137
REMARK INTRA:                  -2.737
REMARK UNBOUND:                -2.584
REMARK SMILES CCCCCCCCC=CCCCCCCCC(=O)[O-]
REMARK SMILES IDX 10 1 9 2 11 3 12 4 13 5 14 6 15 7 16 8 17 9 18 10 19 11
REMARK SMILES IDX 20 12 8 13 7 14 6 15 5 16 4 17 3 18 2 19 1 20
REMARK H PARENT
REMARK Flexibility Score: inf
ROOT
ATOM      1  C   UNL     1      -6.750  65.437 -20.792  1.00  0.00    -0.031 C 
ATOM      2  C   UNL     1      -5.773  64.512 -20.836  1.00  0.00    -0.031 C 
ENDROOT
BRANCH   1   3
ATOM      3  C   UNL     1      -7.143  66.211 -19.559  1.00  0.00     0.027 C 
BRANCH   3   4
ATOM      4  C   UNL     1      -6.846  67.709 -19.710  1.00  0.00     0.004 C 
BRANCH   4   5
ATOM      5  C   UNL     1      -5.336  67.995 -19.802  1.00  0.00     0.000 C 
BRANCH   5   6
ATOM      6  C   UNL     1      -4.943  68.650 -21.137  1.00  0.00     0.000 C 
BRANCH   6   7
ATOM      7  C   UNL     1      -6.135  68.797 -22.101  1.00  0.00     0.000 C 
BRANCH   7   8
ATOM      8  C   UNL     1      -5.844  68.208 -23.492  1.00  0.00     0.006 C 
BRANCH   8   9
ATOM      9  C   UNL     1      -4.482  67.505 -23.563  1.00  0.00     0.053 C 
BRANCH   9  10
ATOM     10  C   UNL     1      -3.742  67.924 -24.795  1.00  0.00     0.041 C 
ATOM     11  O   UNL     1      -3.557  67.103 -25.730  1.00  0.00    -0.550 OA
ATOM     12  O   UNL     1      -3.212  69.203 -24.888  1.00  0.00    -0.550 OA
ENDBRANCH   9  10
ENDBRANCH   8   9
ENDBRANCH   7   8
ENDBRANCH   6   7
ENDBRANCH   5   6
ENDBRANCH   4   5
ENDBRANCH   3   4
ENDBRANCH   1   3
BRANCH   2  13
ATOM     13  C   UNL     1      -5.004  64.014 -19.637  1.00  0.00     0.027 C 
BRANCH  13  14
ATOM     14  C   UNL     1      -3.493  63.944 -19.908  1.00  0.00     0.004 C 
BRANCH  14  15
ATOM     15  C   UNL     1      -2.760  65.293 -19.767  1.00  0.00     0.000 C 
BRANCH  15  16
ATOM     16  C   UNL     1      -2.429  65.965 -21.118  1.00  0.00     0.000 C 
BRANCH  16  17
ATOM     17  C   UNL     1      -1.091  66.719 -21.083  1.00  0.00    -0.000 C 
BRANCH  17  18
ATOM     18  C   UNL     1      -1.188  68.140 -21.665  1.00  0.00    -0.000 C 
BRANCH  18  19
ATOM     19  C   UNL     1      -0.784  69.249 -20.667  1.00  0.00    -0.003 C 
ATOM     20  C   UNL     1      -1.678  69.265 -19.424  1.00  0.00     0.004 C 
ENDBRANCH  18  19
ENDBRANCH  17  18
ENDBRANCH  16  17
ENDBRANCH  15  16
ENDBRANCH  14  15
ENDBRANCH  13  14
ENDBRANCH   2  13
TORSDOF 15
ENDMDL
MODEL 6
REMARK VINA RESULT:    -4.943      2.471      5.275
REMARK INTER + INTRA:         -11.861
REMARK INTER:                  -9.307
REMARK INTRA:                  -2.554
REMARK UNBOUND:                -2.584
REMARK SMILES CCCCCCCCC=CCCCCCCCC(=O)[O-]
REMARK SMILES IDX 10 1 9 2 11 3 12 4 13 5 14 6 15 7 16 8 17 9 18 10 19 11
REMARK SMILES IDX 20 12 8 13 7 14 6 15 5 16 4 17 3 18 2 19 1 20
REMARK H PARENT
REMARK Flexibility Score: inf
ROOT
ATOM      1  C   UNL     1      -4.955  68.565 -20.518  1.00  0.00    -0.031 C 
ATOM      2  C   UNL     1      -6.271  68.345 -20.342  1.00  0.00    -0.031 C 
ENDROOT
BRANCH   1   3
ATOM      3  C   UNL     1      -3.880  68.163 -19.540  1.00  0.00     0.027 C 
BRANCH   3   4
ATOM      4  C   UNL     1      -2.563  68.904 -19.806  1.00  0.00     0.004 C 
BRANCH   4   5
ATOM      5  C   UNL     1      -1.524  68.010 -20.507  1.00  0.00     0.000 C 
BRANCH   5   6
ATOM      6  C   UNL     1      -1.606  68.104 -22.039  1.00  0.00     0.000 C 
BRANCH   6   7
ATOM      7  C   UNL     1      -2.110  66.802 -22.689  1.00  0.00     0.000 C 
BRANCH   7   8
ATOM      8  C   UNL     1      -3.461  66.985 -23.403  1.00  0.00     0.006 C 
BRANCH   8   9
ATOM      9  C   UNL     1      -3.301  67.399 -24.872  1.00  0.00     0.053 C 
BRANCH   9  10
ATOM     10  C   UNL     1      -3.668  68.839 -25.053  1.00  0.00     0.041 C 
ATOM     11  O   UNL     1      -4.849  69.158 -25.345  1.00  0.00    -0.550 OA
ATOM     12  O   UNL     1      -2.696  69.823 -24.948  1.00  0.00    -0.550 OA
ENDBRANCH   9  10
ENDBRANCH   8   9
ENDBRANCH   7   8
ENDBRANCH   6   7
ENDBRANCH   5   6
ENDBRANCH   4   5
ENDBRANCH   3   4
ENDBRANCH   1   3
BRANCH   2  13
ATOM     13  C   UNL     1      -6.889  67.775 -19.088  1.00  0.00     0.027 C 
BRANCH  13  14
ATOM     14  C   UNL     1      -7.220  66.282 -19.234  1.00  0.00     0.004 C 
BRANCH  14  15
ATOM     15  C   UNL     1      -7.499  65.833 -20.683  1.00  0.00     0.000 C 
BRANCH  15  16
ATOM     16  C   UNL     1      -6.414  64.899 -21.263  1.00  0.00     0.000 C 
BRANCH  16  17
ATOM     17  C   UNL     1      -5.451  64.381 -20.183  1.00  0.00    -0.000 C 
BRANCH  17  18
ATOM     18  C   UNL     1      -3.971  64.574 -20.556  1.00  0.00    -0.000 C 
BRANCH  18  19
ATOM     19  C   UNL     1      -3.026  64.636 -19.334  1.00  0.00    -0.003 C 
ATOM     20  C   UNL     1      -3.404  63.617 -18.255  1.00  0.00     0.004 C 
ENDBRANCH  18  19
ENDBRANCH  17  18
ENDBRANCH  16  17
ENDBRANCH  15  16
ENDBRANCH  14  15
ENDBRANCH  13  14
ENDBRANCH   2  13
TORSDOF 15
ENDMDL
MODEL 7
REMARK VINA RESULT:    -4.933      3.065      5.715
REMARK INTER + INTRA:         -11.842
REMARK INTER:                  -9.071
REMARK INTRA:                  -2.772
REMARK UNBOUND:                -2.584
REMARK SMILES CCCCCCCCC=CCCCCCCCC(=O)[O-]
REMARK SMILES IDX 10 1 9 2 11 3 12 4 13 5 14 6 15 7 16 8 17 9 18 10 19 11
REMARK SMILES IDX 20 12 8 13 7 14 6 15 5 16 4 17 3 18 2 19 1 20
REMARK H PARENT
REMARK Flexibility Score: inf
ROOT
ATOM      1  C   UNL     1      -3.946  68.471 -19.765  1.00  0.00    -0.031 C 
ATOM      2  C   UNL     1      -2.939  67.613 -19.517  1.00  0.00    -0.031 C 
ENDROOT
BRANCH   1   3
ATOM      3  C   UNL     1      -4.698  68.558 -21.069  1.00  0.00     0.027 C 
BRANCH   3   4
ATOM      4  C   UNL     1      -5.949  67.668 -21.065  1.00  0.00     0.004 C 
BRANCH   4   5
ATOM      5  C   UNL     1      -5.886  66.573 -22.144  1.00  0.00     0.000 C 
BRANCH   5   6
ATOM      6  C   UNL     1      -5.545  65.192 -21.561  1.00  0.00     0.000 C 
BRANCH   6   7
ATOM      7  C   UNL     1      -5.790  65.111 -20.043  1.00  0.00     0.000 C 
BRANCH   7   8
ATOM      8  C   UNL     1      -4.873  64.086 -19.352  1.00  0.00     0.006 C 
BRANCH   8   9
ATOM      9  C   UNL     1      -3.852  63.463 -20.313  1.00  0.00     0.053 C 
BRANCH   9  10
ATOM     10  C   UNL     1      -3.025  62.437 -19.605  1.00  0.00     0.041 C 
ATOM     11  O   UNL     1      -3.173  61.216 -19.866  1.00  0.00    -0.550 OA
ATOM     12  O   UNL     1      -2.127  62.826 -18.621  1.00  0.00    -0.550 OA
ENDBRANCH   9  10
ENDBRANCH   8   9
ENDBRANCH   7   8
ENDBRANCH   6   7
ENDBRANCH   5   6
ENDBRANCH   4   5
ENDBRANCH   3   4
ENDBRANCH   1   3
BRANCH   2  13
ATOM     13  C   UNL     1      -2.320  66.693 -20.541  1.00  0.00     0.027 C 
BRANCH  13  14
ATOM     14  C   UNL     1      -1.196  67.380 -21.331  1.00  0.00     0.004 C 
BRANCH  14  15
ATOM     15  C   UNL     1      -1.638  67.959 -22.690  1.00  0.00     0.000 C 
BRANCH  15  16
ATOM     16  C   UNL     1      -2.420  66.956 -23.568  1.00  0.00     0.000 C 
BRANCH  16  17
ATOM     17  C   UNL     1      -2.518  67.414 -25.032  1.00  0.00    -0.000 C 
BRANCH  17  18
ATOM     18  C   UNL     1      -3.957  67.750 -25.459  1.00  0.00    -0.000 C 
BRANCH  18  19
ATOM     19  C   UNL     1      -4.441  69.137 -24.976  1.00  0.00    -0.003 C 
ATOM     20  C   UNL     1      -5.968  69.225 -24.901  1.00  0.00     0.004 C 
ENDBRANCH  18  19
ENDBRANCH  17  18
ENDBRANCH  16  17
ENDBRANCH  15  16
ENDBRANCH  14  15
ENDBRANCH  13  14
ENDBRANCH   2  13
TORSDOF 15
ENDMDL
MODEL 8
REMARK VINA RESULT:    -4.883      1.754      4.773
REMARK INTER + INTRA:         -11.749
REMARK INTER:                  -9.261
REMARK INTRA:                  -2.489
REMARK UNBOUND:                -2.584
REMARK SMILES CCCCCCCCC=CCCCCCCCC(=O)[O-]
REMARK SMILES IDX 10 1 9 2 11 3 12 4 13 5 14 6 15 7 16 8 17 9 18 10 19 11
REMARK SMILES IDX 20 12 8 13 7 14 6 15 5 16 4 17 3 18 2 19 1 20
REMARK H PARENT
REMARK Flexibility Score: inf
ROOT
ATOM      1  C   UNL     1      -2.727  67.287 -19.550  1.00  0.00    -0.031 C 
ATOM      2  C   UNL     1      -2.031  68.235 -20.204  1.00  0.00    -0.031 C 
ENDROOT
BRANCH   1   3
ATOM      3  C   UNL     1      -2.830  65.846 -19.981  1.00  0.00     0.027 C 
BRANCH   3   4
ATOM      4  C   UNL     1      -4.286  65.430 -20.232  1.00  0.00     0.004 C 
BRANCH   4   5
ATOM      5  C   UNL     1      -4.660  65.499 -21.724  1.00  0.00     0.000 C 
BRANCH   5   6
ATOM      6  C   UNL     1      -5.928  66.333 -21.973  1.00  0.00     0.000 C 
BRANCH   6   7
ATOM      7  C   UNL     1      -5.821  67.761 -21.407  1.00  0.00     0.000 C 
BRANCH   7   8
ATOM      8  C   UNL     1      -7.145  68.255 -20.798  1.00  0.00     0.006 C 
BRANCH   8   9
ATOM      9  C   UNL     1      -8.251  67.193 -20.849  1.00  0.00     0.053 C 
BRANCH   9  10
ATOM     10  C   UNL     1      -8.566  66.699 -19.472  1.00  0.00     0.041 C 
ATOM     11  O   UNL     1      -7.672  66.679 -18.588  1.00  0.00    -0.550 OA
ATOM     12  O   UNL     1      -9.832  66.213 -19.180  1.00  0.00    -0.550 OA
ENDBRANCH   9  10
ENDBRANCH   8   9
ENDBRANCH   7   8
ENDBRANCH   6   7
ENDBRANCH   5   6
ENDBRANCH   4   5
ENDBRANCH   3   4
ENDBRANCH   1   3
BRANCH   2  13
ATOM     13  C   UNL     1      -1.350  68.036 -21.537  1.00  0.00     0.027 C 
BRANCH  13  14
ATOM     14  C   UNL     1      -2.290  68.330 -22.716  1.00  0.00     0.004 C 
BRANCH  14  15
ATOM     15  C   UNL     1      -2.278  67.255 -23.820  1.00  0.00     0.000 C 
BRANCH  15  16
ATOM     16  C   UNL     1      -3.455  67.370 -24.813  1.00  0.00     0.000 C 
BRANCH  16  17
ATOM     17  C   UNL     1      -4.017  68.799 -24.889  1.00  0.00    -0.000 C 
BRANCH  17  18
ATOM     18  C   UNL     1      -5.553  68.836 -24.967  1.00  0.00    -0.000 C 
BRANCH  18  19
ATOM     19  C   UNL     1      -6.093  69.441 -26.283  1.00  0.00    -0.003 C 
ATOM     20  C   UNL     1      -6.399  68.369 -27.333  1.00  0.00     0.004 C 
ENDBRANCH  18  19
ENDBRANCH  17  18
ENDBRANCH  16  17
ENDBRANCH  15  16
ENDBRANCH  14  15
ENDBRANCH  13  14
ENDBRANCH   2  13
TORSDOF 15
ENDMDL
MODEL 9
REMARK VINA RESULT:    -4.845      3.381      6.065
REMARK INTER + INTRA:         -11.678
REMARK INTER:                  -8.819
REMARK INTRA:                  -2.859
REMARK UNBOUND:                -2.584
REMARK SMILES CCCCCCCCC=CCCCCCCCC(=O)[O-]
REMARK SMILES IDX 10 1 9 2 11 3 12 4 13 5 14 6 15 7 16 8 17 9 18 10 19 11
REMARK SMILES IDX 20 12 8 13 7 14 6 15 5 16 4 17 3 18 2 19 1 20
REMARK H PARENT
REMARK Flexibility Score: inf
ROOT
ATOM      1  C   UNL     1      -5.417  68.122 -19.729  1.00  0.00    -0.031 C 
ATOM      2  C   UNL     1      -4.784  68.434 -20.875  1.00  0.00    -0.031 C 
ENDROOT
BRANCH   1   3
ATOM      3  C   UNL     1      -6.842  67.638 -19.641  1.00  0.00     0.027 C 
BRANCH   3   4
ATOM      4  C   UNL     1      -6.915  66.116 -19.452  1.00  0.00     0.004 C 
BRANCH   4   5
ATOM      5  C   UNL     1      -6.810  65.360 -20.788  1.00  0.00     0.000 C 
BRANCH   5   6
ATOM      6  C   UNL     1      -5.744  64.252 -20.755  1.00  0.00     0.000 C 
BRANCH   6   7
ATOM      7  C   UNL     1      -4.355  64.750 -21.195  1.00  0.00     0.000 C 
BRANCH   7   8
ATOM      8  C   UNL     1      -3.329  64.724 -20.049  1.00  0.00     0.006 C 
BRANCH   8   9
ATOM      9  C   UNL     1      -3.865  64.026 -18.792  1.00  0.00     0.053 C 
BRANCH   9  10
ATOM     10  C   UNL     1      -2.750  63.357 -18.050  1.00  0.00     0.041 C 
ATOM     11  O   UNL     1      -1.762  62.895 -18.676  1.00  0.00    -0.550 OA
ATOM     12  O   UNL     1      -2.827  63.198 -16.674  1.00  0.00    -0.550 OA
ENDBRANCH   9  10
ENDBRANCH   8   9
ENDBRANCH   7   8
ENDBRANCH   6   7
ENDBRANCH   5   6
ENDBRANCH   4   5
ENDBRANCH   3   4
ENDBRANCH   1   3
BRANCH   2  13
ATOM     13  C   UNL     1      -5.435  68.469 -22.236  1.00  0.00     0.027 C 
BRANCH  13  14
ATOM     14  C   UNL     1      -4.595  67.742 -23.298  1.00  0.00     0.004 C 
BRANCH  14  15
ATOM     15  C   UNL     1      -3.522  68.622 -23.969  1.00  0.00     0.000 C 
BRANCH  15  16
ATOM     16  C   UNL     1      -2.077  68.135 -23.725  1.00  0.00     0.000 C 
BRANCH  16  17
ATOM     17  C   UNL     1      -2.015  66.969 -22.726  1.00  0.00    -0.000 C 
BRANCH  17  18
ATOM     18  C   UNL     1      -1.255  67.324 -21.436  1.00  0.00    -0.000 C 
BRANCH  18  19
ATOM     19  C   UNL     1      -1.087  68.845 -21.214  1.00  0.00    -0.003 C 
ATOM     20  C   UNL     1      -1.394  69.258 -19.772  1.00  0.00     0.004 C 
ENDBRANCH  18  19
ENDBRANCH  17  18
ENDBRANCH  16  17
ENDBRANCH  15  16
ENDBRANCH  14  15
ENDBRANCH  13  14
ENDBRANCH   2  13
TORSDOF 15
ENDMDL
