MODEL 1
REMARK VINA RESULT:    -3.595      0.000      0.000
REMARK INTER + INTRA:          -3.877
REMARK INTER:                  -4.015
REMARK INTRA:                   0.139
REMARK UNBOUND:                 0.139
REMARK SMILES O=C([O-])c1ccccc1C(=O)[O-]
REMARK SMILES IDX 4 1 9 2 5 3 8 4 6 5 7 6 2 7 1 8 3 9 10 10 11 11 12 12
REMARK H PARENT
REMARK Flexibility Score: inf
ROOT
ATOM      1  C   UNL     1    -107.110  31.121   3.012  1.00  0.00     0.006 A 
ATOM      2  C   UNL     1    -105.996  30.354   3.452  1.00  0.00     0.006 A 
ATOM      3  C   UNL     1    -107.013  32.526   3.001  1.00  0.00     0.010 A 
ATOM      4  C   UNL     1    -104.806  31.016   3.805  1.00  0.00     0.010 A 
ATOM      5  C   UNL     1    -105.829  33.162   3.376  1.00  0.00     0.001 A 
ATOM      6  C   UNL     1    -104.724  32.409   3.766  1.00  0.00     0.001 A 
ENDROOT
BRANCH   1   7
ATOM      7  C   UNL     1    -108.350  30.502   2.491  1.00  0.00     0.072 C 
ATOM      8  O   UNL     1    -109.424  30.585   3.146  1.00  0.00    -0.545 OA
ATOM      9  O   UNL     1    -108.364  29.881   1.248  1.00  0.00    -0.545 OA
ENDBRANCH   1   7
BRANCH   2  10
ATOM     10  C   UNL     1    -106.059  28.886   3.629  1.00  0.00     0.072 C 
ATOM     11  O   UNL     1    -105.047  28.174   3.388  1.00  0.00    -0.545 OA
ATOM     12  O   UNL     1    -107.208  28.279   4.122  1.00  0.00    -0.545 OA
ENDBRANCH   2  10
TORSDOF 2
ENDMDL
MODEL 2
REMARK VINA RESULT:    -3.450     15.867     17.265
REMARK INTER + INTRA:          -3.715
REMARK INTER:                  -3.514
REMARK INTRA:                  -0.201
REMARK UNBOUND:                 0.139
REMARK SMILES O=C([O-])c1ccccc1C(=O)[O-]
REMARK SMILES IDX 4 1 9 2 5 3 8 4 6 5 7 6 2 7 1 8 3 9 10 10 11 11 12 12
REMARK H PARENT
REMARK Flexibility Score: inf
ROOT
ATOM      1  C   UNL     1    -115.818  35.881 -10.328  1.00  0.00     0.006 A 
ATOM      2  C   UNL     1    -115.657  34.469 -10.274  1.00  0.00     0.006 A 
ATOM      3  C   UNL     1    -115.729  36.626  -9.136  1.00  0.00     0.010 A 
ATOM      4  C   UNL     1    -115.352  33.861  -9.042  1.00  0.00     0.010 A 
ATOM      5  C   UNL     1    -115.447  35.999  -7.922  1.00  0.00     0.001 A 
ATOM      6  C   UNL     1    -115.247  34.622  -7.877  1.00  0.00     0.001 A 
ENDROOT
BRANCH   1   7
ATOM      7  C   UNL     1    -116.002  36.616 -11.600  1.00  0.00     0.072 C 
ATOM      8  O   UNL     1    -117.125  37.107 -11.892  1.00  0.00    -0.545 OA
ATOM      9  O   UNL     1    -114.928  36.830 -12.456  1.00  0.00    -0.545 OA
ENDBRANCH   1   7
BRANCH   2  10
ATOM     10  C   UNL     1    -115.873  33.596 -11.450  1.00  0.00     0.072 C 
ATOM     11  O   UNL     1    -116.990  33.042 -11.633  1.00  0.00    -0.545 OA
ATOM     12  O   UNL     1    -114.873  33.427 -12.401  1.00  0.00    -0.545 OA
ENDBRANCH   2  10
TORSDOF 2
ENDMDL
MODEL 3
REMARK VINA RESULT:    -3.432     15.843     17.402
REMARK INTER + INTRA:          -3.694
REMARK INTER:                  -3.494
REMARK INTRA:                  -0.200
REMARK UNBOUND:                 0.139
REMARK SMILES O=C([O-])c1ccccc1C(=O)[O-]
REMARK SMILES IDX 4 1 9 2 5 3 8 4 6 5 7 6 2 7 1 8 3 9 10 10 11 11 12 12
REMARK H PARENT
REMARK Flexibility Score: inf
ROOT
ATOM      1  C   UNL     1    -115.656  34.542 -10.265  1.00  0.00     0.006 A 
ATOM      2  C   UNL     1    -115.817  35.955 -10.275  1.00  0.00     0.006 A 
ATOM      3  C   UNL     1    -115.328  33.898  -9.057  1.00  0.00     0.010 A 
ATOM      4  C   UNL     1    -115.706  36.664  -9.064  1.00  0.00     0.010 A 
ATOM      5  C   UNL     1    -115.201  34.625  -7.872  1.00  0.00     0.001 A 
ATOM      6  C   UNL     1    -115.402  36.003  -7.874  1.00  0.00     0.001 A 
ENDROOT
BRANCH   1   7
ATOM      7  C   UNL     1    -115.893  33.703 -11.462  1.00  0.00     0.072 C 
ATOM      8  O   UNL     1    -117.041  33.241 -11.697  1.00  0.00    -0.545 OA
ATOM      9  O   UNL     1    -114.872  33.470 -12.376  1.00  0.00    -0.545 OA
ENDBRANCH   1   7
BRANCH   2  10
ATOM     10  C   UNL     1    -116.022  36.726 -11.521  1.00  0.00     0.072 C 
ATOM     11  O   UNL     1    -117.125  37.295 -11.741  1.00  0.00    -0.545 OA
ATOM     12  O   UNL     1    -114.987  36.888 -12.434  1.00  0.00    -0.545 OA
ENDBRANCH   2  10
TORSDOF 2
ENDMDL
MODEL 4
REMARK VINA RESULT:    -3.393     14.914     16.829
REMARK INTER + INTRA:          -3.651
REMARK INTER:                  -3.525
REMARK INTRA:                  -0.126
REMARK UNBOUND:                 0.139
REMARK SMILES O=C([O-])c1ccccc1C(=O)[O-]
REMARK SMILES IDX 4 1 9 2 5 3 8 4 6 5 7 6 2 7 1 8 3 9 10 10 11 11 12 12
REMARK H PARENT
REMARK Flexibility Score: inf
ROOT
ATOM      1  C   UNL     1    -115.743  35.052  -9.160  1.00  0.00     0.006 A 
ATOM      2  C   UNL     1    -115.764  36.277  -9.881  1.00  0.00     0.006 A 
ATOM      3  C   UNL     1    -115.837  33.838  -9.868  1.00  0.00     0.010 A 
ATOM      4  C   UNL     1    -115.814  36.243 -11.287  1.00  0.00     0.010 A 
ATOM      5  C   UNL     1    -115.908  33.829 -11.262  1.00  0.00     0.001 A 
ATOM      6  C   UNL     1    -115.884  35.028 -11.970  1.00  0.00     0.001 A 
ENDROOT
BRANCH   1   7
ATOM      7  C   UNL     1    -115.552  34.992  -7.693  1.00  0.00     0.072 C 
ATOM      8  O   UNL     1    -114.469  34.565  -7.211  1.00  0.00    -0.545 OA
ATOM      9  O   UNL     1    -116.534  35.465  -6.831  1.00  0.00    -0.545 OA
ENDBRANCH   1   7
BRANCH   2  10
ATOM     10  C   UNL     1    -115.812  37.596  -9.211  1.00  0.00     0.072 C 
ATOM     11  O   UNL     1    -114.749  38.238  -8.997  1.00  0.00    -0.545 OA
ATOM     12  O   UNL     1    -117.029  38.174  -8.868  1.00  0.00    -0.545 OA
ENDBRANCH   2  10
TORSDOF 2
ENDMDL
MODEL 5
REMARK VINA RESULT:    -3.385     14.985     16.721
REMARK INTER + INTRA:          -3.642
REMARK INTER:                  -3.502
REMARK INTRA:                  -0.139
REMARK UNBOUND:                 0.139
REMARK SMILES O=C([O-])c1ccccc1C(=O)[O-]
REMARK SMILES IDX 4 1 9 2 5 3 8 4 6 5 7 6 2 7 1 8 3 9 10 10 11 11 12 12
REMARK H PARENT
REMARK Flexibility Score: inf
ROOT
ATOM      1  C   UNL     1    -115.817  36.300  -9.917  1.00  0.00     0.006 A 
ATOM      2  C   UNL     1    -115.786  35.043  -9.252  1.00  0.00     0.006 A 
ATOM      3  C   UNL     1    -115.852  36.330 -11.324  1.00  0.00     0.010 A 
ATOM      4  C   UNL     1    -115.855  33.863 -10.016  1.00  0.00     0.010 A 
ATOM      5  C   UNL     1    -115.898  35.146 -12.062  1.00  0.00     0.001 A 
ATOM      6  C   UNL     1    -115.911  33.916 -11.409  1.00  0.00     0.001 A 
ENDROOT
BRANCH   1   7
ATOM      7  C   UNL     1    -115.889  37.587  -9.188  1.00  0.00     0.072 C 
ATOM      8  O   UNL     1    -114.838  38.237  -8.943  1.00  0.00    -0.545 OA
ATOM      9  O   UNL     1    -117.117  38.127  -8.825  1.00  0.00    -0.545 OA
ENDBRANCH   1   7
BRANCH   2  10
ATOM     10  C   UNL     1    -115.608  34.919  -7.788  1.00  0.00     0.072 C 
ATOM     11  O   UNL     1    -114.513  34.515  -7.315  1.00  0.00    -0.545 OA
ATOM     12  O   UNL     1    -116.617  35.308  -6.915  1.00  0.00    -0.545 OA
ENDBRANCH   2  10
TORSDOF 2
ENDMDL
MODEL 6
REMARK VINA RESULT:    -3.290     15.953     17.448
REMARK INTER + INTRA:          -3.537
REMARK INTER:                  -3.348
REMARK INTRA:                  -0.188
REMARK UNBOUND:                 0.139
REMARK SMILES O=C([O-])c1ccccc1C(=O)[O-]
REMARK SMILES IDX 4 1 9 2 5 3 8 4 6 5 7 6 2 7 1 8 3 9 10 10 11 11 12 12
REMARK H PARENT
REMARK Flexibility Score: inf
ROOT
ATOM      1  C   UNL     1    -115.704  35.471 -10.492  1.00  0.00     0.006 A 
ATOM      2  C   UNL     1    -115.766  36.506  -9.519  1.00  0.00     0.006 A 
ATOM      3  C   UNL     1    -115.423  34.155 -10.076  1.00  0.00     0.010 A 
ATOM      4  C   UNL     1    -115.608  36.178  -8.160  1.00  0.00     0.010 A 
ATOM      5  C   UNL     1    -115.249  33.857  -8.724  1.00  0.00     0.001 A 
ATOM      6  C   UNL     1    -115.353  34.863  -7.767  1.00  0.00     0.001 A 
ENDROOT
BRANCH   1   7
ATOM      7  C   UNL     1    -115.995  35.704 -11.925  1.00  0.00     0.072 C 
ATOM      8  O   UNL     1    -117.125  35.408 -12.399  1.00  0.00    -0.545 OA
ATOM      9  O   UNL     1    -115.055  36.310 -12.750  1.00  0.00    -0.545 OA
ENDBRANCH   1   7
BRANCH   2  10
ATOM     10  C   UNL     1    -115.915  37.934  -9.882  1.00  0.00     0.072 C 
ATOM     11  O   UNL     1    -117.060  38.455  -9.946  1.00  0.00    -0.545 OA
ATOM     12  O   UNL     1    -114.797  38.733 -10.092  1.00  0.00    -0.545 OA
ENDBRANCH   2  10
TORSDOF 2
ENDMDL
MODEL 7
REMARK VINA RESULT:    -3.271     14.947     16.621
REMARK INTER + INTRA:          -3.515
REMARK INTER:                  -3.363
REMARK INTRA:                  -0.152
REMARK UNBOUND:                 0.139
REMARK SMILES O=C([O-])c1ccccc1C(=O)[O-]
REMARK SMILES IDX 4 1 9 2 5 3 8 4 6 5 7 6 2 7 1 8 3 9 10 10 11 11 12 12
REMARK H PARENT
REMARK Flexibility Score: inf
ROOT
ATOM      1  C   UNL     1    -115.888  35.617 -10.255  1.00  0.00     0.006 A 
ATOM      2  C   UNL     1    -115.609  36.074  -8.937  1.00  0.00     0.006 A 
ATOM      3  C   UNL     1    -115.976  36.556 -11.301  1.00  0.00     0.010 A 
ATOM      4  C   UNL     1    -115.367  37.444  -8.725  1.00  0.00     0.010 A 
ATOM      5  C   UNL     1    -115.753  37.913 -11.063  1.00  0.00     0.001 A 
ATOM      6  C   UNL     1    -115.438  38.354  -9.780  1.00  0.00     0.001 A 
ENDROOT
BRANCH   1   7
ATOM      7  C   UNL     1    -116.017  34.181 -10.592  1.00  0.00     0.072 C 
ATOM      8  O   UNL     1    -115.093  33.589 -11.211  1.00  0.00    -0.545 OA
ATOM      9  O   UNL     1    -117.125  33.453 -10.175  1.00  0.00    -0.545 OA
ENDBRANCH   1   7
BRANCH   2  10
ATOM     10  C   UNL     1    -115.638  35.177  -7.760  1.00  0.00     0.072 C 
ATOM     11  O   UNL     1    -116.693  35.052  -7.083  1.00  0.00    -0.545 OA
ATOM     12  O   UNL     1    -114.526  34.414  -7.423  1.00  0.00    -0.545 OA
ENDBRANCH   2  10
TORSDOF 2
ENDMDL
MODEL 8
REMARK VINA RESULT:    -3.228     15.922     17.617
REMARK INTER + INTRA:          -3.467
REMARK INTER:                  -3.250
REMARK INTRA:                  -0.217
REMARK UNBOUND:                 0.139
REMARK SMILES O=C([O-])c1ccccc1C(=O)[O-]
REMARK SMILES IDX 4 1 9 2 5 3 8 4 6 5 7 6 2 7 1 8 3 9 10 10 11 11 12 12
REMARK H PARENT
REMARK Flexibility Score: inf
ROOT
ATOM      1  C   UNL     1    -115.668  34.735 -11.885  1.00  0.00     0.006 A 
ATOM      2  C   UNL     1    -115.822  34.939 -10.486  1.00  0.00     0.006 A 
ATOM      3  C   UNL     1    -115.716  35.845 -12.750  1.00  0.00     0.010 A 
ATOM      4  C   UNL     1    -115.955  36.252  -9.997  1.00  0.00     0.010 A 
ATOM      5  C   UNL     1    -115.871  37.136 -12.244  1.00  0.00     0.001 A 
ATOM      6  C   UNL     1    -115.978  37.341 -10.871  1.00  0.00     0.001 A 
ENDROOT
BRANCH   1   7
ATOM      7  C   UNL     1    -115.384  33.404 -12.471  1.00  0.00     0.072 C 
ATOM      8  O   UNL     1    -114.194  33.040 -12.670  1.00  0.00    -0.545 OA
ATOM      9  O   UNL     1    -116.417  32.517 -12.747  1.00  0.00    -0.545 OA
ENDBRANCH   1   7
BRANCH   2  10
ATOM     10  C   UNL     1    -115.924  33.820  -9.523  1.00  0.00     0.072 C 
ATOM     11  O   UNL     1    -114.945  33.526  -8.786  1.00  0.00    -0.545 OA
ATOM     12  O   UNL     1    -117.117  33.122  -9.370  1.00  0.00    -0.545 OA
ENDBRANCH   2  10
TORSDOF 2
ENDMDL
