MODEL 1
REMARK VINA RESULT:    -5.176      0.000      0.000
REMARK INTER + INTRA:          -6.978
REMARK INTER:                  -7.295
REMARK INTRA:                   0.316
REMARK UNBOUND:                 0.316
REMARK SMILES CC1=CCC(=C(C)C)C(=O)CC(C)=CCC1
REMARK SMILES IDX 12 1 14 2 13 3 15 4 16 5 2 6 1 7 3 8 11 10 9 11 10 12 5 13
REMARK SMILES IDX 6 14 7 15 8 16 4 17
REMARK H PARENT
REMARK Flexibility Score: 60.00
ROOT
ATOM      1  C   UNL     1       4.632   9.183 -25.535  1.00  0.00    -0.070 C 
ATOM      2  C   UNL     1       5.567   9.400 -26.488  1.00  0.00    -0.027 C 
ATOM      3  C   UNL     1       4.352   7.758 -25.127  1.00  0.00     0.039 C 
ENDROOT
BRANCH   2   4
ATOM      4  C   UNL     1       5.866  10.737 -27.116  1.00  0.00     0.032 C 
BRANCH   4   5
ATOM      5  C   UNL     1       7.132  11.335 -26.490  1.00  0.00     0.034 C 
BRANCH   5   6
ATOM      6  C   UNL     1       6.822  12.411 -25.470  1.00  0.00    -0.077 C 
ATOM      7  C   UNL     1       6.568  13.817 -25.957  1.00  0.00     0.039 C 
ATOM      8  C   UNL     1       6.686  12.171 -24.141  1.00  0.00    -0.023 CG0
ATOM      9  G   UNL     1       6.945  10.866 -23.410  1.00  0.00     0.000 G0
ENDBRANCH   5   6
ENDBRANCH   4   5
ENDBRANCH   2   4
BRANCH   1  10
ATOM     10  C   UNL     1       3.870  10.296 -24.845  1.00  0.00     0.111 C 
BRANCH  10  11
ATOM     11  C   UNL     1       4.368  10.535 -23.440  1.00  0.00     0.163 C 
ATOM     12  O   UNL     1       3.590  11.132 -22.648  1.00  0.00    -0.294 OA
BRANCH  11  13
ATOM     13  C   UNL     1       5.711  10.083 -22.943  1.00  0.00    -0.002 C 
ATOM     14  C   UNL     1       5.835   8.918 -22.235  1.00  0.00    -0.069 C 
ATOM     15  C   UNL     1       7.183   8.313 -21.920  1.00  0.00     0.039 C 
ATOM     16  C   UNL     1       4.626   8.198 -21.683  1.00  0.00     0.039 C 
BRANCH  13  17
ATOM     17  C   UNL     1       6.939  10.859 -23.407  1.00  0.00     0.066 CG0
ATOM     18  G   UNL     1       6.678  12.161 -24.144  1.00  0.00     0.000 G0
ENDBRANCH  13  17
ENDBRANCH  11  13
ENDBRANCH  10  11
ENDBRANCH   1  10
TORSDOF 0
ENDMDL
MODEL 2
REMARK VINA RESULT:    -4.935      8.669     11.058
REMARK INTER + INTRA:          -6.638
REMARK INTER:                  -6.564
REMARK INTRA:                  -0.073
REMARK UNBOUND:                 0.316
REMARK SMILES CC1=CCC(=C(C)C)C(=O)CC(C)=CCC1
REMARK SMILES IDX 12 1 14 2 13 3 15 4 16 5 2 6 1 7 3 8 11 10 9 11 10 12 5 13
REMARK SMILES IDX 6 14 7 15 8 16 4 17
REMARK H PARENT
REMARK Flexibility Score: 60.00
ROOT
ATOM      1  C   UNL     1       4.040  -1.894 -21.688  1.00  0.00    -0.070 C 
ATOM      2  C   UNL     1       4.376  -0.860 -20.883  1.00  0.00    -0.027 C 
ATOM      3  C   UNL     1       3.143  -2.969 -21.126  1.00  0.00     0.039 C 
ENDROOT
BRANCH   2   4
ATOM      4  C   UNL     1       5.373   0.216 -21.230  1.00  0.00     0.032 C 
BRANCH   4   5
ATOM      5  C   UNL     1       4.653   1.560 -21.392  1.00  0.00     0.034 C 
BRANCH   5   6
ATOM      6  C   UNL     1       5.206   2.379 -22.541  1.00  0.00    -0.077 C 
ATOM      7  C   UNL     1       6.301   3.378 -22.255  1.00  0.00     0.039 C 
ATOM      8  C   UNL     1       4.823   2.216 -23.832  1.00  0.00    -0.023 CG0
ATOM      9  G   UNL     1       3.712   1.326 -24.359  1.00  0.00     0.000 G0
ENDBRANCH   5   6
ENDBRANCH   4   5
ENDBRANCH   2   4
BRANCH   1  10
ATOM     10  C   UNL     1       4.501  -2.015 -23.127  1.00  0.00     0.111 C 
BRANCH  10  11
ATOM     11  C   UNL     1       3.616  -1.236 -24.070  1.00  0.00     0.163 C 
ATOM     12  O   UNL     1       2.412  -1.601 -24.162  1.00  0.00    -0.294 OA
BRANCH  11  13
ATOM     13  C   UNL     1       4.085  -0.055 -24.870  1.00  0.00    -0.002 C 
ATOM     14  C   UNL     1       4.684  -0.234 -26.088  1.00  0.00    -0.069 C 
ATOM     15  C   UNL     1       4.958   0.921 -27.023  1.00  0.00     0.039 C 
ATOM     16  C   UNL     1       5.154  -1.597 -26.543  1.00  0.00     0.039 C 
BRANCH  13  17
ATOM     17  C   UNL     1       3.708   1.336 -24.373  1.00  0.00     0.066 CG0
ATOM     18  G   UNL     1       4.842   2.194 -23.841  1.00  0.00     0.000 G0
ENDBRANCH  13  17
ENDBRANCH  11  13
ENDBRANCH  10  11
ENDBRANCH   1  10
TORSDOF 0
ENDMDL
MODEL 3
REMARK VINA RESULT:    -4.874     10.288     12.381
REMARK INTER + INTRA:          -6.552
REMARK INTER:                  -6.733
REMARK INTRA:                   0.181
REMARK UNBOUND:                 0.316
REMARK SMILES CC1=CCC(=C(C)C)C(=O)CC(C)=CCC1
REMARK SMILES IDX 12 1 14 2 13 3 15 4 16 5 2 6 1 7 3 8 11 10 9 11 10 12 5 13
REMARK SMILES IDX 6 14 7 15 8 16 4 17
REMARK H PARENT
REMARK Flexibility Score: 60.00
ROOT
ATOM      1  C   UNL     1       4.922  -0.595 -21.443  1.00  0.00    -0.070 C 
ATOM      2  C   UNL     1       4.898   0.595 -22.086  1.00  0.00    -0.027 C 
ATOM      3  C   UNL     1       3.968  -0.800 -20.292  1.00  0.00     0.039 C 
ENDROOT
BRANCH   2   4
ATOM      4  C   UNL     1       5.874   1.020 -23.152  1.00  0.00     0.032 C 
BRANCH   4   5
ATOM      5  C   UNL     1       5.152   1.152 -24.497  1.00  0.00     0.034 C 
BRANCH   5   6
ATOM      6  C   UNL     1       5.430  -0.015 -25.422  1.00  0.00    -0.077 C 
ATOM      7  C   UNL     1       6.557   0.106 -26.419  1.00  0.00     0.039 C 
ATOM      8  C   UNL     1       4.769  -1.199 -25.358  1.00  0.00    -0.023 CG0
ATOM      9  G   UNL     1       3.573  -1.540 -24.488  1.00  0.00     0.000 G0
ENDBRANCH   5   6
ENDBRANCH   4   5
ENDBRANCH   2   4
BRANCH   1  10
ATOM     10  C   UNL     1       5.843  -1.735 -21.831  1.00  0.00     0.111 C 
BRANCH  10  11
ATOM     11  C   UNL     1       5.196  -2.669 -22.825  1.00  0.00     0.163 C 
ATOM     12  O   UNL     1       5.884  -3.645 -23.228  1.00  0.00    -0.294 OA
BRANCH  11  13
ATOM     13  C   UNL     1       3.790  -2.507 -23.329  1.00  0.00    -0.002 C 
ATOM     14  C   UNL     1       2.741  -3.076 -22.658  1.00  0.00    -0.069 C 
ATOM     15  C   UNL     1       1.305  -2.750 -22.994  1.00  0.00     0.039 C 
ATOM     16  C   UNL     1       2.963  -4.106 -21.574  1.00  0.00     0.039 C 
BRANCH  13  17
ATOM     17  C   UNL     1       3.557  -1.549 -24.491  1.00  0.00     0.066 CG0
ATOM     18  G   UNL     1       4.767  -1.215 -25.346  1.00  0.00     0.000 G0
ENDBRANCH  13  17
ENDBRANCH  11  13
ENDBRANCH  10  11
ENDBRANCH   1  10
TORSDOF 0
ENDMDL
MODEL 4
REMARK VINA RESULT:    -4.832     10.048     12.751
REMARK INTER + INTRA:          -6.493
REMARK INTER:                  -6.374
REMARK INTRA:                  -0.119
REMARK UNBOUND:                 0.316
REMARK SMILES CC1=CCC(=C(C)C)C(=O)CC(C)=CCC1
REMARK SMILES IDX 12 1 14 2 13 3 15 4 16 5 2 6 1 7 3 8 11 10 9 11 10 12 5 13
REMARK SMILES IDX 6 14 7 15 8 16 4 17
REMARK H PARENT
REMARK Flexibility Score: 60.00
ROOT
ATOM      1  C   UNL     1       5.398   0.724 -22.411  1.00  0.00    -0.070 C 
ATOM      2  C   UNL     1       5.794  -0.287 -21.603  1.00  0.00    -0.027 C 
ATOM      3  C   UNL     1       6.280   1.944 -22.507  1.00  0.00     0.039 C 
ENDROOT
BRANCH   2   4
ATOM      4  C   UNL     1       4.969  -1.505 -21.277  1.00  0.00     0.032 C 
BRANCH   4   5
ATOM      5  C   UNL     1       5.253  -2.614 -22.297  1.00  0.00     0.034 C 
BRANCH   5   6
ATOM      6  C   UNL     1       3.992  -3.317 -22.755  1.00  0.00    -0.077 C 
ATOM      7  C   UNL     1       3.261  -4.202 -21.775  1.00  0.00     0.039 C 
ATOM      8  C   UNL     1       3.436  -3.141 -23.981  1.00  0.00    -0.023 CG0
ATOM      9  G   UNL     1       4.008  -2.355 -25.147  1.00  0.00     0.000 G0
ENDBRANCH   5   6
ENDBRANCH   4   5
ENDBRANCH   2   4
BRANCH   1  10
ATOM     10  C   UNL     1       4.127   0.683 -23.236  1.00  0.00     0.111 C 
BRANCH  10  11
ATOM     11  C   UNL     1       4.377   0.162 -24.630  1.00  0.00     0.163 C 
ATOM     12  O   UNL     1       5.359   0.645 -25.257  1.00  0.00    -0.294 OA
BRANCH  11  13
ATOM     13  C   UNL     1       3.543  -0.901 -25.286  1.00  0.00    -0.002 C 
ATOM     14  C   UNL     1       2.502  -0.560 -26.107  1.00  0.00    -0.069 C 
ATOM     15  C   UNL     1       1.789  -1.581 -26.963  1.00  0.00     0.039 C 
ATOM     16  C   UNL     1       1.971   0.855 -26.162  1.00  0.00     0.039 C 
BRANCH  13  17
ATOM     17  C   UNL     1       4.004  -2.348 -25.157  1.00  0.00     0.066 CG0
ATOM     18  G   UNL     1       3.441  -3.135 -23.986  1.00  0.00     0.000 G0
ENDBRANCH  13  17
ENDBRANCH  11  13
ENDBRANCH  10  11
ENDBRANCH   1  10
TORSDOF 0
ENDMDL
MODEL 5
REMARK VINA RESULT:    -4.820      2.160      4.917
REMARK INTER + INTRA:          -6.477
REMARK INTER:                  -6.679
REMARK INTRA:                   0.202
REMARK UNBOUND:                 0.316
REMARK SMILES CC1=CCC(=C(C)C)C(=O)CC(C)=CCC1
REMARK SMILES IDX 12 1 14 2 13 3 15 4 16 5 2 6 1 7 3 8 11 10 9 11 10 12 5 13
REMARK SMILES IDX 6 14 7 15 8 16 4 17
REMARK H PARENT
REMARK Flexibility Score: 60.00
ROOT
ATOM      1  C   UNL     1       5.454   8.149 -22.071  1.00  0.00    -0.070 C 
ATOM      2  C   UNL     1       5.123   6.884 -22.422  1.00  0.00    -0.027 C 
ATOM      3  C   UNL     1       6.916   8.484 -21.918  1.00  0.00     0.039 C 
ENDROOT
BRANCH   2   4
ATOM      4  C   UNL     1       3.718   6.342 -22.474  1.00  0.00     0.032 C 
BRANCH   4   5
ATOM      5  C   UNL     1       3.345   6.000 -23.922  1.00  0.00     0.034 C 
BRANCH   5   6
ATOM      6  C   UNL     1       2.440   7.040 -24.548  1.00  0.00    -0.077 C 
ATOM      7  C   UNL     1       0.948   6.815 -24.511  1.00  0.00     0.039 C 
ATOM      8  C   UNL     1       2.888   8.204 -25.081  1.00  0.00    -0.023 CG0
ATOM      9  G   UNL     1       4.332   8.629 -25.284  1.00  0.00     0.000 G0
ENDBRANCH   5   6
ENDBRANCH   4   5
ENDBRANCH   2   4
BRANCH   1  10
ATOM     10  C   UNL     1       4.433   9.245 -21.844  1.00  0.00     0.111 C 
BRANCH  10  11
ATOM     11  C   UNL     1       4.158  10.030 -23.105  1.00  0.00     0.163 C 
ATOM     12  O   UNL     1       3.309  10.959 -23.030  1.00  0.00    -0.294 OA
BRANCH  11  13
ATOM     13  C   UNL     1       4.851   9.777 -24.413  1.00  0.00    -0.002 C 
ATOM     14  C   UNL     1       6.004  10.444 -24.730  1.00  0.00    -0.069 C 
ATOM     15  C   UNL     1       6.853  10.056 -25.918  1.00  0.00     0.039 C 
ATOM     16  C   UNL     1       6.465  11.644 -23.934  1.00  0.00     0.039 C 
BRANCH  13  17
ATOM     17  C   UNL     1       4.337   8.634 -25.281  1.00  0.00     0.066 CG0
ATOM     18  G   UNL     1       2.896   8.212 -25.059  1.00  0.00     0.000 G0
ENDBRANCH  13  17
ENDBRANCH  11  13
ENDBRANCH  10  11
ENDBRANCH   1  10
TORSDOF 0
ENDMDL
MODEL 6
REMARK VINA RESULT:    -4.688     10.748     12.463
REMARK INTER + INTRA:          -6.289
REMARK INTER:                  -6.519
REMARK INTRA:                   0.230
REMARK UNBOUND:                 0.316
REMARK SMILES CC1=CCC(=C(C)C)C(=O)CC(C)=CCC1
REMARK SMILES IDX 12 1 14 2 13 3 15 4 16 5 2 6 1 7 3 8 11 10 9 11 10 12 5 13
REMARK SMILES IDX 6 14 7 15 8 16 4 17
REMARK H PARENT
REMARK Flexibility Score: 60.00
ROOT
ATOM      1  C   UNL     1       2.732  -2.870 -24.661  1.00  0.00    -0.070 C 
ATOM      2  C   UNL     1       3.102  -2.339 -25.850  1.00  0.00    -0.027 C 
ATOM      3  C   UNL     1       1.441  -2.394 -24.043  1.00  0.00     0.039 C 
ENDROOT
BRANCH   2   4
ATOM      4  C   UNL     1       4.422  -2.588 -26.533  1.00  0.00     0.032 C 
BRANCH   4   5
ATOM      5  C   UNL     1       5.416  -1.480 -26.163  1.00  0.00     0.034 C 
BRANCH   5   6
ATOM      6  C   UNL     1       4.739  -0.277 -25.541  1.00  0.00    -0.077 C 
ATOM      7  C   UNL     1       4.012   0.690 -26.444  1.00  0.00     0.039 C 
ATOM      8  C   UNL     1       4.685  -0.053 -24.204  1.00  0.00    -0.023 CG0
ATOM      9  G   UNL     1       5.379  -0.842 -23.109  1.00  0.00     0.000 G0
ENDBRANCH   5   6
ENDBRANCH   4   5
ENDBRANCH   2   4
BRANCH   1  10
ATOM     10  C   UNL     1       3.537  -3.927 -23.933  1.00  0.00     0.111 C 
BRANCH  10  11
ATOM     11  C   UNL     1       4.661  -3.323 -23.127  1.00  0.00     0.163 C 
ATOM     12  O   UNL     1       5.720  -4.000 -23.021  1.00  0.00    -0.294 OA
BRANCH  11  13
ATOM     13  C   UNL     1       4.590  -1.972 -22.476  1.00  0.00    -0.002 C 
ATOM     14  C   UNL     1       3.968  -1.814 -21.267  1.00  0.00    -0.069 C 
ATOM     15  C   UNL     1       4.074  -0.532 -20.474  1.00  0.00     0.039 C 
ATOM     16  C   UNL     1       3.095  -2.900 -20.680  1.00  0.00     0.039 C 
BRANCH  13  17
ATOM     17  C   UNL     1       5.382  -0.835 -23.110  1.00  0.00     0.066 CG0
ATOM     18  G   UNL     1       4.682  -0.050 -24.206  1.00  0.00     0.000 G0
ENDBRANCH  13  17
ENDBRANCH  11  13
ENDBRANCH  10  11
ENDBRANCH   1  10
TORSDOF 0
ENDMDL
MODEL 7
REMARK VINA RESULT:    -4.641      3.528      5.395
REMARK INTER + INTRA:          -6.224
REMARK INTER:                  -6.831
REMARK INTRA:                   0.607
REMARK UNBOUND:                 0.316
REMARK SMILES CC1=CCC(=C(C)C)C(=O)CC(C)=CCC1
REMARK SMILES IDX 12 1 14 2 13 3 15 4 16 5 2 6 1 7 3 8 11 10 9 11 10 12 5 13
REMARK SMILES IDX 6 14 7 15 8 16 4 17
REMARK H PARENT
REMARK Flexibility Score: 60.00
ROOT
ATOM      1  C   UNL     1       5.636   8.521 -22.027  1.00  0.00    -0.070 C 
ATOM      2  C   UNL     1       5.156   9.641 -22.615  1.00  0.00    -0.027 C 
ATOM      3  C   UNL     1       7.131   8.382 -21.879  1.00  0.00     0.039 C 
ENDROOT
BRANCH   2   4
ATOM      4  C   UNL     1       3.712   9.876 -22.975  1.00  0.00     0.032 C 
BRANCH   4   5
ATOM      5  C   UNL     1       3.480   9.534 -24.451  1.00  0.00     0.034 C 
BRANCH   5   6
ATOM      6  C   UNL     1       2.444   8.444 -24.638  1.00  0.00    -0.077 C 
ATOM      7  C   UNL     1       0.997   8.842 -24.792  1.00  0.00     0.039 C 
ATOM      8  C   UNL     1       2.750   7.127 -24.747  1.00  0.00    -0.023 CG0
ATOM      9  G   UNL     1       4.112   6.480 -24.571  1.00  0.00     0.000 G0
ENDBRANCH   5   6
ENDBRANCH   4   5
ENDBRANCH   2   4
BRANCH   1  10
ATOM     10  C   UNL     1       4.750   7.412 -21.495  1.00  0.00     0.111 C 
BRANCH  10  11
ATOM     11  C   UNL     1       5.043   6.089 -22.161  1.00  0.00     0.163 C 
ATOM     12  O   UNL     1       5.977   5.396 -21.673  1.00  0.00    -0.294 OA
BRANCH  11  13
ATOM     13  C   UNL     1       4.276   5.559 -23.338  1.00  0.00    -0.002 C 
ATOM     14  C   UNL     1       3.609   4.366 -23.253  1.00  0.00    -0.069 C 
ATOM     15  C   UNL     1       2.643   3.911 -24.322  1.00  0.00     0.039 C 
ATOM     16  C   UNL     1       3.843   3.411 -22.104  1.00  0.00     0.039 C 
BRANCH  13  17
ATOM     17  C   UNL     1       4.114   6.468 -24.550  1.00  0.00     0.066 CG0
ATOM     18  G   UNL     1       2.755   7.120 -24.730  1.00  0.00     0.000 G0
ENDBRANCH  13  17
ENDBRANCH  11  13
ENDBRANCH  10  11
ENDBRANCH   1  10
TORSDOF 0
ENDMDL
MODEL 8
REMARK VINA RESULT:    -4.613      8.982     11.700
REMARK INTER + INTRA:          -6.184
REMARK INTER:                  -6.349
REMARK INTRA:                   0.165
REMARK UNBOUND:                 0.316
REMARK SMILES CC1=CCC(=C(C)C)C(=O)CC(C)=CCC1
REMARK SMILES IDX 12 1 14 2 13 3 15 4 16 5 2 6 1 7 3 8 11 10 9 11 10 12 5 13
REMARK SMILES IDX 6 14 7 15 8 16 4 17
REMARK H PARENT
REMARK Flexibility Score: 60.00
ROOT
ATOM      1  C   UNL     1       4.950   1.176 -21.791  1.00  0.00    -0.070 C 
ATOM      2  C   UNL     1       4.887  -0.027 -21.174  1.00  0.00    -0.027 C 
ATOM      3  C   UNL     1       4.056   2.280 -21.285  1.00  0.00     0.039 C 
ENDROOT
BRANCH   2   4
ATOM      4  C   UNL     1       5.596  -1.273 -21.640  1.00  0.00     0.032 C 
BRANCH   4   5
ATOM      5  C   UNL     1       4.572  -2.300 -22.136  1.00  0.00     0.034 C 
BRANCH   5   6
ATOM      6  C   UNL     1       4.688  -2.563 -23.623  1.00  0.00    -0.077 C 
ATOM      7  C   UNL     1       5.495  -3.751 -24.086  1.00  0.00     0.039 C 
ATOM      8  C   UNL     1       4.046  -1.830 -24.568  1.00  0.00    -0.023 CG0
ATOM      9  G   UNL     1       3.231  -0.567 -24.358  1.00  0.00     0.000 G0
ENDBRANCH   5   6
ENDBRANCH   4   5
ENDBRANCH   2   4
BRANCH   1  10
ATOM     10  C   UNL     1       5.884   1.474 -22.947  1.00  0.00     0.111 C 
BRANCH  10  11
ATOM     11  C   UNL     1       5.388   0.874 -24.240  1.00  0.00     0.163 C 
ATOM     12  O   UNL     1       6.257   0.423 -25.035  1.00  0.00    -0.294 OA
BRANCH  11  13
ATOM     13  C   UNL     1       3.936   0.768 -24.609  1.00  0.00    -0.002 C 
ATOM     14  C   UNL     1       3.319   1.776 -25.300  1.00  0.00    -0.069 C 
ATOM     15  C   UNL     1       1.937   1.614 -25.890  1.00  0.00     0.039 C 
ATOM     16  C   UNL     1       3.969   3.131 -25.467  1.00  0.00     0.039 C 
BRANCH  13  17
ATOM     17  C   UNL     1       3.232  -0.560 -24.355  1.00  0.00     0.066 CG0
ATOM     18  G   UNL     1       4.056  -1.816 -24.577  1.00  0.00     0.000 G0
ENDBRANCH  13  17
ENDBRANCH  11  13
ENDBRANCH  10  11
ENDBRANCH   1  10
TORSDOF 0
ENDMDL
MODEL 9
REMARK VINA RESULT:    -4.555     10.242     12.410
REMARK INTER + INTRA:          -6.103
REMARK INTER:                  -6.144
REMARK INTRA:                   0.042
REMARK UNBOUND:                 0.316
REMARK SMILES CC1=CCC(=C(C)C)C(=O)CC(C)=CCC1
REMARK SMILES IDX 12 1 14 2 13 3 15 4 16 5 2 6 1 7 3 8 11 10 9 11 10 12 5 13
REMARK SMILES IDX 6 14 7 15 8 16 4 17
REMARK H PARENT
REMARK Flexibility Score: 60.00
ROOT
ATOM      1  C   UNL     1       2.185  -3.663 -22.404  1.00  0.00    -0.070 C 
ATOM      2  C   UNL     1       1.628  -3.399 -23.609  1.00  0.00    -0.027 C 
ATOM      3  C   UNL     1       2.116  -5.078 -21.885  1.00  0.00     0.039 C 
ENDROOT
BRANCH   2   4
ATOM      4  C   UNL     1       1.477  -2.024 -24.207  1.00  0.00     0.032 C 
BRANCH   4   5
ATOM      5  C   UNL     1       2.460  -1.852 -25.371  1.00  0.00     0.034 C 
BRANCH   5   6
ATOM      6  C   UNL     1       2.946  -0.424 -25.514  1.00  0.00    -0.077 C 
ATOM      7  C   UNL     1       2.144   0.530 -26.366  1.00  0.00     0.039 C 
ATOM      8  C   UNL     1       4.026   0.071 -24.859  1.00  0.00    -0.023 CG0
ATOM      9  G   UNL     1       5.014  -0.696 -23.999  1.00  0.00     0.000 G0
ENDBRANCH   5   6
ENDBRANCH   4   5
ENDBRANCH   2   4
BRANCH   1  10
ATOM     10  C   UNL     1       2.888  -2.617 -21.563  1.00  0.00     0.111 C 
BRANCH  10  11
ATOM     11  C   UNL     1       4.258  -2.286 -22.104  1.00  0.00     0.163 C 
ATOM     12  O   UNL     1       5.077  -3.239 -22.215  1.00  0.00    -0.294 OA
BRANCH  11  13
ATOM     13  C   UNL     1       4.678  -0.909 -22.530  1.00  0.00    -0.002 C 
ATOM     14  C   UNL     1       4.890   0.072 -21.600  1.00  0.00    -0.069 C 
ATOM     15  C   UNL     1       5.531   1.393 -21.960  1.00  0.00     0.039 C 
ATOM     16  C   UNL     1       4.446  -0.092 -20.164  1.00  0.00     0.039 C 
BRANCH  13  17
ATOM     17  C   UNL     1       5.033  -0.695 -23.997  1.00  0.00     0.066 CG0
ATOM     18  G   UNL     1       4.021   0.068 -24.834  1.00  0.00     0.000 G0
ENDBRANCH  13  17
ENDBRANCH  11  13
ENDBRANCH  10  11
ENDBRANCH   1  10
TORSDOF 0
ENDMDL
