MODEL 1
REMARK VINA RESULT:    -5.220      0.000      0.000
REMARK INTER + INTRA:         -10.738
REMARK INTER:                  -9.493
REMARK INTRA:                  -1.245
REMARK UNBOUND:                -1.245
REMARK SMILES CCCCCCCCCCCCCCCC(=O)[O-]
REMARK SMILES IDX 9 1 10 2 11 3 12 4 13 5 14 6 15 7 16 8 17 9 18 10 8 11 7 12
REMARK SMILES IDX 6 13 5 14 4 15 3 16 2 17 1 18
REMARK H PARENT
REMARK Flexibility Score: inf
ROOT
ATOM      1  C   UNL     1      46.672   5.040 130.251  1.00  0.00     0.000 C 
ENDROOT
BRANCH   1   2
ATOM      2  C   UNL     1      47.728   5.692 129.345  1.00  0.00     0.000 C 
BRANCH   2   3
ATOM      3  C   UNL     1      47.164   6.939 128.654  1.00  0.00     0.000 C 
BRANCH   3   4
ATOM      4  C   UNL     1      45.919   7.458 129.382  1.00  0.00     0.000 C 
BRANCH   4   5
ATOM      5  C   UNL     1      44.780   7.742 128.392  1.00  0.00     0.000 C 
BRANCH   5   6
ATOM      6  C   UNL     1      43.446   7.101 128.815  1.00  0.00     0.006 C 
BRANCH   6   7
ATOM      7  C   UNL     1      42.887   6.080 127.812  1.00  0.00     0.053 C 
BRANCH   7   8
ATOM      8  C   UNL     1      43.973   5.417 127.023  1.00  0.00     0.041 C 
ATOM      9  O   UNL     1      44.602   4.438 127.507  1.00  0.00    -0.550 OA
ATOM     10  O   UNL     1      44.271   5.859 125.740  1.00  0.00    -0.550 OA
ENDBRANCH   7   8
ENDBRANCH   6   7
ENDBRANCH   5   6
ENDBRANCH   4   5
ENDBRANCH   3   4
ENDBRANCH   2   3
ENDBRANCH   1   2
BRANCH   1  11
ATOM     11  C   UNL     1      47.286   4.363 131.487  1.00  0.00     0.000 C 
BRANCH  11  12
ATOM     12  C   UNL     1      46.256   4.128 132.605  1.00  0.00    -0.000 C 
BRANCH  12  13
ATOM     13  C   UNL     1      44.808   4.139 132.086  1.00  0.00    -0.000 C 
BRANCH  13  14
ATOM     14  C   UNL     1      44.039   2.859 132.445  1.00  0.00    -0.000 C 
BRANCH  14  15
ATOM     15  C   UNL     1      45.002   1.680 132.648  1.00  0.00    -0.000 C 
BRANCH  15  16
ATOM     16  C   UNL     1      44.321   0.311 132.474  1.00  0.00    -0.000 C 
BRANCH  16  17
ATOM     17  C   UNL     1      42.891   0.367 131.909  1.00  0.00    -0.003 C 
ATOM     18  C   UNL     1      41.853  -0.249 132.847  1.00  0.00     0.004 C 
ENDBRANCH  16  17
ENDBRANCH  15  16
ENDBRANCH  14  15
ENDBRANCH  13  14
ENDBRANCH  12  13
ENDBRANCH  11  12
ENDBRANCH   1  11
TORSDOF 14
ENDMDL
MODEL 2
REMARK VINA RESULT:    -5.206      2.563      6.008
REMARK INTER + INTRA:         -10.712
REMARK INTER:                  -9.279
REMARK INTRA:                  -1.433
REMARK UNBOUND:                -1.245
REMARK SMILES CCCCCCCCCCCCCCCC(=O)[O-]
REMARK SMILES IDX 9 1 10 2 11 3 12 4 13 5 14 6 15 7 16 8 17 9 18 10 8 11 7 12
REMARK SMILES IDX 6 13 5 14 4 15 3 16 2 17 1 18
REMARK H PARENT
REMARK Flexibility Score: inf
ROOT
ATOM      1  C   UNL     1      47.029   5.005 129.838  1.00  0.00     0.000 C 
ENDROOT
BRANCH   1   2
ATOM      2  C   UNL     1      48.101   4.267 130.655  1.00  0.00     0.000 C 
BRANCH   2   3
ATOM      3  C   UNL     1      47.504   3.676 131.938  1.00  0.00     0.000 C 
BRANCH   3   4
ATOM      4  C   UNL     1      46.034   4.080 132.099  1.00  0.00     0.000 C 
BRANCH   4   5
ATOM      5  C   UNL     1      45.547   3.823 133.533  1.00  0.00     0.000 C 
BRANCH   5   6
ATOM      6  C   UNL     1      44.699   2.543 133.654  1.00  0.00     0.006 C 
BRANCH   6   7
ATOM      7  C   UNL     1      43.798   2.263 132.442  1.00  0.00     0.053 C 
BRANCH   7   8
ATOM      8  C   UNL     1      43.763   0.807 132.094  1.00  0.00     0.041 C 
ATOM      9  O   UNL     1      42.750   0.313 131.530  1.00  0.00    -0.550 OA
ATOM     10  O   UNL     1      44.863   0.001 132.361  1.00  0.00    -0.550 OA
ENDBRANCH   7   8
ENDBRANCH   6   7
ENDBRANCH   5   6
ENDBRANCH   4   5
ENDBRANCH   3   4
ENDBRANCH   2   3
ENDBRANCH   1   2
BRANCH   1  11
ATOM     11  C   UNL     1      47.630   5.952 128.787  1.00  0.00     0.000 C 
BRANCH  11  12
ATOM     12  C   UNL     1      46.595   6.938 128.220  1.00  0.00    -0.000 C 
BRANCH  12  13
ATOM     13  C   UNL     1      45.598   7.426 129.285  1.00  0.00    -0.000 C 
BRANCH  13  14
ATOM     14  C   UNL     1      44.190   7.660 128.718  1.00  0.00    -0.000 C 
BRANCH  14  15
ATOM     15  C   UNL     1      43.310   6.415 128.907  1.00  0.00    -0.000 C 
BRANCH  15  16
ATOM     16  C   UNL     1      42.526   6.034 127.639  1.00  0.00    -0.000 C 
BRANCH  16  17
ATOM     17  C   UNL     1      43.399   5.691 126.418  1.00  0.00    -0.003 C 
ATOM     18  C   UNL     1      44.369   4.540 126.682  1.00  0.00     0.004 C 
ENDBRANCH  16  17
ENDBRANCH  15  16
ENDBRANCH  14  15
ENDBRANCH  13  14
ENDBRANCH  12  13
ENDBRANCH  11  12
ENDBRANCH   1  11
TORSDOF 14
ENDMDL
MODEL 3
REMARK VINA RESULT:    -5.175      2.647      6.563
REMARK INTER + INTRA:         -10.655
REMARK INTER:                  -9.252
REMARK INTRA:                  -1.404
REMARK UNBOUND:                -1.245
REMARK SMILES CCCCCCCCCCCCCCCC(=O)[O-]
REMARK SMILES IDX 9 1 10 2 11 3 12 4 13 5 14 6 15 7 16 8 17 9 18 10 8 11 7 12
REMARK SMILES IDX 6 13 5 14 4 15 3 16 2 17 1 18
REMARK H PARENT
REMARK Flexibility Score: inf
ROOT
ATOM      1  C   UNL     1      45.541   4.525 130.901  1.00  0.00     0.000 C 
ENDROOT
BRANCH   1   2
ATOM      2  C   UNL     1      44.910   4.007 132.203  1.00  0.00     0.000 C 
BRANCH   2   3
ATOM      3  C   UNL     1      45.888   4.140 133.376  1.00  0.00     0.000 C 
BRANCH   3   4
ATOM      4  C   UNL     1      46.211   2.769 133.983  1.00  0.00     0.000 C 
BRANCH   4   5
ATOM      5  C   UNL     1      45.212   2.409 135.093  1.00  0.00     0.000 C 
BRANCH   5   6
ATOM      6  C   UNL     1      44.459   1.095 134.815  1.00  0.00     0.006 C 
BRANCH   6   7
ATOM      7  C   UNL     1      43.337   1.216 133.772  1.00  0.00     0.053 C 
BRANCH   7   8
ATOM      8  C   UNL     1      43.661   0.477 132.511  1.00  0.00     0.041 C 
ATOM      9  O   UNL     1      44.824   0.031 132.318  1.00  0.00    -0.550 OA
ATOM     10  O   UNL     1      42.671   0.250 131.563  1.00  0.00    -0.550 OA
ENDBRANCH   7   8
ENDBRANCH   6   7
ENDBRANCH   5   6
ENDBRANCH   4   5
ENDBRANCH   3   4
ENDBRANCH   2   3
ENDBRANCH   1   2
BRANCH   1  11
ATOM     11  C   UNL     1      47.076   4.580 130.964  1.00  0.00     0.000 C 
BRANCH  11  12
ATOM     12  C   UNL     1      47.691   5.295 129.749  1.00  0.00    -0.000 C 
BRANCH  12  13
ATOM     13  C   UNL     1      46.765   5.280 128.522  1.00  0.00    -0.000 C 
BRANCH  13  14
ATOM     14  C   UNL     1      46.721   6.631 127.794  1.00  0.00    -0.000 C 
BRANCH  14  15
ATOM     15  C   UNL     1      45.278   7.013 127.432  1.00  0.00    -0.000 C 
BRANCH  15  16
ATOM     16  C   UNL     1      44.415   7.340 128.663  1.00  0.00    -0.000 C 
BRANCH  16  17
ATOM     17  C   UNL     1      43.149   6.479 128.815  1.00  0.00    -0.003 C 
ATOM     18  C   UNL     1      42.573   6.023 127.475  1.00  0.00     0.004 C 
ENDBRANCH  16  17
ENDBRANCH  15  16
ENDBRANCH  14  15
ENDBRANCH  13  14
ENDBRANCH  12  13
ENDBRANCH  11  12
ENDBRANCH   1  11
TORSDOF 14
ENDMDL
MODEL 4
REMARK VINA RESULT:    -5.170      1.801      2.565
REMARK INTER + INTRA:         -10.645
REMARK INTER:                  -9.065
REMARK INTRA:                  -1.580
REMARK UNBOUND:                -1.245
REMARK SMILES CCCCCCCCCCCCCCCC(=O)[O-]
REMARK SMILES IDX 9 1 10 2 11 3 12 4 13 5 14 6 15 7 16 8 17 9 18 10 8 11 7 12
REMARK SMILES IDX 6 13 5 14 4 15 3 16 2 17 1 18
REMARK H PARENT
REMARK Flexibility Score: inf
ROOT
ATOM      1  C   UNL     1      47.301   3.372 131.989  1.00  0.00     0.000 C 
ENDROOT
BRANCH   1   2
ATOM      2  C   UNL     1      47.876   4.340 130.944  1.00  0.00     0.000 C 
BRANCH   2   3
ATOM      3  C   UNL     1      46.778   5.244 130.370  1.00  0.00     0.000 C 
BRANCH   3   4
ATOM      4  C   UNL     1      47.286   6.023 129.152  1.00  0.00     0.000 C 
BRANCH   4   5
ATOM      5  C   UNL     1      46.609   5.533 127.863  1.00  0.00     0.000 C 
BRANCH   5   6
ATOM      6  C   UNL     1      45.308   4.754 128.132  1.00  0.00     0.006 C 
BRANCH   6   7
ATOM      7  C   UNL     1      44.114   5.200 127.275  1.00  0.00     0.053 C 
BRANCH   7   8
ATOM      8  C   UNL     1      43.167   6.069 128.042  1.00  0.00     0.041 C 
ATOM      9  O   UNL     1      42.059   6.399 127.540  1.00  0.00    -0.550 OA
ATOM     10  O   UNL     1      43.492   6.490 129.326  1.00  0.00    -0.550 OA
ENDBRANCH   7   8
ENDBRANCH   6   7
ENDBRANCH   5   6
ENDBRANCH   4   5
ENDBRANCH   3   4
ENDBRANCH   2   3
ENDBRANCH   1   2
BRANCH   1  11
ATOM     11  C   UNL     1      45.912   3.797 132.493  1.00  0.00     0.000 C 
BRANCH  11  12
ATOM     12  C   UNL     1      45.891   4.071 134.006  1.00  0.00    -0.000 C 
BRANCH  12  13
ATOM     13  C   UNL     1      46.372   2.866 134.832  1.00  0.00    -0.000 C 
BRANCH  13  14
ATOM     14  C   UNL     1      45.273   2.292 135.739  1.00  0.00    -0.000 C 
BRANCH  14  15
ATOM     15  C   UNL     1      44.571   1.104 135.065  1.00  0.00    -0.000 C 
BRANCH  15  16
ATOM     16  C   UNL     1      43.319   1.517 134.272  1.00  0.00    -0.000 C 
BRANCH  16  17
ATOM     17  C   UNL     1      43.318   1.086 132.794  1.00  0.00    -0.003 C 
ATOM     18  C   UNL     1      44.571   0.306 132.398  1.00  0.00     0.004 C 
ENDBRANCH  16  17
ENDBRANCH  15  16
ENDBRANCH  14  15
ENDBRANCH  13  14
ENDBRANCH  12  13
ENDBRANCH  11  12
ENDBRANCH   1  11
TORSDOF 14
ENDMDL
MODEL 5
REMARK VINA RESULT:    -5.115      2.682      6.288
REMARK INTER + INTRA:         -10.545
REMARK INTER:                  -9.369
REMARK INTRA:                  -1.176
REMARK UNBOUND:                -1.245
REMARK SMILES CCCCCCCCCCCCCCCC(=O)[O-]
REMARK SMILES IDX 9 1 10 2 11 3 12 4 13 5 14 6 15 7 16 8 17 9 18 10 8 11 7 12
REMARK SMILES IDX 6 13 5 14 4 15 3 16 2 17 1 18
REMARK H PARENT
REMARK Flexibility Score: inf
ROOT
ATOM      1  C   UNL     1      47.618   4.518 129.762  1.00  0.00     0.000 C 
ENDROOT
BRANCH   1   2
ATOM      2  C   UNL     1      47.919   4.391 131.264  1.00  0.00     0.000 C 
BRANCH   2   3
ATOM      3  C   UNL     1      46.622   4.331 132.080  1.00  0.00     0.000 C 
BRANCH   3   4
ATOM      4  C   UNL     1      46.569   3.063 132.939  1.00  0.00     0.000 C 
BRANCH   4   5
ATOM      5  C   UNL     1      45.438   3.147 133.975  1.00  0.00     0.000 C 
BRANCH   5   6
ATOM      6  C   UNL     1      44.849   1.768 134.329  1.00  0.00     0.006 C 
BRANCH   6   7
ATOM      7  C   UNL     1      43.561   1.416 133.569  1.00  0.00     0.053 C 
BRANCH   7   8
ATOM      8  C   UNL     1      43.828   0.527 132.394  1.00  0.00     0.041 C 
ATOM      9  O   UNL     1      44.957  -0.016 132.253  1.00  0.00    -0.550 OA
ATOM     10  O   UNL     1      42.821   0.271 131.472  1.00  0.00    -0.550 OA
ENDBRANCH   7   8
ENDBRANCH   6   7
ENDBRANCH   5   6
ENDBRANCH   4   5
ENDBRANCH   3   4
ENDBRANCH   2   3
ENDBRANCH   1   2
BRANCH   1  11
ATOM     11  C   UNL     1      47.340   5.967 129.332  1.00  0.00     0.000 C 
BRANCH  11  12
ATOM     12  C   UNL     1      46.511   6.050 128.039  1.00  0.00    -0.000 C 
BRANCH  12  13
ATOM     13  C   UNL     1      46.100   4.666 127.510  1.00  0.00    -0.000 C 
BRANCH  13  14
ATOM     14  C   UNL     1      44.576   4.486 127.443  1.00  0.00    -0.000 C 
BRANCH  14  15
ATOM     15  C   UNL     1      43.917   5.662 126.706  1.00  0.00    -0.000 C 
BRANCH  15  16
ATOM     16  C   UNL     1      42.525   6.014 127.259  1.00  0.00    -0.000 C 
BRANCH  16  17
ATOM     17  C   UNL     1      42.504   6.432 128.740  1.00  0.00    -0.003 C 
ATOM     18  C   UNL     1      43.460   7.584 129.050  1.00  0.00     0.004 C 
ENDBRANCH  16  17
ENDBRANCH  15  16
ENDBRANCH  14  15
ENDBRANCH  13  14
ENDBRANCH  12  13
ENDBRANCH  11  12
ENDBRANCH   1  11
TORSDOF 14
ENDMDL
MODEL 6
REMARK VINA RESULT:    -5.113      5.007      6.992
REMARK INTER + INTRA:         -10.543
REMARK INTER:                  -9.098
REMARK INTRA:                  -1.445
REMARK UNBOUND:                -1.245
REMARK SMILES CCCCCCCCCCCCCCCC(=O)[O-]
REMARK SMILES IDX 9 1 10 2 11 3 12 4 13 5 14 6 15 7 16 8 17 9 18 10 8 11 7 12
REMARK SMILES IDX 6 13 5 14 4 15 3 16 2 17 1 18
REMARK H PARENT
REMARK Flexibility Score: inf
ROOT
ATOM      1  C   UNL     1      46.261   7.638 125.700  1.00  0.00     0.000 C 
ENDROOT
BRANCH   1   2
ATOM      2  C   UNL     1      46.177   8.076 124.229  1.00  0.00     0.000 C 
BRANCH   2   3
ATOM      3  C   UNL     1      47.478   8.752 123.782  1.00  0.00     0.000 C 
BRANCH   3   4
ATOM      4  C   UNL     1      47.200  10.120 123.149  1.00  0.00     0.000 C 
BRANCH   4   5
ATOM      5  C   UNL     1      46.773  11.142 124.214  1.00  0.00     0.000 C 
BRANCH   5   6
ATOM      6  C   UNL     1      45.324  11.627 124.028  1.00  0.00     0.006 C 
BRANCH   6   7
ATOM      7  C   UNL     1      44.705  11.268 122.668  1.00  0.00     0.053 C 
BRANCH   7   8
ATOM      8  C   UNL     1      44.650  12.448 121.748  1.00  0.00     0.041 C 
ATOM      9  O   UNL     1      45.574  13.305 121.760  1.00  0.00    -0.550 OA
ATOM     10  O   UNL     1      43.596  12.585 120.854  1.00  0.00    -0.550 OA
ENDBRANCH   7   8
ENDBRANCH   6   7
ENDBRANCH   5   6
ENDBRANCH   4   5
ENDBRANCH   3   4
ENDBRANCH   2   3
ENDBRANCH   1   2
BRANCH   1  11
ATOM     11  C   UNL     1      47.697   7.667 126.248  1.00  0.00     0.000 C 
BRANCH  11  12
ATOM     12  C   UNL     1      47.795   7.104 127.676  1.00  0.00    -0.000 C 
BRANCH  12  13
ATOM     13  C   UNL     1      46.721   6.043 127.968  1.00  0.00    -0.000 C 
BRANCH  13  14
ATOM     14  C   UNL     1      45.894   6.365 129.221  1.00  0.00    -0.000 C 
BRANCH  14  15
ATOM     15  C   UNL     1      44.673   7.227 128.865  1.00  0.00    -0.000 C 
BRANCH  15  16
ATOM     16  C   UNL     1      43.337   6.490 129.064  1.00  0.00    -0.000 C 
BRANCH  16  17
ATOM     17  C   UNL     1      42.486   6.338 127.791  1.00  0.00    -0.003 C 
ATOM     18  C   UNL     1      43.201   5.567 126.682  1.00  0.00     0.004 C 
ENDBRANCH  16  17
ENDBRANCH  15  16
ENDBRANCH  14  15
ENDBRANCH  13  14
ENDBRANCH  12  13
ENDBRANCH  11  12
ENDBRANCH   1  11
TORSDOF 14
ENDMDL
MODEL 7
REMARK VINA RESULT:    -5.109      1.430      2.246
REMARK INTER + INTRA:         -10.535
REMARK INTER:                  -8.956
REMARK INTRA:                  -1.579
REMARK UNBOUND:                -1.245
REMARK SMILES CCCCCCCCCCCCCCCC(=O)[O-]
REMARK SMILES IDX 9 1 10 2 11 3 12 4 13 5 14 6 15 7 16 8 17 9 18 10 8 11 7 12
REMARK SMILES IDX 6 13 5 14 4 15 3 16 2 17 1 18
REMARK H PARENT
REMARK Flexibility Score: inf
ROOT
ATOM      1  C   UNL     1      45.814   4.085 131.317  1.00  0.00     0.000 C 
ENDROOT
BRANCH   1   2
ATOM      2  C   UNL     1      47.282   4.482 131.540  1.00  0.00     0.000 C 
BRANCH   2   3
ATOM      3  C   UNL     1      47.949   4.883 130.219  1.00  0.00     0.000 C 
BRANCH   3   4
ATOM      4  C   UNL     1      46.952   4.820 129.056  1.00  0.00     0.000 C 
BRANCH   4   5
ATOM      5  C   UNL     1      46.886   6.163 128.314  1.00  0.00     0.000 C 
BRANCH   5   6
ATOM      6  C   UNL     1      45.990   7.194 129.025  1.00  0.00     0.006 C 
BRANCH   6   7
ATOM      7  C   UNL     1      44.689   7.524 128.277  1.00  0.00     0.053 C 
BRANCH   7   8
ATOM      8  C   UNL     1      43.596   6.552 128.597  1.00  0.00     0.041 C 
ATOM      9  O   UNL     1      43.408   6.177 129.785  1.00  0.00    -0.550 OA
ATOM     10  O   UNL     1      42.764   6.084 127.588  1.00  0.00    -0.550 OA
ENDBRANCH   7   8
ENDBRANCH   6   7
ENDBRANCH   5   6
ENDBRANCH   4   5
ENDBRANCH   3   4
ENDBRANCH   2   3
ENDBRANCH   1   2
BRANCH   1  11
ATOM     11  C   UNL     1      44.984   4.126 132.610  1.00  0.00     0.000 C 
BRANCH  11  12
ATOM     12  C   UNL     1      45.856   4.043 133.874  1.00  0.00    -0.000 C 
BRANCH  12  13
ATOM     13  C   UNL     1      45.830   2.648 134.521  1.00  0.00    -0.000 C 
BRANCH  13  14
ATOM     14  C   UNL     1      44.409   2.080 134.649  1.00  0.00    -0.000 C 
BRANCH  14  15
ATOM     15  C   UNL     1      44.358   0.617 134.180  1.00  0.00    -0.000 C 
BRANCH  15  16
ATOM     16  C   UNL     1      44.564   0.465 132.663  1.00  0.00    -0.000 C 
BRANCH  16  17
ATOM     17  C   UNL     1      43.303   0.701 131.813  1.00  0.00    -0.003 C 
ATOM     18  C   UNL     1      42.061   0.017 132.382  1.00  0.00     0.004 C 
ENDBRANCH  16  17
ENDBRANCH  15  16
ENDBRANCH  14  15
ENDBRANCH  13  14
ENDBRANCH  12  13
ENDBRANCH  11  12
ENDBRANCH   1  11
TORSDOF 14
ENDMDL
MODEL 8
REMARK VINA RESULT:    -5.008      1.500      1.984
REMARK INTER + INTRA:         -10.351
REMARK INTER:                  -9.299
REMARK INTRA:                  -1.052
REMARK UNBOUND:                -1.245
REMARK SMILES CCCCCCCCCCCCCCCC(=O)[O-]
REMARK SMILES IDX 9 1 10 2 11 3 12 4 13 5 14 6 15 7 16 8 17 9 18 10 8 11 7 12
REMARK SMILES IDX 6 13 5 14 4 15 3 16 2 17 1 18
REMARK H PARENT
REMARK Flexibility Score: inf
ROOT
ATOM      1  C   UNL     1      46.940   4.929 130.474  1.00  0.00     0.000 C 
ENDROOT
BRANCH   1   2
ATOM      2  C   UNL     1      47.713   5.853 129.520  1.00  0.00     0.000 C 
BRANCH   2   3
ATOM      3  C   UNL     1      46.763   6.551 128.541  1.00  0.00     0.000 C 
BRANCH   3   4
ATOM      4  C   UNL     1      46.308   5.592 127.435  1.00  0.00     0.000 C 
BRANCH   4   5
ATOM      5  C   UNL     1      45.039   6.113 126.743  1.00  0.00     0.000 C 
BRANCH   5   6
ATOM      6  C   UNL     1      43.805   5.233 127.019  1.00  0.00     0.006 C 
BRANCH   6   7
ATOM      7  C   UNL     1      42.649   5.966 127.717  1.00  0.00     0.053 C 
BRANCH   7   8
ATOM      8  C   UNL     1      43.082   6.605 129.000  1.00  0.00     0.041 C 
ATOM      9  O   UNL     1      42.952   7.847 129.166  1.00  0.00    -0.550 OA
ATOM     10  O   UNL     1      43.600   5.824 130.026  1.00  0.00    -0.550 OA
ENDBRANCH   7   8
ENDBRANCH   6   7
ENDBRANCH   5   6
ENDBRANCH   4   5
ENDBRANCH   3   4
ENDBRANCH   2   3
ENDBRANCH   1   2
BRANCH   1  11
ATOM     11  C   UNL     1      47.865   4.097 131.376  1.00  0.00     0.000 C 
BRANCH  11  12
ATOM     12  C   UNL     1      47.087   3.138 132.295  1.00  0.00    -0.000 C 
BRANCH  12  13
ATOM     13  C   UNL     1      45.914   3.827 133.010  1.00  0.00    -0.000 C 
BRANCH  13  14
ATOM     14  C   UNL     1      44.820   2.839 133.442  1.00  0.00    -0.000 C 
BRANCH  14  15
ATOM     15  C   UNL     1      44.093   2.258 132.221  1.00  0.00    -0.000 C 
BRANCH  15  16
ATOM     16  C   UNL     1      43.792   0.755 132.359  1.00  0.00    -0.000 C 
BRANCH  16  17
ATOM     17  C   UNL     1      42.311   0.373 132.189  1.00  0.00    -0.003 C 
ATOM     18  C   UNL     1      41.811  -0.577 133.276  1.00  0.00     0.004 C 
ENDBRANCH  16  17
ENDBRANCH  15  16
ENDBRANCH  14  15
ENDBRANCH  13  14
ENDBRANCH  12  13
ENDBRANCH  11  12
ENDBRANCH   1  11
TORSDOF 14
ENDMDL
MODEL 9
REMARK VINA RESULT:    -4.885      4.493      8.916
REMARK INTER + INTRA:         -10.127
REMARK INTER:                  -8.785
REMARK INTRA:                  -1.342
REMARK UNBOUND:                -1.245
REMARK SMILES CCCCCCCCCCCCCCCC(=O)[O-]
REMARK SMILES IDX 9 1 10 2 11 3 12 4 13 5 14 6 15 7 16 8 17 9 18 10 8 11 7 12
REMARK SMILES IDX 6 13 5 14 4 15 3 16 2 17 1 18
REMARK H PARENT
REMARK Flexibility Score: inf
ROOT
ATOM      1  C   UNL     1      46.385   7.763 126.378  1.00  0.00     0.000 C 
ENDROOT
BRANCH   1   2
ATOM      2  C   UNL     1      47.586   6.963 126.905  1.00  0.00     0.000 C 
BRANCH   2   3
ATOM      3  C   UNL     1      47.898   7.334 128.359  1.00  0.00     0.000 C 
BRANCH   3   4
ATOM      4  C   UNL     1      46.811   6.812 129.306  1.00  0.00     0.000 C 
BRANCH   4   5
ATOM      5  C   UNL     1      46.581   5.307 129.104  1.00  0.00     0.000 C 
BRANCH   5   6
ATOM      6  C   UNL     1      45.088   4.928 129.093  1.00  0.00     0.006 C 
BRANCH   6   7
ATOM      7  C   UNL     1      44.398   5.114 127.733  1.00  0.00     0.053 C 
BRANCH   7   8
ATOM      8  C   UNL     1      43.261   6.086 127.809  1.00  0.00     0.041 C 
ATOM      9  O   UNL     1      42.196   5.869 127.172  1.00  0.00    -0.550 OA
ATOM     10  O   UNL     1      43.365   7.217 128.610  1.00  0.00    -0.550 OA
ENDBRANCH   7   8
ENDBRANCH   6   7
ENDBRANCH   5   6
ENDBRANCH   4   5
ENDBRANCH   3   4
ENDBRANCH   2   3
ENDBRANCH   1   2
BRANCH   1  11
ATOM     11  C   UNL     1      46.399   7.920 124.849  1.00  0.00     0.000 C 
BRANCH  11  12
ATOM     12  C   UNL     1      47.462   8.922 124.368  1.00  0.00    -0.000 C 
BRANCH  12  13
ATOM     13  C   UNL     1      46.892   9.969 123.397  1.00  0.00    -0.000 C 
BRANCH  13  14
ATOM     14  C   UNL     1      46.693  11.342 124.055  1.00  0.00    -0.000 C 
BRANCH  14  15
ATOM     15  C   UNL     1      45.205  11.726 124.084  1.00  0.00    -0.000 C 
BRANCH  15  16
ATOM     16  C   UNL     1      44.430  11.221 122.855  1.00  0.00    -0.000 C 
BRANCH  16  17
ATOM     17  C   UNL     1      44.308  12.236 121.705  1.00  0.00    -0.003 C 
ATOM     18  C   UNL     1      45.316  11.992 120.583  1.00  0.00     0.004 C 
ENDBRANCH  16  17
ENDBRANCH  15  16
ENDBRANCH  14  15
ENDBRANCH  13  14
ENDBRANCH  12  13
ENDBRANCH  11  12
ENDBRANCH   1  11
TORSDOF 14
ENDMDL
