MODEL 1
REMARK VINA RESULT:    -2.515      0.000      0.000
REMARK INTER + INTRA:          -2.515
REMARK INTER:                  -2.515
REMARK INTRA:                   0.000
REMARK UNBOUND:                 0.000
REMARK SMILES CC(=O)[O-]
REMARK SMILES IDX 1 1 2 2 3 3 4 4
REMARK H PARENT
REMARK Flexibility Score: inf
ROOT
ATOM      1  C   UNL     1     -13.500  81.833 -13.230  1.00  0.00     0.063 C 
ATOM      2  C   UNL     1     -12.527  81.625 -12.118  1.00  0.00     0.038 C 
ATOM      3  O   UNL     1     -12.941  81.448 -10.943  1.00  0.00    -0.550 OA
ATOM      4  O   UNL     1     -11.166  81.571 -12.386  1.00  0.00    -0.550 OA
ENDROOT
TORSDOF 0
ENDMDL
MODEL 2
REMARK VINA RESULT:    -2.506      0.086      1.619
REMARK INTER + INTRA:          -2.506
REMARK INTER:                  -2.506
REMARK INTRA:                   0.000
REMARK UNBOUND:                 0.000
REMARK SMILES CC(=O)[O-]
REMARK SMILES IDX 1 1 2 2 3 3 4 4
REMARK H PARENT
REMARK Flexibility Score: inf
ROOT
ATOM      1  C   UNL     1     -13.483  81.797 -13.241  1.00  0.00     0.063 C 
ATOM      2  C   UNL     1     -12.479  81.596 -12.155  1.00  0.00     0.038 C 
ATOM      3  O   UNL     1     -11.249  81.627 -12.419  1.00  0.00    -0.550 OA
ATOM      4  O   UNL     1     -12.899  81.431 -10.842  1.00  0.00    -0.550 OA
ENDROOT
TORSDOF 0
ENDMDL
MODEL 3
REMARK VINA RESULT:    -2.374      1.369      2.065
REMARK INTER + INTRA:          -2.374
REMARK INTER:                  -2.374
REMARK INTRA:                   0.000
REMARK UNBOUND:                 0.000
REMARK SMILES CC(=O)[O-]
REMARK SMILES IDX 1 1 2 2 3 3 4 4
REMARK H PARENT
REMARK Flexibility Score: inf
ROOT
ATOM      1  C   UNL     1     -12.937  81.741 -10.797  1.00  0.00     0.063 C 
ATOM      2  C   UNL     1     -12.439  81.732 -12.203  1.00  0.00     0.038 C 
ATOM      3  O   UNL     1     -11.210  81.598 -12.437  1.00  0.00    -0.550 OA
ATOM      4  O   UNL     1     -13.337  81.816 -13.259  1.00  0.00    -0.550 OA
ENDROOT
TORSDOF 0
ENDMDL
MODEL 4
REMARK VINA RESULT:    -2.359      1.367      1.681
REMARK INTER + INTRA:          -2.359
REMARK INTER:                  -2.359
REMARK INTRA:                   0.000
REMARK UNBOUND:                 0.000
REMARK SMILES CC(=O)[O-]
REMARK SMILES IDX 1 1 2 2 3 3 4 4
REMARK H PARENT
REMARK Flexibility Score: inf
ROOT
ATOM      1  C   UNL     1     -13.087  82.138 -10.924  1.00  0.00     0.063 C 
ATOM      2  C   UNL     1     -12.545  81.800 -12.272  1.00  0.00     0.038 C 
ATOM      3  O   UNL     1     -13.309  81.774 -13.271  1.00  0.00    -0.550 OA
ATOM      4  O   UNL     1     -11.185  81.567 -12.436  1.00  0.00    -0.550 OA
ENDROOT
TORSDOF 0
ENDMDL
MODEL 5
REMARK VINA RESULT:    -2.137      1.441      2.660
REMARK INTER + INTRA:          -2.137
REMARK INTER:                  -2.137
REMARK INTRA:                   0.000
REMARK UNBOUND:                 0.000
REMARK SMILES CC(=O)[O-]
REMARK SMILES IDX 1 1 2 2 3 3 4 4
REMARK H PARENT
REMARK Flexibility Score: inf
ROOT
ATOM      1  C   UNL     1     -10.849  82.167 -10.180  1.00  0.00     0.063 C 
ATOM      2  C   UNL     1     -11.686  81.717 -11.330  1.00  0.00     0.038 C 
ATOM      3  O   UNL     1     -11.173  81.585 -12.471  1.00  0.00    -0.550 OA
ATOM      4  O   UNL     1     -13.021  81.388 -11.132  1.00  0.00    -0.550 OA
ENDROOT
TORSDOF 0
ENDMDL
MODEL 6
REMARK VINA RESULT:    -2.047      1.902      2.024
REMARK INTER + INTRA:          -2.047
REMARK INTER:                  -2.047
REMARK INTRA:                   0.000
REMARK UNBOUND:                 0.000
REMARK SMILES CC(=O)[O-]
REMARK SMILES IDX 1 1 2 2 3 3 4 4
REMARK H PARENT
REMARK Flexibility Score: inf
ROOT
ATOM      1  C   UNL     1     -11.462  81.636 -12.323  1.00  0.00     0.063 C 
ATOM      2  C   UNL     1     -12.261  82.041 -11.131  1.00  0.00     0.038 C 
ATOM      3  O   UNL     1     -11.813  81.840  -9.973  1.00  0.00    -0.550 OA
ATOM      4  O   UNL     1     -13.477  82.691 -11.297  1.00  0.00    -0.550 OA
ENDROOT
TORSDOF 0
ENDMDL
MODEL 7
REMARK VINA RESULT:    -1.757      8.448      9.007
REMARK INTER + INTRA:          -1.757
REMARK INTER:                  -1.757
REMARK INTRA:                   0.000
REMARK UNBOUND:                 0.000
REMARK SMILES CC(=O)[O-]
REMARK SMILES IDX 1 1 2 2 3 3 4 4
REMARK H PARENT
REMARK Flexibility Score: inf
ROOT
ATOM      1  C   UNL     1      -5.470  83.207  -9.907  1.00  0.00     0.063 C 
ATOM      2  C   UNL     1      -4.048  82.840  -9.643  1.00  0.00     0.038 C 
ATOM      3  O   UNL     1      -3.608  81.719 -10.006  1.00  0.00    -0.550 OA
ATOM      4  O   UNL     1      -3.192  83.757  -9.047  1.00  0.00    -0.550 OA
ENDROOT
TORSDOF 0
ENDMDL
MODEL 8
REMARK VINA RESULT:    -1.603      8.944      9.653
REMARK INTER + INTRA:          -1.603
REMARK INTER:                  -1.603
REMARK INTRA:                   0.000
REMARK UNBOUND:                 0.000
REMARK SMILES CC(=O)[O-]
REMARK SMILES IDX 1 1 2 2 3 3 4 4
REMARK H PARENT
REMARK Flexibility Score: inf
ROOT
ATOM      1  C   UNL     1      -2.875  81.673  -8.921  1.00  0.00     0.063 C 
ATOM      2  C   UNL     1      -3.648  82.895  -9.288  1.00  0.00     0.038 C 
ATOM      3  O   UNL     1      -3.173  84.036  -9.055  1.00  0.00    -0.550 OA
ATOM      4  O   UNL     1      -4.869  82.776  -9.940  1.00  0.00    -0.550 OA
ENDROOT
TORSDOF 0
ENDMDL
MODEL 9
REMARK VINA RESULT:    -1.602     10.863     11.454
REMARK INTER + INTRA:          -1.602
REMARK INTER:                  -1.602
REMARK INTRA:                   0.000
REMARK UNBOUND:                 0.000
REMARK SMILES CC(=O)[O-]
REMARK SMILES IDX 1 1 2 2 3 3 4 4
REMARK H PARENT
REMARK Flexibility Score: inf
ROOT
ATOM      1  C   UNL     1      -2.123  87.132  -7.875  1.00  0.00     0.063 C 
ATOM      2  C   UNL     1      -2.923  85.922  -8.222  1.00  0.00     0.038 C 
ATOM      3  O   UNL     1      -3.784  85.976  -9.138  1.00  0.00    -0.550 OA
ATOM      4  O   UNL     1      -2.681  84.718  -7.572  1.00  0.00    -0.550 OA
ENDROOT
TORSDOF 0
ENDMDL
