MODEL 1
REMARK VINA RESULT:    -3.042      0.000      0.000
REMARK INTER + INTRA:          -3.691
REMARK INTER:                  -3.576
REMARK INTRA:                  -0.115
REMARK UNBOUND:                -0.115
REMARK SMILES O=C([O-])CCC(=O)[O-]
REMARK SMILES IDX 4 1 2 2 1 3 3 4 5 5 6 6 7 7 8 8
REMARK H PARENT
REMARK Flexibility Score: inf
ROOT
ATOM      1  C   UNL     1      50.170  46.413  55.136  1.00  0.00     0.059 C 
ENDROOT
BRANCH   1   2
ATOM      2  C   UNL     1      51.596  45.960  55.060  1.00  0.00     0.042 C 
ATOM      3  O   UNL     1      52.066  45.527  53.975  1.00  0.00    -0.550 OA
ATOM      4  O   UNL     1      52.417  46.056  56.176  1.00  0.00    -0.550 OA
ENDBRANCH   1   2
BRANCH   1   5
ATOM      5  C   UNL     1      49.247  45.292  55.626  1.00  0.00     0.059 C 
BRANCH   5   6
ATOM      6  C   UNL     1      48.698  45.586  56.989  1.00  0.00     0.042 C 
ATOM      7  O   UNL     1      49.411  46.171  57.847  1.00  0.00    -0.550 OA
ATOM      8  O   UNL     1      47.412  45.179  57.323  1.00  0.00    -0.550 OA
ENDBRANCH   5   6
ENDBRANCH   1   5
TORSDOF 3
ENDMDL
MODEL 2
REMARK VINA RESULT:    -3.012     15.618     16.208
REMARK INTER + INTRA:          -3.655
REMARK INTER:                  -3.556
REMARK INTRA:                  -0.099
REMARK UNBOUND:                -0.115
REMARK SMILES O=C([O-])CCC(=O)[O-]
REMARK SMILES IDX 4 1 2 2 1 3 3 4 5 5 6 6 7 7 8 8
REMARK H PARENT
REMARK Flexibility Score: inf
ROOT
ATOM      1  C   UNL     1      43.164  48.802  40.875  1.00  0.00     0.059 C 
ENDROOT
BRANCH   1   2
ATOM      2  C   UNL     1      44.066  49.749  41.607  1.00  0.00     0.042 C 
ATOM      3  O   UNL     1      44.087  49.756  42.866  1.00  0.00    -0.550 OA
ATOM      4  O   UNL     1      44.910  50.594  40.899  1.00  0.00    -0.550 OA
ENDBRANCH   1   2
BRANCH   1   5
ATOM      5  C   UNL     1      42.549  47.764  41.820  1.00  0.00     0.059 C 
BRANCH   5   6
ATOM      6  C   UNL     1      43.195  46.421  41.660  1.00  0.00     0.042 C 
ATOM      7  O   UNL     1      42.488  45.385  41.555  1.00  0.00    -0.550 OA
ATOM      8  O   UNL     1      44.581  46.313  41.665  1.00  0.00    -0.550 OA
ENDBRANCH   5   6
ENDBRANCH   1   5
TORSDOF 3
ENDMDL
MODEL 3
REMARK VINA RESULT:    -3.008      0.218      3.891
REMARK INTER + INTRA:          -3.651
REMARK INTER:                  -3.537
REMARK INTRA:                  -0.114
REMARK UNBOUND:                -0.115
REMARK SMILES O=C([O-])CCC(=O)[O-]
REMARK SMILES IDX 4 1 2 2 1 3 3 4 5 5 6 6 7 7 8 8
REMARK H PARENT
REMARK Flexibility Score: inf
ROOT
ATOM      1  C   UNL     1      49.295  45.204  55.430  1.00  0.00     0.059 C 
ENDROOT
BRANCH   1   2
ATOM      2  C   UNL     1      48.723  45.376  56.804  1.00  0.00     0.042 C 
ATOM      3  O   UNL     1      47.531  45.046  57.039  1.00  0.00    -0.550 OA
ATOM      4  O   UNL     1      49.519  45.862  57.834  1.00  0.00    -0.550 OA
ENDBRANCH   1   2
BRANCH   1   5
ATOM      5  C   UNL     1      50.223  46.366  55.056  1.00  0.00     0.059 C 
BRANCH   5   6
ATOM      6  C   UNL     1      51.657  45.933  55.008  1.00  0.00     0.042 C 
ATOM      7  O   UNL     1      52.144  45.468  53.945  1.00  0.00    -0.550 OA
ATOM      8  O   UNL     1      52.442  46.007  56.152  1.00  0.00    -0.550 OA
ENDBRANCH   5   6
ENDBRANCH   1   5
TORSDOF 3
ENDMDL
MODEL 4
REMARK VINA RESULT:    -2.871     15.557     16.233
REMARK INTER + INTRA:          -3.490
REMARK INTER:                  -3.398
REMARK INTRA:                  -0.092
REMARK UNBOUND:                -0.115
REMARK SMILES O=C([O-])CCC(=O)[O-]
REMARK SMILES IDX 4 1 2 2 1 3 3 4 5 5 6 6 7 7 8 8
REMARK H PARENT
REMARK Flexibility Score: inf
ROOT
ATOM      1  C   UNL     1      42.711  47.615  41.880  1.00  0.00     0.059 C 
ENDROOT
BRANCH   1   2
ATOM      2  C   UNL     1      43.294  46.252  41.667  1.00  0.00     0.042 C 
ATOM      3  O   UNL     1      42.537  45.262  41.484  1.00  0.00    -0.550 OA
ATOM      4  O   UNL     1      44.672  46.081  41.631  1.00  0.00    -0.550 OA
ENDBRANCH   1   2
BRANCH   1   5
ATOM      5  C   UNL     1      43.268  48.631  40.875  1.00  0.00     0.059 C 
BRANCH   5   6
ATOM      6  C   UNL     1      44.062  49.703  41.558  1.00  0.00     0.042 C 
ATOM      7  O   UNL     1      44.733  50.524  40.881  1.00  0.00    -0.550 OA
ATOM      8  O   UNL     1      44.089  49.769  42.946  1.00  0.00    -0.550 OA
ENDBRANCH   5   6
ENDBRANCH   1   5
TORSDOF 3
ENDMDL
MODEL 5
REMARK VINA RESULT:    -2.796      0.749      1.790
REMARK INTER + INTRA:          -3.402
REMARK INTER:                  -3.295
REMARK INTRA:                  -0.107
REMARK UNBOUND:                -0.115
REMARK SMILES O=C([O-])CCC(=O)[O-]
REMARK SMILES IDX 4 1 2 2 1 3 3 4 5 5 6 6 7 7 8 8
REMARK H PARENT
REMARK Flexibility Score: inf
ROOT
ATOM      1  C   UNL     1      50.313  45.173  55.575  1.00  0.00     0.059 C 
ENDROOT
BRANCH   1   2
ATOM      2  C   UNL     1      51.704  45.644  55.276  1.00  0.00     0.042 C 
ATOM      3  O   UNL     1      52.433  46.088  56.201  1.00  0.00    -0.550 OA
ATOM      4  O   UNL     1      52.207  45.553  53.985  1.00  0.00    -0.550 OA
ENDBRANCH   1   2
BRANCH   1   5
ATOM      5  C   UNL     1      49.441  46.304  56.133  1.00  0.00     0.059 C 
BRANCH   5   6
ATOM      6  C   UNL     1      48.951  45.992  57.514  1.00  0.00     0.042 C 
ATOM      7  O   UNL     1      47.791  45.534  57.686  1.00  0.00    -0.550 OA
ATOM      8  O   UNL     1      49.763  46.244  58.613  1.00  0.00    -0.550 OA
ENDBRANCH   5   6
ENDBRANCH   1   5
TORSDOF 3
ENDMDL
MODEL 6
REMARK VINA RESULT:    -2.731     10.030     12.056
REMARK INTER + INTRA:          -3.325
REMARK INTER:                  -3.274
REMARK INTRA:                  -0.051
REMARK UNBOUND:                -0.115
REMARK SMILES O=C([O-])CCC(=O)[O-]
REMARK SMILES IDX 4 1 2 2 1 3 3 4 5 5 6 6 7 7 8 8
REMARK H PARENT
REMARK Flexibility Score: inf
ROOT
ATOM      1  C   UNL     1      51.102  46.687  44.720  1.00  0.00     0.059 C 
ENDROOT
BRANCH   1   2
ATOM      2  C   UNL     1      50.904  47.111  46.143  1.00  0.00     0.042 C 
ATOM      3  O   UNL     1      51.884  47.508  46.827  1.00  0.00    -0.550 OA
ATOM      4  O   UNL     1      49.632  47.107  46.700  1.00  0.00    -0.550 OA
ENDBRANCH   1   2
BRANCH   1   5
ATOM      5  C   UNL     1      52.176  45.599  44.599  1.00  0.00     0.059 C 
BRANCH   5   6
ATOM      6  C   UNL     1      53.086  45.851  43.435  1.00  0.00     0.042 C 
ATOM      7  O   UNL     1      54.253  45.379  43.429  1.00  0.00    -0.550 OA
ATOM      8  O   UNL     1      52.656  46.641  42.375  1.00  0.00    -0.550 OA
ENDBRANCH   5   6
ENDBRANCH   1   5
TORSDOF 3
ENDMDL
MODEL 7
REMARK VINA RESULT:    -2.694     10.407     12.169
REMARK INTER + INTRA:          -3.282
REMARK INTER:                  -3.168
REMARK INTRA:                  -0.114
REMARK UNBOUND:                -0.115
REMARK SMILES O=C([O-])CCC(=O)[O-]
REMARK SMILES IDX 4 1 2 2 1 3 3 4 5 5 6 6 7 7 8 8
REMARK H PARENT
REMARK Flexibility Score: inf
ROOT
ATOM      1  C   UNL     1      51.979  46.104  44.994  1.00  0.00     0.059 C 
ENDROOT
BRANCH   1   2
ATOM      2  C   UNL     1      51.174  46.831  46.027  1.00  0.00     0.042 C 
ATOM      3  O   UNL     1      51.749  47.558  46.880  1.00  0.00    -0.550 OA
ATOM      4  O   UNL     1      49.789  46.738  46.023  1.00  0.00    -0.550 OA
ENDBRANCH   1   2
BRANCH   1   5
ATOM      5  C   UNL     1      51.122  45.709  43.786  1.00  0.00     0.059 C 
BRANCH   5   6
ATOM      6  C   UNL     1      50.980  46.843  42.816  1.00  0.00     0.042 C 
ATOM      7  O   UNL     1      51.975  47.242  42.157  1.00  0.00    -0.550 OA
ATOM      8  O   UNL     1      49.755  47.483  42.672  1.00  0.00    -0.550 OA
ENDBRANCH   5   6
ENDBRANCH   1   5
TORSDOF 3
ENDMDL
MODEL 8
REMARK VINA RESULT:    -2.679     10.044     11.509
REMARK INTER + INTRA:          -3.264
REMARK INTER:                  -3.214
REMARK INTRA:                  -0.050
REMARK UNBOUND:                -0.115
REMARK SMILES O=C([O-])CCC(=O)[O-]
REMARK SMILES IDX 4 1 2 2 1 3 3 4 5 5 6 6 7 7 8 8
REMARK H PARENT
REMARK Flexibility Score: inf
ROOT
ATOM      1  C   UNL     1      52.208  45.772  44.642  1.00  0.00     0.059 C 
ENDROOT
BRANCH   1   2
ATOM      2  C   UNL     1      52.891  45.978  43.324  1.00  0.00     0.042 C 
ATOM      3  O   UNL     1      53.959  45.364  43.062  1.00  0.00    -0.550 OA
ATOM      4  O   UNL     1      52.326  46.816  42.371  1.00  0.00    -0.550 OA
ENDBRANCH   1   2
BRANCH   1   5
ATOM      5  C   UNL     1      51.013  46.717  44.812  1.00  0.00     0.059 C 
BRANCH   5   6
ATOM      6  C   UNL     1      50.868  47.170  46.234  1.00  0.00     0.042 C 
ATOM      7  O   UNL     1      51.883  47.507  46.899  1.00  0.00    -0.550 OA
ATOM      8  O   UNL     1      49.615  47.182  46.834  1.00  0.00    -0.550 OA
ENDBRANCH   5   6
ENDBRANCH   1   5
TORSDOF 3
ENDMDL
MODEL 9
REMARK VINA RESULT:    -2.652     10.315     11.898
REMARK INTER + INTRA:          -3.231
REMARK INTER:                  -3.108
REMARK INTRA:                  -0.123
REMARK UNBOUND:                -0.115
REMARK SMILES O=C([O-])CCC(=O)[O-]
REMARK SMILES IDX 4 1 2 2 1 3 3 4 5 5 6 6 7 7 8 8
REMARK H PARENT
REMARK Flexibility Score: inf
ROOT
ATOM      1  C   UNL     1      49.858  46.552  45.641  1.00  0.00     0.059 C 
ENDROOT
BRANCH   1   2
ATOM      2  C   UNL     1      51.321  46.788  45.861  1.00  0.00     0.042 C 
ATOM      3  O   UNL     1      51.709  47.494  46.829  1.00  0.00    -0.550 OA
ATOM      4  O   UNL     1      52.255  46.197  45.020  1.00  0.00    -0.550 OA
ENDBRANCH   1   2
BRANCH   1   5
ATOM      5  C   UNL     1      49.594  45.838  44.310  1.00  0.00     0.059 C 
BRANCH   5   6
ATOM      6  C   UNL     1      49.240  46.809  43.225  1.00  0.00     0.042 C 
ATOM      7  O   UNL     1      48.040  47.141  43.037  1.00  0.00    -0.550 OA
ATOM      8  O   UNL     1      50.234  47.316  42.396  1.00  0.00    -0.550 OA
ENDBRANCH   5   6
ENDBRANCH   1   5
TORSDOF 3
ENDMDL
