MODEL 1
REMARK VINA RESULT:    -3.722      0.000      0.000
REMARK INTER + INTRA:          -9.980
REMARK INTER:                  -6.985
REMARK INTRA:                  -2.995
REMARK UNBOUND:                -2.995
REMARK SMILES CCCCCCCCC=CCCCCCCCC(=O)[O-]
REMARK SMILES IDX 10 1 9 2 11 3 12 4 13 5 14 6 15 7 16 8 17 9 18 10 19 11
REMARK SMILES IDX 20 12 8 13 7 14 6 15 5 16 4 17 3 18 2 19 1 20
REMARK H PARENT
REMARK Flexibility Score: inf
ROOT
ATOM      1  C   UNL     1       7.345  -3.235 -10.986  1.00  0.00    -0.031 C 
ATOM      2  C   UNL     1       8.586  -2.736 -10.829  1.00  0.00    -0.031 C 
ENDROOT
BRANCH   1   3
ATOM      3  C   UNL     1       6.209  -2.539 -11.693  1.00  0.00     0.027 C 
BRANCH   3   4
ATOM      4  C   UNL     1       6.151  -2.922 -13.177  1.00  0.00     0.004 C 
BRANCH   4   5
ATOM      5  C   UNL     1       5.888  -1.689 -14.054  1.00  0.00     0.000 C 
BRANCH   5   6
ATOM      6  C   UNL     1       6.072  -0.369 -13.277  1.00  0.00     0.000 C 
BRANCH   6   7
ATOM      7  C   UNL     1       5.935   0.887 -14.154  1.00  0.00     0.000 C 
BRANCH   7   8
ATOM      8  C   UNL     1       4.537   1.518 -14.082  1.00  0.00     0.006 C 
BRANCH   8   9
ATOM      9  C   UNL     1       4.616   3.045 -14.176  1.00  0.00     0.053 C 
BRANCH   9  10
ATOM     10  C   UNL     1       5.179   3.618 -12.913  1.00  0.00     0.041 C 
ATOM     11  O   UNL     1       4.532   3.535 -11.837  1.00  0.00    -0.550 OA
ATOM     12  O   UNL     1       6.442   4.194 -12.913  1.00  0.00    -0.550 OA
ENDBRANCH   9  10
ENDBRANCH   8   9
ENDBRANCH   7   8
ENDBRANCH   6   7
ENDBRANCH   5   6
ENDBRANCH   4   5
ENDBRANCH   3   4
ENDBRANCH   1   3
BRANCH   2  13
ATOM     13  C   UNL     1       9.067  -1.401 -11.353  1.00  0.00     0.027 C 
BRANCH  13  14
ATOM     14  C   UNL     1      10.126  -1.569 -12.455  1.00  0.00     0.004 C 
BRANCH  14  15
ATOM     15  C   UNL     1       9.676  -1.102 -13.853  1.00  0.00     0.000 C 
BRANCH  15  16
ATOM     16  C   UNL     1       9.464  -2.258 -14.853  1.00  0.00     0.000 C 
BRANCH  16  17
ATOM     17  C   UNL     1       9.867  -3.619 -14.261  1.00  0.00    -0.000 C 
BRANCH  17  18
ATOM     18  C   UNL     1       8.928  -4.756 -14.695  1.00  0.00    -0.000 C 
BRANCH  18  19
ATOM     19  C   UNL     1       8.575  -5.705 -13.541  1.00  0.00    -0.003 C 
ATOM     20  C   UNL     1       9.697  -5.753 -12.508  1.00  0.00     0.004 C 
ENDBRANCH  18  19
ENDBRANCH  17  18
ENDBRANCH  16  17
ENDBRANCH  15  16
ENDBRANCH  14  15
ENDBRANCH  13  14
ENDBRANCH   2  13
TORSDOF 15
ENDMDL
MODEL 2
REMARK VINA RESULT:    -3.678     16.262     18.949
REMARK INTER + INTRA:          -9.898
REMARK INTER:                  -8.034
REMARK INTRA:                  -1.864
REMARK UNBOUND:                -2.995
REMARK SMILES CCCCCCCCC=CCCCCCCCC(=O)[O-]
REMARK SMILES IDX 10 1 9 2 11 3 12 4 13 5 14 6 15 7 16 8 17 9 18 10 19 11
REMARK SMILES IDX 20 12 8 13 7 14 6 15 5 16 4 17 3 18 2 19 1 20
REMARK H PARENT
REMARK Flexibility Score: inf
ROOT
ATOM      1  C   UNL     1      -3.345   6.502   0.465  1.00  0.00    -0.031 C 
ATOM      2  C   UNL     1      -2.549   5.883   1.359  1.00  0.00    -0.031 C 
ENDROOT
BRANCH   1   3
ATOM      3  C   UNL     1      -4.779   6.900   0.704  1.00  0.00     0.027 C 
BRANCH   3   4
ATOM      4  C   UNL     1      -5.631   6.718  -0.559  1.00  0.00     0.004 C 
BRANCH   4   5
ATOM      5  C   UNL     1      -5.861   5.229  -0.858  1.00  0.00     0.000 C 
BRANCH   5   6
ATOM      6  C   UNL     1      -6.157   4.972  -2.350  1.00  0.00     0.000 C 
BRANCH   6   7
ATOM      7  C   UNL     1      -6.699   6.205  -3.093  1.00  0.00     0.000 C 
BRANCH   7   8
ATOM      8  C   UNL     1      -5.977   6.468  -4.421  1.00  0.00     0.006 C 
BRANCH   8   9
ATOM      9  C   UNL     1      -4.463   6.583  -4.213  1.00  0.00     0.053 C 
BRANCH   9  10
ATOM     10  C   UNL     1      -3.736   5.691  -5.169  1.00  0.00     0.041 C 
ATOM     11  O   UNL     1      -2.778   6.141  -5.851  1.00  0.00    -0.550 OA
ATOM     12  O   UNL     1      -4.077   4.349  -5.266  1.00  0.00    -0.550 OA
ENDBRANCH   9  10
ENDBRANCH   8   9
ENDBRANCH   7   8
ENDBRANCH   6   7
ENDBRANCH   5   6
ENDBRANCH   4   5
ENDBRANCH   3   4
ENDBRANCH   1   3
BRANCH   2  13
ATOM     13  C   UNL     1      -2.947   5.499   2.767  1.00  0.00     0.027 C 
BRANCH  13  14
ATOM     14  C   UNL     1      -3.136   3.981   2.913  1.00  0.00     0.004 C 
BRANCH  14  15
ATOM     15  C   UNL     1      -4.514   3.556   3.455  1.00  0.00     0.000 C 
BRANCH  15  16
ATOM     16  C   UNL     1      -5.649   3.670   2.416  1.00  0.00     0.000 C 
BRANCH  16  17
ATOM     17  C   UNL     1      -5.649   2.493   1.425  1.00  0.00    -0.000 C 
BRANCH  17  18
ATOM     18  C   UNL     1      -6.921   1.635   1.524  1.00  0.00    -0.000 C 
BRANCH  18  19
ATOM     19  C   UNL     1      -6.614   0.143   1.713  1.00  0.00    -0.003 C 
ATOM     20  C   UNL     1      -5.150  -0.159   1.407  1.00  0.00     0.004 C 
ENDBRANCH  18  19
ENDBRANCH  17  18
ENDBRANCH  16  17
ENDBRANCH  15  16
ENDBRANCH  14  15
ENDBRANCH  13  14
ENDBRANCH   2  13
TORSDOF 15
ENDMDL
MODEL 3
REMARK VINA RESULT:    -3.627     16.152     18.932
REMARK INTER + INTRA:          -9.802
REMARK INTER:                  -7.656
REMARK INTRA:                  -2.146
REMARK UNBOUND:                -2.995
REMARK SMILES CCCCCCCCC=CCCCCCCCC(=O)[O-]
REMARK SMILES IDX 10 1 9 2 11 3 12 4 13 5 14 6 15 7 16 8 17 9 18 10 19 11
REMARK SMILES IDX 20 12 8 13 7 14 6 15 5 16 4 17 3 18 2 19 1 20
REMARK H PARENT
REMARK Flexibility Score: inf
ROOT
ATOM      1  C   UNL     1      -4.199   6.500   0.078  1.00  0.00    -0.031 C 
ATOM      2  C   UNL     1      -2.963   6.493   0.614  1.00  0.00    -0.031 C 
ENDROOT
BRANCH   1   3
ATOM      3  C   UNL     1      -5.488   6.455   0.858  1.00  0.00     0.027 C 
BRANCH   3   4
ATOM      4  C   UNL     1      -6.586   5.710   0.089  1.00  0.00     0.004 C 
BRANCH   4   5
ATOM      5  C   UNL     1      -5.992   4.907  -1.078  1.00  0.00     0.000 C 
BRANCH   5   6
ATOM      6  C   UNL     1      -6.672   5.240  -2.422  1.00  0.00     0.000 C 
BRANCH   6   7
ATOM      7  C   UNL     1      -5.965   6.356  -3.211  1.00  0.00     0.000 C 
BRANCH   7   8
ATOM      8  C   UNL     1      -4.716   5.863  -3.953  1.00  0.00     0.006 C 
BRANCH   8   9
ATOM      9  C   UNL     1      -4.216   6.915  -4.949  1.00  0.00     0.053 C 
BRANCH   9  10
ATOM     10  C   UNL     1      -3.257   6.302  -5.920  1.00  0.00     0.041 C 
ATOM     11  O   UNL     1      -3.409   5.109  -6.293  1.00  0.00    -0.550 OA
ATOM     12  O   UNL     1      -2.228   7.063  -6.457  1.00  0.00    -0.550 OA
ENDBRANCH   9  10
ENDBRANCH   8   9
ENDBRANCH   7   8
ENDBRANCH   6   7
ENDBRANCH   5   6
ENDBRANCH   4   5
ENDBRANCH   3   4
ENDBRANCH   1   3
BRANCH   2  13
ATOM     13  C   UNL     1      -2.651   6.462   2.093  1.00  0.00     0.027 C 
BRANCH  13  14
ATOM     14  C   UNL     1      -1.968   5.148   2.505  1.00  0.00     0.004 C 
BRANCH  14  15
ATOM     15  C   UNL     1      -2.938   3.999   2.840  1.00  0.00     0.000 C 
BRANCH  15  16
ATOM     16  C   UNL     1      -4.226   4.464   3.551  1.00  0.00     0.000 C 
BRANCH  16  17
ATOM     17  C   UNL     1      -5.416   3.530   3.269  1.00  0.00    -0.000 C 
BRANCH  17  18
ATOM     18  C   UNL     1      -5.247   2.736   1.963  1.00  0.00    -0.000 C 
BRANCH  18  19
ATOM     19  C   UNL     1      -6.588   2.267   1.380  1.00  0.00    -0.003 C 
ATOM     20  C   UNL     1      -6.837   0.794   1.691  1.00  0.00     0.004 C 
ENDBRANCH  18  19
ENDBRANCH  17  18
ENDBRANCH  16  17
ENDBRANCH  15  16
ENDBRANCH  14  15
ENDBRANCH  13  14
ENDBRANCH   2  13
TORSDOF 15
ENDMDL
MODEL 4
REMARK VINA RESULT:    -3.603     16.878     19.915
REMARK INTER + INTRA:          -9.758
REMARK INTER:                  -7.639
REMARK INTRA:                  -2.118
REMARK UNBOUND:                -2.995
REMARK SMILES CCCCCCCCC=CCCCCCCCC(=O)[O-]
REMARK SMILES IDX 10 1 9 2 11 3 12 4 13 5 14 6 15 7 16 8 17 9 18 10 19 11
REMARK SMILES IDX 20 12 8 13 7 14 6 15 5 16 4 17 3 18 2 19 1 20
REMARK H PARENT
REMARK Flexibility Score: inf
ROOT
ATOM      1  C   UNL     1      -2.754   6.381   0.787  1.00  0.00    -0.031 C 
ATOM      2  C   UNL     1      -3.994   6.443   0.264  1.00  0.00    -0.031 C 
ENDROOT
BRANCH   1   3
ATOM      3  C   UNL     1      -2.432   6.230   2.252  1.00  0.00     0.027 C 
BRANCH   3   4
ATOM      4  C   UNL     1      -1.504   5.036   2.504  1.00  0.00     0.004 C 
BRANCH   4   5
ATOM      5  C   UNL     1      -2.198   3.970   3.365  1.00  0.00     0.000 C 
BRANCH   5   6
ATOM      6  C   UNL     1      -3.472   4.510   4.048  1.00  0.00     0.000 C 
BRANCH   6   7
ATOM      7  C   UNL     1      -4.730   3.675   3.753  1.00  0.00     0.000 C 
BRANCH   7   8
ATOM      8  C   UNL     1      -4.467   2.521   2.776  1.00  0.00     0.006 C 
BRANCH   8   9
ATOM      9  C   UNL     1      -5.735   1.693   2.547  1.00  0.00     0.053 C 
BRANCH   9  10
ATOM     10  C   UNL     1      -5.434   0.501   1.694  1.00  0.00     0.041 C 
ATOM     11  O   UNL     1      -6.369  -0.129   1.133  1.00  0.00    -0.550 OA
ATOM     12  O   UNL     1      -4.119   0.119   1.472  1.00  0.00    -0.550 OA
ENDBRANCH   9  10
ENDBRANCH   8   9
ENDBRANCH   7   8
ENDBRANCH   6   7
ENDBRANCH   5   6
ENDBRANCH   4   5
ENDBRANCH   3   4
ENDBRANCH   1   3
BRANCH   2  13
ATOM     13  C   UNL     1      -5.282   6.348   1.051  1.00  0.00     0.027 C 
BRANCH  13  14
ATOM     14  C   UNL     1      -6.077   5.082   0.694  1.00  0.00     0.004 C 
BRANCH  14  15
ATOM     15  C   UNL     1      -6.003   4.675  -0.790  1.00  0.00     0.000 C 
BRANCH  15  16
ATOM     16  C   UNL     1      -6.918   5.513  -1.708  1.00  0.00     0.000 C 
BRANCH  16  17
ATOM     17  C   UNL     1      -6.447   5.493  -3.172  1.00  0.00    -0.000 C 
BRANCH  17  18
ATOM     18  C   UNL     1      -5.348   6.530  -3.455  1.00  0.00    -0.000 C 
BRANCH  18  19
ATOM     19  C   UNL     1      -4.226   5.975  -4.344  1.00  0.00    -0.003 C 
ATOM     20  C   UNL     1      -4.626   4.638  -4.961  1.00  0.00     0.004 C 
ENDBRANCH  18  19
ENDBRANCH  17  18
ENDBRANCH  16  17
ENDBRANCH  15  16
ENDBRANCH  14  15
ENDBRANCH  13  14
ENDBRANCH   2  13
TORSDOF 15
ENDMDL
MODEL 5
REMARK VINA RESULT:    -3.590      1.281      2.709
REMARK INTER + INTRA:          -9.734
REMARK INTER:                  -6.939
REMARK INTRA:                  -2.794
REMARK UNBOUND:                -2.995
REMARK SMILES CCCCCCCCC=CCCCCCCCC(=O)[O-]
REMARK SMILES IDX 10 1 9 2 11 3 12 4 13 5 14 6 15 7 16 8 17 9 18 10 19 11
REMARK SMILES IDX 20 12 8 13 7 14 6 15 5 16 4 17 3 18 2 19 1 20
REMARK H PARENT
REMARK Flexibility Score: inf
ROOT
ATOM      1  C   UNL     1       8.014  -3.117 -10.746  1.00  0.00    -0.031 C 
ATOM      2  C   UNL     1       6.760  -3.141 -11.240  1.00  0.00    -0.031 C 
ENDROOT
BRANCH   1   3
ATOM      3  C   UNL     1       8.991  -1.980 -10.904  1.00  0.00     0.027 C 
BRANCH   3   4
ATOM      4  C   UNL     1       9.660  -2.000 -12.283  1.00  0.00     0.004 C 
BRANCH   4   5
ATOM      5  C   UNL     1       9.804  -0.579 -12.847  1.00  0.00     0.000 C 
BRANCH   5   6
ATOM      6  C   UNL     1       9.300  -0.473 -14.301  1.00  0.00     0.000 C 
BRANCH   6   7
ATOM      7  C   UNL     1       8.051   0.411 -14.458  1.00  0.00     0.000 C 
BRANCH   7   8
ATOM      8  C   UNL     1       7.696   1.177 -13.176  1.00  0.00     0.006 C 
BRANCH   8   9
ATOM      9  C   UNL     1       6.478   2.082 -13.393  1.00  0.00     0.053 C 
BRANCH   9  10
ATOM     10  C   UNL     1       6.604   3.332 -12.580  1.00  0.00     0.041 C 
ATOM     11  O   UNL     1       5.758   3.593 -11.686  1.00  0.00    -0.550 OA
ATOM     12  O   UNL     1       7.686   4.179 -12.770  1.00  0.00    -0.550 OA
ENDBRANCH   9  10
ENDBRANCH   8   9
ENDBRANCH   7   8
ENDBRANCH   6   7
ENDBRANCH   5   6
ENDBRANCH   4   5
ENDBRANCH   3   4
ENDBRANCH   1   3
BRANCH   2  13
ATOM     13  C   UNL     1       6.103  -2.022 -12.017  1.00  0.00     0.027 C 
BRANCH  13  14
ATOM     14  C   UNL     1       5.867  -2.410 -13.485  1.00  0.00     0.004 C 
BRANCH  14  15
ATOM     15  C   UNL     1       6.490  -3.755 -13.902  1.00  0.00     0.000 C 
BRANCH  15  16
ATOM     16  C   UNL     1       7.587  -3.622 -14.979  1.00  0.00     0.000 C 
BRANCH  16  17
ATOM     17  C   UNL     1       8.740  -4.617 -14.760  1.00  0.00    -0.000 C 
BRANCH  17  18
ATOM     18  C   UNL     1       8.567  -5.452 -13.480  1.00  0.00    -0.000 C 
BRANCH  18  19
ATOM     19  C   UNL     1       9.744  -6.406 -13.233  1.00  0.00    -0.003 C 
ATOM     20  C   UNL     1       9.416  -7.817 -13.713  1.00  0.00     0.004 C 
ENDBRANCH  18  19
ENDBRANCH  17  18
ENDBRANCH  16  17
ENDBRANCH  15  16
ENDBRANCH  14  15
ENDBRANCH  13  14
ENDBRANCH   2  13
TORSDOF 15
ENDMDL
MODEL 6
REMARK VINA RESULT:    -3.589     15.761     18.963
REMARK INTER + INTRA:          -9.731
REMARK INTER:                  -8.008
REMARK INTRA:                  -1.723
REMARK UNBOUND:                -2.995
REMARK SMILES CCCCCCCCC=CCCCCCCCC(=O)[O-]
REMARK SMILES IDX 10 1 9 2 11 3 12 4 13 5 14 6 15 7 16 8 17 9 18 10 19 11
REMARK SMILES IDX 20 12 8 13 7 14 6 15 5 16 4 17 3 18 2 19 1 20
REMARK H PARENT
REMARK Flexibility Score: inf
ROOT
ATOM      1  C   UNL     1      -5.690   5.295  -0.690  1.00  0.00    -0.031 C 
ATOM      2  C   UNL     1      -6.604   5.130  -1.666  1.00  0.00    -0.031 C 
ENDROOT
BRANCH   1   3
ATOM      3  C   UNL     1      -4.972   6.583  -0.377  1.00  0.00     0.027 C 
BRANCH   3   4
ATOM      4  C   UNL     1      -4.528   6.638   1.090  1.00  0.00     0.004 C 
BRANCH   4   5
ATOM      5  C   UNL     1      -3.358   5.676   1.348  1.00  0.00     0.000 C 
BRANCH   5   6
ATOM      6  C   UNL     1      -3.711   4.593   2.389  1.00  0.00     0.000 C 
BRANCH   6   7
ATOM      7  C   UNL     1      -5.148   4.700   2.926  1.00  0.00     0.000 C 
BRANCH   7   8
ATOM      8  C   UNL     1      -5.938   3.391   2.784  1.00  0.00     0.006 C 
BRANCH   8   9
ATOM      9  C   UNL     1      -5.568   2.662   1.488  1.00  0.00     0.053 C 
BRANCH   9  10
ATOM     10  C   UNL     1      -5.229   1.233   1.772  1.00  0.00     0.041 C 
ATOM     11  O   UNL     1      -6.001   0.312   1.397  1.00  0.00    -0.550 OA
ATOM     12  O   UNL     1      -4.033   0.913   2.398  1.00  0.00    -0.550 OA
ENDBRANCH   9  10
ENDBRANCH   8   9
ENDBRANCH   7   8
ENDBRANCH   6   7
ENDBRANCH   5   6
ENDBRANCH   4   5
ENDBRANCH   3   4
ENDBRANCH   1   3
BRANCH   2  13
ATOM     13  C   UNL     1      -7.087   6.212  -2.605  1.00  0.00     0.027 C 
BRANCH  13  14
ATOM     14  C   UNL     1      -6.468   6.072  -4.005  1.00  0.00     0.004 C 
BRANCH  14  15
ATOM     15  C   UNL     1      -6.004   4.647  -4.361  1.00  0.00     0.000 C 
BRANCH  15  16
ATOM     16  C   UNL     1      -4.583   4.591  -4.959  1.00  0.00     0.000 C 
BRANCH  16  17
ATOM     17  C   UNL     1      -3.828   5.920  -4.788  1.00  0.00    -0.000 C 
BRANCH  17  18
ATOM     18  C   UNL     1      -3.219   6.429  -6.105  1.00  0.00    -0.000 C 
BRANCH  18  19
ATOM     19  C   UNL     1      -3.327   5.402  -7.242  1.00  0.00    -0.003 C 
ATOM     20  C   UNL     1      -2.257   5.644  -8.302  1.00  0.00     0.004 C 
ENDBRANCH  18  19
ENDBRANCH  17  18
ENDBRANCH  16  17
ENDBRANCH  15  16
ENDBRANCH  14  15
ENDBRANCH  13  14
ENDBRANCH   2  13
TORSDOF 15
ENDMDL
MODEL 7
REMARK VINA RESULT:    -3.589     16.240     18.865
REMARK INTER + INTRA:          -9.730
REMARK INTER:                  -8.332
REMARK INTRA:                  -1.398
REMARK UNBOUND:                -2.995
REMARK SMILES CCCCCCCCC=CCCCCCCCC(=O)[O-]
REMARK SMILES IDX 10 1 9 2 11 3 12 4 13 5 14 6 15 7 16 8 17 9 18 10 19 11
REMARK SMILES IDX 20 12 8 13 7 14 6 15 5 16 4 17 3 18 2 19 1 20
REMARK H PARENT
REMARK Flexibility Score: inf
ROOT
ATOM      1  C   UNL     1      -7.011   3.343   0.841  1.00  0.00    -0.031 C 
ATOM      2  C   UNL     1      -6.807   2.124   1.378  1.00  0.00    -0.031 C 
ENDROOT
BRANCH   1   3
ATOM      3  C   UNL     1      -5.950   4.202   0.202  1.00  0.00     0.027 C 
BRANCH   3   4
ATOM      4  C   UNL     1      -6.558   5.435  -0.478  1.00  0.00     0.004 C 
BRANCH   4   5
ATOM      5  C   UNL     1      -5.573   6.054  -1.480  1.00  0.00     0.000 C 
BRANCH   5   6
ATOM      6  C   UNL     1      -6.015   5.841  -2.943  1.00  0.00     0.000 C 
BRANCH   6   7
ATOM      7  C   UNL     1      -5.619   4.469  -3.513  1.00  0.00     0.000 C 
BRANCH   7   8
ATOM      8  C   UNL     1      -4.810   4.573  -4.814  1.00  0.00     0.006 C 
BRANCH   8   9
ATOM      9  C   UNL     1      -4.201   5.970  -4.974  1.00  0.00     0.053 C 
BRANCH   9  10
ATOM     10  C   UNL     1      -3.218   5.984  -6.102  1.00  0.00     0.041 C 
ATOM     11  O   UNL     1      -3.179   5.029  -6.921  1.00  0.00    -0.550 OA
ATOM     12  O   UNL     1      -2.383   7.078  -6.283  1.00  0.00    -0.550 OA
ENDBRANCH   9  10
ENDBRANCH   8   9
ENDBRANCH   7   8
ENDBRANCH   6   7
ENDBRANCH   5   6
ENDBRANCH   4   5
ENDBRANCH   3   4
ENDBRANCH   1   3
BRANCH   2  13
ATOM     13  C   UNL     1      -5.484   1.392   1.412  1.00  0.00     0.027 C 
BRANCH  13  14
ATOM     14  C   UNL     1      -4.946   1.253   2.845  1.00  0.00     0.004 C 
BRANCH  14  15
ATOM     15  C   UNL     1      -5.531   2.263   3.850  1.00  0.00     0.000 C 
BRANCH  15  16
ATOM     16  C   UNL     1      -4.657   3.520   4.043  1.00  0.00     0.000 C 
BRANCH  16  17
ATOM     17  C   UNL     1      -3.329   3.428   3.271  1.00  0.00    -0.000 C 
BRANCH  17  18
ATOM     18  C   UNL     1      -3.050   4.677   2.420  1.00  0.00    -0.000 C 
BRANCH  18  19
ATOM     19  C   UNL     1      -1.580   5.117   2.478  1.00  0.00    -0.003 C 
ATOM     20  C   UNL     1      -0.805   4.303   3.510  1.00  0.00     0.004 C 
ENDBRANCH  18  19
ENDBRANCH  17  18
ENDBRANCH  16  17
ENDBRANCH  15  16
ENDBRANCH  14  15
ENDBRANCH  13  14
ENDBRANCH   2  13
TORSDOF 15
ENDMDL
MODEL 8
REMARK VINA RESULT:    -3.588      1.072      2.647
REMARK INTER + INTRA:          -9.729
REMARK INTER:                  -6.896
REMARK INTRA:                  -2.834
REMARK UNBOUND:                -2.995
REMARK SMILES CCCCCCCCC=CCCCCCCCC(=O)[O-]
REMARK SMILES IDX 10 1 9 2 11 3 12 4 13 5 14 6 15 7 16 8 17 9 18 10 19 11
REMARK SMILES IDX 20 12 8 13 7 14 6 15 5 16 4 17 3 18 2 19 1 20
REMARK H PARENT
REMARK Flexibility Score: inf
ROOT
ATOM      1  C   UNL     1       7.452  -2.023 -11.472  1.00  0.00    -0.031 C 
ATOM      2  C   UNL     1       8.432  -2.830 -11.020  1.00  0.00    -0.031 C 
ENDROOT
BRANCH   1   3
ATOM      3  C   UNL     1       6.069  -2.472 -11.869  1.00  0.00     0.027 C 
BRANCH   3   4
ATOM      4  C   UNL     1       6.012  -2.882 -13.346  1.00  0.00     0.004 C 
BRANCH   4   5
ATOM      5  C   UNL     1       5.836  -1.654 -14.252  1.00  0.00     0.000 C 
BRANCH   5   6
ATOM      6  C   UNL     1       4.851  -0.626 -13.658  1.00  0.00     0.000 C 
BRANCH   6   7
ATOM      7  C   UNL     1       5.218   0.834 -13.974  1.00  0.00     0.000 C 
BRANCH   7   8
ATOM      8  C   UNL     1       6.585   1.242 -13.408  1.00  0.00     0.006 C 
BRANCH   8   9
ATOM      9  C   UNL     1       6.890   2.713 -13.709  1.00  0.00     0.053 C 
BRANCH   9  10
ATOM     10  C   UNL     1       5.842   3.597 -13.110  1.00  0.00     0.041 C 
ATOM     11  O   UNL     1       5.154   4.351 -13.846  1.00  0.00    -0.550 OA
ATOM     12  O   UNL     1       5.587   3.547 -11.747  1.00  0.00    -0.550 OA
ENDBRANCH   9  10
ENDBRANCH   8   9
ENDBRANCH   7   8
ENDBRANCH   6   7
ENDBRANCH   5   6
ENDBRANCH   4   5
ENDBRANCH   3   4
ENDBRANCH   1   3
BRANCH   2  13
ATOM     13  C   UNL     1       8.311  -4.322 -10.809  1.00  0.00     0.027 C 
BRANCH  13  14
ATOM     14  C   UNL     1       9.239  -5.109 -11.748  1.00  0.00     0.004 C 
BRANCH  14  15
ATOM     15  C   UNL     1       8.757  -5.185 -13.209  1.00  0.00     0.000 C 
BRANCH  15  16
ATOM     16  C   UNL     1       9.778  -4.635 -14.227  1.00  0.00     0.000 C 
BRANCH  16  17
ATOM     17  C   UNL     1       9.403  -3.228 -14.723  1.00  0.00    -0.000 C 
BRANCH  17  18
ATOM     18  C   UNL     1      10.313  -2.134 -14.141  1.00  0.00    -0.000 C 
BRANCH  18  19
ATOM     19  C   UNL     1       9.651  -0.748 -14.151  1.00  0.00    -0.003 C 
ATOM     20  C   UNL     1      10.128   0.096 -12.972  1.00  0.00     0.004 C 
ENDBRANCH  18  19
ENDBRANCH  17  18
ENDBRANCH  16  17
ENDBRANCH  15  16
ENDBRANCH  14  15
ENDBRANCH  13  14
ENDBRANCH   2  13
TORSDOF 15
ENDMDL
MODEL 9
REMARK VINA RESULT:    -3.579      2.966      7.215
REMARK INTER + INTRA:          -9.712
REMARK INTER:                  -7.667
REMARK INTRA:                  -2.045
REMARK UNBOUND:                -2.995
REMARK SMILES CCCCCCCCC=CCCCCCCCC(=O)[O-]
REMARK SMILES IDX 10 1 9 2 11 3 12 4 13 5 14 6 15 7 16 8 17 9 18 10 19 11
REMARK SMILES IDX 20 12 8 13 7 14 6 15 5 16 4 17 3 18 2 19 1 20
REMARK H PARENT
REMARK Flexibility Score: inf
ROOT
ATOM      1  C   UNL     1       8.964   0.142 -12.760  1.00  0.00    -0.031 C 
ATOM      2  C   UNL     1       7.789   0.776 -12.933  1.00  0.00    -0.031 C 
ENDROOT
BRANCH   1   3
ATOM      3  C   UNL     1       9.590  -0.818 -13.741  1.00  0.00     0.027 C 
BRANCH   3   4
ATOM      4  C   UNL     1      10.213  -2.024 -13.028  1.00  0.00     0.004 C 
BRANCH   4   5
ATOM      5  C   UNL     1       9.763  -3.341 -13.677  1.00  0.00     0.000 C 
BRANCH   5   6
ATOM      6  C   UNL     1       8.347  -3.240 -14.282  1.00  0.00     0.000 C 
BRANCH   6   7
ATOM      7  C   UNL     1       7.279  -4.005 -13.483  1.00  0.00     0.000 C 
BRANCH   7   8
ATOM      8  C   UNL     1       6.217  -3.083 -12.869  1.00  0.00     0.006 C 
BRANCH   8   9
ATOM      9  C   UNL     1       6.689  -2.514 -11.527  1.00  0.00     0.053 C 
BRANCH   9  10
ATOM     10  C   UNL     1       6.979  -3.621 -10.563  1.00  0.00     0.041 C 
ATOM     11  O   UNL     1       8.168  -3.906 -10.265  1.00  0.00    -0.550 OA
ATOM     12  O   UNL     1       5.936  -4.300  -9.950  1.00  0.00    -0.550 OA
ENDBRANCH   9  10
ENDBRANCH   8   9
ENDBRANCH   7   8
ENDBRANCH   6   7
ENDBRANCH   5   6
ENDBRANCH   4   5
ENDBRANCH   3   4
ENDBRANCH   1   3
BRANCH   2  13
ATOM     13  C   UNL     1       6.900   0.657 -14.150  1.00  0.00     0.027 C 
BRANCH  13  14
ATOM     14  C   UNL     1       5.454   0.299 -13.769  1.00  0.00     0.004 C 
BRANCH  14  15
ATOM     15  C   UNL     1       4.379   1.176 -14.438  1.00  0.00     0.000 C 
BRANCH  15  16
ATOM     16  C   UNL     1       4.726   2.680 -14.449  1.00  0.00     0.000 C 
BRANCH  16  17
ATOM     17  C   UNL     1       4.326   3.378 -13.138  1.00  0.00    -0.000 C 
BRANCH  17  18
ATOM     18  C   UNL     1       5.007   4.745 -12.963  1.00  0.00    -0.000 C 
BRANCH  18  19
ATOM     19  C   UNL     1       4.218   5.685 -12.040  1.00  0.00    -0.003 C 
ATOM     20  C   UNL     1       2.831   5.124 -11.742  1.00  0.00     0.004 C 
ENDBRANCH  18  19
ENDBRANCH  17  18
ENDBRANCH  16  17
ENDBRANCH  15  16
ENDBRANCH  14  15
ENDBRANCH  13  14
ENDBRANCH   2  13
TORSDOF 15
ENDMDL
