MODEL 1
REMARK VINA RESULT:    -2.781      0.000      0.000
REMARK INTER + INTRA:          -4.061
REMARK INTER:                  -3.594
REMARK INTRA:                  -0.467
REMARK UNBOUND:                -0.467
REMARK SMILES CCCCCCC(=O)[O-]
REMARK SMILES IDX 5 1 6 2 7 3 8 4 9 5 4 6 3 7 2 8 1 9
REMARK H PARENT
REMARK Flexibility Score: inf
ROOT
ATOM      1  C   UNL     1      87.488  29.801  29.158  1.00  0.00     0.006 C 
ENDROOT
BRANCH   1   2
ATOM      2  C   UNL     1      86.571  30.890  28.595  1.00  0.00     0.053 C 
BRANCH   2   3
ATOM      3  C   UNL     1      86.460  30.764  27.109  1.00  0.00     0.041 C 
ATOM      4  O   UNL     1      86.138  29.663  26.588  1.00  0.00    -0.550 OA
ATOM      5  O   UNL     1      86.759  31.848  26.294  1.00  0.00    -0.550 OA
ENDBRANCH   2   3
ENDBRANCH   1   2
BRANCH   1   6
ATOM      6  C   UNL     1      88.946  30.041  28.748  1.00  0.00     0.000 C 
BRANCH   6   7
ATOM      7  C   UNL     1      89.583  28.755  28.202  1.00  0.00    -0.000 C 
BRANCH   7   8
ATOM      8  C   UNL     1      89.533  28.676  26.668  1.00  0.00    -0.003 C 
ATOM      9  C   UNL     1      89.914  29.996  25.996  1.00  0.00     0.004 C 
ENDBRANCH   7   8
ENDBRANCH   6   7
ENDBRANCH   1   6
TORSDOF 5
ENDMDL
MODEL 2
REMARK VINA RESULT:    -2.777      1.425      1.899
REMARK INTER + INTRA:          -4.056
REMARK INTER:                  -3.825
REMARK INTRA:                  -0.231
REMARK UNBOUND:                -0.467
REMARK SMILES CCCCCCC(=O)[O-]
REMARK SMILES IDX 5 1 6 2 7 3 8 4 9 5 4 6 3 7 2 8 1 9
REMARK H PARENT
REMARK Flexibility Score: inf
ROOT
ATOM      1  C   UNL     1      89.034  29.939  28.832  1.00  0.00     0.006 C 
ENDROOT
BRANCH   1   2
ATOM      2  C   UNL     1      87.574  29.641  29.190  1.00  0.00     0.053 C 
BRANCH   2   3
ATOM      3  C   UNL     1      86.714  30.831  28.909  1.00  0.00     0.041 C 
ATOM      4  O   UNL     1      86.149  31.443  29.854  1.00  0.00    -0.550 OA
ATOM      5  O   UNL     1      86.494  31.237  27.599  1.00  0.00    -0.550 OA
ENDBRANCH   2   3
ENDBRANCH   1   2
BRANCH   1   6
ATOM      6  C   UNL     1      89.664  28.767  28.070  1.00  0.00     0.000 C 
BRANCH   6   7
ATOM      7  C   UNL     1      89.064  28.641  26.662  1.00  0.00    -0.000 C 
BRANCH   7   8
ATOM      8  C   UNL     1      90.116  28.809  25.555  1.00  0.00    -0.003 C 
ATOM      9  C   UNL     1      90.457  30.274  25.281  1.00  0.00     0.004 C 
ENDBRANCH   7   8
ENDBRANCH   6   7
ENDBRANCH   1   6
TORSDOF 5
ENDMDL
MODEL 3
REMARK VINA RESULT:    -2.726      1.577      2.158
REMARK INTER + INTRA:          -3.990
REMARK INTER:                  -3.606
REMARK INTRA:                  -0.385
REMARK UNBOUND:                -0.467
REMARK SMILES CCCCCCC(=O)[O-]
REMARK SMILES IDX 5 1 6 2 7 3 8 4 9 5 4 6 3 7 2 8 1 9
REMARK H PARENT
REMARK Flexibility Score: inf
ROOT
ATOM      1  C   UNL     1      89.169  29.795  28.887  1.00  0.00     0.006 C 
ENDROOT
BRANCH   1   2
ATOM      2  C   UNL     1      87.702  29.560  29.262  1.00  0.00     0.053 C 
BRANCH   2   3
ATOM      3  C   UNL     1      86.872  30.750  28.900  1.00  0.00     0.041 C 
ATOM      4  O   UNL     1      86.200  31.346  29.783  1.00  0.00    -0.550 OA
ATOM      5  O   UNL     1      86.799  31.172  27.579  1.00  0.00    -0.550 OA
ENDBRANCH   2   3
ENDBRANCH   1   2
BRANCH   1   6
ATOM      6  C   UNL     1      89.633  28.791  27.824  1.00  0.00     0.000 C 
BRANCH   6   7
ATOM      7  C   UNL     1      89.777  29.470  26.454  1.00  0.00    -0.000 C 
BRANCH   7   8
ATOM      8  C   UNL     1      88.976  28.755  25.354  1.00  0.00    -0.003 C 
ATOM      9  C   UNL     1      87.672  28.149  25.872  1.00  0.00     0.004 C 
ENDBRANCH   7   8
ENDBRANCH   6   7
ENDBRANCH   1   6
TORSDOF 5
ENDMDL
MODEL 4
REMARK VINA RESULT:    -2.720      2.067      2.845
REMARK INTER + INTRA:          -3.982
REMARK INTER:                  -3.807
REMARK INTRA:                  -0.175
REMARK UNBOUND:                -0.467
REMARK SMILES CCCCCCC(=O)[O-]
REMARK SMILES IDX 5 1 6 2 7 3 8 4 9 5 4 6 3 7 2 8 1 9
REMARK H PARENT
REMARK Flexibility Score: inf
ROOT
ATOM      1  C   UNL     1      89.360  28.885  28.534  1.00  0.00     0.006 C 
ENDROOT
BRANCH   1   2
ATOM      2  C   UNL     1      88.008  29.235  29.164  1.00  0.00     0.053 C 
BRANCH   2   3
ATOM      3  C   UNL     1      87.003  28.168  28.871  1.00  0.00     0.041 C 
ATOM      4  O   UNL     1      85.997  28.424  28.157  1.00  0.00    -0.550 OA
ATOM      5  O   UNL     1      87.148  26.903  29.426  1.00  0.00    -0.550 OA
ENDBRANCH   2   3
ENDBRANCH   1   2
BRANCH   1   6
ATOM      6  C   UNL     1      89.506  29.529  27.150  1.00  0.00     0.000 C 
BRANCH   6   7
ATOM      7  C   UNL     1      89.971  28.499  26.111  1.00  0.00    -0.000 C 
BRANCH   7   8
ATOM      8  C   UNL     1      90.576  29.155  24.859  1.00  0.00    -0.003 C 
ATOM      9  C   UNL     1      90.752  30.666  25.011  1.00  0.00     0.004 C 
ENDBRANCH   7   8
ENDBRANCH   6   7
ENDBRANCH   1   6
TORSDOF 5
ENDMDL
MODEL 5
REMARK VINA RESULT:    -2.700      4.256      4.929
REMARK INTER + INTRA:          -3.956
REMARK INTER:                  -3.873
REMARK INTRA:                  -0.083
REMARK UNBOUND:                -0.467
REMARK SMILES CCCCCCC(=O)[O-]
REMARK SMILES IDX 5 1 6 2 7 3 8 4 9 5 4 6 3 7 2 8 1 9
REMARK H PARENT
REMARK Flexibility Score: inf
ROOT
ATOM      1  C   UNL     1      87.094  27.520  28.133  1.00  0.00     0.006 C 
ENDROOT
BRANCH   1   2
ATOM      2  C   UNL     1      87.807  28.330  29.220  1.00  0.00     0.053 C 
BRANCH   2   3
ATOM      3  C   UNL     1      88.910  29.146  28.625  1.00  0.00     0.041 C 
ATOM      4  O   UNL     1      89.875  28.581  28.045  1.00  0.00    -0.550 OA
ATOM      5  O   UNL     1      88.900  30.529  28.754  1.00  0.00    -0.550 OA
ENDBRANCH   2   3
ENDBRANCH   1   2
BRANCH   1   6
ATOM      6  C   UNL     1      86.346  26.325  28.738  1.00  0.00     0.000 C 
BRANCH   6   7
ATOM      7  C   UNL     1      85.865  25.365  27.640  1.00  0.00    -0.000 C 
BRANCH   7   8
ATOM      8  C   UNL     1      85.862  23.898  28.099  1.00  0.00    -0.003 C 
ATOM      9  C   UNL     1      84.564  23.503  28.805  1.00  0.00     0.004 C 
ENDBRANCH   7   8
ENDBRANCH   6   7
ENDBRANCH   1   6
TORSDOF 5
ENDMDL
MODEL 6
REMARK VINA RESULT:    -2.682      2.799      3.586
REMARK INTER + INTRA:          -3.933
REMARK INTER:                  -3.738
REMARK INTRA:                  -0.196
REMARK UNBOUND:                -0.467
REMARK SMILES CCCCCCC(=O)[O-]
REMARK SMILES IDX 5 1 6 2 7 3 8 4 9 5 4 6 3 7 2 8 1 9
REMARK H PARENT
REMARK Flexibility Score: inf
ROOT
ATOM      1  C   UNL     1      87.113  28.299  28.479  1.00  0.00     0.006 C 
ENDROOT
BRANCH   1   2
ATOM      2  C   UNL     1      86.964  26.945  29.179  1.00  0.00     0.053 C 
BRANCH   2   3
ATOM      3  C   UNL     1      85.595  26.387  28.952  1.00  0.00     0.041 C 
ATOM      4  O   UNL     1      84.589  27.144  28.983  1.00  0.00    -0.550 OA
ATOM      5  O   UNL     1      85.423  25.022  28.757  1.00  0.00    -0.550 OA
ENDBRANCH   2   3
ENDBRANCH   1   2
BRANCH   1   6
ATOM      6  C   UNL     1      88.222  29.136  29.130  1.00  0.00     0.000 C 
BRANCH   6   7
ATOM      7  C   UNL     1      89.563  28.924  28.414  1.00  0.00    -0.000 C 
BRANCH   7   8
ATOM      8  C   UNL     1      89.572  29.510  26.993  1.00  0.00    -0.003 C 
ATOM      9  C   UNL     1      90.061  28.510  25.944  1.00  0.00     0.004 C 
ENDBRANCH   7   8
ENDBRANCH   6   7
ENDBRANCH   1   6
TORSDOF 5
ENDMDL
MODEL 7
REMARK VINA RESULT:    -2.671      2.487      3.237
REMARK INTER + INTRA:          -3.919
REMARK INTER:                  -3.574
REMARK INTRA:                  -0.346
REMARK UNBOUND:                -0.467
REMARK SMILES CCCCCCC(=O)[O-]
REMARK SMILES IDX 5 1 6 2 7 3 8 4 9 5 4 6 3 7 2 8 1 9
REMARK H PARENT
REMARK Flexibility Score: inf
ROOT
ATOM      1  C   UNL     1      87.603  27.746  29.183  1.00  0.00     0.006 C 
ENDROOT
BRANCH   1   2
ATOM      2  C   UNL     1      86.235  27.227  28.726  1.00  0.00     0.053 C 
BRANCH   2   3
ATOM      3  C   UNL     1      86.352  26.534  27.406  1.00  0.00     0.041 C 
ATOM      4  O   UNL     1      86.786  27.156  26.400  1.00  0.00    -0.550 OA
ATOM      5  O   UNL     1      85.937  25.216  27.272  1.00  0.00    -0.550 OA
ENDBRANCH   2   3
ENDBRANCH   1   2
BRANCH   1   6
ATOM      6  C   UNL     1      87.642  29.279  29.172  1.00  0.00     0.000 C 
BRANCH   6   7
ATOM      7  C   UNL     1      88.998  29.790  28.665  1.00  0.00    -0.000 C 
BRANCH   7   8
ATOM      8  C   UNL     1      89.721  28.763  27.778  1.00  0.00    -0.003 C 
ATOM      9  C   UNL     1      89.761  29.178  26.307  1.00  0.00     0.004 C 
ENDBRANCH   7   8
ENDBRANCH   6   7
ENDBRANCH   1   6
TORSDOF 5
ENDMDL
MODEL 8
REMARK VINA RESULT:    -2.650      4.043      4.805
REMARK INTER + INTRA:          -3.892
REMARK INTER:                  -3.689
REMARK INTRA:                  -0.203
REMARK UNBOUND:                -0.467
REMARK SMILES CCCCCCC(=O)[O-]
REMARK SMILES IDX 5 1 6 2 7 3 8 4 9 5 4 6 3 7 2 8 1 9
REMARK H PARENT
REMARK Flexibility Score: inf
ROOT
ATOM      1  C   UNL     1      86.385  26.521  27.273  1.00  0.00     0.006 C 
ENDROOT
BRANCH   1   2
ATOM      2  C   UNL     1      86.009  26.097  28.697  1.00  0.00     0.053 C 
BRANCH   2   3
ATOM      3  C   UNL     1      85.405  24.729  28.693  1.00  0.00     0.041 C 
ATOM      4  O   UNL     1      84.309  24.519  29.278  1.00  0.00    -0.550 OA
ATOM      5  O   UNL     1      86.074  23.674  28.087  1.00  0.00    -0.550 OA
ENDBRANCH   2   3
ENDBRANCH   1   2
BRANCH   1   6
ATOM      6  C   UNL     1      87.178  27.833  27.281  1.00  0.00     0.000 C 
BRANCH   6   7
ATOM      7  C   UNL     1      87.720  28.140  28.684  1.00  0.00    -0.000 C 
BRANCH   7   8
ATOM      8  C   UNL     1      89.047  28.916  28.648  1.00  0.00    -0.003 C 
ATOM      9  C   UNL     1      89.719  28.874  27.275  1.00  0.00     0.004 C 
ENDBRANCH   7   8
ENDBRANCH   6   7
ENDBRANCH   1   6
TORSDOF 5
ENDMDL
MODEL 9
REMARK VINA RESULT:    -2.605      1.954      2.154
REMARK INTER + INTRA:          -3.834
REMARK INTER:                  -3.631
REMARK INTRA:                  -0.203
REMARK UNBOUND:                -0.467
REMARK SMILES CCCCCCC(=O)[O-]
REMARK SMILES IDX 5 1 6 2 7 3 8 4 9 5 4 6 3 7 2 8 1 9
REMARK H PARENT
REMARK Flexibility Score: inf
ROOT
ATOM      1  C   UNL     1      87.598  30.659  28.178  1.00  0.00     0.006 C 
ENDROOT
BRANCH   1   2
ATOM      2  C   UNL     1      86.490  30.344  29.188  1.00  0.00     0.053 C 
BRANCH   2   3
ATOM      3  C   UNL     1      85.667  31.562  29.458  1.00  0.00     0.041 C 
ATOM      4  O   UNL     1      84.843  31.974  28.599  1.00  0.00    -0.550 OA
ATOM      5  O   UNL     1      85.842  32.273  30.638  1.00  0.00    -0.550 OA
ENDBRANCH   2   3
ENDBRANCH   1   2
BRANCH   1   6
ATOM      6  C   UNL     1      88.974  30.262  28.727  1.00  0.00     0.000 C 
BRANCH   6   7
ATOM      7  C   UNL     1      89.348  28.837  28.293  1.00  0.00    -0.000 C 
BRANCH   7   8
ATOM      8  C   UNL     1      88.957  28.542  26.837  1.00  0.00    -0.003 C 
ATOM      9  C   UNL     1      90.045  28.942  25.839  1.00  0.00     0.004 C 
ENDBRANCH   7   8
ENDBRANCH   6   7
ENDBRANCH   1   6
TORSDOF 5
ENDMDL
