MODEL 1
REMARK VINA RESULT:    -2.608      0.000      0.000
REMARK INTER + INTRA:          -6.384
REMARK INTER:                  -4.743
REMARK INTRA:                  -1.641
REMARK UNBOUND:                -1.641
REMARK SMILES CCCCCCCCCCCCCCCC(=O)[O-]
REMARK SMILES IDX 9 1 10 2 11 3 12 4 13 5 14 6 15 7 16 8 17 9 18 10 8 11 7 12
REMARK SMILES IDX 6 13 5 14 4 15 3 16 2 17 1 18
REMARK H PARENT
REMARK Flexibility Score: inf
ROOT
ATOM      1  C   UNL     1       8.933  -6.087  -4.653  1.00  0.00     0.000 C 
ENDROOT
BRANCH   1   2
ATOM      2  C   UNL     1       8.885  -6.531  -3.180  1.00  0.00     0.000 C 
BRANCH   2   3
ATOM      3  C   UNL     1      10.125  -7.343  -2.759  1.00  0.00     0.000 C 
BRANCH   3   4
ATOM      4  C   UNL     1       9.850  -8.815  -2.396  1.00  0.00     0.000 C 
BRANCH   4   5
ATOM      5  C   UNL     1       8.439  -9.038  -1.821  1.00  0.00     0.000 C 
BRANCH   5   6
ATOM      6  C   UNL     1       7.613 -10.040  -2.657  1.00  0.00     0.006 C 
BRANCH   6   7
ATOM      7  C   UNL     1       6.453  -9.383  -3.424  1.00  0.00     0.053 C 
BRANCH   7   8
ATOM      8  C   UNL     1       6.769  -9.176  -4.872  1.00  0.00     0.041 C 
ATOM      9  O   UNL     1       6.220  -8.243  -5.514  1.00  0.00    -0.550 OA
ATOM     10  O   UNL     1       7.694  -9.998  -5.508  1.00  0.00    -0.550 OA
ENDBRANCH   7   8
ENDBRANCH   6   7
ENDBRANCH   5   6
ENDBRANCH   4   5
ENDBRANCH   3   4
ENDBRANCH   2   3
ENDBRANCH   1   2
BRANCH   1  11
ATOM     11  C   UNL     1       9.731  -7.057  -5.545  1.00  0.00     0.000 C 
BRANCH  11  12
ATOM     12  C   UNL     1       9.662  -6.770  -7.060  1.00  0.00    -0.000 C 
BRANCH  12  13
ATOM     13  C   UNL     1       9.148  -7.937  -7.923  1.00  0.00    -0.000 C 
BRANCH  13  14
ATOM     14  C   UNL     1       8.788  -7.509  -9.354  1.00  0.00    -0.000 C 
BRANCH  14  15
ATOM     15  C   UNL     1       7.753  -6.373  -9.343  1.00  0.00    -0.000 C 
BRANCH  15  16
ATOM     16  C   UNL     1       6.399  -6.799  -8.742  1.00  0.00    -0.000 C 
BRANCH  16  17
ATOM     17  C   UNL     1       5.613  -7.832  -9.574  1.00  0.00    -0.003 C 
ATOM     18  C   UNL     1       4.736  -8.748  -8.719  1.00  0.00     0.004 C 
ENDBRANCH  16  17
ENDBRANCH  15  16
ENDBRANCH  14  15
ENDBRANCH  13  14
ENDBRANCH  12  13
ENDBRANCH  11  12
ENDBRANCH   1  11
TORSDOF 14
ENDMDL
MODEL 2
REMARK VINA RESULT:    -2.351     12.605     15.736
REMARK INTER + INTRA:          -5.916
REMARK INTER:                  -4.603
REMARK INTRA:                  -1.313
REMARK UNBOUND:                -1.641
REMARK SMILES CCCCCCCCCCCCCCCC(=O)[O-]
REMARK SMILES IDX 9 1 10 2 11 3 12 4 13 5 14 6 15 7 16 8 17 9 18 10 8 11 7 12
REMARK SMILES IDX 6 13 5 14 4 15 3 16 2 17 1 18
REMARK H PARENT
REMARK Flexibility Score: inf
ROOT
ATOM      1  C   UNL     1      -7.671  -6.081  -4.674  1.00  0.00     0.000 C 
ENDROOT
BRANCH   1   2
ATOM      2  C   UNL     1      -6.629  -6.862  -5.494  1.00  0.00     0.000 C 
BRANCH   2   3
ATOM      3  C   UNL     1      -6.119  -8.122  -4.769  1.00  0.00     0.000 C 
BRANCH   3   4
ATOM      4  C   UNL     1      -5.168  -9.010  -5.593  1.00  0.00     0.000 C 
BRANCH   4   5
ATOM      5  C   UNL     1      -5.881  -9.748  -6.742  1.00  0.00     0.000 C 
BRANCH   5   6
ATOM      6  C   UNL     1      -5.507  -9.181  -8.129  1.00  0.00     0.006 C 
BRANCH   6   7
ATOM      7  C   UNL     1      -5.117  -7.693  -8.093  1.00  0.00     0.053 C 
BRANCH   7   8
ATOM      8  C   UNL     1      -3.874  -7.409  -8.876  1.00  0.00     0.041 C 
ATOM      9  O   UNL     1      -3.263  -8.343  -9.458  1.00  0.00    -0.550 OA
ATOM     10  O   UNL     1      -3.405  -6.104  -8.989  1.00  0.00    -0.550 OA
ENDBRANCH   7   8
ENDBRANCH   6   7
ENDBRANCH   5   6
ENDBRANCH   4   5
ENDBRANCH   3   4
ENDBRANCH   2   3
ENDBRANCH   1   2
BRANCH   1  11
ATOM     11  C   UNL     1      -8.546  -6.994  -3.793  1.00  0.00     0.000 C 
BRANCH  11  12
ATOM     12  C   UNL     1      -9.993  -7.201  -4.288  1.00  0.00    -0.000 C 
BRANCH  12  13
ATOM     13  C   UNL     1     -10.121  -7.813  -5.696  1.00  0.00    -0.000 C 
BRANCH  13  14
ATOM     14  C   UNL     1      -9.825  -9.320  -5.720  1.00  0.00    -0.000 C 
BRANCH  14  15
ATOM     15  C   UNL     1      -9.869  -9.865  -7.156  1.00  0.00    -0.000 C 
BRANCH  15  16
ATOM     16  C   UNL     1      -9.860  -8.752  -8.222  1.00  0.00    -0.000 C 
BRANCH  16  17
ATOM     17  C   UNL     1      -8.630  -8.750  -9.152  1.00  0.00    -0.003 C 
ATOM     18  C   UNL     1      -8.604  -9.938 -10.115  1.00  0.00     0.004 C 
ENDBRANCH  16  17
ENDBRANCH  15  16
ENDBRANCH  14  15
ENDBRANCH  13  14
ENDBRANCH  12  13
ENDBRANCH  11  12
ENDBRANCH   1  11
TORSDOF 14
ENDMDL
MODEL 3
REMARK VINA RESULT:    -2.108      2.019      5.524
REMARK INTER + INTRA:          -5.475
REMARK INTER:                  -3.912
REMARK INTRA:                  -1.563
REMARK UNBOUND:                -1.641
REMARK SMILES CCCCCCCCCCCCCCCC(=O)[O-]
REMARK SMILES IDX 9 1 10 2 11 3 12 4 13 5 14 6 15 7 16 8 17 9 18 10 8 11 7 12
REMARK SMILES IDX 6 13 5 14 4 15 3 16 2 17 1 18
REMARK H PARENT
REMARK Flexibility Score: inf
ROOT
ATOM      1  C   UNL     1       7.631 -10.002  -3.964  1.00  0.00     0.000 C 
ENDROOT
BRANCH   1   2
ATOM      2  C   UNL     1       6.712  -8.879  -4.474  1.00  0.00     0.000 C 
BRANCH   2   3
ATOM      3  C   UNL     1       6.805  -8.674  -5.998  1.00  0.00     0.000 C 
BRANCH   3   4
ATOM      4  C   UNL     1       5.948  -9.638  -6.840  1.00  0.00     0.000 C 
BRANCH   4   5
ATOM      5  C   UNL     1       6.445  -9.771  -8.292  1.00  0.00     0.000 C 
BRANCH   5   6
ATOM      6  C   UNL     1       5.626  -8.909  -9.277  1.00  0.00     0.006 C 
BRANCH   6   7
ATOM      7  C   UNL     1       6.003  -7.419  -9.240  1.00  0.00     0.053 C 
BRANCH   7   8
ATOM      8  C   UNL     1       7.400  -7.169  -9.713  1.00  0.00     0.041 C 
ATOM      9  O   UNL     1       8.112  -8.125 -10.121  1.00  0.00    -0.550 OA
ATOM     10  O   UNL     1       7.909  -5.875  -9.732  1.00  0.00    -0.550 OA
ENDBRANCH   7   8
ENDBRANCH   6   7
ENDBRANCH   5   6
ENDBRANCH   4   5
ENDBRANCH   3   4
ENDBRANCH   2   3
ENDBRANCH   1   2
BRANCH   1  11
ATOM     11  C   UNL     1       9.126  -9.689  -4.160  1.00  0.00     0.000 C 
BRANCH  11  12
ATOM     12  C   UNL     1       9.934  -9.478  -2.862  1.00  0.00    -0.000 C 
BRANCH  12  13
ATOM     13  C   UNL     1       9.666  -8.147  -2.135  1.00  0.00    -0.000 C 
BRANCH  13  14
ATOM     14  C   UNL     1      10.122  -6.923  -2.944  1.00  0.00    -0.000 C 
BRANCH  14  15
ATOM     15  C   UNL     1       8.916  -6.092  -3.409  1.00  0.00    -0.000 C 
BRANCH  15  16
ATOM     16  C   UNL     1       8.805  -5.999  -4.943  1.00  0.00    -0.000 C 
BRANCH  16  17
ATOM     17  C   UNL     1      10.124  -6.225  -5.707  1.00  0.00    -0.003 C 
ATOM     18  C   UNL     1       9.988  -7.230  -6.853  1.00  0.00     0.004 C 
ENDBRANCH  16  17
ENDBRANCH  15  16
ENDBRANCH  14  15
ENDBRANCH  13  14
ENDBRANCH  12  13
ENDBRANCH  11  12
ENDBRANCH   1  11
TORSDOF 14
ENDMDL
MODEL 4
REMARK VINA RESULT:    -0.523      3.599      8.235
REMARK INTER + INTRA:          -2.593
REMARK INTER:                  -2.552
REMARK INTRA:                  -0.041
REMARK UNBOUND:                -1.641
REMARK SMILES CCCCCCCCCCCCCCCC(=O)[O-]
REMARK SMILES IDX 9 1 10 2 11 3 12 4 13 5 14 6 15 7 16 8 17 9 18 10 8 11 7 12
REMARK SMILES IDX 6 13 5 14 4 15 3 16 2 17 1 18
REMARK H PARENT
REMARK Flexibility Score: inf
ROOT
ATOM      1  C   UNL     1       7.570  -9.788  -3.155  1.00  0.00     0.000 C 
ENDROOT
BRANCH   1   2
ATOM      2  C   UNL     1       6.618  -8.675  -3.627  1.00  0.00     0.000 C 
BRANCH   2   3
ATOM      3  C   UNL     1       7.243  -7.768  -4.704  1.00  0.00     0.000 C 
BRANCH   3   4
ATOM      4  C   UNL     1       8.222  -8.471  -5.662  1.00  0.00     0.000 C 
BRANCH   4   5
ATOM      5  C   UNL     1       7.528  -9.061  -6.904  1.00  0.00     0.000 C 
BRANCH   5   6
ATOM      6  C   UNL     1       5.988  -8.995  -6.806  1.00  0.00     0.006 C 
BRANCH   6   7
ATOM      7  C   UNL     1       5.304  -8.707  -8.153  1.00  0.00     0.053 C 
BRANCH   7   8
ATOM      8  C   UNL     1       6.210  -8.005  -9.115  1.00  0.00     0.041 C 
ATOM      9  O   UNL     1       6.917  -8.667  -9.919  1.00  0.00    -0.550 OA
ATOM     10  O   UNL     1       6.252  -6.615  -9.146  1.00  0.00    -0.550 OA
ENDBRANCH   7   8
ENDBRANCH   6   7
ENDBRANCH   5   6
ENDBRANCH   4   5
ENDBRANCH   3   4
ENDBRANCH   2   3
ENDBRANCH   1   2
BRANCH   1  11
ATOM     11  C   UNL     1       8.884  -9.242  -2.564  1.00  0.00     0.000 C 
BRANCH  11  12
ATOM     12  C   UNL     1       9.524 -10.111  -1.461  1.00  0.00    -0.000 C 
BRANCH  12  13
ATOM     13  C   UNL     1       9.037  -9.813  -0.031  1.00  0.00    -0.000 C 
BRANCH  13  14
ATOM     14  C   UNL     1      10.125 -10.038   1.030  1.00  0.00    -0.000 C 
BRANCH  14  15
ATOM     15  C   UNL     1       9.962  -9.056   2.200  1.00  0.00    -0.000 C 
BRANCH  15  16
ATOM     16  C   UNL     1       9.791  -9.763   3.559  1.00  0.00    -0.000 C 
BRANCH  16  17
ATOM     17  C   UNL     1       9.855  -8.835   4.789  1.00  0.00    -0.003 C 
ATOM     18  C   UNL     1       9.974  -9.599   6.110  1.00  0.00     0.004 C 
ENDBRANCH  16  17
ENDBRANCH  15  16
ENDBRANCH  14  15
ENDBRANCH  13  14
ENDBRANCH  12  13
ENDBRANCH  11  12
ENDBRANCH   1  11
TORSDOF 14
ENDMDL
