MODEL 1
REMARK VINA RESULT:    -1.931      0.000      0.000
REMARK INTER + INTRA:          -7.566
REMARK INTER:                  -4.867
REMARK INTRA:                  -2.699
REMARK UNBOUND:                -2.699
REMARK SMILES CCCCCCCCCCCCCCCCCCCCCCCCCCCC(=O)[O-]
REMARK SMILES IDX 15 1 16 2 17 3 18 4 19 5 20 6 21 7 22 8 23 9 24 10 25 11
REMARK SMILES IDX 26 12 27 13 28 14 29 15 30 16 14 17 13 18 12 19 11 20 10 21
REMARK SMILES IDX 9 22 8 23 7 24 6 25 5 26 4 27 3 28 2 29 1 30
REMARK H PARENT
REMARK Flexibility Score: inf
ROOT
ATOM      1  C   UNL     1      27.048  34.118  13.013  1.00  0.00     0.000 C 
ENDROOT
BRANCH   1   2
ATOM      2  C   UNL     1      27.221  32.760  12.311  1.00  0.00     0.000 C 
BRANCH   2   3
ATOM      3  C   UNL     1      26.171  31.728  12.750  1.00  0.00     0.000 C 
BRANCH   3   4
ATOM      4  C   UNL     1      24.899  31.778  11.889  1.00  0.00     0.000 C 
BRANCH   4   5
ATOM      5  C   UNL     1      25.200  32.341  10.496  1.00  0.00     0.000 C 
BRANCH   5   6
ATOM      6  C   UNL     1      24.121  33.348  10.065  1.00  0.00     0.000 C 
BRANCH   6   7
ATOM      7  C   UNL     1      23.670  34.269  11.210  1.00  0.00     0.000 C 
BRANCH   7   8
ATOM      8  C   UNL     1      22.146  34.341  11.428  1.00  0.00     0.000 C 
BRANCH   8   9
ATOM      9  C   UNL     1      21.715  34.248  12.909  1.00  0.00     0.000 C 
BRANCH   9  10
ATOM     10  C   UNL     1      22.670  34.947  13.901  1.00  0.00     0.000 C 
BRANCH  10  11
ATOM     11  C   UNL     1      22.023  36.029  14.792  1.00  0.00     0.000 C 
BRANCH  11  12
ATOM     12  C   UNL     1      22.748  36.308  16.125  1.00  0.00     0.006 C 
BRANCH  12  13
ATOM     13  C   UNL     1      24.003  37.189  15.995  1.00  0.00     0.053 C 
BRANCH  13  14
ATOM     14  C   UNL     1      23.873  38.207  14.903  1.00  0.00     0.041 C 
ATOM     15  O   UNL     1      23.064  39.169  15.023  1.00  0.00    -0.550 OA
ATOM     16  O   UNL     1      24.631  38.085  13.745  1.00  0.00    -0.550 OA
ENDBRANCH  13  14
ENDBRANCH  12  13
ENDBRANCH  11  12
ENDBRANCH  10  11
ENDBRANCH   9  10
ENDBRANCH   8   9
ENDBRANCH   7   8
ENDBRANCH   6   7
ENDBRANCH   5   6
ENDBRANCH   4   5
ENDBRANCH   3   4
ENDBRANCH   2   3
ENDBRANCH   1   2
BRANCH   1  17
ATOM     17  C   UNL     1      25.692  34.243  13.726  1.00  0.00     0.000 C 
BRANCH  17  18
ATOM     18  C   UNL     1      25.838  34.572  15.224  1.00  0.00     0.000 C 
BRANCH  18  19
ATOM     19  C   UNL     1      25.657  33.339  16.125  1.00  0.00     0.000 C 
BRANCH  19  20
ATOM     20  C   UNL     1      24.236  32.756  16.048  1.00  0.00     0.000 C 
BRANCH  20  21
ATOM     21  C   UNL     1      24.224  31.256  15.707  1.00  0.00     0.000 C 
BRANCH  21  22
ATOM     22  C   UNL     1      23.094  30.876  14.733  1.00  0.00    -0.000 C 
BRANCH  22  23
ATOM     23  C   UNL     1      21.807  31.686  14.974  1.00  0.00    -0.000 C 
BRANCH  23  24
ATOM     24  C   UNL     1      20.679  30.900  15.669  1.00  0.00    -0.000 C 
BRANCH  24  25
ATOM     25  C   UNL     1      19.387  31.723  15.820  1.00  0.00    -0.000 C 
BRANCH  25  26
ATOM     26  C   UNL     1      18.161  30.994  15.242  1.00  0.00    -0.000 C 
BRANCH  26  27
ATOM     27  C   UNL     1      16.875  31.852  15.254  1.00  0.00    -0.000 C 
BRANCH  27  28
ATOM     28  C   UNL     1      15.679  31.158  15.932  1.00  0.00    -0.000 C 
BRANCH  28  29
ATOM     29  C   UNL     1      14.454  30.963  15.023  1.00  0.00    -0.003 C 
ATOM     30  C   UNL     1      13.144  30.883  15.807  1.00  0.00     0.004 C 
ENDBRANCH  28  29
ENDBRANCH  27  28
ENDBRANCH  26  27
ENDBRANCH  25  26
ENDBRANCH  24  25
ENDBRANCH  23  24
ENDBRANCH  22  23
ENDBRANCH  21  22
ENDBRANCH  20  21
ENDBRANCH  19  20
ENDBRANCH  18  19
ENDBRANCH  17  18
ENDBRANCH   1  17
TORSDOF 26
ENDMDL
MODEL 2
REMARK VINA RESULT:    -0.983      2.008      4.523
REMARK INTER + INTRA:          -5.175
REMARK INTER:                  -3.979
REMARK INTRA:                  -1.196
REMARK UNBOUND:                -2.699
REMARK SMILES CCCCCCCCCCCCCCCCCCCCCCCCCCCC(=O)[O-]
REMARK SMILES IDX 15 1 16 2 17 3 18 4 19 5 20 6 21 7 22 8 23 9 24 10 25 11
REMARK SMILES IDX 26 12 27 13 28 14 29 15 30 16 14 17 13 18 12 19 11 20 10 21
REMARK SMILES IDX 9 22 8 23 7 24 6 25 5 26 4 27 3 28 2 29 1 30
REMARK H PARENT
REMARK Flexibility Score: inf
ROOT
ATOM      1  C   UNL     1      24.848  34.759  14.382  1.00  0.00     0.000 C 
ENDROOT
BRANCH   1   2
ATOM      2  C   UNL     1      25.555  35.680  15.391  1.00  0.00     0.000 C 
BRANCH   2   3
ATOM      3  C   UNL     1      26.849  35.067  15.949  1.00  0.00     0.000 C 
BRANCH   3   4
ATOM      4  C   UNL     1      27.293  33.817  15.173  1.00  0.00     0.000 C 
BRANCH   4   5
ATOM      5  C   UNL     1      27.493  32.626  16.117  1.00  0.00     0.000 C 
BRANCH   5   6
ATOM      6  C   UNL     1      26.420  31.550  15.879  1.00  0.00     0.000 C 
BRANCH   6   7
ATOM      7  C   UNL     1      26.147  31.297  14.388  1.00  0.00     0.000 C 
BRANCH   7   8
ATOM      8  C   UNL     1      24.662  31.109  14.019  1.00  0.00     0.000 C 
BRANCH   8   9
ATOM      9  C   UNL     1      24.354  31.316  12.519  1.00  0.00     0.000 C 
BRANCH   9  10
ATOM     10  C   UNL     1      25.504  30.924  11.567  1.00  0.00     0.000 C 
BRANCH  10  11
ATOM     11  C   UNL     1      25.554  31.699  10.233  1.00  0.00     0.000 C 
BRANCH  11  12
ATOM     12  C   UNL     1      24.418  32.719  10.018  1.00  0.00     0.006 C 
BRANCH  12  13
ATOM     13  C   UNL     1      24.095  33.582  11.251  1.00  0.00     0.053 C 
BRANCH  13  14
ATOM     14  C   UNL     1      23.022  34.591  10.975  1.00  0.00     0.041 C 
ATOM     15  O   UNL     1      22.585  34.750   9.801  1.00  0.00    -0.550 OA
ATOM     16  O   UNL     1      22.516  35.369  12.008  1.00  0.00    -0.550 OA
ENDBRANCH  13  14
ENDBRANCH  12  13
ENDBRANCH  11  12
ENDBRANCH  10  11
ENDBRANCH   9  10
ENDBRANCH   8   9
ENDBRANCH   7   8
ENDBRANCH   6   7
ENDBRANCH   5   6
ENDBRANCH   4   5
ENDBRANCH   3   4
ENDBRANCH   2   3
ENDBRANCH   1   2
BRANCH   1  17
ATOM     17  C   UNL     1      23.757  33.897  15.037  1.00  0.00     0.000 C 
BRANCH  17  18
ATOM     18  C   UNL     1      22.670  34.740  15.729  1.00  0.00     0.000 C 
BRANCH  18  19
ATOM     19  C   UNL     1      21.409  33.928  16.065  1.00  0.00     0.000 C 
BRANCH  19  20
ATOM     20  C   UNL     1      20.596  33.555  14.814  1.00  0.00     0.000 C 
BRANCH  20  21
ATOM     21  C   UNL     1      20.792  32.090  14.389  1.00  0.00     0.000 C 
BRANCH  21  22
ATOM     22  C   UNL     1      20.769  31.117  15.582  1.00  0.00    -0.000 C 
BRANCH  22  23
ATOM     23  C   UNL     1      19.349  30.876  16.124  1.00  0.00    -0.000 C 
BRANCH  23  24
ATOM     24  C   UNL     1      18.222  31.431  15.231  1.00  0.00    -0.000 C 
BRANCH  24  25
ATOM     25  C   UNL     1      16.850  31.418  15.929  1.00  0.00    -0.000 C 
BRANCH  25  26
ATOM     26  C   UNL     1      15.689  31.608  14.937  1.00  0.00    -0.000 C 
BRANCH  26  27
ATOM     27  C   UNL     1      14.330  31.867  15.625  1.00  0.00    -0.000 C 
BRANCH  27  28
ATOM     28  C   UNL     1      13.345  32.673  14.758  1.00  0.00    -0.000 C 
BRANCH  28  29
ATOM     29  C   UNL     1      12.973  34.052  15.326  1.00  0.00    -0.003 C 
ATOM     30  C   UNL     1      11.512  34.135  15.770  1.00  0.00     0.004 C 
ENDBRANCH  28  29
ENDBRANCH  27  28
ENDBRANCH  26  27
ENDBRANCH  25  26
ENDBRANCH  24  25
ENDBRANCH  23  24
ENDBRANCH  22  23
ENDBRANCH  21  22
ENDBRANCH  20  21
ENDBRANCH  19  20
ENDBRANCH  18  19
ENDBRANCH  17  18
ENDBRANCH   1  17
TORSDOF 26
ENDMDL
