MODEL 1
REMARK VINA RESULT:    -4.402      0.000      0.000
REMARK INTER + INTRA:          -4.986
REMARK INTER:                  -4.787
REMARK INTRA:                  -0.198
REMARK UNBOUND:                -0.198
REMARK SMILES O=C([O-])c1ccccc1O
REMARK SMILES IDX 4 1 9 2 5 3 8 4 6 5 7 6 2 7 1 8 3 9 10 10
REMARK H PARENT 10 11
REMARK Flexibility Score: inf
ROOT
ATOM      1  C   UNL     1      31.265  16.305  -8.088  1.00  0.00     0.039 A 
ATOM      2  C   UNL     1      32.447  15.637  -8.502  1.00  0.00     0.124 A 
ATOM      3  C   UNL     1      30.040  15.951  -8.682  1.00  0.00     0.014 A 
ATOM      4  C   UNL     1      32.382  14.689  -9.532  1.00  0.00     0.047 A 
ATOM      5  C   UNL     1      29.990  14.989  -9.693  1.00  0.00     0.001 A 
ATOM      6  C   UNL     1      31.160  14.365 -10.125  1.00  0.00     0.004 A 
ENDROOT
BRANCH   1   7
ATOM      7  C   UNL     1      31.267  17.386  -7.077  1.00  0.00     0.075 C 
ATOM      8  O   UNL     1      30.202  17.979  -6.762  1.00  0.00    -0.545 OA
ATOM      9  O   UNL     1      32.442  17.712  -6.409  1.00  0.00    -0.545 OA
ENDBRANCH   1   7
BRANCH   2  10
ATOM     10  O   UNL     1      33.689  15.857  -7.901  1.00  0.00    -0.507 OA
ATOM     11  H   UNL     1      34.243  15.124  -7.481  1.00  0.00     0.293 HD
ENDBRANCH   2  10
TORSDOF 2
ENDMDL
MODEL 2
REMARK VINA RESULT:    -4.149      1.391      3.357
REMARK INTER + INTRA:          -4.711
REMARK INTER:                  -4.618
REMARK INTRA:                  -0.093
REMARK UNBOUND:                -0.198
REMARK SMILES O=C([O-])c1ccccc1O
REMARK SMILES IDX 4 1 9 2 5 3 8 4 6 5 7 6 2 7 1 8 3 9 10 10
REMARK H PARENT 10 11
REMARK Flexibility Score: inf
ROOT
ATOM      1  C   UNL     1      32.631  15.200  -9.277  1.00  0.00     0.039 A 
ATOM      2  C   UNL     1      32.283  15.989  -8.150  1.00  0.00     0.124 A 
ATOM      3  C   UNL     1      31.608  14.737 -10.125  1.00  0.00     0.014 A 
ATOM      4  C   UNL     1      30.933  16.238  -7.870  1.00  0.00     0.047 A 
ATOM      5  C   UNL     1      30.268  15.011  -9.842  1.00  0.00     0.001 A 
ATOM      6  C   UNL     1      29.930  15.752  -8.711  1.00  0.00     0.004 A 
ENDROOT
BRANCH   1   7
ATOM      7  C   UNL     1      34.026  14.813  -9.585  1.00  0.00     0.075 C 
ATOM      8  O   UNL     1      34.418  13.627  -9.425  1.00  0.00    -0.545 OA
ATOM      9  O   UNL     1      34.904  15.746 -10.125  1.00  0.00    -0.545 OA
ENDBRANCH   1   7
BRANCH   2  10
ATOM     10  O   UNL     1      33.237  16.569  -7.310  1.00  0.00    -0.507 OA
ATOM     11  H   UNL     1      33.714  16.065  -6.576  1.00  0.00     0.293 HD
ENDBRANCH   2  10
TORSDOF 2
ENDMDL
MODEL 3
REMARK VINA RESULT:    -3.838      2.530      3.825
REMARK INTER + INTRA:          -4.373
REMARK INTER:                  -4.124
REMARK INTRA:                  -0.249
REMARK UNBOUND:                -0.198
REMARK SMILES O=C([O-])c1ccccc1O
REMARK SMILES IDX 4 1 9 2 5 3 8 4 6 5 7 6 2 7 1 8 3 9 10 10
REMARK H PARENT 10 11
REMARK Flexibility Score: inf
ROOT
ATOM      1  C   UNL     1      32.650  15.411  -8.919  1.00  0.00     0.039 A 
ATOM      2  C   UNL     1      31.317  15.000  -9.182  1.00  0.00     0.124 A 
ATOM      3  C   UNL     1      32.868  16.499  -8.054  1.00  0.00     0.014 A 
ATOM      4  C   UNL     1      30.249  15.717  -8.628  1.00  0.00     0.047 A 
ATOM      5  C   UNL     1      31.792  17.191  -7.494  1.00  0.00     0.001 A 
ATOM      6  C   UNL     1      30.484  16.808  -7.788  1.00  0.00     0.004 A 
ENDROOT
BRANCH   1   7
ATOM      7  C   UNL     1      33.826  14.765  -9.544  1.00  0.00     0.075 C 
ATOM      8  O   UNL     1      33.914  13.511  -9.615  1.00  0.00    -0.545 OA
ATOM      9  O   UNL     1      34.820  15.544 -10.125  1.00  0.00    -0.545 OA
ENDBRANCH   1   7
BRANCH   2  10
ATOM     10  O   UNL     1      31.012  13.874  -9.950  1.00  0.00    -0.507 OA
ATOM     11  H   UNL     1      30.679  13.004  -9.558  1.00  0.00     0.293 HD
ENDBRANCH   2  10
TORSDOF 2
ENDMDL
MODEL 4
REMARK VINA RESULT:    -3.829     13.693     15.728
REMARK INTER + INTRA:          -4.363
REMARK INTER:                  -4.158
REMARK INTRA:                  -0.205
REMARK UNBOUND:                -0.198
REMARK SMILES O=C([O-])c1ccccc1O
REMARK SMILES IDX 4 1 9 2 5 3 8 4 6 5 7 6 2 7 1 8 3 9 10 10
REMARK H PARENT 10 11
REMARK Flexibility Score: inf
ROOT
ATOM      1  C   UNL     1      34.260  22.891   4.852  1.00  0.00     0.039 A 
ATOM      2  C   UNL     1      33.153  23.775   4.759  1.00  0.00     0.124 A 
ATOM      3  C   UNL     1      35.125  22.998   5.956  1.00  0.00     0.014 A 
ATOM      4  C   UNL     1      32.978  24.769   5.730  1.00  0.00     0.047 A 
ATOM      5  C   UNL     1      34.924  23.982   6.926  1.00  0.00     0.001 A 
ATOM      6  C   UNL     1      33.858  24.874   6.809  1.00  0.00     0.004 A 
ENDROOT
BRANCH   1   7
ATOM      7  C   UNL     1      34.567  21.879   3.816  1.00  0.00     0.075 C 
ATOM      8  O   UNL     1      34.768  22.218   2.620  1.00  0.00    -0.545 OA
ATOM      9  O   UNL     1      34.708  20.543   4.170  1.00  0.00    -0.545 OA
ENDBRANCH   1   7
BRANCH   2  10
ATOM     10  O   UNL     1      32.193  23.679   3.749  1.00  0.00    -0.507 OA
ATOM     11  H   UNL     1      31.392  24.291   3.681  1.00  0.00     0.293 HD
ENDBRANCH   2  10
TORSDOF 2
ENDMDL
MODEL 5
REMARK VINA RESULT:    -3.592      1.164      2.418
REMARK INTER + INTRA:          -4.105
REMARK INTER:                  -3.890
REMARK INTRA:                  -0.215
REMARK UNBOUND:                -0.198
REMARK SMILES O=C([O-])c1ccccc1O
REMARK SMILES IDX 4 1 9 2 5 3 8 4 6 5 7 6 2 7 1 8 3 9 10 10
REMARK H PARENT 10 11
REMARK Flexibility Score: inf
ROOT
ATOM      1  C   UNL     1      31.890  16.248  -8.197  1.00  0.00     0.039 A 
ATOM      2  C   UNL     1      30.879  15.537  -8.893  1.00  0.00     0.124 A 
ATOM      3  C   UNL     1      33.238  15.947  -8.461  1.00  0.00     0.014 A 
ATOM      4  C   UNL     1      31.238  14.512  -9.779  1.00  0.00     0.047 A 
ATOM      5  C   UNL     1      33.580  14.937  -9.363  1.00  0.00     0.001 A 
ATOM      6  C   UNL     1      32.581  14.213 -10.014  1.00  0.00     0.004 A 
ENDROOT
BRANCH   1   7
ATOM      7  C   UNL     1      31.589  17.275  -7.175  1.00  0.00     0.075 C 
ATOM      8  O   UNL     1      32.494  17.728  -6.426  1.00  0.00    -0.545 OA
ATOM      9  O   UNL     1      30.307  17.806  -7.078  1.00  0.00    -0.545 OA
ENDBRANCH   1   7
BRANCH   2  10
ATOM     10  O   UNL     1      29.520  15.835  -8.764  1.00  0.00    -0.507 OA
ATOM     11  H   UNL     1      29.003  16.387  -9.434  1.00  0.00     0.293 HD
ENDBRANCH   2  10
TORSDOF 2
ENDMDL
MODEL 6
REMARK VINA RESULT:    -3.530     19.432     19.752
REMARK INTER + INTRA:          -4.038
REMARK INTER:                  -3.790
REMARK INTRA:                  -0.249
REMARK UNBOUND:                -0.198
REMARK SMILES O=C([O-])c1ccccc1O
REMARK SMILES IDX 4 1 9 2 5 3 8 4 6 5 7 6 2 7 1 8 3 9 10 10
REMARK H PARENT 10 11
REMARK Flexibility Score: inf
ROOT
ATOM      1  C   UNL     1      16.723  22.347   3.010  1.00  0.00     0.039 A 
ATOM      2  C   UNL     1      15.888  22.356   1.863  1.00  0.00     0.124 A 
ATOM      3  C   UNL     1      16.941  21.130   3.683  1.00  0.00     0.014 A 
ATOM      4  C   UNL     1      15.252  21.174   1.460  1.00  0.00     0.047 A 
ATOM      5  C   UNL     1      16.316  19.957   3.256  1.00  0.00     0.001 A 
ATOM      6  C   UNL     1      15.464  19.980   2.152  1.00  0.00     0.004 A 
ENDROOT
BRANCH   1   7
ATOM      7  C   UNL     1      17.351  23.571   3.555  1.00  0.00     0.075 C 
ATOM      8  O   UNL     1      17.939  24.388   2.799  1.00  0.00    -0.545 OA
ATOM      9  O   UNL     1      17.237  23.869   4.908  1.00  0.00    -0.545 OA
ENDBRANCH   1   7
BRANCH   2  10
ATOM     10  O   UNL     1      15.692  23.497   1.081  1.00  0.00    -0.507 OA
ATOM     11  H   UNL     1      15.303  23.474   0.148  1.00  0.00     0.293 HD
ENDBRANCH   2  10
TORSDOF 2
ENDMDL
MODEL 7
REMARK VINA RESULT:    -3.509     22.364     23.020
REMARK INTER + INTRA:          -4.015
REMARK INTER:                  -3.769
REMARK INTRA:                  -0.245
REMARK UNBOUND:                -0.198
REMARK SMILES O=C([O-])c1ccccc1O
REMARK SMILES IDX 4 1 9 2 5 3 8 4 6 5 7 6 2 7 1 8 3 9 10 10
REMARK H PARENT 10 11
REMARK Flexibility Score: inf
ROOT
ATOM      1  C   UNL     1      16.635  22.020   7.774  1.00  0.00     0.039 A 
ATOM      2  C   UNL     1      17.486  22.273   8.882  1.00  0.00     0.124 A 
ATOM      3  C   UNL     1      16.284  23.089   6.929  1.00  0.00     0.014 A 
ATOM      4  C   UNL     1      17.907  23.583   9.147  1.00  0.00     0.047 A 
ATOM      5  C   UNL     1      16.729  24.385   7.195  1.00  0.00     0.001 A 
ATOM      6  C   UNL     1      17.531  24.634   8.308  1.00  0.00     0.004 A 
ENDROOT
BRANCH   1   7
ATOM      7  C   UNL     1      16.071  20.683   7.485  1.00  0.00     0.075 C 
ATOM      8  O   UNL     1      16.147  20.184   6.332  1.00  0.00    -0.545 OA
ATOM      9  O   UNL     1      15.508  19.929   8.509  1.00  0.00    -0.545 OA
ENDBRANCH   1   7
BRANCH   2  10
ATOM     10  O   UNL     1      17.961  21.258   9.716  1.00  0.00    -0.507 OA
ATOM     11  H   UNL     1      17.660  21.137  10.674  1.00  0.00     0.293 HD
ENDBRANCH   2  10
TORSDOF 2
ENDMDL
MODEL 8
REMARK VINA RESULT:    -3.478     21.084     22.201
REMARK INTER + INTRA:          -3.981
REMARK INTER:                  -3.733
REMARK INTRA:                  -0.248
REMARK UNBOUND:                -0.198
REMARK SMILES O=C([O-])c1ccccc1O
REMARK SMILES IDX 4 1 9 2 5 3 8 4 6 5 7 6 2 7 1 8 3 9 10 10
REMARK H PARENT 10 11
REMARK Flexibility Score: inf
ROOT
ATOM      1  C   UNL     1      16.765  22.274   6.687  1.00  0.00     0.039 A 
ATOM      2  C   UNL     1      17.317  22.640   7.941  1.00  0.00     0.124 A 
ATOM      3  C   UNL     1      16.167  21.008   6.550  1.00  0.00     0.014 A 
ATOM      4  C   UNL     1      17.312  21.718   8.996  1.00  0.00     0.047 A 
ATOM      5  C   UNL     1      16.152  20.107   7.617  1.00  0.00     0.001 A 
ATOM      6  C   UNL     1      16.732  20.457   8.836  1.00  0.00     0.004 A 
ENDROOT
BRANCH   1   7
ATOM      7  C   UNL     1      16.819  23.155   5.499  1.00  0.00     0.075 C 
ATOM      8  O   UNL     1      16.499  24.370   5.579  1.00  0.00    -0.545 OA
ATOM      9  O   UNL     1      17.295  22.663   4.289  1.00  0.00    -0.545 OA
ENDBRANCH   1   7
BRANCH   2  10
ATOM     10  O   UNL     1      17.844  23.909   8.193  1.00  0.00    -0.507 OA
ATOM     11  H   UNL     1      17.488  24.755   7.771  1.00  0.00     0.293 HD
ENDBRANCH   2  10
TORSDOF 2
ENDMDL
