MODEL 1
REMARK VINA RESULT:    -3.017      0.000      0.000
REMARK INTER + INTRA:          -4.374
REMARK INTER:                  -4.604
REMARK INTRA:                   0.231
REMARK UNBOUND:                 0.231
REMARK SMILES OC[C@@H]1O[C@H](O[C@]2(CO)O[C@H](CO)[C@@H](O)[C@@H]2O)[C@@H](O)[C@@H](O)[C@@H]1O
REMARK SMILES IDX 6 1 5 2 3 3 22 4 4 5 20 6 18 7 2 8 1 9 23 11 21 13 19 15
REMARK SMILES IDX 7 17 16 18 10 19 14 20 11 21 8 22 9 23 17 25 15 27 12 29
REMARK SMILES IDX 13 30
REMARK H PARENT 1 10 23 12 21 14 19 16 9 24 17 26 15 28 13 31
REMARK Flexibility Score: inf
ROOT
ATOM      1  O   UNL     1      28.275  14.720  -2.648  1.00  0.00    -0.313 OA
ENDROOT
BRANCH   1   2
ATOM      2  C   UNL     1      27.358  14.594  -3.737  1.00  0.00     0.285 C 
ATOM      3  C   UNL     1      25.634  13.405  -4.755  1.00  0.00     0.178 C 
ATOM      4  C   UNL     1      24.553  14.522  -4.671  1.00  0.00     0.177 C 
ATOM      5  O   UNL     1      26.497  13.468  -3.636  1.00  0.00    -0.341 OA
ATOM      6  C   UNL     1      25.039  15.713  -3.808  1.00  0.00     0.179 C 
ATOM      7  C   UNL     1      26.566  15.927  -3.908  1.00  0.00     0.202 C 
BRANCH   3   8
ATOM      8  C   UNL     1      25.037  11.995  -4.843  1.00  0.00     0.191 C 
BRANCH   8   9
ATOM      9  O   UNL     1      24.665  11.562  -3.564  1.00  0.00    -0.394 OA
ATOM     10  H   UNL     1      23.682  11.688  -3.505  1.00  0.00     0.210 HD
ENDBRANCH   8   9
ENDBRANCH   3   8
BRANCH   4  11
ATOM     11  O   UNL     1      23.356  14.022  -4.125  1.00  0.00    -0.387 OA
ATOM     12  H   UNL     1      22.927  14.768  -3.632  1.00  0.00     0.211 HD
ENDBRANCH   4  11
BRANCH   6  13
ATOM     13  O   UNL     1      24.374  16.892  -4.184  1.00  0.00    -0.387 OA
ATOM     14  H   UNL     1      24.237  17.424  -3.357  1.00  0.00     0.211 HD
ENDBRANCH   6  13
BRANCH   7  15
ATOM     15  O   UNL     1      26.912  16.566  -5.114  1.00  0.00    -0.385 OA
ATOM     16  H   UNL     1      26.372  17.396  -5.184  1.00  0.00     0.211 HD
ENDBRANCH   7  15
ENDBRANCH   1   2
BRANCH   1  17
ATOM     17  C   UNL     1      29.304  15.708  -2.724  1.00  0.00     0.224 C 
ATOM     18  C   UNL     1      30.552  15.331  -1.897  1.00  0.00     0.208 C 
ATOM     19  O   UNL     1      29.711  15.751  -4.077  1.00  0.00    -0.337 OA
ATOM     20  C   UNL     1      31.708  15.827  -2.732  1.00  0.00     0.180 C 
ATOM     21  C   UNL     1      31.108  15.948  -4.137  1.00  0.00     0.179 C 
BRANCH  17  22
ATOM     22  C   UNL     1      28.774  17.125  -2.375  1.00  0.00     0.225 C 
BRANCH  22  23
ATOM     23  O   UNL     1      27.582  17.022  -1.645  1.00  0.00    -0.391 OA
ATOM     24  H   UNL     1      26.847  17.171  -2.294  1.00  0.00     0.210 HD
ENDBRANCH  22  23
ENDBRANCH  17  22
BRANCH  18  25
ATOM     25  O   UNL     1      30.635  13.934  -1.754  1.00  0.00    -0.385 OA
ATOM     26  H   UNL     1      29.904  13.666  -1.137  1.00  0.00     0.211 HD
ENDBRANCH  18  25
BRANCH  20  27
ATOM     27  O   UNL     1      32.125  17.086  -2.267  1.00  0.00    -0.387 OA
ATOM     28  H   UNL     1      31.546  17.757  -2.713  1.00  0.00     0.211 HD
ENDBRANCH  20  27
BRANCH  21  29
ATOM     29  C   UNL     1      31.720  14.941  -5.118  1.00  0.00     0.191 C 
BRANCH  29  30
ATOM     30  O   UNL     1      31.214  13.656  -4.878  1.00  0.00    -0.394 OA
ATOM     31  H   UNL     1      31.803  13.252  -4.189  1.00  0.00     0.210 HD
ENDBRANCH  29  30
ENDBRANCH  21  29
ENDBRANCH   1  17
TORSDOF 13
ENDMDL
