MODEL 1
REMARK VINA RESULT:    -4.835      0.000      0.000
REMARK INTER + INTRA:          -5.117
REMARK INTER:                  -5.117
REMARK INTRA:                   0.000
REMARK UNBOUND:                 0.000
REMARK SMILES O=c1ccc2cc(O)c(O)cc2o1
REMARK SMILES IDX 4 1 3 2 2 3 1 4 13 5 12 6 11 7 9 8 7 9 6 10 5 11 8 12 10 14
REMARK H PARENT 8 13 10 15
REMARK Flexibility Score: inf
ROOT
ATOM      1  C   UNL     1      -0.107  26.111  30.244  1.00  0.00     0.019 A 
ATOM      2  C   UNL     1      -0.100  26.804  29.034  1.00  0.00     0.094 A 
ATOM      3  C   UNL     1      -0.096  28.203  29.054  1.00  0.00     0.336 A 
ATOM      4  O   UNL     1      -0.090  28.847  27.971  1.00  0.00    -0.246 OA
ATOM      5  O   UNL     1      -0.099  28.861  30.210  1.00  0.00    -0.423 OA
ATOM      6  C   UNL     1      -0.105  28.239  31.387  1.00  0.00     0.142 A 
ATOM      7  C   UNL     1      -0.107  28.983  32.571  1.00  0.00     0.098 A 
ATOM      8  C   UNL     1      -0.114  28.332  33.814  1.00  0.00     0.161 A 
ATOM      9  C   UNL     1      -0.119  26.931  33.872  1.00  0.00     0.158 A 
ATOM     10  C   UNL     1      -0.116  26.179  32.687  1.00  0.00     0.062 A 
ATOM     11  C   UNL     1      -0.109  26.828  31.444  1.00  0.00     0.022 A 
ENDROOT
BRANCH   9  12
ATOM     12  O   UNL     1      -0.125  26.292  35.110  1.00  0.00    -0.504 OA
ATOM     13  H   UNL     1      -0.157  25.282  35.186  1.00  0.00     0.293 HD
ENDBRANCH   9  12
BRANCH   8  14
ATOM     14  O   UNL     1      -0.117  29.071  34.995  1.00  0.00    -0.504 OA
ATOM     15  H   UNL     1       0.493  28.836  35.769  1.00  0.00     0.293 HD
ENDBRANCH   8  14
TORSDOF 2
ENDMDL
