MODEL 1
REMARK VINA RESULT:    -4.253      0.000      0.000
REMARK INTER + INTRA:          -5.519
REMARK INTER:                  -5.745
REMARK INTRA:                   0.226
REMARK UNBOUND:                 0.226
REMARK SMILES CC(=O)CCC=C(C)CCC=C(C)C
REMARK SMILES IDX 7 1 6 2 8 3 9 4 10 5 11 6 13 7 12 8 14 9 5 10 4 11 2 12 3 13
REMARK SMILES IDX 1 14
REMARK H PARENT
REMARK Flexibility Score: inf
ROOT
ATOM      1  C   UNL     1      11.022  78.657  18.970  1.00  0.00    -0.077 C 
ATOM      2  C   UNL     1      11.097  79.994  19.162  1.00  0.00    -0.028 C 
ATOM      3  C   UNL     1       9.994  78.133  18.001  1.00  0.00     0.039 C 
ENDROOT
BRANCH   1   4
ATOM      4  C   UNL     1      11.966  77.674  19.633  1.00  0.00     0.034 C 
BRANCH   4   5
ATOM      5  C   UNL     1      11.389  77.188  20.968  1.00  0.00     0.032 C 
BRANCH   5   6
ATOM      6  C   UNL     1      12.035  75.895  21.405  1.00  0.00    -0.028 C 
ATOM      7  C   UNL     1      12.107  73.671  22.450  1.00  0.00     0.039 C 
ATOM      8  C   UNL     1      11.366  74.923  22.060  1.00  0.00    -0.080 C 
ATOM      9  C   UNL     1       9.902  75.066  22.405  1.00  0.00     0.039 C 
ENDBRANCH   5   6
ENDBRANCH   4   5
ENDBRANCH   1   4
BRANCH   2  10
ATOM     10  C   UNL     1      12.046  80.679  20.118  1.00  0.00     0.035 C 
BRANCH  10  11
ATOM     11  C   UNL     1      11.966  82.207  19.994  1.00  0.00     0.079 C 
BRANCH  11  12
ATOM     12  C   UNL     1      11.705  82.635  18.572  1.00  0.00     0.130 C 
ATOM     13  O   UNL     1      12.119  81.948  17.651  1.00  0.00    -0.300 OA
ATOM     14  C   UNL     1      10.946  83.892  18.264  1.00  0.00     0.087 C 
ENDBRANCH  11  12
ENDBRANCH  10  11
ENDBRANCH   2  10
TORSDOF 6
ENDMDL
MODEL 2
REMARK VINA RESULT:    -3.852     13.145     15.077
REMARK INTER + INTRA:          -4.978
REMARK INTER:                  -4.058
REMARK INTRA:                  -0.920
REMARK UNBOUND:                 0.226
REMARK SMILES CC(=O)CCC=C(C)CCC=C(C)C
REMARK SMILES IDX 7 1 6 2 8 3 9 4 10 5 11 6 13 7 12 8 14 9 5 10 4 11 2 12 3 13
REMARK SMILES IDX 1 14
REMARK H PARENT
REMARK Flexibility Score: inf
ROOT
ATOM      1  C   UNL     1      10.880  64.314  21.328  1.00  0.00    -0.077 C 
ATOM      2  C   UNL     1       9.540  64.260  21.504  1.00  0.00    -0.028 C 
ATOM      3  C   UNL     1      11.405  64.686  19.965  1.00  0.00     0.039 C 
ENDROOT
BRANCH   1   4
ATOM      4  C   UNL     1      11.870  64.083  22.452  1.00  0.00     0.034 C 
BRANCH   4   5
ATOM      5  C   UNL     1      12.115  65.381  23.230  1.00  0.00     0.032 C 
BRANCH   5   6
ATOM      6  C   UNL     1      11.983  65.160  24.718  1.00  0.00    -0.028 C 
ATOM      7  C   UNL     1      11.726  65.839  27.067  1.00  0.00     0.039 C 
ATOM      8  C   UNL     1      11.851  66.171  25.603  1.00  0.00    -0.080 C 
ATOM      9  C   UNL     1      11.824  67.614  25.157  1.00  0.00     0.039 C 
ENDBRANCH   5   6
ENDBRANCH   4   5
ENDBRANCH   1   4
BRANCH   2  10
ATOM     10  C   UNL     1       8.851  63.875  22.793  1.00  0.00     0.035 C 
BRANCH  10  11
ATOM     11  C   UNL     1       7.796  64.912  23.201  1.00  0.00     0.079 C 
BRANCH  11  12
ATOM     12  C   UNL     1       7.343  64.710  24.625  1.00  0.00     0.130 C 
ATOM     13  O   UNL     1       6.149  64.649  24.873  1.00  0.00    -0.300 OA
ATOM     14  C   UNL     1       8.331  64.587  25.747  1.00  0.00     0.087 C 
ENDBRANCH  11  12
ENDBRANCH  10  11
ENDBRANCH   2  10
TORSDOF 6
ENDMDL
MODEL 3
REMARK VINA RESULT:    -3.364      2.881      7.023
REMARK INTER + INTRA:          -4.318
REMARK INTER:                  -4.091
REMARK INTRA:                  -0.228
REMARK UNBOUND:                 0.226
REMARK SMILES CC(=O)CCC=C(C)CCC=C(C)C
REMARK SMILES IDX 7 1 6 2 8 3 9 4 10 5 11 6 13 7 12 8 14 9 5 10 4 11 2 12 3 13
REMARK SMILES IDX 1 14
REMARK H PARENT
REMARK Flexibility Score: inf
ROOT
ATOM      1  C   UNL     1      11.933  77.849  21.044  1.00  0.00    -0.077 C 
ATOM      2  C   UNL     1      11.962  76.711  21.774  1.00  0.00    -0.028 C 
ATOM      3  C   UNL     1      12.102  79.163  21.763  1.00  0.00     0.039 C 
ENDROOT
BRANCH   1   4
ATOM      4  C   UNL     1      11.807  77.857  19.533  1.00  0.00     0.034 C 
BRANCH   4   5
ATOM      5  C   UNL     1      10.619  78.720  19.095  1.00  0.00     0.032 C 
BRANCH   5   6
ATOM      6  C   UNL     1      11.030  79.726  18.047  1.00  0.00    -0.028 C 
ATOM      7  C   UNL     1      11.847  81.895  17.225  1.00  0.00     0.039 C 
ATOM      8  C   UNL     1      11.460  80.970  18.349  1.00  0.00    -0.080 C 
ATOM      9  C   UNL     1      11.561  81.445  19.780  1.00  0.00     0.039 C 
ENDBRANCH   5   6
ENDBRANCH   4   5
ENDBRANCH   1   4
BRANCH   2  10
ATOM     10  C   UNL     1      11.778  75.319  21.216  1.00  0.00     0.035 C 
BRANCH  10  11
ATOM     11  C   UNL     1      12.117  74.244  22.257  1.00  0.00     0.079 C 
BRANCH  11  12
ATOM     12  C   UNL     1      11.278  74.395  23.502  1.00  0.00     0.130 C 
ATOM     13  O   UNL     1      10.063  74.452  23.406  1.00  0.00    -0.300 OA
ATOM     14  C   UNL     1      11.909  74.479  24.860  1.00  0.00     0.087 C 
ENDBRANCH  11  12
ENDBRANCH  10  11
ENDBRANCH   2  10
TORSDOF 6
ENDMDL
MODEL 4
REMARK VINA RESULT:    -3.260      1.629      3.179
REMARK INTER + INTRA:          -4.178
REMARK INTER:                  -3.848
REMARK INTRA:                  -0.330
REMARK UNBOUND:                 0.226
REMARK SMILES CC(=O)CCC=C(C)CCC=C(C)C
REMARK SMILES IDX 7 1 6 2 8 3 9 4 10 5 11 6 13 7 12 8 14 9 5 10 4 11 2 12 3 13
REMARK SMILES IDX 1 14
REMARK H PARENT
REMARK Flexibility Score: inf
ROOT
ATOM      1  C   UNL     1      11.988  77.085  21.972  1.00  0.00    -0.077 C 
ATOM      2  C   UNL     1      12.105  78.151  21.148  1.00  0.00    -0.028 C 
ATOM      3  C   UNL     1      12.085  77.317  23.458  1.00  0.00     0.039 C 
ENDROOT
BRANCH   1   4
ATOM      4  C   UNL     1      11.697  75.683  21.471  1.00  0.00     0.034 C 
BRANCH   4   5
ATOM      5  C   UNL     1      10.672  74.990  22.375  1.00  0.00     0.032 C 
BRANCH   5   6
ATOM      6  C   UNL     1      11.136  73.607  22.767  1.00  0.00    -0.028 C 
ATOM      7  C   UNL     1      12.125  71.916  24.253  1.00  0.00     0.039 C 
ATOM      8  C   UNL     1      11.697  73.331  23.964  1.00  0.00    -0.080 C 
ATOM      9  C   UNL     1      11.900  74.404  25.008  1.00  0.00     0.039 C 
ENDBRANCH   5   6
ENDBRANCH   4   5
ENDBRANCH   1   4
BRANCH   2  10
ATOM     10  C   UNL     1      12.063  78.088  19.639  1.00  0.00     0.035 C 
BRANCH  10  11
ATOM     11  C   UNL     1      10.933  78.956  19.070  1.00  0.00     0.079 C 
BRANCH  11  12
ATOM     12  C   UNL     1      11.369  80.390  18.897  1.00  0.00     0.130 C 
ATOM     13  O   UNL     1      11.717  81.035  19.874  1.00  0.00    -0.300 OA
ATOM     14  C   UNL     1      11.381  81.043  17.547  1.00  0.00     0.087 C 
ENDBRANCH  11  12
ENDBRANCH  10  11
ENDBRANCH   2  10
TORSDOF 6
ENDMDL
MODEL 5
REMARK VINA RESULT:    -3.213     13.139     15.460
REMARK INTER + INTRA:          -4.114
REMARK INTER:                  -4.067
REMARK INTRA:                  -0.048
REMARK UNBOUND:                 0.226
REMARK SMILES CC(=O)CCC=C(C)CCC=C(C)C
REMARK SMILES IDX 7 1 6 2 8 3 9 4 10 5 11 6 13 7 12 8 14 9 5 10 4 11 2 12 3 13
REMARK SMILES IDX 1 14
REMARK H PARENT
REMARK Flexibility Score: inf
ROOT
ATOM      1  C   UNL     1      11.082  66.019  25.014  1.00  0.00    -0.077 C 
ATOM      2  C   UNL     1       9.804  65.711  25.331  1.00  0.00    -0.028 C 
ATOM      3  C   UNL     1      11.502  67.466  25.066  1.00  0.00     0.039 C 
ENDROOT
BRANCH   1   4
ATOM      4  C   UNL     1      12.124  64.971  24.674  1.00  0.00     0.034 C 
BRANCH   4   5
ATOM      5  C   UNL     1      11.568  63.969  23.656  1.00  0.00     0.032 C 
BRANCH   5   6
ATOM      6  C   UNL     1      12.125  64.227  22.276  1.00  0.00    -0.028 C 
ATOM      7  C   UNL     1      12.004  64.618  19.851  1.00  0.00     0.039 C 
ATOM      8  C   UNL     1      11.346  64.362  21.182  1.00  0.00    -0.080 C 
ATOM      9  C   UNL     1       9.841  64.264  21.266  1.00  0.00     0.039 C 
ENDBRANCH   5   6
ENDBRANCH   4   5
ENDBRANCH   1   4
BRANCH   2  10
ATOM     10  C   UNL     1       9.215  64.320  25.299  1.00  0.00     0.035 C 
BRANCH  10  11
ATOM     11  C   UNL     1       7.903  64.244  26.091  1.00  0.00     0.079 C 
BRANCH  11  12
ATOM     12  C   UNL     1       6.705  64.456  25.199  1.00  0.00     0.130 C 
ATOM     13  O   UNL     1       6.852  64.983  24.108  1.00  0.00    -0.300 OA
ATOM     14  C   UNL     1       5.331  64.033  25.627  1.00  0.00     0.087 C 
ENDBRANCH  11  12
ENDBRANCH  10  11
ENDBRANCH   2  10
TORSDOF 6
ENDMDL
MODEL 6
REMARK VINA RESULT:    -2.678     15.031     16.652
REMARK INTER + INTRA:          -3.391
REMARK INTER:                  -3.017
REMARK INTRA:                  -0.374
REMARK UNBOUND:                 0.226
REMARK SMILES CC(=O)CCC=C(C)CCC=C(C)C
REMARK SMILES IDX 7 1 6 2 8 3 9 4 10 5 11 6 13 7 12 8 14 9 5 10 4 11 2 12 3 13
REMARK SMILES IDX 1 14
REMARK H PARENT
REMARK Flexibility Score: inf
ROOT
ATOM      1  C   UNL     1       7.510  64.185  25.372  1.00  0.00    -0.077 C 
ATOM      2  C   UNL     1       6.262  64.048  25.878  1.00  0.00    -0.028 C 
ATOM      3  C   UNL     1       8.680  64.042  26.311  1.00  0.00     0.039 C 
ENDROOT
BRANCH   1   4
ATOM      4  C   UNL     1       7.782  64.407  23.898  1.00  0.00     0.034 C 
BRANCH   4   5
ATOM      5  C   UNL     1       9.284  64.316  23.607  1.00  0.00     0.032 C 
BRANCH   5   6
ATOM      6  C   UNL     1       9.548  64.205  22.125  1.00  0.00    -0.028 C 
ATOM      7  C   UNL     1      10.921  64.264  20.085  1.00  0.00     0.039 C 
ATOM      8  C   UNL     1      10.767  64.399  21.578  1.00  0.00    -0.080 C 
ATOM      9  C   UNL     1      11.968  64.745  22.427  1.00  0.00     0.039 C 
ENDBRANCH   5   6
ENDBRANCH   4   5
ENDBRANCH   1   4
BRANCH   2  10
ATOM     10  C   UNL     1       4.985  64.190  25.084  1.00  0.00     0.035 C 
BRANCH  10  11
ATOM     11  C   UNL     1       3.751  63.875  25.938  1.00  0.00     0.079 C 
BRANCH  11  12
ATOM     12  C   UNL     1       2.534  64.623  25.451  1.00  0.00     0.130 C 
ATOM     13  O   UNL     1       1.659  64.929  26.245  1.00  0.00    -0.300 OA
ATOM     14  C   UNL     1       2.376  64.997  24.007  1.00  0.00     0.087 C 
ENDBRANCH  11  12
ENDBRANCH  10  11
ENDBRANCH   2  10
TORSDOF 6
ENDMDL
MODEL 7
REMARK VINA RESULT:    -2.485     13.776     15.250
REMARK INTER + INTRA:          -3.130
REMARK INTER:                  -2.904
REMARK INTRA:                  -0.226
REMARK UNBOUND:                 0.226
REMARK SMILES CC(=O)CCC=C(C)CCC=C(C)C
REMARK SMILES IDX 7 1 6 2 8 3 9 4 10 5 11 6 13 7 12 8 14 9 5 10 4 11 2 12 3 13
REMARK SMILES IDX 1 14
REMARK H PARENT
REMARK Flexibility Score: inf
ROOT
ATOM      1  C   UNL     1      11.068  65.161  23.809  1.00  0.00    -0.077 C 
ATOM      2  C   UNL     1      11.973  65.021  22.813  1.00  0.00    -0.028 C 
ATOM      3  C   UNL     1      11.228  66.319  24.760  1.00  0.00     0.039 C 
ENDROOT
BRANCH   1   4
ATOM      4  C   UNL     1       9.869  64.247  23.969  1.00  0.00     0.034 C 
BRANCH   4   5
ATOM      5  C   UNL     1       8.952  64.752  25.087  1.00  0.00     0.032 C 
BRANCH   5   6
ATOM      6  C   UNL     1       7.504  64.734  24.657  1.00  0.00    -0.028 C 
ATOM      7  C   UNL     1       5.090  64.360  24.939  1.00  0.00     0.039 C 
ATOM      8  C   UNL     1       6.500  64.339  25.469  1.00  0.00    -0.080 C 
ATOM      9  C   UNL     1       6.762  63.883  26.885  1.00  0.00     0.039 C 
ENDBRANCH   5   6
ENDBRANCH   4   5
ENDBRANCH   1   4
BRANCH   2  10
ATOM     10  C   UNL     1      11.976  63.903  21.796  1.00  0.00     0.035 C 
BRANCH  10  11
ATOM     11  C   UNL     1      10.751  63.975  20.875  1.00  0.00     0.079 C 
BRANCH  11  12
ATOM     12  C   UNL     1      11.140  64.344  19.465  1.00  0.00     0.130 C 
ATOM     13  O   UNL     1      12.125  65.040  19.275  1.00  0.00    -0.300 OA
ATOM     14  C   UNL     1      10.336  63.876  18.288  1.00  0.00     0.087 C 
ENDBRANCH  11  12
ENDBRANCH  10  11
ENDBRANCH   2  10
TORSDOF 6
ENDMDL
