MODEL 1
REMARK VINA RESULT:    -3.660      0.000      0.000
REMARK INTER + INTRA:          -4.346
REMARK INTER:                  -4.195
REMARK INTRA:                  -0.151
REMARK UNBOUND:                -0.151
REMARK SMILES O=C([O-])C=Cc1ccc(O)cc1
REMARK SMILES IDX 6 1 7 2 12 3 8 4 11 5 9 6 5 7 4 8 2 9 1 10 3 11 10 12
REMARK H PARENT 10 13
REMARK Flexibility Score: inf
ROOT
ATOM      1  C   UNL     1      73.890  40.282  21.359  1.00  0.00    -0.025 A 
ATOM      2  C   UNL     1      73.824  40.731  22.694  1.00  0.00     0.012 A 
ATOM      3  C   UNL     1      74.881  40.811  20.515  1.00  0.00     0.012 A 
ATOM      4  C   UNL     1      74.745  41.669  23.171  1.00  0.00     0.047 A 
ATOM      5  C   UNL     1      75.800  41.748  20.996  1.00  0.00     0.047 A 
ATOM      6  C   UNL     1      75.738  42.178  22.324  1.00  0.00     0.115 A 
ENDROOT
BRANCH   1   7
ATOM      7  C   UNL     1      72.931  39.298  20.799  1.00  0.00     0.010 C 
ATOM      8  C   UNL     1      73.183  38.543  19.721  1.00  0.00     0.025 C 
BRANCH   8   9
ATOM      9  C   UNL     1      72.197  37.587  19.194  1.00  0.00     0.064 C 
ATOM     10  O   UNL     1      71.004  37.952  19.026  1.00  0.00    -0.545 OA
ATOM     11  O   UNL     1      72.561  36.283  18.875  1.00  0.00    -0.545 OA
ENDBRANCH   8   9
ENDBRANCH   1   7
BRANCH   6  12
ATOM     12  O   UNL     1      76.661  43.112  22.789  1.00  0.00    -0.508 OA
ATOM     13  H   UNL     1      76.376  44.045  23.065  1.00  0.00     0.293 HD
ENDBRANCH   6  12
TORSDOF 3
ENDMDL
MODEL 2
REMARK VINA RESULT:    -3.537      9.897     10.945
REMARK INTER + INTRA:          -4.204
REMARK INTER:                  -4.065
REMARK INTRA:                  -0.139
REMARK UNBOUND:                -0.151
REMARK SMILES O=C([O-])C=Cc1ccc(O)cc1
REMARK SMILES IDX 6 1 7 2 12 3 8 4 11 5 9 6 5 7 4 8 2 9 1 10 3 11 10 12
REMARK H PARENT 10 13
REMARK Flexibility Score: inf
ROOT
ATOM      1  C   UNL     1      74.517  42.579  31.157  1.00  0.00    -0.025 A 
ATOM      2  C   UNL     1      74.946  41.778  30.079  1.00  0.00     0.012 A 
ATOM      3  C   UNL     1      75.479  43.106  32.035  1.00  0.00     0.012 A 
ATOM      4  C   UNL     1      76.309  41.535  29.878  1.00  0.00     0.047 A 
ATOM      5  C   UNL     1      76.840  42.861  31.830  1.00  0.00     0.047 A 
ATOM      6  C   UNL     1      77.259  42.078  30.751  1.00  0.00     0.115 A 
ENDROOT
BRANCH   1   7
ATOM      7  C   UNL     1      73.083  42.859  31.423  1.00  0.00     0.010 C 
ATOM      8  C   UNL     1      72.102  41.969  31.225  1.00  0.00     0.025 C 
BRANCH   8   9
ATOM      9  C   UNL     1      70.692  42.294  31.492  1.00  0.00     0.064 C 
ATOM     10  O   UNL     1      70.243  42.203  32.665  1.00  0.00    -0.545 OA
ATOM     11  O   UNL     1      69.844  42.703  30.469  1.00  0.00    -0.545 OA
ENDBRANCH   8   9
ENDBRANCH   1   7
BRANCH   6  12
ATOM     12  O   UNL     1      78.619  41.843  30.559  1.00  0.00    -0.508 OA
ATOM     13  H   UNL     1      78.950  41.216  29.835  1.00  0.00     0.293 HD
ENDBRANCH   6  12
TORSDOF 3
ENDMDL
MODEL 3
REMARK VINA RESULT:    -3.281      1.363      1.880
REMARK INTER + INTRA:          -3.911
REMARK INTER:                  -3.779
REMARK INTRA:                  -0.133
REMARK UNBOUND:                -0.151
REMARK SMILES O=C([O-])C=Cc1ccc(O)cc1
REMARK SMILES IDX 6 1 7 2 12 3 8 4 11 5 9 6 5 7 4 8 2 9 1 10 3 11 10 12
REMARK H PARENT 10 13
REMARK Flexibility Score: inf
ROOT
ATOM      1  C   UNL     1      74.486  40.679  20.037  1.00  0.00    -0.025 A 
ATOM      2  C   UNL     1      74.824  41.222  21.294  1.00  0.00     0.012 A 
ATOM      3  C   UNL     1      75.292  40.986  18.928  1.00  0.00     0.012 A 
ATOM      4  C   UNL     1      75.956  42.033  21.432  1.00  0.00     0.047 A 
ATOM      5  C   UNL     1      76.423  41.795  19.071  1.00  0.00     0.047 A 
ATOM      6  C   UNL     1      76.760  42.319  20.322  1.00  0.00     0.115 A 
ENDROOT
BRANCH   1   7
ATOM      7  C   UNL     1      73.291  39.824  19.832  1.00  0.00     0.010 C 
ATOM      8  C   UNL     1      73.235  38.529  20.172  1.00  0.00     0.025 C 
BRANCH   8   9
ATOM      9  C   UNL     1      72.031  37.715  19.940  1.00  0.00     0.064 C 
ATOM     10  O   UNL     1      72.063  36.784  19.094  1.00  0.00    -0.545 OA
ATOM     11  O   UNL     1      70.855  37.957  20.642  1.00  0.00    -0.545 OA
ENDBRANCH   8   9
ENDBRANCH   1   7
BRANCH   6  12
ATOM     12  O   UNL     1      77.890  43.124  20.449  1.00  0.00    -0.508 OA
ATOM     13  H   UNL     1      78.780  42.741  20.746  1.00  0.00     0.293 HD
ENDBRANCH   6  12
TORSDOF 3
ENDMDL
MODEL 4
REMARK VINA RESULT:    -3.056      3.410      4.818
REMARK INTER + INTRA:          -3.653
REMARK INTER:                  -3.516
REMARK INTRA:                  -0.137
REMARK UNBOUND:                -0.151
REMARK SMILES O=C([O-])C=Cc1ccc(O)cc1
REMARK SMILES IDX 6 1 7 2 12 3 8 4 11 5 9 6 5 7 4 8 2 9 1 10 3 11 10 12
REMARK H PARENT 10 13
REMARK Flexibility Score: inf
ROOT
ATOM      1  C   UNL     1      72.959  40.652  21.432  1.00  0.00    -0.025 A 
ATOM      2  C   UNL     1      72.572  39.883  20.315  1.00  0.00     0.012 A 
ATOM      3  C   UNL     1      74.328  40.840  21.683  1.00  0.00     0.012 A 
ATOM      4  C   UNL     1      73.539  39.337  19.464  1.00  0.00     0.047 A 
ATOM      5  C   UNL     1      75.291  40.294  20.829  1.00  0.00     0.047 A 
ATOM      6  C   UNL     1      74.900  39.543  19.718  1.00  0.00     0.115 A 
ENDROOT
BRANCH   1   7
ATOM      7  C   UNL     1      71.976  41.244  22.373  1.00  0.00     0.010 C 
ATOM      8  C   UNL     1      70.994  42.076  21.999  1.00  0.00     0.025 C 
BRANCH   8   9
ATOM      9  C   UNL     1      70.048  42.648  22.969  1.00  0.00     0.064 C 
ATOM     10  O   UNL     1      70.439  42.921  24.134  1.00  0.00    -0.545 OA
ATOM     11  O   UNL     1      68.724  42.895  22.621  1.00  0.00    -0.545 OA
ENDBRANCH   8   9
ENDBRANCH   1   7
BRANCH   6  12
ATOM     12  O   UNL     1      75.870  39.005  18.875  1.00  0.00    -0.508 OA
ATOM     13  H   UNL     1      76.271  38.090  19.046  1.00  0.00     0.293 HD
ENDBRANCH   6  12
TORSDOF 3
ENDMDL
MODEL 5
REMARK VINA RESULT:    -3.001      1.522      5.681
REMARK INTER + INTRA:          -3.590
REMARK INTER:                  -3.453
REMARK INTRA:                  -0.137
REMARK UNBOUND:                -0.151
REMARK SMILES O=C([O-])C=Cc1ccc(O)cc1
REMARK SMILES IDX 6 1 7 2 12 3 8 4 11 5 9 6 5 7 4 8 2 9 1 10 3 11 10 12
REMARK H PARENT 10 13
REMARK Flexibility Score: inf
ROOT
ATOM      1  C   UNL     1      73.460  40.015  21.025  1.00  0.00    -0.025 A 
ATOM      2  C   UNL     1      73.188  38.635  21.126  1.00  0.00     0.012 A 
ATOM      3  C   UNL     1      72.659  40.804  20.182  1.00  0.00     0.012 A 
ATOM      4  C   UNL     1      72.124  38.071  20.413  1.00  0.00     0.047 A 
ATOM      5  C   UNL     1      71.597  40.236  19.473  1.00  0.00     0.047 A 
ATOM      6  C   UNL     1      71.325  38.870  19.587  1.00  0.00     0.115 A 
ENDROOT
BRANCH   1   7
ATOM      7  C   UNL     1      74.582  40.663  21.749  1.00  0.00     0.010 C 
ATOM      8  C   UNL     1      74.745  40.602  23.078  1.00  0.00     0.025 C 
BRANCH   8   9
ATOM      9  C   UNL     1      75.867  41.269  23.755  1.00  0.00     0.064 C 
ATOM     10  O   UNL     1      76.251  42.400  23.357  1.00  0.00    -0.545 OA
ATOM     11  O   UNL     1      76.513  40.671  24.832  1.00  0.00    -0.545 OA
ENDBRANCH   8   9
ENDBRANCH   1   7
BRANCH   6  12
ATOM     12  O   UNL     1      70.262  38.319  18.875  1.00  0.00    -0.508 OA
ATOM     13  H   UNL     1      69.472  38.883  18.582  1.00  0.00     0.293 HD
ENDBRANCH   6  12
TORSDOF 3
ENDMDL
MODEL 6
REMARK VINA RESULT:    -2.985      3.752      5.661
REMARK INTER + INTRA:          -3.571
REMARK INTER:                  -3.431
REMARK INTRA:                  -0.140
REMARK UNBOUND:                -0.151
REMARK SMILES O=C([O-])C=Cc1ccc(O)cc1
REMARK SMILES IDX 6 1 7 2 12 3 8 4 11 5 9 6 5 7 4 8 2 9 1 10 3 11 10 12
REMARK H PARENT 10 13
REMARK Flexibility Score: inf
ROOT
ATOM      1  C   UNL     1      71.761  42.163  22.177  1.00  0.00    -0.025 A 
ATOM      2  C   UNL     1      71.000  41.927  23.341  1.00  0.00     0.012 A 
ATOM      3  C   UNL     1      71.122  42.703  21.049  1.00  0.00     0.012 A 
ATOM      4  C   UNL     1      69.639  42.247  23.373  1.00  0.00     0.047 A 
ATOM      5  C   UNL     1      69.762  43.023  21.085  1.00  0.00     0.047 A 
ATOM      6  C   UNL     1      69.017  42.799  22.246  1.00  0.00     0.115 A 
ENDROOT
BRANCH   1   7
ATOM      7  C   UNL     1      73.205  41.831  22.086  1.00  0.00     0.010 C 
ATOM      8  C   UNL     1      73.863  41.110  23.003  1.00  0.00     0.025 C 
BRANCH   8   9
ATOM      9  C   UNL     1      75.298  40.814  22.877  1.00  0.00     0.064 C 
ATOM     10  O   UNL     1      75.749  40.372  21.788  1.00  0.00    -0.545 OA
ATOM     11  O   UNL     1      76.169  41.015  23.942  1.00  0.00    -0.545 OA
ENDBRANCH   8   9
ENDBRANCH   1   7
BRANCH   6  12
ATOM     12  O   UNL     1      67.663  43.123  22.268  1.00  0.00    -0.508 OA
ATOM     13  H   UNL     1      66.974  42.548  21.796  1.00  0.00     0.293 HD
ENDBRANCH   6  12
TORSDOF 3
ENDMDL
MODEL 7
REMARK VINA RESULT:    -2.731      3.334      4.170
REMARK INTER + INTRA:          -3.281
REMARK INTER:                  -3.140
REMARK INTRA:                  -0.141
REMARK UNBOUND:                -0.151
REMARK SMILES O=C([O-])C=Cc1ccc(O)cc1
REMARK SMILES IDX 6 1 7 2 12 3 8 4 11 5 9 6 5 7 4 8 2 9 1 10 3 11 10 12
REMARK H PARENT 10 13
REMARK Flexibility Score: inf
ROOT
ATOM      1  C   UNL     1      74.414  42.094  21.309  1.00  0.00    -0.025 A 
ATOM      2  C   UNL     1      75.306  42.911  22.034  1.00  0.00     0.012 A 
ATOM      3  C   UNL     1      74.847  41.521  20.102  1.00  0.00     0.012 A 
ATOM      4  C   UNL     1      76.607  43.125  21.565  1.00  0.00     0.047 A 
ATOM      5  C   UNL     1      76.148  41.737  19.638  1.00  0.00     0.047 A 
ATOM      6  C   UNL     1      77.032  42.537  20.368  1.00  0.00     0.115 A 
ENDROOT
BRANCH   1   7
ATOM      7  C   UNL     1      73.020  41.843  21.754  1.00  0.00     0.010 C 
ATOM      8  C   UNL     1      72.521  42.278  22.919  1.00  0.00     0.025 C 
BRANCH   8   9
ATOM      9  C   UNL     1      71.135  41.996  23.325  1.00  0.00     0.064 C 
ATOM     10  O   UNL     1      70.614  40.889  23.031  1.00  0.00    -0.545 OA
ATOM     11  O   UNL     1      70.389  42.934  24.031  1.00  0.00    -0.545 OA
ENDBRANCH   8   9
ENDBRANCH   1   7
BRANCH   6  12
ATOM     12  O   UNL     1      78.325  42.742  19.893  1.00  0.00    -0.508 OA
ATOM     13  H   UNL     1      79.086  42.983  20.519  1.00  0.00     0.293 HD
ENDBRANCH   6  12
TORSDOF 3
ENDMDL
