MODEL 1
REMARK VINA RESULT:    -1.241      0.000      0.000
REMARK INTER + INTRA:          -2.071
REMARK INTER:                  -1.894
REMARK INTRA:                  -0.177
REMARK UNBOUND:                -0.177
REMARK SMILES CC1=CCC[C@H](C)C(=O)C[C@@H](C(C)C)C(=O)C1
REMARK SMILES IDX 8 1 9 2 6 3 7 4 5 5 4 6 3 7 2 8 1 9 10 11 11 12 15 13 16 14
REMARK SMILES IDX 17 15 12 17 13 18 14 19
REMARK H PARENT
REMARK Flexibility Score: 70.00
ROOT
ATOM      1  C   UNL     1      29.597  58.111  11.301  1.00  0.00     0.136 C 
ATOM      2  O   UNL     1      29.388  58.662  10.230  1.00  0.00    -0.299 OA
ENDROOT
BRANCH   1   3
ATOM      3  C   UNL     1      30.134  56.673  11.316  1.00  0.00     0.053 C 
ATOM      4  C   UNL     1      31.504  56.566  10.625  1.00  0.00     0.016 C 
BRANCH   3   5
ATOM      5  C   UNL     1      30.221  56.085  12.754  1.00  0.00     0.015 C 
BRANCH   5   6
ATOM      6  C   UNL     1      31.569  56.255  13.485  1.00  0.00     0.028 C 
BRANCH   6   7
ATOM      7  C   UNL     1      31.584  56.311  15.002  1.00  0.00    -0.028 C 
ATOM      8  C   UNL     1      30.989  57.224  15.810  1.00  0.00    -0.070 CG0
ATOM      9  C   UNL     1      31.334  57.180  17.280  1.00  0.00     0.039 C 
ATOM     10  G   UNL     1      29.895  58.186  15.372  1.00  0.00     0.000 G0
ENDBRANCH   6   7
ENDBRANCH   5   6
ENDBRANCH   3   5
ENDBRANCH   1   3
BRANCH   1  11
ATOM     11  C   UNL     1      29.222  58.867  12.569  1.00  0.00     0.087 C 
BRANCH  11  12
ATOM     12  C   UNL     1      30.373  59.686  13.214  1.00  0.00     0.066 C 
BRANCH  12  13
ATOM     13  C   UNL     1      30.433  59.446  14.721  1.00  0.00     0.140 C 
ATOM     14  O   UNL     1      30.932  60.297  15.445  1.00  0.00    -0.299 OA
BRANCH  13  15
ATOM     15  C   UNL     1      29.879  58.179  15.353  1.00  0.00     0.106 CG0
ATOM     16  G   UNL     1      31.003  57.261  15.807  1.00  0.00     0.000 G0
ENDBRANCH  13  15
ENDBRANCH  12  13
BRANCH  12  17
ATOM     17  C   UNL     1      30.342  61.215  12.853  1.00  0.00    -0.006 C 
ATOM     18  C   UNL     1      28.925  61.746  12.565  1.00  0.00     0.008 C 
ATOM     19  C   UNL     1      31.223  61.506  11.622  1.00  0.00     0.008 C 
ENDBRANCH  12  17
ENDBRANCH  11  12
ENDBRANCH   1  11
TORSDOF 1
ENDMDL
MODEL 2
REMARK VINA RESULT:    -1.177      2.045      4.406
REMARK INTER + INTRA:          -1.973
REMARK INTER:                  -1.904
REMARK INTRA:                  -0.069
REMARK UNBOUND:                -0.177
REMARK SMILES CC1=CCC[C@H](C)C(=O)C[C@@H](C(C)C)C(=O)C1
REMARK SMILES IDX 8 1 9 2 6 3 7 4 5 5 4 6 3 7 2 8 1 9 10 11 11 12 15 13 16 14
REMARK SMILES IDX 17 15 12 17 13 18 14 19
REMARK H PARENT
REMARK Flexibility Score: 70.00
ROOT
ATOM      1  C   UNL     1      30.648  57.847  11.246  1.00  0.00     0.136 C 
ATOM      2  O   UNL     1      29.608  57.213  11.138  1.00  0.00    -0.299 OA
ENDROOT
BRANCH   1   3
ATOM      3  C   UNL     1      31.387  58.303   9.980  1.00  0.00     0.053 C 
ATOM      4  C   UNL     1      30.702  57.791   8.702  1.00  0.00     0.016 C 
BRANCH   3   5
ATOM      5  C   UNL     1      31.548  59.849   9.909  1.00  0.00     0.015 C 
BRANCH   5   6
ATOM      6  C   UNL     1      30.398  60.688  10.506  1.00  0.00     0.028 C 
BRANCH   6   7
ATOM      7  C   UNL     1      30.731  61.934  11.305  1.00  0.00    -0.028 C 
ATOM      8  C   UNL     1      31.013  62.027  12.630  1.00  0.00    -0.070 CG0
ATOM      9  C   UNL     1      31.100  63.411  13.226  1.00  0.00     0.039 C 
ATOM     10  G   UNL     1      31.389  60.851  13.520  1.00  0.00     0.000 G0
ENDBRANCH   6   7
ENDBRANCH   5   6
ENDBRANCH   3   5
ENDBRANCH   1   3
BRANCH   1  11
ATOM     11  C   UNL     1      31.196  58.071  12.650  1.00  0.00     0.087 C 
BRANCH  11  12
ATOM     12  C   UNL     1      30.144  58.499  13.708  1.00  0.00     0.066 C 
BRANCH  12  13
ATOM     13  C   UNL     1      30.192  60.008  13.941  1.00  0.00     0.140 C 
ATOM     14  O   UNL     1      29.239  60.563  14.474  1.00  0.00    -0.299 OA
BRANCH  13  15
ATOM     15  C   UNL     1      31.396  60.843  13.538  1.00  0.00     0.106 CG0
ATOM     16  G   UNL     1      30.978  62.011  12.659  1.00  0.00     0.000 G0
ENDBRANCH  13  15
ENDBRANCH  12  13
BRANCH  12  17
ATOM     17  C   UNL     1      30.228  57.684  15.049  1.00  0.00    -0.006 C 
ATOM     18  C   UNL     1      31.279  56.559  15.017  1.00  0.00     0.008 C 
ATOM     19  C   UNL     1      28.863  57.056  15.395  1.00  0.00     0.008 C 
ENDBRANCH  12  17
ENDBRANCH  11  12
ENDBRANCH   1  11
TORSDOF 1
ENDMDL
MODEL 3
REMARK VINA RESULT:    -1.153      1.543      2.153
REMARK INTER + INTRA:          -1.937
REMARK INTER:                  -1.782
REMARK INTRA:                  -0.156
REMARK UNBOUND:                -0.177
REMARK SMILES CC1=CCC[C@H](C)C(=O)C[C@@H](C(C)C)C(=O)C1
REMARK SMILES IDX 8 1 9 2 6 3 7 4 5 5 4 6 3 7 2 8 1 9 10 11 11 12 15 13 16 14
REMARK SMILES IDX 17 15 12 17 13 18 14 19
REMARK H PARENT
REMARK Flexibility Score: 70.00
ROOT
ATOM      1  C   UNL     1      29.376  58.435  10.980  1.00  0.00     0.136 C 
ATOM      2  O   UNL     1      29.388  58.336   9.761  1.00  0.00    -0.299 OA
ENDROOT
BRANCH   1   3
ATOM      3  C   UNL     1      29.301  57.165  11.838  1.00  0.00     0.053 C 
ATOM      4  C   UNL     1      30.548  56.282  11.664  1.00  0.00     0.016 C 
BRANCH   3   5
ATOM      5  C   UNL     1      29.082  57.478  13.346  1.00  0.00     0.015 C 
BRANCH   5   6
ATOM      6  C   UNL     1      30.347  57.520  14.230  1.00  0.00     0.028 C 
BRANCH   6   7
ATOM      7  C   UNL     1      30.365  58.419  15.452  1.00  0.00    -0.028 C 
ATOM      8  C   UNL     1      30.224  59.768  15.499  1.00  0.00    -0.070 CG0
ATOM      9  C   UNL     1      30.494  60.449  16.820  1.00  0.00     0.039 C 
ATOM     10  G   UNL     1      29.676  60.621  14.365  1.00  0.00     0.000 G0
ENDBRANCH   6   7
ENDBRANCH   5   6
ENDBRANCH   3   5
ENDBRANCH   1   3
BRANCH   1  11
ATOM     11  C   UNL     1      29.347  59.838  11.573  1.00  0.00     0.087 C 
BRANCH  11  12
ATOM     12  C   UNL     1      30.739  60.446  11.898  1.00  0.00     0.066 C 
BRANCH  12  13
ATOM     13  C   UNL     1      30.784  60.961  13.335  1.00  0.00     0.140 C 
ATOM     14  O   UNL     1      31.722  61.663  13.691  1.00  0.00    -0.299 OA
BRANCH  13  15
ATOM     15  C   UNL     1      29.690  60.634  14.338  1.00  0.00     0.106 CG0
ATOM     16  G   UNL     1      30.231  59.777  15.473  1.00  0.00     0.000 G0
ENDBRANCH  13  15
ENDBRANCH  12  13
BRANCH  12  17
ATOM     17  C   UNL     1      31.216  61.525  10.860  1.00  0.00    -0.006 C 
ATOM     18  C   UNL     1      30.056  62.287  10.193  1.00  0.00     0.008 C 
ATOM     19  C   UNL     1      32.068  60.879   9.750  1.00  0.00     0.008 C 
ENDBRANCH  12  17
ENDBRANCH  11  12
ENDBRANCH   1  11
TORSDOF 1
ENDMDL
MODEL 4
REMARK VINA RESULT:    -1.061      2.472      3.669
REMARK INTER + INTRA:          -1.796
REMARK INTER:                  -1.593
REMARK INTRA:                  -0.203
REMARK UNBOUND:                -0.177
REMARK SMILES CC1=CCC[C@H](C)C(=O)C[C@@H](C(C)C)C(=O)C1
REMARK SMILES IDX 8 1 9 2 6 3 7 4 5 5 4 6 3 7 2 8 1 9 10 11 11 12 15 13 16 14
REMARK SMILES IDX 17 15 12 17 13 18 14 19
REMARK H PARENT
REMARK Flexibility Score: 70.00
ROOT
ATOM      1  C   UNL     1      27.678  60.201  10.431  1.00  0.00     0.136 C 
ATOM      2  O   UNL     1      27.006  60.571  11.384  1.00  0.00    -0.299 OA
ENDROOT
BRANCH   1   3
ATOM      3  C   UNL     1      27.107  59.146   9.473  1.00  0.00     0.053 C 
ATOM      4  C   UNL     1      27.276  59.559   8.001  1.00  0.00     0.016 C 
BRANCH   3   5
ATOM      5  C   UNL     1      27.728  57.737   9.700  1.00  0.00     0.015 C 
BRANCH   5   6
ATOM      6  C   UNL     1      27.514  57.110  11.094  1.00  0.00     0.028 C 
BRANCH   6   7
ATOM      7  C   UNL     1      28.714  56.577  11.855  1.00  0.00    -0.028 C 
ATOM      8  C   UNL     1      29.634  57.280  12.563  1.00  0.00    -0.070 CG0
ATOM      9  C   UNL     1      30.854  56.535  13.049  1.00  0.00     0.039 C 
ATOM     10  G   UNL     1      29.457  58.719  13.024  1.00  0.00     0.000 G0
ENDBRANCH   6   7
ENDBRANCH   5   6
ENDBRANCH   3   5
ENDBRANCH   1   3
BRANCH   1  11
ATOM     11  C   UNL     1      29.091  60.754  10.307  1.00  0.00     0.087 C 
BRANCH  11  12
ATOM     12  C   UNL     1      30.222  59.774  10.724  1.00  0.00     0.066 C 
BRANCH  12  13
ATOM     13  C   UNL     1      30.326  59.681  12.245  1.00  0.00     0.140 C 
ATOM     14  O   UNL     1      31.117  60.404  12.838  1.00  0.00    -0.299 OA
BRANCH  13  15
ATOM     15  C   UNL     1      29.467  58.720  13.049  1.00  0.00     0.106 CG0
ATOM     16  G   UNL     1      29.645  57.291  12.561  1.00  0.00     0.000 G0
ENDBRANCH  13  15
ENDBRANCH  12  13
BRANCH  12  17
ATOM     17  C   UNL     1      31.606  60.081  10.047  1.00  0.00    -0.006 C 
ATOM     18  C   UNL     1      31.737  61.534   9.553  1.00  0.00     0.008 C 
ATOM     19  C   UNL     1      31.850  59.143   8.848  1.00  0.00     0.008 C 
ENDBRANCH  12  17
ENDBRANCH  11  12
ENDBRANCH   1  11
TORSDOF 1
ENDMDL
MODEL 5
REMARK VINA RESULT:    -1.055      3.167      5.109
REMARK INTER + INTRA:          -1.787
REMARK INTER:                  -1.750
REMARK INTRA:                  -0.037
REMARK UNBOUND:                -0.177
REMARK SMILES CC1=CCC[C@H](C)C(=O)C[C@@H](C(C)C)C(=O)C1
REMARK SMILES IDX 8 1 9 2 6 3 7 4 5 5 4 6 3 7 2 8 1 9 10 11 11 12 15 13 16 14
REMARK SMILES IDX 17 15 12 17 13 18 14 19
REMARK H PARENT
REMARK Flexibility Score: 70.00
ROOT
ATOM      1  C   UNL     1      31.022  59.504  11.862  1.00  0.00     0.136 C 
ATOM      2  O   UNL     1      31.038  59.416  13.082  1.00  0.00    -0.299 OA
ENDROOT
BRANCH   1   3
ATOM      3  C   UNL     1      30.583  60.821  11.208  1.00  0.00     0.053 C 
ATOM      4  C   UNL     1      31.775  61.587  10.608  1.00  0.00     0.016 C 
BRANCH   3   5
ATOM      5  C   UNL     1      29.490  60.610  10.120  1.00  0.00     0.015 C 
BRANCH   5   6
ATOM      6  C   UNL     1      28.026  60.607  10.609  1.00  0.00     0.028 C 
BRANCH   6   7
ATOM      7  C   UNL     1      27.691  59.942  11.931  1.00  0.00    -0.028 C 
ATOM      8  C   UNL     1      27.403  58.635  12.160  1.00  0.00    -0.070 CG0
ATOM      9  C   UNL     1      26.894  58.267  13.533  1.00  0.00     0.039 C 
ATOM     10  G   UNL     1      27.693  57.502  11.188  1.00  0.00     0.000 G0
ENDBRANCH   6   7
ENDBRANCH   5   6
ENDBRANCH   3   5
ENDBRANCH   1   3
BRANCH   1  11
ATOM     11  C   UNL     1      31.360  58.253  11.060  1.00  0.00     0.087 C 
BRANCH  11  12
ATOM     12  C   UNL     1      30.176  57.640  10.265  1.00  0.00     0.066 C 
BRANCH  12  13
ATOM     13  C   UNL     1      29.137  57.042  11.212  1.00  0.00     0.140 C 
ATOM     14  O   UNL     1      29.482  56.189  12.020  1.00  0.00    -0.299 OA
BRANCH  13  15
ATOM     15  C   UNL     1      27.683  57.484  11.187  1.00  0.00     0.106 CG0
ATOM     16  G   UNL     1      27.443  58.623  12.165  1.00  0.00     0.000 G0
ENDBRANCH  13  15
ENDBRANCH  12  13
BRANCH  12  17
ATOM     17  C   UNL     1      30.620  56.627   9.149  1.00  0.00    -0.006 C 
ATOM     18  C   UNL     1      31.671  57.204   8.182  1.00  0.00     0.008 C 
ATOM     19  C   UNL     1      29.408  56.159   8.319  1.00  0.00     0.008 C 
ENDBRANCH  12  17
ENDBRANCH  11  12
ENDBRANCH   1  11
TORSDOF 1
ENDMDL
MODEL 6
REMARK VINA RESULT:    -0.920      2.893      4.837
REMARK INTER + INTRA:          -1.582
REMARK INTER:                  -1.789
REMARK INTRA:                   0.207
REMARK UNBOUND:                -0.177
REMARK SMILES CC1=CCC[C@H](C)C(=O)C[C@@H](C(C)C)C(=O)C1
REMARK SMILES IDX 8 1 9 2 6 3 7 4 5 5 4 6 3 7 2 8 1 9 10 11 11 12 15 13 16 14
REMARK SMILES IDX 17 15 12 17 13 18 14 19
REMARK H PARENT
REMARK Flexibility Score: 70.00
ROOT
ATOM      1  C   UNL     1      29.733  57.729  13.143  1.00  0.00     0.136 C 
ATOM      2  O   UNL     1      28.882  56.905  13.445  1.00  0.00    -0.299 OA
ENDROOT
BRANCH   1   3
ATOM      3  C   UNL     1      31.150  57.255  12.793  1.00  0.00     0.053 C 
ATOM      4  C   UNL     1      31.577  56.046  13.643  1.00  0.00     0.016 C 
BRANCH   3   5
ATOM      5  C   UNL     1      31.308  56.919  11.281  1.00  0.00     0.015 C 
BRANCH   5   6
ATOM      6  C   UNL     1      31.204  58.104  10.299  1.00  0.00     0.028 C 
BRANCH   6   7
ATOM      7  C   UNL     1      30.084  58.118   9.275  1.00  0.00    -0.028 C 
ATOM      8  C   UNL     1      28.880  58.739   9.361  1.00  0.00    -0.070 CG0
ATOM      9  C   UNL     1      27.857  58.421   8.297  1.00  0.00     0.039 C 
ATOM     10  G   UNL     1      28.541  59.835  10.360  1.00  0.00     0.000 G0
ENDBRANCH   6   7
ENDBRANCH   5   6
ENDBRANCH   3   5
ENDBRANCH   1   3
BRANCH   1  11
ATOM     11  C   UNL     1      29.349  59.201  13.222  1.00  0.00     0.087 C 
BRANCH  11  12
ATOM     12  C   UNL     1      27.859  59.511  12.914  1.00  0.00     0.066 C 
BRANCH  12  13
ATOM     13  C   UNL     1      27.572  59.367  11.420  1.00  0.00     0.140 C 
ATOM     14  O   UNL     1      26.521  58.854  11.058  1.00  0.00    -0.299 OA
BRANCH  13  15
ATOM     15  C   UNL     1      28.553  59.852  10.366  1.00  0.00     0.106 CG0
ATOM     16  G   UNL     1      28.881  58.744   9.377  1.00  0.00     0.000 G0
ENDBRANCH  13  15
ENDBRANCH  12  13
BRANCH  12  17
ATOM     17  C   UNL     1      27.368  60.889  13.486  1.00  0.00    -0.006 C 
ATOM     18  C   UNL     1      28.479  61.954  13.556  1.00  0.00     0.008 C 
ATOM     19  C   UNL     1      26.779  60.717  14.901  1.00  0.00     0.008 C 
ENDBRANCH  12  17
ENDBRANCH  11  12
ENDBRANCH   1  11
TORSDOF 1
ENDMDL
MODEL 7
REMARK VINA RESULT:    -0.910      2.936      5.698
REMARK INTER + INTRA:          -1.566
REMARK INTER:                  -1.622
REMARK INTRA:                   0.056
REMARK UNBOUND:                -0.177
REMARK SMILES CC1=CCC[C@H](C)C(=O)C[C@@H](C(C)C)C(=O)C1
REMARK SMILES IDX 8 1 9 2 6 3 7 4 5 5 4 6 3 7 2 8 1 9 10 11 11 12 15 13 16 14
REMARK SMILES IDX 17 15 12 17 13 18 14 19
REMARK H PARENT
REMARK Flexibility Score: 70.00
ROOT
ATOM      1  C   UNL     1      28.212  60.133  12.012  1.00  0.00     0.136 C 
ATOM      2  O   UNL     1      27.493  60.693  11.196  1.00  0.00    -0.299 OA
ENDROOT
BRANCH   1   3
ATOM      3  C   UNL     1      29.008  60.976  13.017  1.00  0.00     0.053 C 
ATOM      4  C   UNL     1      28.591  60.685  14.468  1.00  0.00     0.016 C 
BRANCH   3   5
ATOM      5  C   UNL     1      30.546  60.790  12.863  1.00  0.00     0.015 C 
BRANCH   5   6
ATOM      6  C   UNL     1      31.245  61.688  11.820  1.00  0.00     0.028 C 
BRANCH   6   7
ATOM      7  C   UNL     1      30.756  61.670  10.384  1.00  0.00    -0.028 C 
ATOM      8  C   UNL     1      30.922  60.693   9.456  1.00  0.00    -0.070 CG0
ATOM      9  C   UNL     1      30.524  61.010   8.035  1.00  0.00     0.039 C 
ATOM     10  G   UNL     1      31.340  59.265   9.769  1.00  0.00     0.000 G0
ENDBRANCH   6   7
ENDBRANCH   5   6
ENDBRANCH   3   5
ENDBRANCH   1   3
BRANCH   1  11
ATOM     11  C   UNL     1      28.338  58.618  11.920  1.00  0.00     0.087 C 
BRANCH  11  12
ATOM     12  C   UNL     1      29.761  58.094  11.587  1.00  0.00     0.066 C 
BRANCH  12  13
ATOM     13  C   UNL     1      30.126  58.399  10.135  1.00  0.00     0.140 C 
ATOM     14  O   UNL     1      29.425  57.957   9.234  1.00  0.00    -0.299 OA
BRANCH  13  15
ATOM     15  C   UNL     1      31.335  59.248   9.775  1.00  0.00     0.106 CG0
ATOM     16  G   UNL     1      30.922  60.677   9.459  1.00  0.00     0.000 G0
ENDBRANCH  13  15
ENDBRANCH  12  13
BRANCH  12  17
ATOM     17  C   UNL     1      29.980  56.582  11.953  1.00  0.00    -0.006 C 
ATOM     18  C   UNL     1      28.752  55.928  12.614  1.00  0.00     0.008 C 
ATOM     19  C   UNL     1      31.182  56.416  12.904  1.00  0.00     0.008 C 
ENDBRANCH  12  17
ENDBRANCH  11  12
ENDBRANCH   1  11
TORSDOF 1
ENDMDL
MODEL 8
REMARK VINA RESULT:    -0.837      2.463      5.290
REMARK INTER + INTRA:          -1.454
REMARK INTER:                  -1.156
REMARK INTRA:                  -0.298
REMARK UNBOUND:                -0.177
REMARK SMILES CC1=CCC[C@H](C)C(=O)C[C@@H](C(C)C)C(=O)C1
REMARK SMILES IDX 8 1 9 2 6 3 7 4 5 5 4 6 3 7 2 8 1 9 10 11 11 12 15 13 16 14
REMARK SMILES IDX 17 15 12 17 13 18 14 19
REMARK H PARENT
REMARK Flexibility Score: 70.00
ROOT
ATOM      1  C   UNL     1      27.774  59.932  14.430  1.00  0.00     0.136 C 
ATOM      2  O   UNL     1      27.406  60.455  15.472  1.00  0.00    -0.299 OA
ENDROOT
BRANCH   1   3
ATOM      3  C   UNL     1      27.198  60.426  13.096  1.00  0.00     0.053 C 
ATOM      4  C   UNL     1      25.708  60.792  13.215  1.00  0.00     0.016 C 
BRANCH   3   5
ATOM      5  C   UNL     1      27.992  61.631  12.514  1.00  0.00     0.015 C 
BRANCH   5   6
ATOM      6  C   UNL     1      28.940  61.325  11.335  1.00  0.00     0.028 C 
BRANCH   6   7
ATOM      7  C   UNL     1      28.632  60.148  10.428  1.00  0.00    -0.028 C 
ATOM      8  C   UNL     1      29.378  59.032  10.225  1.00  0.00    -0.070 CG0
ATOM      9  C   UNL     1      28.955  58.108   9.108  1.00  0.00     0.039 C 
ATOM     10  G   UNL     1      30.512  58.573  11.128  1.00  0.00     0.000 G0
ENDBRANCH   6   7
ENDBRANCH   5   6
ENDBRANCH   3   5
ENDBRANCH   1   3
BRANCH   1  11
ATOM     11  C   UNL     1      28.728  58.749  14.532  1.00  0.00     0.087 C 
BRANCH  11  12
ATOM     12  C   UNL     1      30.046  58.893  13.724  1.00  0.00     0.066 C 
BRANCH  12  13
ATOM     13  C   UNL     1      30.004  58.037  12.459  1.00  0.00     0.140 C 
ATOM     14  O   UNL     1      29.538  56.907  12.515  1.00  0.00    -0.299 OA
BRANCH  13  15
ATOM     15  C   UNL     1      30.517  58.554  11.126  1.00  0.00     0.106 CG0
ATOM     16  G   UNL     1      29.370  59.030  10.248  1.00  0.00     0.000 G0
ENDBRANCH  13  15
ENDBRANCH  12  13
BRANCH  12  17
ATOM     17  C   UNL     1      31.341  58.638  14.576  1.00  0.00    -0.006 C 
ATOM     18  C   UNL     1      31.229  57.418  15.509  1.00  0.00     0.008 C 
ATOM     19  C   UNL     1      31.684  59.871  15.436  1.00  0.00     0.008 C 
ENDBRANCH  12  17
ENDBRANCH  11  12
ENDBRANCH   1  11
TORSDOF 1
ENDMDL
MODEL 9
REMARK VINA RESULT:    -0.825      1.646      2.036
REMARK INTER + INTRA:          -1.436
REMARK INTER:                  -1.396
REMARK INTRA:                  -0.041
REMARK UNBOUND:                -0.177
REMARK SMILES CC1=CCC[C@H](C)C(=O)C[C@@H](C(C)C)C(=O)C1
REMARK SMILES IDX 8 1 9 2 6 3 7 4 5 5 4 6 3 7 2 8 1 9 10 11 11 12 15 13 16 14
REMARK SMILES IDX 17 15 12 17 13 18 14 19
REMARK H PARENT
REMARK Flexibility Score: 70.00
ROOT
ATOM      1  C   UNL     1      28.770  58.339  12.837  1.00  0.00     0.136 C 
ATOM      2  O   UNL     1      29.245  59.064  11.974  1.00  0.00    -0.299 OA
ENDROOT
BRANCH   1   3
ATOM      3  C   UNL     1      28.572  56.846  12.542  1.00  0.00     0.053 C 
ATOM      4  C   UNL     1      27.740  56.620  11.267  1.00  0.00     0.016 C 
BRANCH   3   5
ATOM      5  C   UNL     1      29.920  56.076  12.435  1.00  0.00     0.015 C 
BRANCH   5   6
ATOM      6  C   UNL     1      31.111  56.664  13.222  1.00  0.00     0.028 C 
BRANCH   6   7
ATOM      7  C   UNL     1      31.455  56.085  14.582  1.00  0.00    -0.028 C 
ATOM      8  C   UNL     1      30.992  56.474  15.798  1.00  0.00    -0.070 CG0
ATOM      9  C   UNL     1      31.654  55.876  17.016  1.00  0.00     0.039 C 
ATOM     10  G   UNL     1      29.769  57.351  16.018  1.00  0.00     0.000 G0
ENDBRANCH   6   7
ENDBRANCH   5   6
ENDBRANCH   3   5
ENDBRANCH   1   3
BRANCH   1  11
ATOM     11  C   UNL     1      28.320  58.992  14.138  1.00  0.00     0.087 C 
BRANCH  11  12
ATOM     12  C   UNL     1      29.432  59.746  14.917  1.00  0.00     0.066 C 
BRANCH  12  13
ATOM     13  C   UNL     1      30.097  58.828  15.940  1.00  0.00     0.140 C 
ATOM     14  O   UNL     1      30.924  59.291  16.714  1.00  0.00    -0.299 OA
BRANCH  13  15
ATOM     15  C   UNL     1      29.753  57.350  16.032  1.00  0.00     0.106 CG0
ATOM     16  G   UNL     1      30.987  56.489  15.810  1.00  0.00     0.000 G0
ENDBRANCH  13  15
ENDBRANCH  12  13
BRANCH  12  17
ATOM     17  C   UNL     1      28.952  61.101  15.552  1.00  0.00    -0.006 C 
ATOM     18  C   UNL     1      27.442  61.134  15.854  1.00  0.00     0.008 C 
ATOM     19  C   UNL     1      29.282  62.288  14.626  1.00  0.00     0.008 C 
ENDBRANCH  12  17
ENDBRANCH  11  12
ENDBRANCH   1  11
TORSDOF 1
ENDMDL
