MODEL 1
REMARK VINA RESULT:    -4.428      0.000      0.000
REMARK INTER + INTRA:          -6.220
REMARK INTER:                  -5.722
REMARK INTRA:                  -0.498
REMARK UNBOUND:                -0.498
REMARK SMILES C=CC(=O)CCCCC
REMARK SMILES IDX 6 1 7 2 8 3 9 4 5 5 3 6 4 7 2 8 1 9
REMARK H PARENT
REMARK Flexibility Score: inf
ROOT
ATOM      1  C   UNL     1      -7.458  33.075  20.684  1.00  0.00     0.008 C 
ENDROOT
BRANCH   1   2
ATOM      2  C   UNL     1      -7.469  34.564  21.054  1.00  0.00     0.000 C 
BRANCH   2   3
ATOM      3  C   UNL     1      -8.239  34.801  22.358  1.00  0.00    -0.003 C 
ATOM      4  C   UNL     1      -7.287  34.949  23.541  1.00  0.00     0.004 C 
ENDBRANCH   2   3
ENDBRANCH   1   2
BRANCH   1   5
ATOM      5  C   UNL     1      -8.723  32.347  21.162  1.00  0.00     0.080 C 
BRANCH   5   6
ATOM      6  C   UNL     1      -8.394  31.091  21.917  1.00  0.00     0.155 C 
ATOM      7  O   UNL     1      -8.761  29.978  21.451  1.00  0.00    -0.295 OA
BRANCH   6   8
ATOM      8  C   UNL     1      -7.679  31.165  23.206  1.00  0.00     0.039 C 
ATOM      9  C   UNL     1      -6.455  30.665  23.374  1.00  0.00     0.012 C 
ENDBRANCH   6   8
ENDBRANCH   5   6
ENDBRANCH   1   5
TORSDOF 5
ENDMDL
MODEL 2
REMARK VINA RESULT:    -4.396     15.670     17.038
REMARK INTER + INTRA:          -6.180
REMARK INTER:                  -5.723
REMARK INTRA:                  -0.457
REMARK UNBOUND:                -0.498
REMARK SMILES C=CC(=O)CCCCC
REMARK SMILES IDX 6 1 7 2 8 3 9 4 5 5 3 6 4 7 2 8 1 9
REMARK H PARENT
REMARK Flexibility Score: inf
ROOT
ATOM      1  C   UNL     1       8.059  34.051  28.126  1.00  0.00     0.008 C 
ENDROOT
BRANCH   1   2
ATOM      2  C   UNL     1       9.343  34.125  28.964  1.00  0.00     0.000 C 
BRANCH   2   3
ATOM      3  C   UNL     1      10.125  32.809  28.887  1.00  0.00    -0.003 C 
ATOM      4  C   UNL     1      10.125  32.249  27.467  1.00  0.00     0.004 C 
ENDBRANCH   2   3
ENDBRANCH   1   2
BRANCH   1   5
ATOM      5  C   UNL     1       6.958  33.234  28.818  1.00  0.00     0.080 C 
BRANCH   5   6
ATOM      6  C   UNL     1       6.452  32.123  27.943  1.00  0.00     0.155 C 
ATOM      7  O   UNL     1       6.062  32.390  26.773  1.00  0.00    -0.295 OA
BRANCH   6   8
ATOM      8  C   UNL     1       6.382  30.742  28.461  1.00  0.00     0.039 C 
ATOM      9  C   UNL     1       7.410  29.899  28.388  1.00  0.00     0.012 C 
ENDBRANCH   6   8
ENDBRANCH   5   6
ENDBRANCH   1   5
TORSDOF 5
ENDMDL
MODEL 3
REMARK VINA RESULT:    -4.384     15.689     17.107
REMARK INTER + INTRA:          -6.164
REMARK INTER:                  -5.758
REMARK INTRA:                  -0.406
REMARK UNBOUND:                -0.498
REMARK SMILES C=CC(=O)CCCCC
REMARK SMILES IDX 6 1 7 2 8 3 9 4 5 5 3 6 4 7 2 8 1 9
REMARK H PARENT
REMARK Flexibility Score: inf
ROOT
ATOM      1  C   UNL     1       9.193  31.354  28.314  1.00  0.00     0.008 C 
ENDROOT
BRANCH   1   2
ATOM      2  C   UNL     1       9.911  32.477  29.075  1.00  0.00     0.000 C 
BRANCH   2   3
ATOM      3  C   UNL     1       9.974  33.757  28.235  1.00  0.00    -0.003 C 
ATOM      4  C   UNL     1       8.625  34.469  28.213  1.00  0.00     0.004 C 
ENDBRANCH   2   3
ENDBRANCH   1   2
BRANCH   1   5
ATOM      5  C   UNL     1       8.041  30.745  29.125  1.00  0.00     0.080 C 
BRANCH   5   6
ATOM      6  C   UNL     1       6.840  30.465  28.268  1.00  0.00     0.155 C 
ATOM      7  O   UNL     1       6.536  29.269  28.005  1.00  0.00    -0.295 OA
BRANCH   6   8
ATOM      8  C   UNL     1       6.046  31.580  27.715  1.00  0.00     0.039 C 
ATOM      9  C   UNL     1       5.643  32.608  28.459  1.00  0.00     0.012 C 
ENDBRANCH   6   8
ENDBRANCH   5   6
ENDBRANCH   1   5
TORSDOF 5
ENDMDL
MODEL 4
REMARK VINA RESULT:    -4.304      1.793      4.094
REMARK INTER + INTRA:          -6.060
REMARK INTER:                  -5.755
REMARK INTRA:                  -0.305
REMARK UNBOUND:                -0.498
REMARK SMILES C=CC(=O)CCCCC
REMARK SMILES IDX 6 1 7 2 8 3 9 4 5 5 3 6 4 7 2 8 1 9
REMARK H PARENT
REMARK Flexibility Score: inf
ROOT
ATOM      1  C   UNL     1      -8.223  31.695  21.685  1.00  0.00     0.008 C 
ENDROOT
BRANCH   1   2
ATOM      2  C   UNL     1      -7.754  31.434  23.123  1.00  0.00     0.000 C 
BRANCH   2   3
ATOM      3  C   UNL     1      -7.213  30.007  23.273  1.00  0.00    -0.003 C 
ATOM      4  C   UNL     1      -8.222  28.979  22.770  1.00  0.00     0.004 C 
ENDBRANCH   2   3
ENDBRANCH   1   2
BRANCH   1   5
ATOM      5  C   UNL     1      -8.828  33.096  21.516  1.00  0.00     0.080 C 
BRANCH   5   6
ATOM      6  C   UNL     1      -7.784  34.120  21.175  1.00  0.00     0.155 C 
ATOM      7  O   UNL     1      -7.050  33.939  20.164  1.00  0.00    -0.295 OA
BRANCH   6   8
ATOM      8  C   UNL     1      -7.599  35.307  22.033  1.00  0.00     0.039 C 
ATOM      9  C   UNL     1      -7.424  35.216  23.350  1.00  0.00     0.012 C 
ENDBRANCH   6   8
ENDBRANCH   5   6
ENDBRANCH   1   5
TORSDOF 5
ENDMDL
MODEL 5
REMARK VINA RESULT:    -4.292      2.211      3.830
REMARK INTER + INTRA:          -6.046
REMARK INTER:                  -5.489
REMARK INTRA:                  -0.557
REMARK UNBOUND:                -0.498
REMARK SMILES C=CC(=O)CCCCC
REMARK SMILES IDX 6 1 7 2 8 3 9 4 5 5 3 6 4 7 2 8 1 9
REMARK H PARENT
REMARK Flexibility Score: inf
ROOT
ATOM      1  C   UNL     1      -7.510  32.311  21.522  1.00  0.00     0.008 C 
ENDROOT
BRANCH   1   2
ATOM      2  C   UNL     1      -8.438  31.126  21.824  1.00  0.00     0.000 C 
BRANCH   2   3
ATOM      3  C   UNL     1      -7.958  30.354  23.058  1.00  0.00    -0.003 C 
ATOM      4  C   UNL     1      -6.505  30.685  23.385  1.00  0.00     0.004 C 
ENDBRANCH   2   3
ENDBRANCH   1   2
BRANCH   1   5
ATOM      5  C   UNL     1      -8.275  33.638  21.417  1.00  0.00     0.080 C 
BRANCH   5   6
ATOM      6  C   UNL     1      -7.750  34.665  22.380  1.00  0.00     0.155 C 
ATOM      7  O   UNL     1      -7.509  35.831  21.965  1.00  0.00    -0.295 OA
BRANCH   6   8
ATOM      8  C   UNL     1      -7.491  34.300  23.787  1.00  0.00     0.039 C 
ATOM      9  C   UNL     1      -8.467  33.977  24.632  1.00  0.00     0.012 C 
ENDBRANCH   6   8
ENDBRANCH   5   6
ENDBRANCH   1   5
TORSDOF 5
ENDMDL
MODEL 6
REMARK VINA RESULT:    -4.177      1.588      3.575
REMARK INTER + INTRA:          -5.896
REMARK INTER:                  -5.363
REMARK INTRA:                  -0.533
REMARK UNBOUND:                -0.498
REMARK SMILES C=CC(=O)CCCCC
REMARK SMILES IDX 6 1 7 2 8 3 9 4 5 5 3 6 4 7 2 8 1 9
REMARK H PARENT
REMARK Flexibility Score: inf
ROOT
ATOM      1  C   UNL     1      -7.804  31.327  21.939  1.00  0.00     0.008 C 
ENDROOT
BRANCH   1   2
ATOM      2  C   UNL     1      -6.770  31.202  23.067  1.00  0.00     0.000 C 
BRANCH   2   3
ATOM      3  C   UNL     1      -7.429  30.724  24.365  1.00  0.00    -0.003 C 
ATOM      4  C   UNL     1      -8.460  31.732  24.864  1.00  0.00     0.004 C 
ENDBRANCH   2   3
ENDBRANCH   1   2
BRANCH   1   5
ATOM      5  C   UNL     1      -7.666  32.645  21.165  1.00  0.00     0.080 C 
BRANCH   5   6
ATOM      6  C   UNL     1      -8.472  33.748  21.790  1.00  0.00     0.155 C 
ATOM      7  O   UNL     1      -9.718  33.602  21.921  1.00  0.00    -0.295 OA
BRANCH   6   8
ATOM      8  C   UNL     1      -7.815  35.000  22.214  1.00  0.00     0.039 C 
ATOM      9  C   UNL     1      -7.385  35.194  23.460  1.00  0.00     0.012 C 
ENDBRANCH   6   8
ENDBRANCH   5   6
ENDBRANCH   1   5
TORSDOF 5
ENDMDL
MODEL 7
REMARK VINA RESULT:    -4.174     15.991     17.382
REMARK INTER + INTRA:          -5.893
REMARK INTER:                  -5.561
REMARK INTRA:                  -0.331
REMARK UNBOUND:                -0.498
REMARK SMILES C=CC(=O)CCCCC
REMARK SMILES IDX 6 1 7 2 8 3 9 4 5 5 3 6 4 7 2 8 1 9
REMARK H PARENT
REMARK Flexibility Score: inf
ROOT
ATOM      1  C   UNL     1       6.575  31.934  27.762  1.00  0.00     0.008 C 
ENDROOT
BRANCH   1   2
ATOM      2  C   UNL     1       6.201  30.689  28.579  1.00  0.00     0.000 C 
BRANCH   2   3
ATOM      3  C   UNL     1       6.842  29.430  27.985  1.00  0.00    -0.003 C 
ATOM      4  C   UNL     1       7.924  28.875  28.908  1.00  0.00     0.004 C 
ENDBRANCH   2   3
ENDBRANCH   1   2
BRANCH   1   5
ATOM      5  C   UNL     1       6.826  33.160  28.651  1.00  0.00     0.080 C 
BRANCH   5   6
ATOM      6  C   UNL     1       8.292  33.427  28.836  1.00  0.00     0.155 C 
ATOM      7  O   UNL     1       8.678  34.604  29.079  1.00  0.00    -0.295 OA
BRANCH   6   8
ATOM      8  C   UNL     1       9.270  32.330  28.704  1.00  0.00     0.039 C 
ATOM      9  C   UNL     1      10.087  32.223  27.657  1.00  0.00     0.012 C 
ENDBRANCH   6   8
ENDBRANCH   5   6
ENDBRANCH   1   5
TORSDOF 5
ENDMDL
MODEL 8
REMARK VINA RESULT:    -4.118      1.631      3.801
REMARK INTER + INTRA:          -5.820
REMARK INTER:                  -5.342
REMARK INTRA:                  -0.479
REMARK UNBOUND:                -0.498
REMARK SMILES C=CC(=O)CCCCC
REMARK SMILES IDX 6 1 7 2 8 3 9 4 5 5 3 6 4 7 2 8 1 9
REMARK H PARENT
REMARK Flexibility Score: inf
ROOT
ATOM      1  C   UNL     1      -8.339  32.398  24.176  1.00  0.00     0.008 C 
ENDROOT
BRANCH   1   2
ATOM      2  C   UNL     1      -8.785  30.932  24.271  1.00  0.00     0.000 C 
BRANCH   2   3
ATOM      3  C   UNL     1      -7.775  30.006  23.585  1.00  0.00    -0.003 C 
ATOM      4  C   UNL     1      -6.440  30.712  23.365  1.00  0.00     0.004 C 
ENDBRANCH   2   3
ENDBRANCH   1   2
BRANCH   1   5
ATOM      5  C   UNL     1      -9.346  33.265  23.408  1.00  0.00     0.080 C 
BRANCH   5   6
ATOM      6  C   UNL     1      -9.139  33.181  21.923  1.00  0.00     0.155 C 
ATOM      7  O   UNL     1      -9.844  32.384  21.246  1.00  0.00    -0.295 OA
BRANCH   6   8
ATOM      8  C   UNL     1      -8.098  34.001  21.270  1.00  0.00     0.039 C 
ATOM      9  C   UNL     1      -7.257  33.500  20.367  1.00  0.00     0.012 C 
ENDBRANCH   6   8
ENDBRANCH   5   6
ENDBRANCH   1   5
TORSDOF 5
ENDMDL
MODEL 9
REMARK VINA RESULT:    -4.067      1.927      2.724
REMARK INTER + INTRA:          -5.754
REMARK INTER:                  -5.400
REMARK INTRA:                  -0.354
REMARK UNBOUND:                -0.498
REMARK SMILES C=CC(=O)CCCCC
REMARK SMILES IDX 6 1 7 2 8 3 9 4 5 5 3 6 4 7 2 8 1 9
REMARK H PARENT
REMARK Flexibility Score: inf
ROOT
ATOM      1  C   UNL     1      -8.862  32.892  23.191  1.00  0.00     0.008 C 
ENDROOT
BRANCH   1   2
ATOM      2  C   UNL     1      -8.924  33.565  21.813  1.00  0.00     0.000 C 
BRANCH   2   3
ATOM      3  C   UNL     1      -7.888  32.959  20.859  1.00  0.00    -0.003 C 
ATOM      4  C   UNL     1      -7.127  34.047  20.108  1.00  0.00     0.004 C 
ENDBRANCH   2   3
ENDBRANCH   1   2
BRANCH   1   5
ATOM      5  C   UNL     1      -7.518  32.192  23.438  1.00  0.00     0.080 C 
BRANCH   5   6
ATOM      6  C   UNL     1      -7.701  30.795  23.956  1.00  0.00     0.155 C 
ATOM      7  O   UNL     1      -8.015  30.622  25.166  1.00  0.00    -0.295 OA
BRANCH   6   8
ATOM      8  C   UNL     1      -7.483  29.638  23.065  1.00  0.00     0.039 C 
ATOM      9  C   UNL     1      -8.483  28.875  22.628  1.00  0.00     0.012 C 
ENDBRANCH   6   8
ENDBRANCH   5   6
ENDBRANCH   1   5
TORSDOF 5
ENDMDL
