MODEL 1
REMARK VINA RESULT:    -4.899      0.000      0.000
REMARK INTER + INTRA:          -6.198
REMARK INTER:                  -5.901
REMARK INTRA:                  -0.297
REMARK UNBOUND:                -0.297
REMARK SMILES O=c1c(O)c(-c2ccc(O)c(O)c2)oc2cc(O)cc(O)c12
REMARK SMILES IDX 5 1 3 2 2 3 1 4 22 5 20 6 19 7 17 8 16 9 15 10 14 11 6 12
REMARK SMILES IDX 7 13 8 14 9 15 13 16 11 17 10 18 12 20 4 22 21 24 18 26
REMARK H PARENT 10 19 12 21 4 23 21 25 18 27
REMARK Flexibility Score: inf
ROOT
ATOM      1  C   UNL     1     174.096 177.902 154.483  1.00  0.00     0.180 A 
ATOM      2  C   UNL     1     172.929 178.244 155.189  1.00  0.00     0.208 A 
ATOM      3  C   UNL     1     172.650 179.599 155.428  1.00  0.00     0.238 A 
ATOM      4  O   UNL     1     171.576 179.901 156.012  1.00  0.00    -0.285 OA
ATOM      5  C   UNL     1     173.548 180.594 154.973  1.00  0.00     0.111 A 
ATOM      6  C   UNL     1     173.386 181.995 155.195  1.00  0.00     0.134 A 
ATOM      7  C   UNL     1     174.269 182.897 154.587  1.00  0.00     0.093 A 
ATOM      8  C   UNL     1     175.346 182.445 153.820  1.00  0.00     0.123 A 
ATOM      9  C   UNL     1     175.547 181.078 153.648  1.00  0.00     0.094 A 
ATOM     10  C   UNL     1     174.662 180.155 154.211  1.00  0.00     0.146 A 
ATOM     11  O   UNL     1     174.885 178.861 154.012  1.00  0.00    -0.452 OA
ENDROOT
BRANCH   1  12
ATOM     12  C   UNL     1     174.470 176.494 154.213  1.00  0.00     0.025 A 
ATOM     13  C   UNL     1     175.445 175.837 154.984  1.00  0.00     0.016 A 
ATOM     14  C   UNL     1     175.799 174.516 154.696  1.00  0.00     0.051 A 
ATOM     15  C   UNL     1     175.198 173.840 153.627  1.00  0.00     0.157 A 
ATOM     16  C   UNL     1     173.885 175.818 153.130  1.00  0.00     0.062 A 
ATOM     17  C   UNL     1     174.241 174.493 152.842  1.00  0.00     0.158 A 
BRANCH  15  18
ATOM     18  O   UNL     1     175.548 172.522 153.338  1.00  0.00    -0.504 OA
ATOM     19  H   UNL     1     174.855 171.783 153.316  1.00  0.00     0.293 HD
ENDBRANCH  15  18
BRANCH  17  20
ATOM     20  O   UNL     1     173.648 173.820 151.774  1.00  0.00    -0.504 OA
ATOM     21  H   UNL     1     173.176 174.319 151.029  1.00  0.00     0.293 HD
ENDBRANCH  17  20
ENDBRANCH   1  12
BRANCH   2  22
ATOM     22  O   UNL     1     172.044 177.247 155.608  1.00  0.00    -0.502 OA
ATOM     23  H   UNL     1     172.360 176.337 155.923  1.00  0.00     0.293 HD
ENDBRANCH   2  22
BRANCH   6  24
ATOM     24  O   UNL     1     172.400 182.546 156.018  1.00  0.00    -0.507 OA
ATOM     25  H   UNL     1     172.372 182.452 157.022  1.00  0.00     0.293 HD
ENDBRANCH   6  24
BRANCH   8  26
ATOM     26  O   UNL     1     176.227 183.349 153.233  1.00  0.00    -0.508 OA
ATOM     27  H   UNL     1     175.895 184.126 152.673  1.00  0.00     0.293 HD
ENDBRANCH   8  26
TORSDOF 6
ENDMDL
MODEL 2
REMARK VINA RESULT:    -4.887      4.929      7.624
REMARK INTER + INTRA:          -6.184
REMARK INTER:                  -6.231
REMARK INTRA:                   0.048
REMARK UNBOUND:                -0.297
REMARK SMILES O=c1c(O)c(-c2ccc(O)c(O)c2)oc2cc(O)cc(O)c12
REMARK SMILES IDX 5 1 3 2 2 3 1 4 22 5 20 6 19 7 17 8 16 9 15 10 14 11 6 12
REMARK SMILES IDX 7 13 8 14 9 15 13 16 11 17 10 18 12 20 4 22 21 24 18 26
REMARK H PARENT 10 19 12 21 4 23 21 25 18 27
REMARK Flexibility Score: inf
ROOT
ATOM      1  C   UNL     1     177.470 174.245 154.331  1.00  0.00     0.180 A 
ATOM      2  C   UNL     1     177.826 175.338 155.141  1.00  0.00     0.208 A 
ATOM      3  C   UNL     1     179.175 175.518 155.487  1.00  0.00     0.238 A 
ATOM      4  O   UNL     1     179.495 176.529 156.166  1.00  0.00    -0.285 OA
ATOM      5  C   UNL     1     180.148 174.596 155.033  1.00  0.00     0.111 A 
ATOM      6  C   UNL     1     181.537 174.658 155.357  1.00  0.00     0.134 A 
ATOM      7  C   UNL     1     182.429 173.767 154.746  1.00  0.00     0.093 A 
ATOM      8  C   UNL     1     181.972 172.774 153.875  1.00  0.00     0.123 A 
ATOM      9  C   UNL     1     180.611 172.667 153.600  1.00  0.00     0.094 A 
ATOM     10  C   UNL     1     179.702 173.565 154.165  1.00  0.00     0.146 A 
ATOM     11  O   UNL     1     178.414 173.434 153.867  1.00  0.00    -0.452 OA
ENDROOT
BRANCH   1  12
ATOM     12  C   UNL     1     176.066 173.975 153.944  1.00  0.00     0.025 A 
ATOM     13  C   UNL     1     175.507 172.691 154.071  1.00  0.00     0.016 A 
ATOM     14  C   UNL     1     174.187 172.454 153.677  1.00  0.00     0.051 A 
ATOM     15  C   UNL     1     173.414 173.490 153.139  1.00  0.00     0.157 A 
ATOM     16  C   UNL     1     175.292 175.004 153.385  1.00  0.00     0.062 A 
ATOM     17  C   UNL     1     173.968 174.767 152.990  1.00  0.00     0.158 A 
BRANCH  15  18
ATOM     18  O   UNL     1     172.096 173.257 152.746  1.00  0.00    -0.504 OA
ATOM     19  H   UNL     1     171.867 172.556 152.052  1.00  0.00     0.293 HD
ENDBRANCH  15  18
BRANCH  17  20
ATOM     20  O   UNL     1     173.198 175.795 152.448  1.00  0.00    -0.504 OA
ATOM     21  H   UNL     1     172.503 175.616 151.733  1.00  0.00     0.293 HD
ENDBRANCH  17  20
ENDBRANCH   1  12
BRANCH   2  22
ATOM     22  O   UNL     1     176.853 176.250 155.558  1.00  0.00    -0.502 OA
ATOM     23  H   UNL     1     177.085 177.179 155.890  1.00  0.00     0.293 HD
ENDBRANCH   2  22
BRANCH   6  24
ATOM     24  O   UNL     1     182.084 175.550 156.283  1.00  0.00    -0.507 OA
ATOM     25  H   UNL     1     182.407 175.295 157.204  1.00  0.00     0.293 HD
ENDBRANCH   6  24
BRANCH   8  26
ATOM     26  O   UNL     1     182.865 171.883 153.284  1.00  0.00    -0.508 OA
ATOM     27  H   UNL     1     183.851 171.885 153.519  1.00  0.00     0.293 HD
ENDBRANCH   8  26
TORSDOF 6
ENDMDL
MODEL 3
REMARK VINA RESULT:    -4.870      4.999     10.503
REMARK INTER + INTRA:          -6.163
REMARK INTER:                  -5.992
REMARK INTRA:                  -0.171
REMARK UNBOUND:                -0.297
REMARK SMILES O=c1c(O)c(-c2ccc(O)c(O)c2)oc2cc(O)cc(O)c12
REMARK SMILES IDX 5 1 3 2 2 3 1 4 22 5 20 6 19 7 17 8 16 9 15 10 14 11 6 12
REMARK SMILES IDX 7 13 8 14 9 15 13 16 11 17 10 18 12 20 4 22 21 24 18 26
REMARK H PARENT 10 19 12 21 4 23 21 25 18 27
REMARK Flexibility Score: inf
ROOT
ATOM      1  C   UNL     1     174.409 170.937 154.686  1.00  0.00     0.180 A 
ATOM      2  C   UNL     1     175.244 170.730 155.798  1.00  0.00     0.208 A 
ATOM      3  C   UNL     1     175.467 169.419 156.248  1.00  0.00     0.238 A 
ATOM      4  O   UNL     1     176.259 169.237 157.209  1.00  0.00    -0.285 OA
ATOM      5  C   UNL     1     174.840 168.333 155.592  1.00  0.00     0.111 A 
ATOM      6  C   UNL     1     174.963 166.967 155.988  1.00  0.00     0.134 A 
ATOM      7  C   UNL     1     174.403 165.963 155.187  1.00  0.00     0.093 A 
ATOM      8  C   UNL     1     173.670 166.281 154.041  1.00  0.00     0.123 A 
ATOM      9  C   UNL     1     173.494 167.614 153.680  1.00  0.00     0.094 A 
ATOM     10  C   UNL     1     174.071 168.636 154.437  1.00  0.00     0.146 A 
ATOM     11  O   UNL     1     173.888 169.893 154.051  1.00  0.00    -0.452 OA
ENDROOT
BRANCH   1  12
ATOM     12  C   UNL     1     174.107 172.291 154.167  1.00  0.00     0.025 A 
ATOM     13  C   UNL     1     172.803 172.816 154.211  1.00  0.00     0.016 A 
ATOM     14  C   UNL     1     172.536 174.087 153.694  1.00  0.00     0.051 A 
ATOM     15  C   UNL     1     173.563 174.843 153.114  1.00  0.00     0.157 A 
ATOM     16  C   UNL     1     175.127 173.046 153.567  1.00  0.00     0.062 A 
ATOM     17  C   UNL     1     174.860 174.321 153.048  1.00  0.00     0.158 A 
BRANCH  15  18
ATOM     18  O   UNL     1     173.301 176.112 152.599  1.00  0.00    -0.504 OA
ATOM     19  H   UNL     1     173.998 176.847 152.622  1.00  0.00     0.293 HD
ENDBRANCH  15  18
BRANCH  17  20
ATOM     20  O   UNL     1     175.879 175.073 152.465  1.00  0.00    -0.504 OA
ATOM     21  H   UNL     1     175.858 176.086 152.469  1.00  0.00     0.293 HD
ENDBRANCH  17  20
ENDBRANCH   1  12
BRANCH   2  22
ATOM     22  O   UNL     1     175.871 171.815 156.416  1.00  0.00    -0.502 OA
ATOM     23  H   UNL     1     175.824 172.756 156.043  1.00  0.00     0.293 HD
ENDBRANCH   2  22
BRANCH   6  24
ATOM     24  O   UNL     1     175.595 166.548 157.162  1.00  0.00    -0.507 OA
ATOM     25  H   UNL     1     175.602 167.068 158.027  1.00  0.00     0.293 HD
ENDBRANCH   6  24
BRANCH   8  26
ATOM     26  O   UNL     1     173.104 165.276 153.259  1.00  0.00    -0.508 OA
ATOM     27  H   UNL     1     172.995 165.382 152.257  1.00  0.00     0.293 HD
ENDBRANCH   8  26
TORSDOF 6
ENDMDL
MODEL 4
REMARK VINA RESULT:    -4.853      5.085      7.552
REMARK INTER + INTRA:          -6.142
REMARK INTER:                  -5.916
REMARK INTRA:                  -0.226
REMARK UNBOUND:                -0.297
REMARK SMILES O=c1c(O)c(-c2ccc(O)c(O)c2)oc2cc(O)cc(O)c12
REMARK SMILES IDX 5 1 3 2 2 3 1 4 22 5 20 6 19 7 17 8 16 9 15 10 14 11 6 12
REMARK SMILES IDX 7 13 8 14 9 15 13 16 11 17 10 18 12 20 4 22 21 24 18 26
REMARK H PARENT 10 19 12 21 4 23 21 25 18 27
REMARK Flexibility Score: inf
ROOT
ATOM      1  C   UNL     1     171.034 173.884 154.741  1.00  0.00     0.180 A 
ATOM      2  C   UNL     1     170.820 173.136 155.911  1.00  0.00     0.208 A 
ATOM      3  C   UNL     1     169.505 172.949 156.370  1.00  0.00     0.238 A 
ATOM      4  O   UNL     1     169.316 172.232 157.387  1.00  0.00    -0.285 OA
ATOM      5  C   UNL     1     168.424 173.527 155.662  1.00  0.00     0.111 A 
ATOM      6  C   UNL     1     167.056 173.436 156.058  1.00  0.00     0.134 A 
ATOM      7  C   UNL     1     166.058 173.936 155.211  1.00  0.00     0.093 A 
ATOM      8  C   UNL     1     166.383 174.580 154.014  1.00  0.00     0.123 A 
ATOM      9  C   UNL     1     167.720 174.726 153.649  1.00  0.00     0.094 A 
ATOM     10  C   UNL     1     168.735 174.206 154.454  1.00  0.00     0.146 A 
ATOM     11  O   UNL     1     169.995 174.358 154.063  1.00  0.00    -0.452 OA
ENDROOT
BRANCH   1  12
ATOM     12  C   UNL     1     172.392 174.145 154.210  1.00  0.00     0.025 A 
ATOM     13  C   UNL     1     172.960 175.430 154.253  1.00  0.00     0.016 A 
ATOM     14  C   UNL     1     174.233 175.657 153.723  1.00  0.00     0.051 A 
ATOM     15  C   UNL     1     174.950 174.610 153.132  1.00  0.00     0.157 A 
ATOM     16  C   UNL     1     173.107 173.103 153.597  1.00  0.00     0.062 A 
ATOM     17  C   UNL     1     174.384 173.331 153.066  1.00  0.00     0.158 A 
BRANCH  15  18
ATOM     18  O   UNL     1     176.221 174.832 152.604  1.00  0.00    -0.504 OA
ATOM     19  H   UNL     1     176.477 175.725 152.199  1.00  0.00     0.293 HD
ENDBRANCH  15  18
BRANCH  17  20
ATOM     20  O   UNL     1     175.097 172.290 152.471  1.00  0.00    -0.504 OA
ATOM     21  H   UNL     1     176.072 172.394 152.216  1.00  0.00     0.293 HD
ENDBRANCH  17  20
ENDBRANCH   1  12
BRANCH   2  22
ATOM     22  O   UNL     1     171.900 172.555 156.582  1.00  0.00    -0.502 OA
ATOM     23  H   UNL     1     171.807 171.710 157.133  1.00  0.00     0.293 HD
ENDBRANCH   2  22
BRANCH   6  24
ATOM     24  O   UNL     1     166.629 172.895 157.273  1.00  0.00    -0.507 OA
ATOM     25  H   UNL     1     167.204 172.337 157.887  1.00  0.00     0.293 HD
ENDBRANCH   6  24
BRANCH   8  26
ATOM     26  O   UNL     1     165.385 175.087 153.186  1.00  0.00    -0.508 OA
ATOM     27  H   UNL     1     165.121 174.620 152.327  1.00  0.00     0.293 HD
ENDBRANCH   8  26
TORSDOF 6
ENDMDL
MODEL 5
REMARK VINA RESULT:    -4.632     11.816     14.086
REMARK INTER + INTRA:          -5.876
REMARK INTER:                  -5.542
REMARK INTRA:                  -0.335
REMARK UNBOUND:                -0.297
REMARK SMILES O=c1c(O)c(-c2ccc(O)c(O)c2)oc2cc(O)cc(O)c12
REMARK SMILES IDX 5 1 3 2 2 3 1 4 22 5 20 6 19 7 17 8 16 9 15 10 14 11 6 12
REMARK SMILES IDX 7 13 8 14 9 15 13 16 11 17 10 18 12 20 4 22 21 24 18 26
REMARK H PARENT 10 19 12 21 4 23 21 25 18 27
REMARK Flexibility Score: inf
ROOT
ATOM      1  C   UNL     1     171.371 165.579 152.984  1.00  0.00     0.180 A 
ATOM      2  C   UNL     1     171.312 164.826 151.798  1.00  0.00     0.208 A 
ATOM      3  C   UNL     1     170.103 164.771 151.086  1.00  0.00     0.238 A 
ATOM      4  O   UNL     1     170.072 164.141 149.997  1.00  0.00    -0.285 OA
ATOM      5  C   UNL     1     168.965 165.455 151.576  1.00  0.00     0.111 A 
ATOM      6  C   UNL     1     167.678 165.434 150.958  1.00  0.00     0.134 A 
ATOM      7  C   UNL     1     166.658 166.253 151.460  1.00  0.00     0.093 A 
ATOM      8  C   UNL     1     166.859 167.040 152.596  1.00  0.00     0.123 A 
ATOM      9  C   UNL     1     168.093 167.020 153.242  1.00  0.00     0.094 A 
ATOM     10  C   UNL     1     169.141 166.243 152.744  1.00  0.00     0.146 A 
ATOM     11  O   UNL     1     170.305 166.262 153.383  1.00  0.00    -0.452 OA
ENDROOT
BRANCH   1  12
ATOM     12  C   UNL     1     172.603 165.665 153.803  1.00  0.00     0.025 A 
ATOM     13  C   UNL     1     172.878 164.724 154.810  1.00  0.00     0.016 A 
ATOM     14  C   UNL     1     174.035 164.839 155.586  1.00  0.00     0.051 A 
ATOM     15  C   UNL     1     174.923 165.902 155.377  1.00  0.00     0.157 A 
ATOM     16  C   UNL     1     173.486 166.740 153.612  1.00  0.00     0.062 A 
ATOM     17  C   UNL     1     174.646 166.855 154.390  1.00  0.00     0.158 A 
BRANCH  15  18
ATOM     18  O   UNL     1     176.078 166.019 156.148  1.00  0.00    -0.504 OA
ATOM     19  H   UNL     1     176.177 166.745 156.848  1.00  0.00     0.293 HD
ENDBRANCH  15  18
BRANCH  17  20
ATOM     20  O   UNL     1     175.529 167.916 154.189  1.00  0.00    -0.504 OA
ATOM     21  H   UNL     1     176.276 167.861 153.507  1.00  0.00     0.293 HD
ENDBRANCH  17  20
ENDBRANCH   1  12
BRANCH   2  22
ATOM     22  O   UNL     1     172.454 164.178 151.320  1.00  0.00    -0.502 OA
ATOM     23  H   UNL     1     173.280 164.039 151.890  1.00  0.00     0.293 HD
ENDBRANCH   2  22
BRANCH   6  24
ATOM     24  O   UNL     1     167.345 164.615 149.875  1.00  0.00    -0.507 OA
ATOM     25  H   UNL     1     166.481 164.670 149.358  1.00  0.00     0.293 HD
ENDBRANCH   6  24
BRANCH   8  26
ATOM     26  O   UNL     1     165.834 167.839 153.096  1.00  0.00    -0.508 OA
ATOM     27  H   UNL     1     165.714 168.799 152.794  1.00  0.00     0.293 HD
ENDBRANCH   8  26
TORSDOF 6
ENDMDL
MODEL 6
REMARK VINA RESULT:    -4.551      4.973      7.693
REMARK INTER + INTRA:          -5.779
REMARK INTER:                  -5.479
REMARK INTRA:                  -0.300
REMARK UNBOUND:                -0.297
REMARK SMILES O=c1c(O)c(-c2ccc(O)c(O)c2)oc2cc(O)cc(O)c12
REMARK SMILES IDX 5 1 3 2 2 3 1 4 22 5 20 6 19 7 17 8 16 9 15 10 14 11 6 12
REMARK SMILES IDX 7 13 8 14 9 15 13 16 11 17 10 18 12 20 4 22 21 24 18 26
REMARK H PARENT 10 19 12 21 4 23 21 25 18 27
REMARK Flexibility Score: inf
ROOT
ATOM      1  C   UNL     1     170.822 174.202 154.853  1.00  0.00     0.180 A 
ATOM      2  C   UNL     1     171.038 172.974 155.503  1.00  0.00     0.208 A 
ATOM      3  C   UNL     1     172.294 172.355 155.390  1.00  0.00     0.238 A 
ATOM      4  O   UNL     1     172.498 171.284 156.018  1.00  0.00    -0.285 OA
ATOM      5  C   UNL     1     173.311 172.963 154.616  1.00  0.00     0.111 A 
ATOM      6  C   UNL     1     174.607 172.405 154.399  1.00  0.00     0.134 A 
ATOM      7  C   UNL     1     175.578 173.156 153.724  1.00  0.00     0.093 A 
ATOM      8  C   UNL     1     175.279 174.416 153.201  1.00  0.00     0.123 A 
ATOM      9  C   UNL     1     173.999 174.943 153.355  1.00  0.00     0.094 A 
ATOM     10  C   UNL     1     173.021 174.235 154.056  1.00  0.00     0.146 A 
ATOM     11  O   UNL     1     171.817 174.779 154.189  1.00  0.00    -0.452 OA
ENDROOT
BRANCH   1  12
ATOM     12  C   UNL     1     169.518 174.903 154.906  1.00  0.00     0.025 A 
ATOM     13  C   UNL     1     169.282 175.939 155.827  1.00  0.00     0.016 A 
ATOM     14  C   UNL     1     168.036 176.570 155.875  1.00  0.00     0.051 A 
ATOM     15  C   UNL     1     167.006 176.166 155.016  1.00  0.00     0.157 A 
ATOM     16  C   UNL     1     168.476 174.490 154.061  1.00  0.00     0.062 A 
ATOM     17  C   UNL     1     167.226 175.123 154.110  1.00  0.00     0.158 A 
BRANCH  15  18
ATOM     18  O   UNL     1     165.763 176.795 155.060  1.00  0.00    -0.504 OA
ATOM     19  H   UNL     1     165.135 176.783 154.265  1.00  0.00     0.293 HD
ENDBRANCH  15  18
BRANCH  17  20
ATOM     20  O   UNL     1     166.197 174.718 153.260  1.00  0.00    -0.504 OA
ATOM     21  H   UNL     1     166.092 173.751 152.977  1.00  0.00     0.293 HD
ENDBRANCH  17  20
ENDBRANCH   1  12
BRANCH   2  22
ATOM     22  O   UNL     1     170.027 172.403 156.281  1.00  0.00    -0.502 OA
ATOM     23  H   UNL     1     169.491 171.601 155.972  1.00  0.00     0.293 HD
ENDBRANCH   2  22
BRANCH   6  24
ATOM     24  O   UNL     1     174.980 171.119 154.799  1.00  0.00    -0.507 OA
ATOM     25  H   UNL     1     174.402 170.497 155.346  1.00  0.00     0.293 HD
ENDBRANCH   6  24
BRANCH   8  26
ATOM     26  O   UNL     1     176.247 175.149 152.517  1.00  0.00    -0.508 OA
ATOM     27  H   UNL     1     176.871 175.784 153.001  1.00  0.00     0.293 HD
ENDBRANCH   8  26
TORSDOF 6
ENDMDL
MODEL 7
REMARK VINA RESULT:    -4.541      1.896      6.677
REMARK INTER + INTRA:          -5.766
REMARK INTER:                  -5.459
REMARK INTRA:                  -0.307
REMARK UNBOUND:                -0.297
REMARK SMILES O=c1c(O)c(-c2ccc(O)c(O)c2)oc2cc(O)cc(O)c12
REMARK SMILES IDX 5 1 3 2 2 3 1 4 22 5 20 6 19 7 17 8 16 9 15 10 14 11 6 12
REMARK SMILES IDX 7 13 8 14 9 15 13 16 11 17 10 18 12 20 4 22 21 24 18 26
REMARK H PARENT 10 19 12 21 4 23 21 25 18 27
REMARK Flexibility Score: inf
ROOT
ATOM      1  C   UNL     1     174.176 177.381 154.847  1.00  0.00     0.180 A 
ATOM      2  C   UNL     1     172.945 177.156 155.488  1.00  0.00     0.208 A 
ATOM      3  C   UNL     1     172.334 175.897 155.367  1.00  0.00     0.238 A 
ATOM      4  O   UNL     1     171.260 175.685 155.989  1.00  0.00    -0.285 OA
ATOM      5  C   UNL     1     172.952 174.886 154.593  1.00  0.00     0.111 A 
ATOM      6  C   UNL     1     172.402 173.588 154.368  1.00  0.00     0.134 A 
ATOM      7  C   UNL     1     173.162 172.624 153.693  1.00  0.00     0.093 A 
ATOM      8  C   UNL     1     174.424 172.932 153.178  1.00  0.00     0.123 A 
ATOM      9  C   UNL     1     174.943 174.214 153.340  1.00  0.00     0.094 A 
ATOM     10  C   UNL     1     174.225 175.186 154.041  1.00  0.00     0.146 A 
ATOM     11  O   UNL     1     174.762 176.392 154.182  1.00  0.00    -0.452 OA
ENDROOT
BRANCH   1  12
ATOM     12  C   UNL     1     174.869 178.688 154.908  1.00  0.00     0.025 A 
ATOM     13  C   UNL     1     175.878 178.936 155.855  1.00  0.00     0.016 A 
ATOM     14  C   UNL     1     176.502 180.186 155.911  1.00  0.00     0.051 A 
ATOM     15  C   UNL     1     176.118 181.207 155.033  1.00  0.00     0.157 A 
ATOM     16  C   UNL     1     174.474 179.723 154.044  1.00  0.00     0.062 A 
ATOM     17  C   UNL     1     175.100 180.976 154.100  1.00  0.00     0.158 A 
BRANCH  15  18
ATOM     18  O   UNL     1     176.739 182.454 155.084  1.00  0.00    -0.504 OA
ATOM     19  H   UNL     1     176.395 183.193 155.687  1.00  0.00     0.293 HD
ENDBRANCH  15  18
BRANCH  17  20
ATOM     20  O   UNL     1     174.714 181.996 153.231  1.00  0.00    -0.504 OA
ATOM     21  H   UNL     1     174.916 181.952 152.239  1.00  0.00     0.293 HD
ENDBRANCH  17  20
ENDBRANCH   1  12
BRANCH   2  22
ATOM     22  O   UNL     1     172.364 178.160 156.267  1.00  0.00    -0.502 OA
ATOM     23  H   UNL     1     171.792 178.895 155.868  1.00  0.00     0.293 HD
ENDBRANCH   2  22
BRANCH   6  24
ATOM     24  O   UNL     1     171.115 173.207 154.759  1.00  0.00    -0.507 OA
ATOM     25  H   UNL     1     170.580 172.468 154.329  1.00  0.00     0.293 HD
ENDBRANCH   6  24
BRANCH   8  26
ATOM     26  O   UNL     1     175.165 171.971 152.495  1.00  0.00    -0.508 OA
ATOM     27  H   UNL     1     176.019 171.586 152.882  1.00  0.00     0.293 HD
ENDBRANCH   8  26
TORSDOF 6
ENDMDL
MODEL 8
REMARK VINA RESULT:    -4.508      4.582      7.359
REMARK INTER + INTRA:          -5.727
REMARK INTER:                  -5.393
REMARK INTRA:                  -0.335
REMARK UNBOUND:                -0.297
REMARK SMILES O=c1c(O)c(-c2ccc(O)c(O)c2)oc2cc(O)cc(O)c12
REMARK SMILES IDX 5 1 3 2 2 3 1 4 22 5 20 6 19 7 17 8 16 9 15 10 14 11 6 12
REMARK SMILES IDX 7 13 8 14 9 15 13 16 11 17 10 18 12 20 4 22 21 24 18 26
REMARK H PARENT 10 19 12 21 4 23 21 25 18 27
REMARK Flexibility Score: inf
ROOT
ATOM      1  C   UNL     1     170.434 174.750 154.912  1.00  0.00     0.180 A 
ATOM      2  C   UNL     1     171.072 175.887 155.436  1.00  0.00     0.208 A 
ATOM      3  C   UNL     1     172.469 175.992 155.335  1.00  0.00     0.238 A 
ATOM      4  O   UNL     1     173.028 177.038 155.756  1.00  0.00    -0.285 OA
ATOM      5  C   UNL     1     173.211 174.951 154.727  1.00  0.00     0.111 A 
ATOM      6  C   UNL     1     174.633 174.933 154.607  1.00  0.00     0.134 A 
ATOM      7  C   UNL     1     175.251 173.914 153.870  1.00  0.00     0.093 A 
ATOM      8  C   UNL     1     174.503 172.878 153.306  1.00  0.00     0.123 A 
ATOM      9  C   UNL     1     173.120 172.854 153.470  1.00  0.00     0.094 A 
ATOM     10  C   UNL     1     172.471 173.876 154.167  1.00  0.00     0.146 A 
ATOM     11  O   UNL     1     171.150 173.821 154.289  1.00  0.00    -0.452 OA
ENDROOT
BRANCH   1  12
ATOM     12  C   UNL     1     168.968 174.556 155.003  1.00  0.00     0.025 A 
ATOM     13  C   UNL     1     168.381 173.924 156.113  1.00  0.00     0.016 A 
ATOM     14  C   UNL     1     166.998 173.731 156.166  1.00  0.00     0.051 A 
ATOM     15  C   UNL     1     166.185 174.152 155.106  1.00  0.00     0.157 A 
ATOM     16  C   UNL     1     168.150 174.958 153.934  1.00  0.00     0.062 A 
ATOM     17  C   UNL     1     166.763 174.764 153.987  1.00  0.00     0.158 A 
BRANCH  15  18
ATOM     18  O   UNL     1     164.805 173.963 155.156  1.00  0.00    -0.504 OA
ATOM     19  H   UNL     1     164.270 173.746 154.323  1.00  0.00     0.293 HD
ENDBRANCH  15  18
BRANCH  17  20
ATOM     20  O   UNL     1     165.952 175.177 152.930  1.00  0.00    -0.504 OA
ATOM     21  H   UNL     1     165.044 174.758 152.763  1.00  0.00     0.293 HD
ENDBRANCH  17  20
ENDBRANCH   1  12
BRANCH   2  22
ATOM     22  O   UNL     1     170.318 176.914 156.011  1.00  0.00    -0.502 OA
ATOM     23  H   UNL     1     170.685 177.849 156.144  1.00  0.00     0.293 HD
ENDBRANCH   2  22
BRANCH   6  24
ATOM     24  O   UNL     1     175.479 175.869 155.208  1.00  0.00    -0.507 OA
ATOM     25  H   UNL     1     176.387 175.658 155.595  1.00  0.00     0.293 HD
ENDBRANCH   6  24
BRANCH   8  26
ATOM     26  O   UNL     1     175.128 171.861 152.589  1.00  0.00    -0.508 OA
ATOM     27  H   UNL     1     174.611 171.061 152.243  1.00  0.00     0.293 HD
ENDBRANCH   8  26
TORSDOF 6
ENDMDL
MODEL 9
REMARK VINA RESULT:    -4.505      4.838      7.620
REMARK INTER + INTRA:          -5.723
REMARK INTER:                  -5.389
REMARK INTRA:                  -0.335
REMARK UNBOUND:                -0.297
REMARK SMILES O=c1c(O)c(-c2ccc(O)c(O)c2)oc2cc(O)cc(O)c12
REMARK SMILES IDX 5 1 3 2 2 3 1 4 22 5 20 6 19 7 17 8 16 9 15 10 14 11 6 12
REMARK SMILES IDX 7 13 8 14 9 15 13 16 11 17 10 18 12 20 4 22 21 24 18 26
REMARK H PARENT 10 19 12 21 4 23 21 25 18 27
REMARK Flexibility Score: inf
ROOT
ATOM      1  C   UNL     1     173.408 170.434 154.916  1.00  0.00     0.180 A 
ATOM      2  C   UNL     1     172.270 171.072 155.442  1.00  0.00     0.208 A 
ATOM      3  C   UNL     1     172.164 172.469 155.340  1.00  0.00     0.238 A 
ATOM      4  O   UNL     1     171.119 173.027 155.763  1.00  0.00    -0.285 OA
ATOM      5  C   UNL     1     173.204 173.211 154.730  1.00  0.00     0.111 A 
ATOM      6  C   UNL     1     173.220 174.634 154.610  1.00  0.00     0.134 A 
ATOM      7  C   UNL     1     174.238 175.252 153.872  1.00  0.00     0.093 A 
ATOM      8  C   UNL     1     175.274 174.505 153.306  1.00  0.00     0.123 A 
ATOM      9  C   UNL     1     175.299 173.122 153.470  1.00  0.00     0.094 A 
ATOM     10  C   UNL     1     174.279 172.473 154.169  1.00  0.00     0.146 A 
ATOM     11  O   UNL     1     174.335 171.152 154.292  1.00  0.00    -0.452 OA
ENDROOT
BRANCH   1  12
ATOM     12  C   UNL     1     173.602 168.969 155.007  1.00  0.00     0.025 A 
ATOM     13  C   UNL     1     174.233 168.383 156.118  1.00  0.00     0.016 A 
ATOM     14  C   UNL     1     174.427 166.999 156.171  1.00  0.00     0.051 A 
ATOM     15  C   UNL     1     174.009 166.186 155.110  1.00  0.00     0.157 A 
ATOM     16  C   UNL     1     173.203 168.151 153.937  1.00  0.00     0.062 A 
ATOM     17  C   UNL     1     173.399 166.764 153.990  1.00  0.00     0.158 A 
BRANCH  15  18
ATOM     18  O   UNL     1     174.200 164.806 155.160  1.00  0.00    -0.504 OA
ATOM     19  H   UNL     1     173.658 164.219 155.783  1.00  0.00     0.293 HD
ENDBRANCH  15  18
BRANCH  17  20
ATOM     20  O   UNL     1     172.989 165.952 152.932  1.00  0.00    -0.504 OA
ATOM     21  H   UNL     1     173.086 164.944 152.969  1.00  0.00     0.293 HD
ENDBRANCH  17  20
ENDBRANCH   1  12
BRANCH   2  22
ATOM     22  O   UNL     1     171.246 170.317 156.019  1.00  0.00    -0.502 OA
ATOM     23  H   UNL     1     170.279 170.399 155.727  1.00  0.00     0.293 HD
ENDBRANCH   2  22
BRANCH   6  24
ATOM     24  O   UNL     1     172.285 175.479 155.213  1.00  0.00    -0.507 OA
ATOM     25  H   UNL     1     172.388 176.479 155.301  1.00  0.00     0.293 HD
ENDBRANCH   6  24
BRANCH   8  26
ATOM     26  O   UNL     1     176.290 175.130 152.587  1.00  0.00    -0.508 OA
ATOM     27  H   UNL     1     176.521 176.106 152.735  1.00  0.00     0.293 HD
ENDBRANCH   8  26
TORSDOF 6
ENDMDL
