MODEL 1
REMARK VINA RESULT:    -1.210      0.000      0.000
REMARK INTER + INTRA:          -0.749
REMARK INTER:                  -1.847
REMARK INTRA:                   1.098
REMARK UNBOUND:                 1.098
REMARK SMILES CC1=CCC[C@@H](C)C(=O)C[C@@H](C(C)C)C(=O)C1
REMARK SMILES IDX 8 1 9 2 6 3 7 4 5 5 4 6 3 7 2 8 1 9 10 11 11 12 15 13 16 14
REMARK SMILES IDX 17 15 12 17 13 18 14 19
REMARK H PARENT
REMARK Flexibility Score: 70.00
ROOT
ATOM      1  C   UNL     1       8.401  23.191  24.430  1.00  0.00     0.136 C 
ATOM      2  O   UNL     1       7.798  22.312  23.831  1.00  0.00    -0.299 OA
ENDROOT
BRANCH   1   3
ATOM      3  C   UNL     1       9.198  22.816  25.666  1.00  0.00     0.053 C 
ATOM      4  C   UNL     1       9.833  24.059  26.302  1.00  0.00     0.016 C 
BRANCH   3   5
ATOM      5  C   UNL     1      10.265  21.749  25.351  1.00  0.00     0.015 C 
BRANCH   5   6
ATOM      6  C   UNL     1      11.125  22.134  24.135  1.00  0.00     0.028 C 
BRANCH   6   7
ATOM      7  C   UNL     1      10.489  21.649  22.859  1.00  0.00    -0.028 C 
ATOM      8  C   UNL     1      10.481  22.339  21.694  1.00  0.00    -0.070 CG0
ATOM      9  C   UNL     1       9.861  21.682  20.487  1.00  0.00     0.039 C 
ATOM     10  G   UNL     1      11.050  23.744  21.561  1.00  0.00     0.000 G0
ENDBRANCH   6   7
ENDBRANCH   5   6
ENDBRANCH   3   5
ENDBRANCH   1   3
BRANCH   1  11
ATOM     11  C   UNL     1       8.297  24.615  23.929  1.00  0.00     0.087 C 
BRANCH  11  12
ATOM     12  C   UNL     1       8.785  24.759  22.462  1.00  0.00     0.066 C 
BRANCH  12  13
ATOM     13  C   UNL     1      10.305  24.759  22.379  1.00  0.00     0.140 C 
ATOM     14  O   UNL     1      10.947  25.627  22.952  1.00  0.00    -0.299 OA
BRANCH  13  15
ATOM     15  C   UNL     1      11.038  23.740  21.540  1.00  0.00     0.106 CG0
ATOM     16  G   UNL     1      10.462  22.341  21.701  1.00  0.00     0.000 G0
ENDBRANCH  13  15
ENDBRANCH  12  13
BRANCH  12  17
ATOM     17  C   UNL     1       8.152  26.001  21.760  1.00  0.00    -0.006 C 
ATOM     18  C   UNL     1       8.506  26.125  20.267  1.00  0.00     0.008 C 
ATOM     19  C   UNL     1       6.627  26.039  21.947  1.00  0.00     0.008 C 
ENDBRANCH  12  17
ENDBRANCH  11  12
ENDBRANCH   1  11
TORSDOF 1
ENDMDL
MODEL 2
REMARK VINA RESULT:    -0.552      1.496      2.084
REMARK INTER + INTRA:           0.256
REMARK INTER:                  -2.057
REMARK INTRA:                   2.313
REMARK UNBOUND:                 1.098
REMARK SMILES CC1=CCC[C@@H](C)C(=O)C[C@@H](C(C)C)C(=O)C1
REMARK SMILES IDX 8 1 9 2 6 3 7 4 5 5 4 6 3 7 2 8 1 9 10 11 11 12 15 13 16 14
REMARK SMILES IDX 17 15 12 17 13 18 14 19
REMARK H PARENT
REMARK Flexibility Score: 70.00
ROOT
ATOM      1  C   UNL     1       8.492  24.160  24.801  1.00  0.00     0.136 C 
ATOM      2  O   UNL     1       7.957  23.065  24.705  1.00  0.00    -0.299 OA
ENDROOT
BRANCH   1   3
ATOM      3  C   UNL     1       9.817  24.262  25.534  1.00  0.00     0.053 C 
ATOM      4  C   UNL     1       9.704  25.212  26.733  1.00  0.00     0.016 C 
BRANCH   3   5
ATOM      5  C   UNL     1      10.957  24.695  24.591  1.00  0.00     0.015 C 
BRANCH   5   6
ATOM      6  C   UNL     1      10.485  24.809  23.131  1.00  0.00     0.028 C 
BRANCH   6   7
ATOM      7  C   UNL     1      10.651  23.496  22.414  1.00  0.00    -0.028 C 
ATOM      8  C   UNL     1       9.812  23.031  21.458  1.00  0.00    -0.070 CG0
ATOM      9  C   UNL     1      10.158  21.725  20.787  1.00  0.00     0.039 C 
ATOM     10  G   UNL     1       8.538  23.756  21.052  1.00  0.00     0.000 G0
ENDBRANCH   6   7
ENDBRANCH   5   6
ENDBRANCH   3   5
ENDBRANCH   1   3
BRANCH   1  11
ATOM     11  C   UNL     1       7.792  25.365  24.211  1.00  0.00     0.087 C 
BRANCH  11  12
ATOM     12  C   UNL     1       7.153  25.056  22.830  1.00  0.00     0.066 C 
BRANCH  12  13
ATOM     13  C   UNL     1       8.202  25.017  21.727  1.00  0.00     0.140 C 
ATOM     14  O   UNL     1       8.772  26.046  21.393  1.00  0.00    -0.299 OA
BRANCH  13  15
ATOM     15  C   UNL     1       8.505  23.738  20.986  1.00  0.00     0.106 CG0
ATOM     16  G   UNL     1       9.784  23.078  21.478  1.00  0.00     0.000 G0
ENDBRANCH  13  15
ENDBRANCH  12  13
BRANCH  12  17
ATOM     17  C   UNL     1       5.982  26.033  22.502  1.00  0.00    -0.006 C 
ATOM     18  C   UNL     1       5.245  25.711  21.189  1.00  0.00     0.008 C 
ATOM     19  C   UNL     1       4.979  26.123  23.663  1.00  0.00     0.008 C 
ENDBRANCH  12  17
ENDBRANCH  11  12
ENDBRANCH   1  11
TORSDOF 1
ENDMDL
