MODEL 1
REMARK VINA RESULT:    22.435      0.000      0.000
REMARK INTER + INTRA:          47.836
REMARK INTER:                  42.763
REMARK INTRA:                   5.073
REMARK UNBOUND:                 5.073
REMARK SMILES C[C@@H]1O[C@@H](O[C@H]2[C@H](O)[C@H](OCCc3ccc(O)c(O)c3)O[C@H](CO)[C@H]2OC(=O)C=Cc2ccc(O)c(O)c2)[C@@H](O)[C@@H](O)[C@@H]1O
REMARK SMILES IDX 6 1 7 2 9 3 21 4 22 5 25 6 5 7 4 8 1 9 2 10 43 11 3 12 41 13
REMARK SMILES IDX 39 14 44 15 42 17 40 19 8 21 26 23 27 24 28 25 29 26 30 27
REMARK SMILES IDX 31 28 38 29 32 30 36 31 33 32 34 33 37 34 35 36 10 38 11 39
REMARK SMILES IDX 12 40 13 41 20 42 14 43 18 44 15 45 16 46 19 47 17 49 23 51
REMARK SMILES IDX 24 52
REMARK H PARENT 44 16 42 18 40 20 8 22 37 35 35 37 19 48 17 50 24 53
REMARK Flexibility Score: inf
ROOT
ATOM      1  C   UNL     1       6.871   6.123  11.808  1.00  0.00     0.199 C 
ATOM      2  C   UNL     1       6.452   5.126  10.714  1.00  0.00     0.203 C 
ATOM      3  C   UNL     1       7.695   4.806   9.806  1.00  0.00     0.282 C 
ATOM      4  O   UNL     1       8.977   5.102  10.381  1.00  0.00    -0.340 OA
ATOM      5  C   UNL     1       9.057   4.786  11.770  1.00  0.00     0.190 C 
ATOM      6  C   UNL     1       8.001   5.515  12.669  1.00  0.00     0.240 C 
ENDROOT
BRANCH   1   7
ATOM      7  O   UNL     1       7.369   7.277  11.163  1.00  0.00    -0.340 OA
BRANCH   7   8
ATOM      8  C   UNL     1       6.389   8.214  10.733  1.00  0.00     0.282 C 
ATOM      9  C   UNL     1       6.520   7.152   7.161  1.00  0.00     0.041 C 
ATOM     10  C   UNL     1       6.928   7.792   8.473  1.00  0.00     0.150 C 
ATOM     11  C   UNL     1       7.583   9.192   8.268  1.00  0.00     0.174 C 
ATOM     12  O   UNL     1       5.876   7.850   9.441  1.00  0.00    -0.344 OA
ATOM     13  C   UNL     1       8.180   9.657   9.616  1.00  0.00     0.179 C 
ATOM     14  C   UNL     1       7.065   9.616  10.694  1.00  0.00     0.202 C 
BRANCH  11  15
ATOM     15  O   UNL     1       6.635  10.124   7.839  1.00  0.00    -0.388 OA
ATOM     16  H   UNL     1       7.134  10.939   7.557  1.00  0.00     0.211 HD
ENDBRANCH  11  15
BRANCH  13  17
ATOM     17  O   UNL     1       9.278   8.820   9.919  1.00  0.00    -0.387 OA
ATOM     18  H   UNL     1       9.006   8.175  10.626  1.00  0.00     0.211 HD
ENDBRANCH  13  17
BRANCH  14  19
ATOM     19  O   UNL     1       7.597   9.998  11.948  1.00  0.00    -0.385 OA
ATOM     20  H   UNL     1       8.025  10.892  11.829  1.00  0.00     0.211 HD
ENDBRANCH  14  19
ENDBRANCH   7   8
ENDBRANCH   1   7
BRANCH   2  21
ATOM     21  O   UNL     1       5.884   3.969  11.295  1.00  0.00    -0.385 OA
ATOM     22  H   UNL     1       5.624   3.381  10.521  1.00  0.00     0.211 HD
ENDBRANCH   2  21
BRANCH   6  23
ATOM     23  O   UNL     1       8.660   6.568  13.349  1.00  0.00    -0.453 OA
BRANCH  23  24
ATOM     24  C   UNL     1       9.034   6.462  14.693  1.00  0.00     0.331 C 
ATOM     25  O   UNL     1       9.923   7.235  15.150  1.00  0.00    -0.247 OA
BRANCH  24  26
ATOM     26  C   UNL     1       8.338   5.536  15.604  1.00  0.00     0.094 C 
ATOM     27  C   UNL     1       8.670   5.439  16.888  1.00  0.00     0.016 C 
BRANCH  27  28
ATOM     28  C   UNL     1       8.063   4.415  17.747  1.00  0.00    -0.021 A 
ATOM     29  C   UNL     1       7.936   3.103  17.265  1.00  0.00     0.058 A 
ATOM     30  C   UNL     1       7.585   4.746  19.022  1.00  0.00     0.012 A 
ATOM     31  C   UNL     1       7.285   2.132  18.037  1.00  0.00     0.157 A 
ATOM     32  C   UNL     1       6.993   3.755  19.815  1.00  0.00     0.051 A 
ATOM     33  C   UNL     1       6.832   2.463  19.322  1.00  0.00     0.157 A 
BRANCH  31  34
ATOM     34  O   UNL     1       7.090   0.863  17.502  1.00  0.00    -0.504 OA
ATOM     35  H   UNL     1       7.769   0.119  17.571  1.00  0.00     0.293 HD
ENDBRANCH  31  34
BRANCH  33  36
ATOM     36  O   UNL     1       6.237   1.470  20.123  1.00  0.00    -0.504 OA
ATOM     37  H   UNL     1       5.247   1.520  20.334  1.00  0.00     0.293 HD
ENDBRANCH  33  36
ENDBRANCH  27  28
ENDBRANCH  24  26
ENDBRANCH  23  24
ENDBRANCH   6  23
BRANCH   3  38
ATOM     38  O   UNL     1       7.668   3.448   9.411  1.00  0.00    -0.350 OA
BRANCH  38  39
ATOM     39  C   UNL     1       8.562   2.659  10.148  1.00  0.00     0.168 C 
BRANCH  39  40
ATOM     40  C   UNL     1       8.169   1.201   9.996  1.00  0.00     0.064 C 
BRANCH  40  41
ATOM     41  C   UNL     1       9.175   0.304  10.673  1.00  0.00    -0.042 A 
ATOM     42  C   UNL     1       9.733  -0.787   9.991  1.00  0.00     0.054 A 
ATOM     43  C   UNL     1       9.606   0.581  11.981  1.00  0.00     0.008 A 
ATOM     44  C   UNL     1      10.681  -1.617  10.613  1.00  0.00     0.157 A 
ATOM     45  C   UNL     1      10.543  -0.247  12.610  1.00  0.00     0.050 A 
ATOM     46  C   UNL     1      11.078  -1.350  11.924  1.00  0.00     0.157 A 
BRANCH  44  47
ATOM     47  O   UNL     1      11.237  -2.703   9.931  1.00  0.00    -0.504 OA
ATOM     48  H   UNL     1      10.649  -3.385   9.465  1.00  0.00     0.293 HD
ENDBRANCH  44  47
BRANCH  46  49
ATOM     49  O   UNL     1      11.999  -2.197  12.547  1.00  0.00    -0.504 OA
ATOM     50  H   UNL     1      11.796  -3.178  12.684  1.00  0.00     0.293 HD
ENDBRANCH  46  49
ENDBRANCH  40  41
ENDBRANCH  39  40
ENDBRANCH  38  39
ENDBRANCH   3  38
BRANCH   5  51
ATOM     51  C   UNL     1       9.249   3.280  12.017  1.00  0.00     0.192 C 
BRANCH  51  52
ATOM     52  O   UNL     1       8.129   2.698  12.627  1.00  0.00    -0.394 OA
ATOM     53  H   UNL     1       7.468   2.565  11.889  1.00  0.00     0.210 HD
ENDBRANCH  51  52
ENDBRANCH   5  51
TORSDOF 20
ENDMDL
MODEL 2
REMARK VINA RESULT:    23.296      1.291      1.694
REMARK INTER + INTRA:          49.478
REMARK INTER:                  47.439
REMARK INTRA:                   2.039
REMARK UNBOUND:                 5.073
REMARK SMILES C[C@@H]1O[C@@H](O[C@H]2[C@H](O)[C@H](OCCc3ccc(O)c(O)c3)O[C@H](CO)[C@H]2OC(=O)C=Cc2ccc(O)c(O)c2)[C@@H](O)[C@@H](O)[C@@H]1O
REMARK SMILES IDX 6 1 7 2 9 3 21 4 22 5 25 6 5 7 4 8 1 9 2 10 43 11 3 12 41 13
REMARK SMILES IDX 39 14 44 15 42 17 40 19 8 21 26 23 27 24 28 25 29 26 30 27
REMARK SMILES IDX 31 28 38 29 32 30 36 31 33 32 34 33 37 34 35 36 10 38 11 39
REMARK SMILES IDX 12 40 13 41 20 42 14 43 18 44 15 45 16 46 19 47 17 49 23 51
REMARK SMILES IDX 24 52
REMARK H PARENT 44 16 42 18 40 20 8 22 37 35 35 37 19 48 17 50 24 53
REMARK Flexibility Score: inf
ROOT
ATOM      1  C   UNL     1       7.135   5.923  12.185  1.00  0.00     0.199 C 
ATOM      2  C   UNL     1       6.898   4.862  11.097  1.00  0.00     0.203 C 
ATOM      3  C   UNL     1       8.239   4.621  10.313  1.00  0.00     0.282 C 
ATOM      4  O   UNL     1       9.436   5.041  10.985  1.00  0.00    -0.340 OA
ATOM      5  C   UNL     1       9.417   4.775  12.388  1.00  0.00     0.190 C 
ATOM      6  C   UNL     1       8.228   5.440  13.163  1.00  0.00     0.240 C 
ENDROOT
BRANCH   1   7
ATOM      7  O   UNL     1       7.592   7.096  11.543  1.00  0.00    -0.340 OA
BRANCH   7   8
ATOM      8  C   UNL     1       6.604   8.086  11.291  1.00  0.00     0.282 C 
ATOM      9  C   UNL     1       6.165   7.156   7.706  1.00  0.00     0.041 C 
ATOM     10  C   UNL     1       6.788   7.729   8.964  1.00  0.00     0.150 C 
ATOM     11  C   UNL     1       7.470   9.108   8.709  1.00  0.00     0.174 C 
ATOM     12  O   UNL     1       5.892   7.793  10.077  1.00  0.00    -0.344 OA
ATOM     13  C   UNL     1       8.277   9.497   9.969  1.00  0.00     0.179 C 
ATOM     14  C   UNL     1       7.330   9.461  11.197  1.00  0.00     0.202 C 
BRANCH  11  15
ATOM     15  O   UNL     1       6.512  10.093   8.454  1.00  0.00    -0.388 OA
ATOM     16  H   UNL     1       5.942   9.759   7.708  1.00  0.00     0.211 HD
ENDBRANCH  11  15
BRANCH  13  17
ATOM     17  O   UNL     1       9.368   8.606  10.080  1.00  0.00    -0.387 OA
ATOM     18  H   UNL     1       9.953   8.904  10.829  1.00  0.00     0.211 HD
ENDBRANCH  13  17
BRANCH  14  19
ATOM     19  O   UNL     1       8.055   9.773  12.371  1.00  0.00    -0.385 OA
ATOM     20  H   UNL     1       7.409   9.754  13.132  1.00  0.00     0.211 HD
ENDBRANCH  14  19
ENDBRANCH   7   8
ENDBRANCH   1   7
BRANCH   2  21
ATOM     21  O   UNL     1       6.376   3.679  11.669  1.00  0.00    -0.385 OA
ATOM     22  H   UNL     1       6.086   3.935  12.598  1.00  0.00     0.211 HD
ENDBRANCH   2  21
BRANCH   6  23
ATOM     23  O   UNL     1       8.735   6.565  13.858  1.00  0.00    -0.453 OA
BRANCH  23  24
ATOM     24  C   UNL     1       8.619   6.691  15.247  1.00  0.00     0.331 C 
ATOM     25  O   UNL     1       8.268   7.801  15.738  1.00  0.00    -0.247 OA
BRANCH  24  26
ATOM     26  C   UNL     1       8.800   5.528  16.133  1.00  0.00     0.094 C 
ATOM     27  C   UNL     1       7.919   4.533  16.166  1.00  0.00     0.016 C 
BRANCH  27  28
ATOM     28  C   UNL     1       8.040   3.452  17.152  1.00  0.00    -0.021 A 
ATOM     29  C   UNL     1       9.178   3.396  17.972  1.00  0.00     0.058 A 
ATOM     30  C   UNL     1       7.050   2.466  17.253  1.00  0.00     0.012 A 
ATOM     31  C   UNL     1       9.351   2.327  18.860  1.00  0.00     0.157 A 
ATOM     32  C   UNL     1       7.198   1.435  18.189  1.00  0.00     0.051 A 
ATOM     33  C   UNL     1       8.344   1.357  18.976  1.00  0.00     0.157 A 
BRANCH  31  34
ATOM     34  O   UNL     1      10.528   2.244  19.596  1.00  0.00    -0.504 OA
ATOM     35  H   UNL     1      11.073   3.050  19.868  1.00  0.00     0.293 HD
ENDBRANCH  31  34
BRANCH  33  36
ATOM     36  O   UNL     1       8.489   0.319  19.915  1.00  0.00    -0.504 OA
ATOM     37  H   UNL     1       9.398   0.128  20.318  1.00  0.00     0.293 HD
ENDBRANCH  33  36
ENDBRANCH  27  28
ENDBRANCH  24  26
ENDBRANCH  23  24
ENDBRANCH   6  23
BRANCH   3  38
ATOM     38  O   UNL     1       8.358   3.254   9.968  1.00  0.00    -0.350 OA
BRANCH  38  39
ATOM     39  C   UNL     1       7.172   2.732   9.435  1.00  0.00     0.168 C 
BRANCH  39  40
ATOM     40  C   UNL     1       7.348   1.241   9.216  1.00  0.00     0.064 C 
BRANCH  40  41
ATOM     41  C   UNL     1       8.410   0.687  10.132  1.00  0.00    -0.042 A 
ATOM     42  C   UNL     1       8.131   0.440  11.484  1.00  0.00     0.054 A 
ATOM     43  C   UNL     1       9.682   0.362   9.630  1.00  0.00     0.008 A 
ATOM     44  C   UNL     1       9.113  -0.088  12.339  1.00  0.00     0.157 A 
ATOM     45  C   UNL     1      10.667  -0.157  10.479  1.00  0.00     0.050 A 
ATOM     46  C   UNL     1      10.382  -0.378  11.836  1.00  0.00     0.157 A 
BRANCH  44  47
ATOM     47  O   UNL     1       8.831  -0.335  13.685  1.00  0.00    -0.504 OA
ATOM     48  H   UNL     1       9.264   0.215  14.420  1.00  0.00     0.293 HD
ENDBRANCH  44  47
BRANCH  46  49
ATOM     49  O   UNL     1      11.363  -0.876  12.698  1.00  0.00    -0.504 OA
ATOM     50  H   UNL     1      12.111  -1.463  12.353  1.00  0.00     0.293 HD
ENDBRANCH  46  49
ENDBRANCH  40  41
ENDBRANCH  39  40
ENDBRANCH  38  39
ENDBRANCH   3  38
BRANCH   5  51
ATOM     51  C   UNL     1       9.708   3.300  12.706  1.00  0.00     0.192 C 
BRANCH  51  52
ATOM     52  O   UNL     1       8.646   2.461  12.341  1.00  0.00    -0.394 OA
ATOM     53  H   UNL     1       8.130   2.308  13.184  1.00  0.00     0.210 HD
ENDBRANCH  51  52
ENDBRANCH   5  51
TORSDOF 20
ENDMDL
MODEL 3
REMARK VINA RESULT:    25.144     11.844     16.764
REMARK INTER + INTRA:          53.000
REMARK INTER:                  52.804
REMARK INTRA:                   0.196
REMARK UNBOUND:                 5.073
REMARK SMILES C[C@@H]1O[C@@H](O[C@H]2[C@H](O)[C@H](OCCc3ccc(O)c(O)c3)O[C@H](CO)[C@H]2OC(=O)C=Cc2ccc(O)c(O)c2)[C@@H](O)[C@@H](O)[C@@H]1O
REMARK SMILES IDX 6 1 7 2 9 3 21 4 22 5 25 6 5 7 4 8 1 9 2 10 43 11 3 12 41 13
REMARK SMILES IDX 39 14 44 15 42 17 40 19 8 21 26 23 27 24 28 25 29 26 30 27
REMARK SMILES IDX 31 28 38 29 32 30 36 31 33 32 34 33 37 34 35 36 10 38 11 39
REMARK SMILES IDX 12 40 13 41 20 42 14 43 18 44 15 45 16 46 19 47 17 49 23 51
REMARK SMILES IDX 24 52
REMARK H PARENT 44 16 42 18 40 20 8 22 37 35 35 37 19 48 17 50 24 53
REMARK Flexibility Score: inf
ROOT
ATOM      1  C   UNL     1      18.769  -4.362  17.735  1.00  0.00     0.199 C 
ATOM      2  C   UNL     1      17.302  -3.917  17.608  1.00  0.00     0.203 C 
ATOM      3  C   UNL     1      16.678  -3.786  19.045  1.00  0.00     0.282 C 
ATOM      4  O   UNL     1      17.619  -3.660  20.122  1.00  0.00    -0.340 OA
ATOM      5  C   UNL     1      18.741  -2.840  19.797  1.00  0.00     0.190 C 
ATOM      6  C   UNL     1      19.565  -3.324  18.555  1.00  0.00     0.240 C 
ENDROOT
BRANCH   1   7
ATOM      7  O   UNL     1      18.781  -5.591  18.433  1.00  0.00    -0.340 OA
BRANCH   7   8
ATOM      8  C   UNL     1      17.812  -6.546  18.017  1.00  0.00     0.282 C 
ATOM      9  C   UNL     1      19.214  -9.308  20.094  1.00  0.00     0.041 C 
ATOM     10  C   UNL     1      19.076  -8.297  18.972  1.00  0.00     0.150 C 
ATOM     11  C   UNL     1      19.475  -8.892  17.588  1.00  0.00     0.174 C 
ATOM     12  O   UNL     1      17.792  -7.668  18.914  1.00  0.00    -0.344 OA
ATOM     13  C   UNL     1      19.537  -7.741  16.558  1.00  0.00     0.179 C 
ATOM     14  C   UNL     1      18.180  -6.988  16.571  1.00  0.00     0.202 C 
BRANCH  11  15
ATOM     15  O   UNL     1      18.536  -9.837  17.166  1.00  0.00    -0.388 OA
ATOM     16  H   UNL     1      18.967 -10.374  16.446  1.00  0.00     0.211 HD
ENDBRANCH  11  15
BRANCH  13  17
ATOM     17  O   UNL     1      20.635  -6.916  16.891  1.00  0.00    -0.387 OA
ATOM     18  H   UNL     1      20.303  -6.129  17.401  1.00  0.00     0.211 HD
ENDBRANCH  13  17
BRANCH  14  19
ATOM     19  O   UNL     1      18.226  -5.903  15.665  1.00  0.00    -0.385 OA
ATOM     20  H   UNL     1      18.248  -5.065  16.208  1.00  0.00     0.211 HD
ENDBRANCH  14  19
ENDBRANCH   7   8
ENDBRANCH   1   7
BRANCH   2  21
ATOM     21  O   UNL     1      17.215  -2.720  16.860  1.00  0.00    -0.385 OA
ATOM     22  H   UNL     1      18.166  -2.443  16.687  1.00  0.00     0.211 HD
ENDBRANCH   2  21
BRANCH   6  23
ATOM     23  O   UNL     1      20.748  -3.942  19.031  1.00  0.00    -0.453 OA
BRANCH  23  24
ATOM     24  C   UNL     1      22.013  -3.591  18.546  1.00  0.00     0.331 C 
ATOM     25  O   UNL     1      22.937  -3.328  19.367  1.00  0.00    -0.247 OA
BRANCH  24  26
ATOM     26  C   UNL     1      22.309  -3.623  17.103  1.00  0.00     0.094 C 
ATOM     27  C   UNL     1      21.470  -4.171  16.231  1.00  0.00     0.016 C 
BRANCH  27  28
ATOM     28  C   UNL     1      21.842  -4.320  14.818  1.00  0.00    -0.021 A 
ATOM     29  C   UNL     1      21.989  -3.173  14.024  1.00  0.00     0.058 A 
ATOM     30  C   UNL     1      22.015  -5.592  14.258  1.00  0.00     0.012 A 
ATOM     31  C   UNL     1      22.261  -3.298  12.655  1.00  0.00     0.157 A 
ATOM     32  C   UNL     1      22.351  -5.708  12.903  1.00  0.00     0.051 A 
ATOM     33  C   UNL     1      22.460  -4.572  12.105  1.00  0.00     0.157 A 
BRANCH  31  34
ATOM     34  O   UNL     1      22.312  -2.151  11.870  1.00  0.00    -0.504 OA
ATOM     35  H   UNL     1      21.913  -1.266  12.148  1.00  0.00     0.293 HD
ENDBRANCH  31  34
BRANCH  33  36
ATOM     36  O   UNL     1      22.798  -4.694  10.744  1.00  0.00    -0.504 OA
ATOM     37  H   UNL     1      23.374  -5.468  10.435  1.00  0.00     0.293 HD
ENDBRANCH  33  36
ENDBRANCH  27  28
ENDBRANCH  24  26
ENDBRANCH  23  24
ENDBRANCH   6  23
BRANCH   3  38
ATOM     38  O   UNL     1      15.782  -2.692  19.084  1.00  0.00    -0.350 OA
BRANCH  38  39
ATOM     39  C   UNL     1      14.660  -2.948  19.885  1.00  0.00     0.168 C 
BRANCH  39  40
ATOM     40  C   UNL     1      13.453  -2.263  19.272  1.00  0.00     0.064 C 
BRANCH  40  41
ATOM     41  C   UNL     1      12.217  -3.112  19.436  1.00  0.00    -0.042 A 
ATOM     42  C   UNL     1      12.308  -4.511  19.456  1.00  0.00     0.054 A 
ATOM     43  C   UNL     1      10.961  -2.509  19.623  1.00  0.00     0.008 A 
ATOM     44  C   UNL     1      11.161  -5.305  19.622  1.00  0.00     0.157 A 
ATOM     45  C   UNL     1       9.814  -3.295  19.781  1.00  0.00     0.050 A 
ATOM     46  C   UNL     1       9.915  -4.696  19.776  1.00  0.00     0.157 A 
BRANCH  44  47
ATOM     47  O   UNL     1      11.255  -6.700  19.643  1.00  0.00    -0.504 OA
ATOM     48  H   UNL     1      11.501  -7.221  18.808  1.00  0.00     0.293 HD
ENDBRANCH  44  47
BRANCH  46  49
ATOM     49  O   UNL     1       8.775  -5.492  19.912  1.00  0.00    -0.504 OA
ATOM     50  H   UNL     1       8.018  -5.220  20.525  1.00  0.00     0.293 HD
ENDBRANCH  46  49
ENDBRANCH  40  41
ENDBRANCH  39  40
ENDBRANCH  38  39
ENDBRANCH   3  38
BRANCH   5  51
ATOM     51  C   UNL     1      18.407  -1.341  19.860  1.00  0.00     0.192 C 
BRANCH  51  52
ATOM     52  O   UNL     1      18.083  -0.817  18.600  1.00  0.00    -0.394 OA
ATOM     53  H   UNL     1      17.962   0.164  18.747  1.00  0.00     0.210 HD
ENDBRANCH  51  52
ENDBRANCH   5  51
TORSDOF 20
ENDMDL
MODEL 4
REMARK VINA RESULT:    25.404      3.510      5.563
REMARK INTER + INTRA:          53.497
REMARK INTER:                  51.731
REMARK INTRA:                   1.766
REMARK UNBOUND:                 5.073
REMARK SMILES C[C@@H]1O[C@@H](O[C@H]2[C@H](O)[C@H](OCCc3ccc(O)c(O)c3)O[C@H](CO)[C@H]2OC(=O)C=Cc2ccc(O)c(O)c2)[C@@H](O)[C@@H](O)[C@@H]1O
REMARK SMILES IDX 6 1 7 2 9 3 21 4 22 5 25 6 5 7 4 8 1 9 2 10 43 11 3 12 41 13
REMARK SMILES IDX 39 14 44 15 42 17 40 19 8 21 26 23 27 24 28 25 29 26 30 27
REMARK SMILES IDX 31 28 38 29 32 30 36 31 33 32 34 33 37 34 35 36 10 38 11 39
REMARK SMILES IDX 12 40 13 41 20 42 14 43 18 44 15 45 16 46 19 47 17 49 23 51
REMARK SMILES IDX 24 52
REMARK H PARENT 44 16 42 18 40 20 8 22 37 35 35 37 19 48 17 50 24 53
REMARK Flexibility Score: inf
ROOT
ATOM      1  C   UNL     1       7.803   1.681  11.859  1.00  0.00     0.199 C 
ATOM      2  C   UNL     1       8.181   0.974  10.546  1.00  0.00     0.203 C 
ATOM      3  C   UNL     1       9.747   0.908  10.429  1.00  0.00     0.282 C 
ATOM      4  O   UNL     1      10.470   1.079  11.658  1.00  0.00    -0.340 OA
ATOM      5  C   UNL     1       9.849   0.435  12.770  1.00  0.00     0.190 C 
ATOM      6  C   UNL     1       8.382   0.903  13.061  1.00  0.00     0.240 C 
ENDROOT
BRANCH   1   7
ATOM      7  O   UNL     1       8.388   2.967  11.832  1.00  0.00    -0.340 OA
BRANCH   7   8
ATOM      8  C   UNL     1       8.509   3.562  10.547  1.00  0.00     0.282 C 
ATOM      9  C   UNL     1       8.917   7.026  11.866  1.00  0.00     0.041 C 
ATOM     10  C   UNL     1       8.258   5.716  11.481  1.00  0.00     0.150 C 
ATOM     11  C   UNL     1       6.845   5.927  10.857  1.00  0.00     0.174 C 
ATOM     12  O   UNL     1       9.071   4.881  10.651  1.00  0.00    -0.344 OA
ATOM     13  C   UNL     1       6.157   4.550  10.722  1.00  0.00     0.179 C 
ATOM     14  C   UNL     1       7.087   3.606   9.914  1.00  0.00     0.202 C 
BRANCH  11  15
ATOM     15  O   UNL     1       6.945   6.517   9.594  1.00  0.00    -0.388 OA
ATOM     16  H   UNL     1       7.646   7.222   9.657  1.00  0.00     0.211 HD
ENDBRANCH  11  15
BRANCH  13  17
ATOM     17  O   UNL     1       5.875   4.073  12.022  1.00  0.00    -0.387 OA
ATOM     18  H   UNL     1       4.891   3.961  12.118  1.00  0.00     0.211 HD
ENDBRANCH  13  17
BRANCH  14  19
ATOM     19  O   UNL     1       6.498   2.324   9.812  1.00  0.00    -0.385 OA
ATOM     20  H   UNL     1       5.953   2.182  10.636  1.00  0.00     0.211 HD
ENDBRANCH  14  19
ENDBRANCH   7   8
ENDBRANCH   1   7
BRANCH   2  21
ATOM     21  O   UNL     1       7.572  -0.301  10.482  1.00  0.00    -0.385 OA
ATOM     22  H   UNL     1       8.000  -0.763   9.697  1.00  0.00     0.211 HD
ENDBRANCH   2  21
BRANCH   6  23
ATOM     23  O   UNL     1       8.415   1.770  14.181  1.00  0.00    -0.453 OA
BRANCH  23  24
ATOM     24  C   UNL     1       7.877   1.402  15.419  1.00  0.00     0.331 C 
ATOM     25  O   UNL     1       6.859   2.011  15.854  1.00  0.00    -0.247 OA
BRANCH  24  26
ATOM     26  C   UNL     1       8.414   0.254  16.170  1.00  0.00     0.094 C 
ATOM     27  C   UNL     1       8.679   0.333  17.470  1.00  0.00     0.016 C 
BRANCH  27  28
ATOM     28  C   UNL     1       9.344  -0.771  18.172  1.00  0.00    -0.021 A 
ATOM     29  C   UNL     1      10.668  -1.097  17.840  1.00  0.00     0.058 A 
ATOM     30  C   UNL     1       8.656  -1.517  19.139  1.00  0.00     0.012 A 
ATOM     31  C   UNL     1      11.290  -2.200  18.439  1.00  0.00     0.157 A 
ATOM     32  C   UNL     1       9.306  -2.578  19.781  1.00  0.00     0.051 A 
ATOM     33  C   UNL     1      10.606  -2.926  19.425  1.00  0.00     0.157 A 
BRANCH  31  34
ATOM     34  O   UNL     1      12.570  -2.558  18.029  1.00  0.00    -0.504 OA
ATOM     35  H   UNL     1      13.339  -1.907  17.971  1.00  0.00     0.293 HD
ENDBRANCH  31  34
BRANCH  33  36
ATOM     36  O   UNL     1      11.256  -3.993  20.073  1.00  0.00    -0.504 OA
ATOM     37  H   UNL     1      10.931  -4.303  20.982  1.00  0.00     0.293 HD
ENDBRANCH  33  36
ENDBRANCH  27  28
ENDBRANCH  24  26
ENDBRANCH  23  24
ENDBRANCH   6  23
BRANCH   3  38
ATOM     38  O   UNL     1      10.136  -0.313   9.830  1.00  0.00    -0.350 OA
BRANCH  38  39
ATOM     39  C   UNL     1      11.328  -0.195   9.102  1.00  0.00     0.168 C 
BRANCH  39  40
ATOM     40  C   UNL     1      12.021  -1.545   9.075  1.00  0.00     0.064 C 
BRANCH  40  41
ATOM     41  C   UNL     1      12.345  -1.951   7.658  1.00  0.00    -0.042 A 
ATOM     42  C   UNL     1      11.470  -2.772   6.932  1.00  0.00     0.054 A 
ATOM     43  C   UNL     1      13.504  -1.467   7.028  1.00  0.00     0.008 A 
ATOM     44  C   UNL     1      11.760  -3.142   5.608  1.00  0.00     0.157 A 
ATOM     45  C   UNL     1      13.803  -1.839   5.712  1.00  0.00     0.050 A 
ATOM     46  C   UNL     1      12.930  -2.680   5.004  1.00  0.00     0.157 A 
BRANCH  44  47
ATOM     47  O   UNL     1      10.885  -3.958   4.886  1.00  0.00    -0.504 OA
ATOM     48  H   UNL     1      10.318  -3.582   4.135  1.00  0.00     0.293 HD
ENDBRANCH  44  47
BRANCH  46  49
ATOM     49  O   UNL     1      13.227  -3.075   3.696  1.00  0.00    -0.504 OA
ATOM     50  H   UNL     1      13.187  -4.048   3.423  1.00  0.00     0.293 HD
ENDBRANCH  46  49
ENDBRANCH  40  41
ENDBRANCH  39  40
ENDBRANCH  38  39
ENDBRANCH   3  38
BRANCH   5  51
ATOM     51  C   UNL     1      10.104  -1.082  12.784  1.00  0.00     0.192 C 
BRANCH  51  52
ATOM     52  O   UNL     1      11.465  -1.390  12.651  1.00  0.00    -0.394 OA
ATOM     53  H   UNL     1      11.879  -0.578  12.240  1.00  0.00     0.210 HD
ENDBRANCH  51  52
ENDBRANCH   5  51
TORSDOF 20
ENDMDL
