MODEL 1
REMARK VINA RESULT:    -5.556      0.000      0.000
REMARK INTER + INTRA:          -6.663
REMARK INTER:                  -6.530
REMARK INTRA:                  -0.132
REMARK UNBOUND:                -0.132
REMARK SMILES O=C([O-])C=Cc1ccc(O)c(O)c1
REMARK SMILES IDX 6 1 13 2 7 3 11 4 8 5 9 6 5 7 4 8 2 9 1 10 3 11 12 12 10 14
REMARK H PARENT 12 13 10 15
REMARK Flexibility Score: inf
ROOT
ATOM      1  C   UNL     1     -33.613  10.515 -34.987  1.00  0.00    -0.022 A 
ATOM      2  C   UNL     1     -33.888  11.706 -35.679  1.00  0.00     0.058 A 
ATOM      3  C   UNL     1     -33.832   9.285 -35.637  1.00  0.00     0.012 A 
ATOM      4  C   UNL     1     -34.397  11.675 -36.986  1.00  0.00     0.157 A 
ATOM      5  C   UNL     1     -34.338   9.253 -36.939  1.00  0.00     0.051 A 
ATOM      6  C   UNL     1     -34.625  10.441 -37.616  1.00  0.00     0.157 A 
ENDROOT
BRANCH   1   7
ATOM      7  C   UNL     1     -33.066  10.604 -33.609  1.00  0.00     0.010 C 
ATOM      8  C   UNL     1     -33.443  11.530 -32.717  1.00  0.00     0.025 C 
BRANCH   8   9
ATOM      9  C   UNL     1     -32.865  11.587 -31.365  1.00  0.00     0.064 C 
ATOM     10  O   UNL     1     -32.118  10.656 -30.968  1.00  0.00    -0.545 OA
ATOM     11  O   UNL     1     -33.129  12.658 -30.516  1.00  0.00    -0.545 OA
ENDBRANCH   8   9
ENDBRANCH   1   7
BRANCH   4  12
ATOM     12  O   UNL     1     -34.675  12.865 -37.657  1.00  0.00    -0.504 OA
ATOM     13  H   UNL     1     -35.215  12.878 -38.514  1.00  0.00     0.293 HD
ENDBRANCH   4  12
BRANCH   6  14
ATOM     14  O   UNL     1     -35.130  10.377 -38.914  1.00  0.00    -0.504 OA
ATOM     15  H   UNL     1     -35.921  10.936 -39.213  1.00  0.00     0.293 HD
ENDBRANCH   6  14
TORSDOF 4
ENDMDL
MODEL 2
REMARK VINA RESULT:    -5.547      1.303      5.763
REMARK INTER + INTRA:          -6.652
REMARK INTER:                  -6.526
REMARK INTRA:                  -0.126
REMARK UNBOUND:                -0.132
REMARK SMILES O=C([O-])C=Cc1ccc(O)c(O)c1
REMARK SMILES IDX 6 1 13 2 7 3 11 4 8 5 9 6 5 7 4 8 2 9 1 10 3 11 12 12 10 14
REMARK H PARENT 12 13 10 15
REMARK Flexibility Score: inf
ROOT
ATOM      1  C   UNL     1     -33.156  10.390 -34.738  1.00  0.00    -0.022 A 
ATOM      2  C   UNL     1     -33.949  11.149 -33.861  1.00  0.00     0.058 A 
ATOM      3  C   UNL     1     -32.174   9.535 -34.200  1.00  0.00     0.012 A 
ATOM      4  C   UNL     1     -33.752  11.078 -32.474  1.00  0.00     0.157 A 
ATOM      5  C   UNL     1     -31.979   9.464 -32.818  1.00  0.00     0.051 A 
ATOM      6  C   UNL     1     -32.760  10.233 -31.952  1.00  0.00     0.157 A 
ENDROOT
BRANCH   1   7
ATOM      7  C   UNL     1     -33.412  10.494 -36.197  1.00  0.00     0.010 C 
ATOM      8  C   UNL     1     -34.348   9.784 -36.841  1.00  0.00     0.025 C 
BRANCH   8   9
ATOM      9  C   UNL     1     -34.559   9.911 -38.292  1.00  0.00     0.064 C 
ATOM     10  O   UNL     1     -34.077   9.046 -39.068  1.00  0.00    -0.545 OA
ATOM     11  O   UNL     1     -35.287  10.972 -38.821  1.00  0.00    -0.545 OA
ENDBRANCH   8   9
ENDBRANCH   1   7
BRANCH   4  12
ATOM     12  O   UNL     1     -34.540  11.844 -31.616  1.00  0.00    -0.504 OA
ATOM     13  H   UNL     1     -35.258  11.424 -31.036  1.00  0.00     0.293 HD
ENDBRANCH   4  12
BRANCH   6  14
ATOM     14  O   UNL     1     -32.540  10.142 -30.578  1.00  0.00    -0.504 OA
ATOM     15  H   UNL     1     -33.279  10.294 -29.903  1.00  0.00     0.293 HD
ENDBRANCH   6  14
TORSDOF 4
ENDMDL
MODEL 3
REMARK VINA RESULT:    -5.120      1.522      2.031
REMARK INTER + INTRA:          -6.150
REMARK INTER:                  -6.018
REMARK INTRA:                  -0.132
REMARK UNBOUND:                -0.132
REMARK SMILES O=C([O-])C=Cc1ccc(O)c(O)c1
REMARK SMILES IDX 6 1 13 2 7 3 11 4 8 5 9 6 5 7 4 8 2 9 1 10 3 11 12 12 10 14
REMARK H PARENT 12 13 10 15
REMARK Flexibility Score: inf
ROOT
ATOM      1  C   UNL     1     -33.750  11.065 -33.374  1.00  0.00    -0.022 A 
ATOM      2  C   UNL     1     -33.679  11.719 -34.616  1.00  0.00     0.058 A 
ATOM      3  C   UNL     1     -33.955   9.671 -33.350  1.00  0.00     0.012 A 
ATOM      4  C   UNL     1     -33.836  11.004 -35.812  1.00  0.00     0.157 A 
ATOM      5  C   UNL     1     -34.110   8.959 -34.542  1.00  0.00     0.051 A 
ATOM      6  C   UNL     1     -34.056   9.618 -35.773  1.00  0.00     0.157 A 
ENDROOT
BRANCH   1   7
ATOM      7  C   UNL     1     -33.567  11.866 -32.138  1.00  0.00     0.010 C 
ATOM      8  C   UNL     1     -32.502  11.760 -31.332  1.00  0.00     0.025 C 
BRANCH   8   9
ATOM      9  C   UNL     1     -32.368  12.567 -30.109  1.00  0.00     0.064 C 
ATOM     10  O   UNL     1     -33.298  12.572 -29.262  1.00  0.00    -0.545 OA
ATOM     11  O   UNL     1     -31.226  13.326 -29.871  1.00  0.00    -0.545 OA
ENDBRANCH   8   9
ENDBRANCH   1   7
BRANCH   4  12
ATOM     12  O   UNL     1     -33.773  11.668 -37.037  1.00  0.00    -0.504 OA
ATOM     13  H   UNL     1     -34.414  11.452 -37.792  1.00  0.00     0.293 HD
ENDBRANCH   4  12
BRANCH   6  14
ATOM     14  O   UNL     1     -34.216   8.880 -36.946  1.00  0.00    -0.504 OA
ATOM     15  H   UNL     1     -34.053   7.881 -36.980  1.00  0.00     0.293 HD
ENDBRANCH   6  14
TORSDOF 4
ENDMDL
MODEL 4
REMARK VINA RESULT:    -4.783      1.936      2.734
REMARK INTER + INTRA:          -5.754
REMARK INTER:                  -5.624
REMARK INTRA:                  -0.129
REMARK UNBOUND:                -0.132
REMARK SMILES O=C([O-])C=Cc1ccc(O)c(O)c1
REMARK SMILES IDX 6 1 13 2 7 3 11 4 8 5 9 6 5 7 4 8 2 9 1 10 3 11 12 12 10 14
REMARK H PARENT 12 13 10 15
REMARK Flexibility Score: inf
ROOT
ATOM      1  C   UNL     1     -33.316  11.335 -33.768  1.00  0.00    -0.022 A 
ATOM      2  C   UNL     1     -32.368  10.321 -33.983  1.00  0.00     0.058 A 
ATOM      3  C   UNL     1     -33.987  11.885 -34.879  1.00  0.00     0.012 A 
ATOM      4  C   UNL     1     -32.073   9.877 -35.280  1.00  0.00     0.157 A 
ATOM      5  C   UNL     1     -33.694  11.443 -36.171  1.00  0.00     0.051 A 
ATOM      6  C   UNL     1     -32.739  10.444 -36.379  1.00  0.00     0.157 A 
ENDROOT
BRANCH   1   7
ATOM      7  C   UNL     1     -33.598  11.761 -32.374  1.00  0.00     0.010 C 
ATOM      8  C   UNL     1     -32.649  11.969 -31.452  1.00  0.00     0.025 C 
BRANCH   8   9
ATOM      9  C   UNL     1     -32.976  12.380 -30.077  1.00  0.00     0.064 C 
ATOM     10  O   UNL     1     -32.067  12.424 -29.209  1.00  0.00    -0.545 OA
ATOM     11  O   UNL     1     -34.276  12.723 -29.721  1.00  0.00    -0.545 OA
ENDBRANCH   8   9
ENDBRANCH   1   7
BRANCH   4  12
ATOM     12  O   UNL     1     -31.124   8.877 -35.478  1.00  0.00    -0.504 OA
ATOM     13  H   UNL     1     -30.675   8.407 -34.700  1.00  0.00     0.293 HD
ENDBRANCH   4  12
BRANCH   6  14
ATOM     14  O   UNL     1     -32.467  10.025 -37.681  1.00  0.00    -0.504 OA
ATOM     15  H   UNL     1     -33.195   9.701 -38.306  1.00  0.00     0.293 HD
ENDBRANCH   6  14
TORSDOF 4
ENDMDL
MODEL 5
REMARK VINA RESULT:    -4.530      2.247      5.976
REMARK INTER + INTRA:          -5.457
REMARK INTER:                  -5.333
REMARK INTRA:                  -0.124
REMARK UNBOUND:                -0.132
REMARK SMILES O=C([O-])C=Cc1ccc(O)c(O)c1
REMARK SMILES IDX 6 1 13 2 7 3 11 4 8 5 9 6 5 7 4 8 2 9 1 10 3 11 12 12 10 14
REMARK H PARENT 12 13 10 15
REMARK Flexibility Score: inf
ROOT
ATOM      1  C   UNL     1     -33.622   9.158 -35.782  1.00  0.00    -0.022 A 
ATOM      2  C   UNL     1     -32.267   9.513 -35.888  1.00  0.00     0.058 A 
ATOM      3  C   UNL     1     -34.190   9.016 -34.500  1.00  0.00     0.012 A 
ATOM      4  C   UNL     1     -31.483   9.699 -34.741  1.00  0.00     0.157 A 
ATOM      5  C   UNL     1     -33.408   9.202 -33.357  1.00  0.00     0.051 A 
ATOM      6  C   UNL     1     -32.057   9.540 -33.469  1.00  0.00     0.157 A 
ENDROOT
BRANCH   1   7
ATOM      7  C   UNL     1     -34.411   8.983 -37.028  1.00  0.00     0.010 C 
ATOM      8  C   UNL     1     -34.839  10.000 -37.787  1.00  0.00     0.025 C 
BRANCH   8   9
ATOM      9  C   UNL     1     -35.629   9.780 -39.009  1.00  0.00     0.064 C 
ATOM     10  O   UNL     1     -35.118   9.157 -39.975  1.00  0.00    -0.545 OA
ATOM     11  O   UNL     1     -36.935  10.248 -39.114  1.00  0.00    -0.545 OA
ENDBRANCH   8   9
ENDBRANCH   1   7
BRANCH   4  12
ATOM     12  O   UNL     1     -30.137  10.042 -34.861  1.00  0.00    -0.504 OA
ATOM     13  H   UNL     1     -29.831  10.788 -35.476  1.00  0.00     0.293 HD
ENDBRANCH   4  12
BRANCH   6  14
ATOM     14  O   UNL     1     -31.303   9.717 -32.310  1.00  0.00    -0.504 OA
ATOM     15  H   UNL     1     -31.219  10.618 -31.854  1.00  0.00     0.293 HD
ENDBRANCH   6  14
TORSDOF 4
ENDMDL
MODEL 6
REMARK VINA RESULT:    -4.379      2.170      5.986
REMARK INTER + INTRA:          -5.279
REMARK INTER:                  -5.157
REMARK INTRA:                  -0.122
REMARK UNBOUND:                -0.132
REMARK SMILES O=C([O-])C=Cc1ccc(O)c(O)c1
REMARK SMILES IDX 6 1 13 2 7 3 11 4 8 5 9 6 5 7 4 8 2 9 1 10 3 11 12 12 10 14
REMARK H PARENT 12 13 10 15
REMARK Flexibility Score: inf
ROOT
ATOM      1  C   UNL     1     -33.714   9.377 -36.239  1.00  0.00    -0.022 A 
ATOM      2  C   UNL     1     -34.248   9.610 -34.960  1.00  0.00     0.058 A 
ATOM      3  C   UNL     1     -32.336   9.106 -36.361  1.00  0.00     0.012 A 
ATOM      4  C   UNL     1     -33.424   9.599 -33.826  1.00  0.00     0.157 A 
ATOM      5  C   UNL     1     -31.515   9.094 -35.231  1.00  0.00     0.051 A 
ATOM      6  C   UNL     1     -32.050   9.342 -33.964  1.00  0.00     0.157 A 
ENDROOT
BRANCH   1   7
ATOM      7  C   UNL     1     -34.631   9.390 -37.406  1.00  0.00     0.010 C 
ATOM      8  C   UNL     1     -35.087  10.510 -37.983  1.00  0.00     0.025 C 
BRANCH   8   9
ATOM      9  C   UNL     1     -36.005  10.475 -39.132  1.00  0.00     0.064 C 
ATOM     10  O   UNL     1     -37.223  10.221 -38.947  1.00  0.00    -0.545 OA
ATOM     11  O   UNL     1     -35.549  10.720 -40.424  1.00  0.00    -0.545 OA
ENDBRANCH   8   9
ENDBRANCH   1   7
BRANCH   4  12
ATOM     12  O   UNL     1     -33.966   9.841 -32.565  1.00  0.00    -0.504 OA
ATOM     13  H   UNL     1     -34.613  10.604 -32.401  1.00  0.00     0.293 HD
ENDBRANCH   4  12
BRANCH   6  14
ATOM     14  O   UNL     1     -31.205   9.326 -32.855  1.00  0.00    -0.504 OA
ATOM     15  H   UNL     1     -31.559   9.362 -31.907  1.00  0.00     0.293 HD
ENDBRANCH   6  14
TORSDOF 4
ENDMDL
MODEL 7
REMARK VINA RESULT:    -2.940      0.917      1.884
REMARK INTER + INTRA:          -3.588
REMARK INTER:                  -3.450
REMARK INTRA:                  -0.138
REMARK UNBOUND:                -0.132
REMARK SMILES O=C([O-])C=Cc1ccc(O)c(O)c1
REMARK SMILES IDX 6 1 13 2 7 3 11 4 8 5 9 6 5 7 4 8 2 9 1 10 3 11 12 12 10 14
REMARK H PARENT 12 13 10 15
REMARK Flexibility Score: inf
ROOT
ATOM      1  C   UNL     1     -33.630  10.981 -35.391  1.00  0.00    -0.022 A 
ATOM      2  C   UNL     1     -33.925   9.857 -36.179  1.00  0.00     0.058 A 
ATOM      3  C   UNL     1     -33.988  12.258 -35.867  1.00  0.00     0.012 A 
ATOM      4  C   UNL     1     -34.542   9.999 -37.431  1.00  0.00     0.157 A 
ATOM      5  C   UNL     1     -34.603  12.401 -37.113  1.00  0.00     0.051 A 
ATOM      6  C   UNL     1     -34.879  11.279 -37.900  1.00  0.00     0.157 A 
ENDROOT
BRANCH   1   7
ATOM      7  C   UNL     1     -32.986  10.774 -34.069  1.00  0.00     0.010 C 
ATOM      8  C   UNL     1     -33.360  11.410 -32.950  1.00  0.00     0.025 C 
BRANCH   8   9
ATOM      9  C   UNL     1     -32.685  11.181 -31.663  1.00  0.00     0.064 C 
ATOM     10  O   UNL     1     -32.184  10.054 -31.416  1.00  0.00    -0.545 OA
ATOM     11  O   UNL     1     -32.589  12.193 -30.713  1.00  0.00    -0.545 OA
ENDBRANCH   8   9
ENDBRANCH   1   7
BRANCH   4  12
ATOM     12  O   UNL     1     -34.819   8.875 -38.206  1.00  0.00    -0.504 OA
ATOM     13  H   UNL     1     -35.771   8.575 -38.387  1.00  0.00     0.293 HD
ENDBRANCH   4  12
BRANCH   6  14
ATOM     14  O   UNL     1     -35.492  11.454 -39.140  1.00  0.00    -0.504 OA
ATOM     15  H   UNL     1     -36.236  10.848 -39.464  1.00  0.00     0.293 HD
ENDBRANCH   6  14
TORSDOF 4
ENDMDL
