MODEL 1
REMARK VINA RESULT:    -4.174      0.000      0.000
REMARK INTER + INTRA:          -2.441
REMARK INTER:                  -5.150
REMARK INTRA:                   2.709
REMARK UNBOUND:                 2.709
REMARK SMILES C=C1CC[C@H]2[C@H]([C@@H]3[C@@H]1CC[C@@H]3C)C2(C)C
REMARK SMILES IDX 3 1 2 2 1 3 8 4 12 5 11 6 10 7 7 8 9 9 4 11 5 12 6 13 13 14
REMARK SMILES IDX 14 16 15 17
REMARK H PARENT
REMARK Flexibility Score: 80.00
ROOT
ATOM      1  C   UNL     1     167.479 169.925 198.716  1.00  0.00     0.031 C 
ENDROOT
BRANCH   1   2
ATOM      2  C   UNL     1     166.062 169.443 198.370  1.00  0.00    -0.074 C 
ATOM      3  C   UNL     1     165.752 169.198 197.086  1.00  0.00     0.008 C 
BRANCH   2   4
ATOM      4  C   UNL     1     164.946 169.372 199.429  1.00  0.00     0.018 C 
ATOM      5  C   UNL     1     163.517 168.787 202.359  1.00  0.00     0.008 C 
ATOM      6  C   UNL     1     163.674 168.031 201.040  1.00  0.00    -0.010 C 
ATOM      7  C   UNL     1     162.698 168.573 199.969  1.00  0.00     0.004 C 
ATOM      8  C   UNL     1     165.054 168.173 200.385  1.00  0.00     0.003 CG0
ATOM      9  C   UNL     1     163.539 169.217 198.854  1.00  0.00     0.008 C 
ATOM     10  G   UNL     1     166.369 167.936 201.206  1.00  0.00     0.000 G0
ENDBRANCH   2   4
ENDBRANCH   1   2
BRANCH   1  11
ATOM     11  C   UNL     1     168.126 169.186 199.922  1.00  0.00     0.009 C 
BRANCH  11  12
ATOM     12  C   UNL     1     167.214 169.257 201.151  1.00  0.00    -0.001 C 
ATOM     13  C   UNL     1     166.374 167.936 201.200  1.00  0.00     0.002 CG0
ATOM     14  C   UNL     1     167.173 168.443 202.418  1.00  0.00    -0.029 C 
ATOM     15  G   UNL     1     165.057 168.195 200.389  1.00  0.00     0.000 G0
ATOM     16  C   UNL     1     168.473 167.706 202.769  1.00  0.00     0.011 C 
ATOM     17  C   UNL     1     166.438 169.107 203.587  1.00  0.00     0.011 C 
ENDBRANCH  11  12
ENDBRANCH   1  11
TORSDOF 0
ENDMDL
MODEL 2
REMARK VINA RESULT:    -4.118      4.465      6.289
REMARK INTER + INTRA:          -2.372
REMARK INTER:                  -4.924
REMARK INTRA:                   2.552
REMARK UNBOUND:                 2.709
REMARK SMILES C=C1CC[C@H]2[C@H]([C@@H]3[C@@H]1CC[C@@H]3C)C2(C)C
REMARK SMILES IDX 3 1 2 2 1 3 8 4 12 5 11 6 10 7 7 8 9 9 4 11 5 12 6 13 13 14
REMARK SMILES IDX 14 16 15 17
REMARK H PARENT
REMARK Flexibility Score: 80.00
ROOT
ATOM      1  C   UNL     1     165.363 162.008 199.128  1.00  0.00     0.031 C 
ENDROOT
BRANCH   1   2
ATOM      2  C   UNL     1     166.622 162.399 199.920  1.00  0.00    -0.074 C 
ATOM      3  C   UNL     1     167.830 162.172 199.378  1.00  0.00     0.008 C 
BRANCH   2   4
ATOM      4  C   UNL     1     166.543 162.909 201.371  1.00  0.00     0.018 C 
ATOM      5  C   UNL     1     165.400 164.593 203.984  1.00  0.00     0.008 C 
ATOM      6  C   UNL     1     166.474 164.808 202.919  1.00  0.00    -0.010 C 
ATOM      7  C   UNL     1     167.737 163.968 203.225  1.00  0.00     0.004 C 
ATOM      8  C   UNL     1     166.071 164.366 201.507  1.00  0.00     0.003 CG0
ATOM      9  C   UNL     1     167.881 162.919 202.109  1.00  0.00     0.008 C 
ATOM     10  G   UNL     1     164.707 164.815 200.876  1.00  0.00     0.000 G0
ENDBRANCH   2   4
ENDBRANCH   1   2
BRANCH   1  11
ATOM     11  C   UNL     1     164.271 163.114 199.083  1.00  0.00     0.009 C 
BRANCH  11  12
ATOM     12  C   UNL     1     163.883 163.549 200.500  1.00  0.00    -0.001 C 
ATOM     13  C   UNL     1     164.704 164.836 200.846  1.00  0.00     0.002 CG0
ATOM     14  C   UNL     1     163.172 164.773 201.014  1.00  0.00    -0.029 C 
ATOM     15  G   UNL     1     166.043 164.367 201.514  1.00  0.00     0.000 G0
ATOM     16  C   UNL     1     162.314 165.518 199.981  1.00  0.00     0.011 C 
ATOM     17  C   UNL     1     162.565 164.626 202.413  1.00  0.00     0.011 C 
ENDBRANCH  11  12
ENDBRANCH   1  11
TORSDOF 0
ENDMDL
MODEL 3
REMARK VINA RESULT:    -3.981      1.868      3.268
REMARK INTER + INTRA:          -2.202
REMARK INTER:                  -4.857
REMARK INTRA:                   2.654
REMARK UNBOUND:                 2.709
REMARK SMILES C=C1CC[C@H]2[C@H]([C@@H]3[C@@H]1CC[C@@H]3C)C2(C)C
REMARK SMILES IDX 3 1 2 2 1 3 8 4 12 5 11 6 10 7 7 8 9 9 4 11 5 12 6 13 13 14
REMARK SMILES IDX 14 16 15 17
REMARK H PARENT
REMARK Flexibility Score: 80.00
ROOT
ATOM      1  C   UNL     1     164.168 169.802 200.340  1.00  0.00     0.031 C 
ENDROOT
BRANCH   1   2
ATOM      2  C   UNL     1     163.502 168.426 200.180  1.00  0.00    -0.074 C 
ATOM      3  C   UNL     1     162.231 168.363 199.749  1.00  0.00     0.008 C 
BRANCH   2   4
ATOM      4  C   UNL     1     164.198 167.129 200.635  1.00  0.00     0.018 C 
ATOM      5  C   UNL     1     166.653 164.958 201.112  1.00  0.00     0.008 C 
ATOM      6  C   UNL     1     165.566 165.179 200.059  1.00  0.00    -0.010 C 
ATOM      7  C   UNL     1     164.192 164.684 200.568  1.00  0.00     0.004 C 
ATOM      8  C   UNL     1     165.318 166.649 199.698  1.00  0.00     0.003 CG0
ATOM      9  C   UNL     1     163.276 165.912 200.708  1.00  0.00     0.008 C 
ATOM     10  G   UNL     1     166.506 167.606 199.335  1.00  0.00     0.000 G0
ENDBRANCH   2   4
ENDBRANCH   1   2
BRANCH   1  11
ATOM     11  C   UNL     1     165.602 169.888 199.747  1.00  0.00     0.009 C 
BRANCH  11  12
ATOM     12  C   UNL     1     166.498 168.795 200.340  1.00  0.00    -0.001 C 
ATOM     13  C   UNL     1     166.528 167.601 199.328  1.00  0.00     0.002 CG0
ATOM     14  C   UNL     1     167.820 168.229 199.891  1.00  0.00    -0.029 C 
ATOM     15  G   UNL     1     165.350 166.639 199.711  1.00  0.00     0.000 G0
ATOM     16  C   UNL     1     168.638 169.129 198.954  1.00  0.00     0.011 C 
ATOM     17  C   UNL     1     168.610 167.496 200.980  1.00  0.00     0.011 C 
ENDBRANCH  11  12
ENDBRANCH   1  11
TORSDOF 0
ENDMDL
MODEL 4
REMARK VINA RESULT:    -3.973      2.933      5.322
REMARK INTER + INTRA:          -2.193
REMARK INTER:                  -4.835
REMARK INTRA:                   2.642
REMARK UNBOUND:                 2.709
REMARK SMILES C=C1CC[C@H]2[C@H]([C@@H]3[C@@H]1CC[C@@H]3C)C2(C)C
REMARK SMILES IDX 3 1 2 2 1 3 8 4 12 5 11 6 10 7 7 8 9 9 4 11 5 12 6 13 13 14
REMARK SMILES IDX 14 16 15 17
REMARK H PARENT
REMARK Flexibility Score: 80.00
ROOT
ATOM      1  C   UNL     1     168.980 167.170 202.545  1.00  0.00     0.031 C 
ENDROOT
BRANCH   1   2
ATOM      2  C   UNL     1     168.803 165.734 202.029  1.00  0.00    -0.074 C 
ATOM      3  C   UNL     1     168.638 164.738 202.915  1.00  0.00     0.008 C 
BRANCH   2   4
ATOM      4  C   UNL     1     168.954 165.382 200.537  1.00  0.00     0.018 C 
ATOM      5  C   UNL     1     168.654 165.701 197.254  1.00  0.00     0.008 C 
ATOM      6  C   UNL     1     167.890 164.982 198.366  1.00  0.00    -0.010 C 
ATOM      7  C   UNL     1     168.625 163.691 198.800  1.00  0.00     0.004 C 
ATOM      8  C   UNL     1     167.752 165.782 199.666  1.00  0.00     0.003 CG0
ATOM      9  C   UNL     1     169.092 163.887 200.252  1.00  0.00     0.008 C 
ATOM     10  G   UNL     1     167.248 167.267 199.654  1.00  0.00     0.000 G0
ENDBRANCH   2   4
ENDBRANCH   1   2
BRANCH   1  11
ATOM     11  C   UNL     1     168.109 168.224 201.805  1.00  0.00     0.009 C 
BRANCH  11  12
ATOM     12  C   UNL     1     168.361 168.168 200.294  1.00  0.00    -0.001 C 
ATOM     13  C   UNL     1     167.245 167.273 199.657  1.00  0.00     0.002 CG0
ATOM     14  C   UNL     1     167.565 168.686 199.125  1.00  0.00    -0.029 C 
ATOM     15  G   UNL     1     167.779 165.799 199.654  1.00  0.00     0.000 G0
ATOM     16  C   UNL     1     166.570 169.808 199.451  1.00  0.00     0.011 C 
ATOM     17  C   UNL     1     168.360 168.847 197.825  1.00  0.00     0.011 C 
ENDBRANCH  11  12
ENDBRANCH   1  11
TORSDOF 0
ENDMDL
MODEL 5
REMARK VINA RESULT:    -3.952      5.053      6.527
REMARK INTER + INTRA:          -2.167
REMARK INTER:                  -4.902
REMARK INTRA:                   2.734
REMARK UNBOUND:                 2.709
REMARK SMILES C=C1CC[C@H]2[C@H]([C@@H]3[C@@H]1CC[C@@H]3C)C2(C)C
REMARK SMILES IDX 3 1 2 2 1 3 8 4 12 5 11 6 10 7 7 8 9 9 4 11 5 12 6 13 13 14
REMARK SMILES IDX 14 16 15 17
REMARK H PARENT
REMARK Flexibility Score: 80.00
ROOT
ATOM      1  C   UNL     1     169.292 163.180 200.443  1.00  0.00     0.031 C 
ENDROOT
BRANCH   1   2
ATOM      2  C   UNL     1     168.106 163.417 201.391  1.00  0.00    -0.074 C 
ATOM      3  C   UNL     1     168.345 163.881 202.629  1.00  0.00     0.008 C 
BRANCH   2   4
ATOM      4  C   UNL     1     166.671 163.004 201.017  1.00  0.00     0.018 C 
ATOM      5  C   UNL     1     163.987 162.573 199.125  1.00  0.00     0.008 C 
ATOM      6  C   UNL     1     164.485 163.635 200.105  1.00  0.00    -0.010 C 
ATOM      7  C   UNL     1     164.293 163.174 201.569  1.00  0.00     0.004 C 
ATOM      8  C   UNL     1     165.985 163.939 200.007  1.00  0.00     0.003 CG0
ATOM      9  C   UNL     1     165.690 162.999 202.189  1.00  0.00     0.008 C 
ATOM     10  G   UNL     1     166.662 164.240 198.625  1.00  0.00     0.000 G0
ENDBRANCH   2   4
ENDBRANCH   1   2
BRANCH   1  11
ATOM     11  C   UNL     1     169.072 163.721 199.002  1.00  0.00     0.009 C 
BRANCH  11  12
ATOM     12  C   UNL     1     167.778 163.158 198.405  1.00  0.00    -0.001 C 
ATOM     13  C   UNL     1     166.655 164.232 198.601  1.00  0.00     0.002 CG0
ATOM     14  C   UNL     1     166.945 163.591 197.227  1.00  0.00    -0.029 C 
ATOM     15  G   UNL     1     165.972 163.942 199.983  1.00  0.00     0.000 G0
ATOM     16  C   UNL     1     167.675 164.450 196.185  1.00  0.00     0.011 C 
ATOM     17  C   UNL     1     166.002 162.518 196.674  1.00  0.00     0.011 C 
ENDBRANCH  11  12
ENDBRANCH   1  11
TORSDOF 0
ENDMDL
MODEL 6
REMARK VINA RESULT:    -3.945      5.415      5.899
REMARK INTER + INTRA:          -2.158
REMARK INTER:                  -5.149
REMARK INTRA:                   2.990
REMARK UNBOUND:                 2.709
REMARK SMILES C=C1CC[C@H]2[C@H]([C@@H]3[C@@H]1CC[C@@H]3C)C2(C)C
REMARK SMILES IDX 3 1 2 2 1 3 8 4 12 5 11 6 10 7 7 8 9 9 4 11 5 12 6 13 13 14
REMARK SMILES IDX 14 16 15 17
REMARK H PARENT
REMARK Flexibility Score: 80.00
ROOT
ATOM      1  C   UNL     1     169.369 163.329 198.549  1.00  0.00     0.031 C 
ENDROOT
BRANCH   1   2
ATOM      2  C   UNL     1     168.220 163.871 197.683  1.00  0.00    -0.074 C 
ATOM      3  C   UNL     1     168.499 164.740 196.698  1.00  0.00     0.008 C 
BRANCH   2   4
ATOM      4  C   UNL     1     166.746 163.561 198.004  1.00  0.00     0.018 C 
ATOM      5  C   UNL     1     164.089 162.781 199.822  1.00  0.00     0.008 C 
ATOM      6  C   UNL     1     165.092 162.021 198.953  1.00  0.00    -0.010 C 
ATOM      7  C   UNL     1     164.781 162.213 197.450  1.00  0.00     0.004 C 
ATOM      8  C   UNL     1     166.543 162.495 199.092  1.00  0.00     0.003 CG0
ATOM      9  C   UNL     1     165.950 162.995 196.828  1.00  0.00     0.008 C 
ATOM     10  G   UNL     1     167.206 162.673 200.503  1.00  0.00     0.000 G0
ENDBRANCH   2   4
ENDBRANCH   1   2
BRANCH   1  11
ATOM     11  C   UNL     1     169.363 163.850 200.013  1.00  0.00     0.009 C 
BRANCH  11  12
ATOM     12  C   UNL     1     167.928 164.070 200.503  1.00  0.00    -0.001 C 
ATOM     13  C   UNL     1     167.208 162.680 200.513  1.00  0.00     0.002 CG0
ATOM     14  C   UNL     1     167.210 163.610 201.744  1.00  0.00    -0.029 C 
ATOM     15  G   UNL     1     166.544 162.492 199.105  1.00  0.00     0.000 G0
ATOM     16  C   UNL     1     168.115 163.224 202.923  1.00  0.00     0.011 C 
ATOM     17  C   UNL     1     165.952 164.410 202.095  1.00  0.00     0.011 C 
ENDBRANCH  11  12
ENDBRANCH   1  11
TORSDOF 0
ENDMDL
MODEL 7
REMARK VINA RESULT:    -3.862      1.268      3.385
REMARK INTER + INTRA:          -2.055
REMARK INTER:                  -4.689
REMARK INTRA:                   2.634
REMARK UNBOUND:                 2.709
REMARK SMILES C=C1CC[C@H]2[C@H]([C@@H]3[C@@H]1CC[C@@H]3C)C2(C)C
REMARK SMILES IDX 3 1 2 2 1 3 8 4 12 5 11 6 10 7 7 8 9 9 4 11 5 12 6 13 13 14
REMARK SMILES IDX 14 16 15 17
REMARK H PARENT
REMARK Flexibility Score: 80.00
ROOT
ATOM      1  C   UNL     1     163.131 167.369 200.506  1.00  0.00     0.031 C 
ENDROOT
BRANCH   1   2
ATOM      2  C   UNL     1     163.735 167.963 199.224  1.00  0.00    -0.074 C 
ATOM      3  C   UNL     1     162.970 168.055 198.124  1.00  0.00     0.008 C 
BRANCH   2   4
ATOM      4  C   UNL     1     165.230 168.320 199.120  1.00  0.00     0.018 C 
ATOM      5  C   UNL     1     168.187 169.485 200.050  1.00  0.00     0.008 C 
ATOM      6  C   UNL     1     166.987 170.022 199.270  1.00  0.00    -0.010 C 
ATOM      7  C   UNL     1     166.966 169.461 197.829  1.00  0.00     0.004 C 
ATOM      8  C   UNL     1     165.623 169.619 199.842  1.00  0.00     0.003 CG0
ATOM      9  C   UNL     1     165.722 168.567 197.694  1.00  0.00     0.008 C 
ATOM     10  G   UNL     1     165.296 169.804 201.365  1.00  0.00     0.000 G0
ENDBRANCH   2   4
ENDBRANCH   1   2
BRANCH   1  11
ATOM     11  C   UNL     1     163.430 168.191 201.791  1.00  0.00     0.009 C 
BRANCH  11  12
ATOM     12  C   UNL     1     164.939 168.398 201.960  1.00  0.00    -0.001 C 
ATOM     13  C   UNL     1     165.295 169.809 201.383  1.00  0.00     0.002 CG0
ATOM     14  C   UNL     1     165.731 169.369 202.796  1.00  0.00    -0.029 C 
ATOM     15  G   UNL     1     165.640 169.616 199.865  1.00  0.00     0.000 G0
ATOM     16  C   UNL     1     164.979 169.976 203.990  1.00  0.00     0.011 C 
ATOM     17  C   UNL     1     167.186 168.963 203.052  1.00  0.00     0.011 C 
ENDBRANCH  11  12
ENDBRANCH   1  11
TORSDOF 0
ENDMDL
MODEL 8
REMARK VINA RESULT:    -3.859      4.908      6.338
REMARK INTER + INTRA:          -2.051
REMARK INTER:                  -4.784
REMARK INTRA:                   2.733
REMARK UNBOUND:                 2.709
REMARK SMILES C=C1CC[C@H]2[C@H]([C@@H]3[C@@H]1CC[C@@H]3C)C2(C)C
REMARK SMILES IDX 3 1 2 2 1 3 8 4 12 5 11 6 10 7 7 8 9 9 4 11 5 12 6 13 13 14
REMARK SMILES IDX 14 16 15 17
REMARK H PARENT
REMARK Flexibility Score: 80.00
ROOT
ATOM      1  C   UNL     1     165.056 162.518 196.950  1.00  0.00     0.031 C 
ENDROOT
BRANCH   1   2
ATOM      2  C   UNL     1     166.517 162.859 197.284  1.00  0.00    -0.074 C 
ATOM      3  C   UNL     1     167.409 162.959 196.284  1.00  0.00     0.008 C 
BRANCH   2   4
ATOM      4  C   UNL     1     167.020 162.945 198.737  1.00  0.00     0.018 C 
ATOM      5  C   UNL     1     166.999 163.705 201.961  1.00  0.00     0.008 C 
ATOM      6  C   UNL     1     167.557 164.334 200.684  1.00  0.00    -0.010 C 
ATOM      7  C   UNL     1     168.845 163.609 200.225  1.00  0.00     0.004 C 
ATOM      8  C   UNL     1     166.628 164.239 199.468  1.00  0.00     0.003 CG0
ATOM      9  C   UNL     1     168.541 162.926 198.881  1.00  0.00     0.008 C 
ATOM     10  G   UNL     1     165.121 164.665 199.565  1.00  0.00     0.000 G0
ENDBRANCH   2   4
ENDBRANCH   1   2
BRANCH   1  11
ATOM     11  C   UNL     1     164.012 163.407 197.682  1.00  0.00     0.009 C 
BRANCH  11  12
ATOM     12  C   UNL     1     164.254 163.390 199.196  1.00  0.00    -0.001 C 
ATOM     13  C   UNL     1     165.103 164.655 199.558  1.00  0.00     0.002 CG0
ATOM     14  C   UNL     1     163.792 164.309 200.295  1.00  0.00    -0.029 C 
ATOM     15  G   UNL     1     166.613 164.243 199.459  1.00  0.00     0.000 G0
ATOM     16  C   UNL     1     162.552 165.154 199.970  1.00  0.00     0.011 C 
ATOM     17  C   UNL     1     163.847 163.708 201.704  1.00  0.00     0.011 C 
ENDBRANCH  11  12
ENDBRANCH   1  11
TORSDOF 0
ENDMDL
MODEL 9
REMARK VINA RESULT:    -3.847      4.955      6.207
REMARK INTER + INTRA:          -2.037
REMARK INTER:                  -4.752
REMARK INTRA:                   2.715
REMARK UNBOUND:                 2.709
REMARK SMILES C=C1CC[C@H]2[C@H]([C@@H]3[C@@H]1CC[C@@H]3C)C2(C)C
REMARK SMILES IDX 3 1 2 2 1 3 8 4 12 5 11 6 10 7 7 8 9 9 4 11 5 12 6 13 13 14
REMARK SMILES IDX 14 16 15 17
REMARK H PARENT
REMARK Flexibility Score: 80.00
ROOT
ATOM      1  C   UNL     1     164.106 162.349 199.731  1.00  0.00     0.031 C 
ENDROOT
BRANCH   1   2
ATOM      2  C   UNL     1     164.957 162.745 198.514  1.00  0.00    -0.074 C 
ATOM      3  C   UNL     1     164.365 162.859 197.314  1.00  0.00     0.008 C 
BRANCH   2   4
ATOM      4  C   UNL     1     166.489 162.872 198.601  1.00  0.00     0.018 C 
ATOM      5  C   UNL     1     169.444 163.678 199.862  1.00  0.00     0.008 C 
ATOM      6  C   UNL     1     168.455 164.309 198.883  1.00  0.00    -0.010 C 
ATOM      7  C   UNL     1     168.536 163.629 197.496  1.00  0.00     0.004 C 
ATOM      8  C   UNL     1     166.981 164.160 199.280  1.00  0.00     0.003 CG0
ATOM      9  C   UNL     1     167.196 162.915 197.247  1.00  0.00     0.008 C 
ATOM     10  G   UNL     1     166.490 164.528 200.724  1.00  0.00     0.000 G0
ENDBRANCH   2   4
ENDBRANCH   1   2
BRANCH   1  11
ATOM     11  C   UNL     1     164.363 163.215 200.997  1.00  0.00     0.009 C 
BRANCH  11  12
ATOM     12  C   UNL     1     165.855 163.227 201.349  1.00  0.00    -0.001 C 
ATOM     13  C   UNL     1     166.480 164.525 200.737  1.00  0.00     0.002 CG0
ATOM     14  C   UNL     1     166.672 164.144 202.219  1.00  0.00    -0.029 C 
ATOM     15  G   UNL     1     166.973 164.165 199.292  1.00  0.00     0.000 G0
ATOM     16  C   UNL     1     165.879 164.941 203.264  1.00  0.00     0.011 C 
ATOM     17  C   UNL     1     168.011 163.564 202.688  1.00  0.00     0.011 C 
ENDBRANCH  11  12
ENDBRANCH   1  11
TORSDOF 0
ENDMDL
