MODEL 1
REMARK VINA RESULT:    -4.008      0.000      0.000
REMARK INTER + INTRA:          -4.586
REMARK INTER:                  -4.593
REMARK INTRA:                   0.007
REMARK UNBOUND:                 0.007
REMARK SMILES CC(C)[C@H]([NH3+])C(=O)[O-]
REMARK SMILES IDX 4 1 5 2 6 6 7 7 8 8 2 9 1 10 3 11
REMARK H PARENT 5 3 5 4 5 5
REMARK Flexibility Score: inf
ROOT
ATOM      1  C   UNL     1       5.891  26.944  16.506  1.00  0.00     0.230 C 
ENDROOT
BRANCH   1   2
ATOM      2  N   UNL     1       4.756  26.591  15.640  1.00  0.00    -0.350 N 
ATOM      3  H   UNL     1       4.584  27.325  14.917  1.00  0.00     0.345 HD
ATOM      4  H   UNL     1       4.940  25.677  15.166  1.00  0.00     0.345 HD
ATOM      5  H   UNL     1       3.893  26.487  16.222  1.00  0.00     0.345 HD
ENDBRANCH   1   2
BRANCH   1   6
ATOM      6  C   UNL     1       6.905  27.772  15.752  1.00  0.00     0.099 C 
ATOM      7  O   UNL     1       6.537  28.621  14.897  1.00  0.00    -0.544 OA
ATOM      8  O   UNL     1       8.263  27.577  15.978  1.00  0.00    -0.544 OA
ENDBRANCH   1   6
BRANCH   1   9
ATOM      9  C   UNL     1       6.520  25.687  17.178  1.00  0.00     0.047 C 
ATOM     10  C   UNL     1       7.000  25.931  18.620  1.00  0.00     0.014 C 
ATOM     11  C   UNL     1       5.555  24.492  17.140  1.00  0.00     0.014 C 
ENDBRANCH   1   9
TORSDOF 3
ENDMDL
MODEL 2
REMARK VINA RESULT:    -3.918      1.778      2.354
REMARK INTER + INTRA:          -4.484
REMARK INTER:                  -4.485
REMARK INTRA:                   0.001
REMARK UNBOUND:                 0.007
REMARK SMILES CC(C)[C@H]([NH3+])C(=O)[O-]
REMARK SMILES IDX 4 1 5 2 6 6 7 7 8 8 2 9 1 10 3 11
REMARK H PARENT 5 3 5 4 5 5
REMARK Flexibility Score: inf
ROOT
ATOM      1  C   UNL     1       6.898  26.504  16.904  1.00  0.00     0.230 C 
ENDROOT
BRANCH   1   2
ATOM      2  N   UNL     1       7.814  27.464  17.536  1.00  0.00    -0.350 N 
ATOM      3  H   UNL     1       7.859  28.360  17.001  1.00  0.00     0.345 HD
ATOM      4  H   UNL     1       7.503  27.663  18.514  1.00  0.00     0.345 HD
ATOM      5  H   UNL     1       8.775  27.052  17.579  1.00  0.00     0.345 HD
ENDBRANCH   1   2
BRANCH   1   6
ATOM      6  C   UNL     1       5.842  27.221  16.095  1.00  0.00     0.099 C 
ATOM      7  O   UNL     1       4.659  26.792  16.055  1.00  0.00    -0.544 OA
ATOM      8  O   UNL     1       6.183  28.351  15.361  1.00  0.00    -0.544 OA
ENDBRANCH   1   6
BRANCH   1   9
ATOM      9  C   UNL     1       6.291  25.511  17.941  1.00  0.00     0.047 C 
ATOM     10  C   UNL     1       6.130  24.078  17.406  1.00  0.00     0.014 C 
ATOM     11  C   UNL     1       7.107  25.498  19.243  1.00  0.00     0.014 C 
ENDBRANCH   1   9
TORSDOF 3
ENDMDL
MODEL 3
REMARK VINA RESULT:    -3.846     10.124     11.171
REMARK INTER + INTRA:          -4.401
REMARK INTER:                  -4.357
REMARK INTRA:                  -0.044
REMARK UNBOUND:                 0.007
REMARK SMILES CC(C)[C@H]([NH3+])C(=O)[O-]
REMARK SMILES IDX 4 1 5 2 6 6 7 7 8 8 2 9 1 10 3 11
REMARK H PARENT 5 3 5 4 5 5
REMARK Flexibility Score: inf
ROOT
ATOM      1  C   UNL     1      14.287  21.794  21.594  1.00  0.00     0.230 C 
ENDROOT
BRANCH   1   2
ATOM      2  N   UNL     1      13.755  22.776  22.550  1.00  0.00    -0.350 N 
ATOM      3  H   UNL     1      12.710  22.781  22.551  1.00  0.00     0.345 HD
ATOM      4  H   UNL     1      14.099  22.560  23.513  1.00  0.00     0.345 HD
ATOM      5  H   UNL     1      14.092  23.732  22.291  1.00  0.00     0.345 HD
ENDBRANCH   1   2
BRANCH   1   6
ATOM      6  C   UNL     1      13.167  21.111  20.845  1.00  0.00     0.099 C 
ATOM      7  O   UNL     1      11.988  21.135  21.285  1.00  0.00    -0.544 OA
ATOM      8  O   UNL     1      13.442  20.421  19.670  1.00  0.00    -0.544 OA
ENDBRANCH   1   6
BRANCH   1   9
ATOM      9  C   UNL     1      15.256  20.784  22.281  1.00  0.00     0.047 C 
ATOM     10  C   UNL     1      16.742  21.065  22.000  1.00  0.00     0.014 C 
ATOM     11  C   UNL     1      15.010  20.717  23.796  1.00  0.00     0.014 C 
ENDBRANCH   1   9
TORSDOF 3
ENDMDL
MODEL 4
REMARK VINA RESULT:    -3.843     15.235     15.781
REMARK INTER + INTRA:          -4.397
REMARK INTER:                  -4.325
REMARK INTRA:                  -0.072
REMARK UNBOUND:                 0.007
REMARK SMILES CC(C)[C@H]([NH3+])C(=O)[O-]
REMARK SMILES IDX 4 1 5 2 6 6 7 7 8 8 2 9 1 10 3 11
REMARK H PARENT 5 3 5 4 5 5
REMARK Flexibility Score: inf
ROOT
ATOM      1  C   UNL     1       5.446  18.878  30.436  1.00  0.00     0.230 C 
ENDROOT
BRANCH   1   2
ATOM      2  N   UNL     1       5.461  20.076  31.290  1.00  0.00    -0.350 N 
ATOM      3  H   UNL     1       6.430  20.313  31.600  1.00  0.00     0.345 HD
ATOM      4  H   UNL     1       5.057  20.889  30.771  1.00  0.00     0.345 HD
ATOM      5  H   UNL     1       4.872  19.906  32.137  1.00  0.00     0.345 HD
ENDBRANCH   1   2
BRANCH   1   6
ATOM      6  C   UNL     1       6.825  18.592  29.889  1.00  0.00     0.099 C 
ATOM      7  O   UNL     1       7.342  19.340  29.017  1.00  0.00    -0.544 OA
ATOM      8  O   UNL     1       7.524  17.473  30.328  1.00  0.00    -0.544 OA
ENDBRANCH   1   6
BRANCH   1   9
ATOM      9  C   UNL     1       4.363  18.977  29.319  1.00  0.00     0.047 C 
ATOM     10  C   UNL     1       4.128  17.655  28.569  1.00  0.00     0.014 C 
ATOM     11  C   UNL     1       3.035  19.510  29.876  1.00  0.00     0.014 C 
ENDBRANCH   1   9
TORSDOF 3
ENDMDL
MODEL 5
REMARK VINA RESULT:    -3.824     10.353     11.343
REMARK INTER + INTRA:          -4.376
REMARK INTER:                  -4.347
REMARK INTRA:                  -0.028
REMARK UNBOUND:                 0.007
REMARK SMILES CC(C)[C@H]([NH3+])C(=O)[O-]
REMARK SMILES IDX 4 1 5 2 6 6 7 7 8 8 2 9 1 10 3 11
REMARK H PARENT 5 3 5 4 5 5
REMARK Flexibility Score: inf
ROOT
ATOM      1  C   UNL     1      14.163  21.271  21.563  1.00  0.00     0.230 C 
ENDROOT
BRANCH   1   2
ATOM      2  N   UNL     1      15.613  21.512  21.596  1.00  0.00    -0.350 N 
ATOM      3  H   UNL     1      15.838  22.428  22.044  1.00  0.00     0.345 HD
ATOM      4  H   UNL     1      16.090  20.745  22.120  1.00  0.00     0.345 HD
ATOM      5  H   UNL     1      15.987  21.519  20.619  1.00  0.00     0.345 HD
ENDBRANCH   1   2
BRANCH   1   6
ATOM      6  C   UNL     1      13.662  20.822  22.916  1.00  0.00     0.099 C 
ATOM      7  O   UNL     1      12.440  20.903  23.211  1.00  0.00    -0.544 OA
ATOM      8  O   UNL     1      14.561  20.342  23.861  1.00  0.00    -0.544 OA
ENDBRANCH   1   6
BRANCH   1   9
ATOM      9  C   UNL     1      13.764  20.291  20.418  1.00  0.00     0.047 C 
ATOM     10  C   UNL     1      13.690  18.820  20.861  1.00  0.00     0.014 C 
ATOM     11  C   UNL     1      12.441  20.711  19.760  1.00  0.00     0.014 C 
ENDBRANCH   1   9
TORSDOF 3
ENDMDL
MODEL 6
REMARK VINA RESULT:    -3.809     10.887     11.646
REMARK INTER + INTRA:          -4.359
REMARK INTER:                  -4.293
REMARK INTRA:                  -0.066
REMARK UNBOUND:                 0.007
REMARK SMILES CC(C)[C@H]([NH3+])C(=O)[O-]
REMARK SMILES IDX 4 1 5 2 6 6 7 7 8 8 2 9 1 10 3 11
REMARK H PARENT 5 3 5 4 5 5
REMARK Flexibility Score: inf
ROOT
ATOM      1  C   UNL     1      -1.657  21.162  23.109  1.00  0.00     0.230 C 
ENDROOT
BRANCH   1   2
ATOM      2  N   UNL     1      -0.875  20.180  23.874  1.00  0.00    -0.350 N 
ATOM      3  H   UNL     1      -1.492  19.559  24.444  1.00  0.00     0.345 HD
ATOM      4  H   UNL     1      -0.303  19.594  23.223  1.00  0.00     0.345 HD
ATOM      5  H   UNL     1      -0.221  20.681  24.518  1.00  0.00     0.345 HD
ENDBRANCH   1   2
BRANCH   1   6
ATOM      6  C   UNL     1      -2.249  20.531  21.871  1.00  0.00     0.099 C 
ATOM      7  O   UNL     1      -2.846  21.231  21.011  1.00  0.00    -0.544 OA
ATOM      8  O   UNL     1      -2.162  19.155  21.687  1.00  0.00    -0.544 OA
ENDBRANCH   1   6
BRANCH   1   9
ATOM      9  C   UNL     1      -0.829  22.444  22.794  1.00  0.00     0.047 C 
ATOM     10  C   UNL     1      -0.516  23.298  24.035  1.00  0.00     0.014 C 
ATOM     11  C   UNL     1       0.471  22.100  22.051  1.00  0.00     0.014 C 
ENDBRANCH   1   9
TORSDOF 3
ENDMDL
MODEL 7
REMARK VINA RESULT:    -3.741     10.445     11.489
REMARK INTER + INTRA:          -4.280
REMARK INTER:                  -4.217
REMARK INTRA:                  -0.063
REMARK UNBOUND:                 0.007
REMARK SMILES CC(C)[C@H]([NH3+])C(=O)[O-]
REMARK SMILES IDX 4 1 5 2 6 6 7 7 8 8 2 9 1 10 3 11
REMARK H PARENT 5 3 5 4 5 5
REMARK Flexibility Score: inf
ROOT
ATOM      1  C   UNL     1      14.103  19.385  21.390  1.00  0.00     0.230 C 
ENDROOT
BRANCH   1   2
ATOM      2  N   UNL     1      13.282  18.449  22.172  1.00  0.00    -0.350 N 
ATOM      3  H   UNL     1      12.854  17.715  21.565  1.00  0.00     0.345 HD
ATOM      4  H   UNL     1      13.867  17.989  22.907  1.00  0.00     0.345 HD
ATOM      5  H   UNL     1      12.514  18.975  22.651  1.00  0.00     0.345 HD
ENDBRANCH   1   2
BRANCH   1   6
ATOM      6  C   UNL     1      14.725  20.430  22.286  1.00  0.00     0.099 C 
ATOM      7  O   UNL     1      14.597  20.368  23.537  1.00  0.00    -0.544 OA
ATOM      8  O   UNL     1      15.425  21.493  21.725  1.00  0.00    -0.544 OA
ENDBRANCH   1   6
BRANCH   1   9
ATOM      9  C   UNL     1      13.304  20.005  20.205  1.00  0.00     0.047 C 
ATOM     10  C   UNL     1      12.790  18.965  19.195  1.00  0.00     0.014 C 
ATOM     11  C   UNL     1      12.139  20.870  20.709  1.00  0.00     0.014 C 
ENDBRANCH   1   9
TORSDOF 3
ENDMDL
MODEL 8
REMARK VINA RESULT:    -3.703      9.637     10.585
REMARK INTER + INTRA:          -4.237
REMARK INTER:                  -4.190
REMARK INTRA:                  -0.047
REMARK UNBOUND:                 0.007
REMARK SMILES CC(C)[C@H]([NH3+])C(=O)[O-]
REMARK SMILES IDX 4 1 5 2 6 6 7 7 8 8 2 9 1 10 3 11
REMARK H PARENT 5 3 5 4 5 5
REMARK Flexibility Score: inf
ROOT
ATOM      1  C   UNL     1      13.164  20.012  19.923  1.00  0.00     0.230 C 
ENDROOT
BRANCH   1   2
ATOM      2  N   UNL     1      13.777  19.497  18.689  1.00  0.00    -0.350 N 
ATOM      3  H   UNL     1      13.703  18.457  18.630  1.00  0.00     0.345 HD
ATOM      4  H   UNL     1      13.312  19.923  17.855  1.00  0.00     0.345 HD
ATOM      5  H   UNL     1      14.789  19.761  18.666  1.00  0.00     0.345 HD
ENDBRANCH   1   2
BRANCH   1   6
ATOM      6  C   UNL     1      13.650  19.240  21.127  1.00  0.00     0.099 C 
ATOM      7  O   UNL     1      14.165  18.098  20.996  1.00  0.00    -0.544 OA
ATOM      8  O   UNL     1      13.504  19.780  22.399  1.00  0.00    -0.544 OA
ENDBRANCH   1   6
BRANCH   1   9
ATOM      9  C   UNL     1      11.609  20.055  19.823  1.00  0.00     0.047 C 
ATOM     10  C   UNL     1      11.006  21.428  20.167  1.00  0.00     0.014 C 
ATOM     11  C   UNL     1      11.126  19.600  18.437  1.00  0.00     0.014 C 
ENDBRANCH   1   9
TORSDOF 3
ENDMDL
MODEL 9
REMARK VINA RESULT:    -2.073     10.765     11.626
REMARK INTER + INTRA:          -2.369
REMARK INTER:                  -2.335
REMARK INTRA:                  -0.033
REMARK UNBOUND:                 0.007
REMARK SMILES CC(C)[C@H]([NH3+])C(=O)[O-]
REMARK SMILES IDX 4 1 5 2 6 6 7 7 8 8 2 9 1 10 3 11
REMARK H PARENT 5 3 5 4 5 5
REMARK Flexibility Score: inf
ROOT
ATOM      1  C   UNL     1      -1.679  21.003  21.319  1.00  0.00     0.230 C 
ENDROOT
BRANCH   1   2
ATOM      2  N   UNL     1      -3.125  21.127  21.084  1.00  0.00    -0.350 N 
ATOM      3  H   UNL     1      -3.652  20.330  21.507  1.00  0.00     0.345 HD
ATOM      4  H   UNL     1      -3.476  22.025  21.489  1.00  0.00     0.345 HD
ATOM      5  H   UNL     1      -3.311  21.141  20.055  1.00  0.00     0.345 HD
ENDBRANCH   1   2
BRANCH   1   6
ATOM      6  C   UNL     1      -1.245  19.558  21.244  1.00  0.00     0.099 C 
ATOM      7  O   UNL     1      -0.038  19.256  21.049  1.00  0.00    -0.544 OA
ATOM      8  O   UNL     1      -2.190  18.545  21.361  1.00  0.00    -0.544 OA
ENDBRANCH   1   6
BRANCH   1   9
ATOM      9  C   UNL     1      -1.246  21.693  22.648  1.00  0.00     0.047 C 
ATOM     10  C   UNL     1      -1.249  20.751  23.864  1.00  0.00     0.014 C 
ATOM     11  C   UNL     1       0.127  22.366  22.506  1.00  0.00     0.014 C 
ENDBRANCH   1   9
TORSDOF 3
ENDMDL
