MODEL 1
REMARK VINA RESULT:    -2.823      0.000      0.000
REMARK INTER + INTRA:          -3.180
REMARK INTER:                  -3.153
REMARK INTRA:                  -0.027
REMARK UNBOUND:                -0.027
REMARK SMILES CCCC(=O)[O-]
REMARK SMILES IDX 3 1 4 2 5 3 6 4 2 5 1 6
REMARK H PARENT
REMARK Flexibility Score: inf
ROOT
ATOM      1  C   UNL     1     -21.986 121.311  -1.016  1.00  0.00     0.052 C 
ENDROOT
BRANCH   1   2
ATOM      2  C   UNL     1     -23.162 120.485  -0.604  1.00  0.00     0.041 C 
ATOM      3  O   UNL     1     -22.989 119.354  -0.077  1.00  0.00    -0.550 OA
ATOM      4  O   UNL     1     -24.452 120.941  -0.845  1.00  0.00    -0.550 OA
ENDBRANCH   1   2
BRANCH   1   5
ATOM      5  C   UNL     1     -20.678 120.596  -0.661  1.00  0.00     0.003 C 
ATOM      6  C   UNL     1     -19.715 120.590  -1.844  1.00  0.00     0.004 C 
ENDBRANCH   1   5
TORSDOF 2
ENDMDL
MODEL 2
REMARK VINA RESULT:    -2.763      0.951      1.613
REMARK INTER + INTRA:          -3.113
REMARK INTER:                  -3.073
REMARK INTRA:                  -0.040
REMARK UNBOUND:                -0.027
REMARK SMILES CCCC(=O)[O-]
REMARK SMILES IDX 3 1 4 2 5 3 6 4 2 5 1 6
REMARK H PARENT
REMARK Flexibility Score: inf
ROOT
ATOM      1  C   UNL     1     -22.113 121.006  -0.873  1.00  0.00     0.052 C 
ENDROOT
BRANCH   1   2
ATOM      2  C   UNL     1     -22.586 119.733  -0.248  1.00  0.00     0.041 C 
ATOM      3  O   UNL     1     -23.792 119.385  -0.353  1.00  0.00    -0.550 OA
ATOM      4  O   UNL     1     -21.708 118.952   0.492  1.00  0.00    -0.550 OA
ENDBRANCH   1   2
BRANCH   1   5
ATOM      5  C   UNL     1     -20.586 121.102  -0.802  1.00  0.00     0.003 C 
ATOM      6  C   UNL     1     -19.949 120.745  -2.142  1.00  0.00     0.004 C 
ENDBRANCH   1   5
TORSDOF 2
ENDMDL
MODEL 3
REMARK VINA RESULT:    -2.720      2.463      3.165
REMARK INTER + INTRA:          -3.065
REMARK INTER:                  -2.997
REMARK INTRA:                  -0.068
REMARK UNBOUND:                -0.027
REMARK SMILES CCCC(=O)[O-]
REMARK SMILES IDX 3 1 4 2 5 3 6 4 2 5 1 6
REMARK H PARENT
REMARK Flexibility Score: inf
ROOT
ATOM      1  C   UNL     1     -19.973 120.477  -1.950  1.00  0.00     0.052 C 
ENDROOT
BRANCH   1   2
ATOM      2  C   UNL     1     -20.350 119.045  -2.161  1.00  0.00     0.041 C 
ATOM      3  O   UNL     1     -19.973 118.164  -1.344  1.00  0.00    -0.550 OA
ATOM      4  O   UNL     1     -21.076 118.674  -3.285  1.00  0.00    -0.550 OA
ENDBRANCH   1   2
BRANCH   1   5
ATOM      5  C   UNL     1     -20.698 121.047  -0.727  1.00  0.00     0.003 C 
ATOM      6  C   UNL     1     -22.207 121.091  -0.953  1.00  0.00     0.004 C 
ENDBRANCH   1   5
TORSDOF 2
ENDMDL
MODEL 4
REMARK VINA RESULT:    -2.682      2.192      2.484
REMARK INTER + INTRA:          -3.023
REMARK INTER:                  -2.985
REMARK INTRA:                  -0.038
REMARK UNBOUND:                -0.027
REMARK SMILES CCCC(=O)[O-]
REMARK SMILES IDX 3 1 4 2 5 3 6 4 2 5 1 6
REMARK H PARENT
REMARK Flexibility Score: inf
ROOT
ATOM      1  C   UNL     1     -21.736 120.021  -0.422  1.00  0.00     0.052 C 
ENDROOT
BRANCH   1   2
ATOM      2  C   UNL     1     -21.448 118.684   0.183  1.00  0.00     0.041 C 
ATOM      3  O   UNL     1     -21.585 118.506   1.422  1.00  0.00    -0.550 OA
ATOM      4  O   UNL     1     -20.981 117.645  -0.613  1.00  0.00    -0.550 OA
ENDBRANCH   1   2
BRANCH   1   5
ATOM      5  C   UNL     1     -20.438 120.810  -0.619  1.00  0.00     0.003 C 
ATOM      6  C   UNL     1     -19.962 120.735  -2.066  1.00  0.00     0.004 C 
ENDBRANCH   1   5
TORSDOF 2
ENDMDL
MODEL 5
REMARK VINA RESULT:    -2.599      2.648      3.565
REMARK INTER + INTRA:          -2.930
REMARK INTER:                  -2.888
REMARK INTRA:                  -0.042
REMARK UNBOUND:                -0.027
REMARK SMILES CCCC(=O)[O-]
REMARK SMILES IDX 3 1 4 2 5 3 6 4 2 5 1 6
REMARK H PARENT
REMARK Flexibility Score: inf
ROOT
ATOM      1  C   UNL     1     -21.159 120.165  -0.409  1.00  0.00     0.052 C 
ENDROOT
BRANCH   1   2
ATOM      2  C   UNL     1     -20.042 119.946  -1.379  1.00  0.00     0.041 C 
ATOM      3  O   UNL     1     -19.636 120.893  -2.103  1.00  0.00    -0.550 OA
ATOM      4  O   UNL     1     -19.479 118.684  -1.520  1.00  0.00    -0.550 OA
ENDBRANCH   1   2
BRANCH   1   5
ATOM      5  C   UNL     1     -22.090 121.275  -0.906  1.00  0.00     0.003 C 
ATOM      6  C   UNL     1     -23.280 120.696  -1.666  1.00  0.00     0.004 C 
ENDBRANCH   1   5
TORSDOF 2
ENDMDL
MODEL 6
REMARK VINA RESULT:    -2.568      2.399      3.155
REMARK INTER + INTRA:          -2.896
REMARK INTER:                  -2.826
REMARK INTRA:                  -0.070
REMARK UNBOUND:                -0.027
REMARK SMILES CCCC(=O)[O-]
REMARK SMILES IDX 3 1 4 2 5 3 6 4 2 5 1 6
REMARK H PARENT
REMARK Flexibility Score: inf
ROOT
ATOM      1  C   UNL     1     -19.538 119.371  -1.502  1.00  0.00     0.052 C 
ENDROOT
BRANCH   1   2
ATOM      2  C   UNL     1     -20.641 118.361  -1.496  1.00  0.00     0.041 C 
ATOM      3  O   UNL     1     -21.235 118.065  -2.565  1.00  0.00    -0.550 OA
ATOM      4  O   UNL     1     -21.046 117.779  -0.300  1.00  0.00    -0.550 OA
ENDBRANCH   1   2
BRANCH   1   5
ATOM      5  C   UNL     1     -20.061 120.730  -1.978  1.00  0.00     0.003 C 
ATOM      6  C   UNL     1     -21.123 121.275  -1.027  1.00  0.00     0.004 C 
ENDBRANCH   1   5
TORSDOF 2
ENDMDL
MODEL 7
REMARK VINA RESULT:    -2.402      1.606      2.115
REMARK INTER + INTRA:          -2.710
REMARK INTER:                  -2.652
REMARK INTRA:                  -0.058
REMARK UNBOUND:                -0.027
REMARK SMILES CCCC(=O)[O-]
REMARK SMILES IDX 3 1 4 2 5 3 6 4 2 5 1 6
REMARK H PARENT
REMARK Flexibility Score: inf
ROOT
ATOM      1  C   UNL     1     -20.577 120.692  -2.242  1.00  0.00     0.052 C 
ENDROOT
BRANCH   1   2
ATOM      2  C   UNL     1     -21.974 120.710  -1.709  1.00  0.00     0.041 C 
ATOM      3  O   UNL     1     -22.954 120.710  -2.500  1.00  0.00    -0.550 OA
ATOM      4  O   UNL     1     -22.196 120.775  -0.339  1.00  0.00    -0.550 OA
ENDBRANCH   1   2
BRANCH   1   5
ATOM      5  C   UNL     1     -19.677 119.826  -1.356  1.00  0.00     0.003 C 
ATOM      6  C   UNL     1     -19.897 118.341  -1.633  1.00  0.00     0.004 C 
ENDBRANCH   1   5
TORSDOF 2
ENDMDL
MODEL 8
REMARK VINA RESULT:    -2.365      3.074      3.974
REMARK INTER + INTRA:          -2.668
REMARK INTER:                  -2.628
REMARK INTRA:                  -0.041
REMARK UNBOUND:                -0.027
REMARK SMILES CCCC(=O)[O-]
REMARK SMILES IDX 3 1 4 2 5 3 6 4 2 5 1 6
REMARK H PARENT
REMARK Flexibility Score: inf
ROOT
ATOM      1  C   UNL     1     -21.532 119.058  -0.843  1.00  0.00     0.052 C 
ENDROOT
BRANCH   1   2
ATOM      2  C   UNL     1     -20.120 119.026  -1.336  1.00  0.00     0.041 C 
ATOM      3  O   UNL     1     -19.498 120.101  -1.545  1.00  0.00    -0.550 OA
ATOM      4  O   UNL     1     -19.505 117.811  -1.611  1.00  0.00    -0.550 OA
ENDBRANCH   1   2
BRANCH   1   5
ATOM      5  C   UNL     1     -21.566 118.995   0.687  1.00  0.00     0.003 C 
ATOM      6  C   UNL     1     -21.807 117.569   1.174  1.00  0.00     0.004 C 
ENDBRANCH   1   5
TORSDOF 2
ENDMDL
MODEL 9
REMARK VINA RESULT:    -2.348      6.649      7.542
REMARK INTER + INTRA:          -2.650
REMARK INTER:                  -2.617
REMARK INTRA:                  -0.033
REMARK UNBOUND:                -0.027
REMARK SMILES CCCC(=O)[O-]
REMARK SMILES IDX 3 1 4 2 5 3 6 4 2 5 1 6
REMARK H PARENT
REMARK Flexibility Score: inf
ROOT
ATOM      1  C   UNL     1     -18.604 114.444  -0.248  1.00  0.00     0.052 C 
ENDROOT
BRANCH   1   2
ATOM      2  C   UNL     1     -17.429 114.971  -1.007  1.00  0.00     0.041 C 
ATOM      3  O   UNL     1     -16.267 114.568  -0.736  1.00  0.00    -0.550 OA
ATOM      4  O   UNL     1     -17.609 115.943  -1.982  1.00  0.00    -0.550 OA
ENDBRANCH   1   2
BRANCH   1   5
ATOM      5  C   UNL     1     -19.790 114.211  -1.189  1.00  0.00     0.003 C 
ATOM      6  C   UNL     1     -21.042 114.921  -0.684  1.00  0.00     0.004 C 
ENDBRANCH   1   5
TORSDOF 2
ENDMDL
