MODEL 1
REMARK VINA RESULT:    -8.699      0.000      0.000
REMARK INTER + INTRA:         -10.741
REMARK INTER:                 -10.479
REMARK INTRA:                  -0.262
REMARK UNBOUND:                -0.262
REMARK SMILES O=c1c(O)c(-c2ccc(O)c(O)c2)oc2cc(O)cc(O)c12
REMARK SMILES IDX 5 1 3 2 2 3 1 4 22 5 20 6 19 7 17 8 16 9 15 10 14 11 6 12
REMARK SMILES IDX 7 13 8 14 9 15 13 16 11 17 10 18 12 20 4 22 21 24 18 26
REMARK H PARENT 10 19 12 21 4 23 21 25 18 27
REMARK Flexibility Score: inf
ROOT
ATOM      1  C   UNL     1     -24.769   6.415  13.555  1.00  0.00     0.180 A 
ATOM      2  C   UNL     1     -24.159   6.983  14.690  1.00  0.00     0.208 A 
ATOM      3  C   UNL     1     -24.389   8.338  14.976  1.00  0.00     0.238 A 
ATOM      4  O   UNL     1     -23.841   8.860  15.983  1.00  0.00    -0.285 OA
ATOM      5  C   UNL     1     -25.235   9.094  14.138  1.00  0.00     0.111 A 
ATOM      6  C   UNL     1     -25.520  10.463  14.358  1.00  0.00     0.134 A 
ATOM      7  C   UNL     1     -26.380  11.143  13.484  1.00  0.00     0.093 A 
ATOM      8  C   UNL     1     -26.960  10.481  12.395  1.00  0.00     0.123 A 
ATOM      9  C   UNL     1     -26.680   9.132  12.173  1.00  0.00     0.094 A 
ATOM     10  C   UNL     1     -25.826   8.437  13.033  1.00  0.00     0.146 A 
ATOM     11  O   UNL     1     -25.572   7.154  12.795  1.00  0.00    -0.452 OA
ENDROOT
BRANCH   1  12
ATOM     12  C   UNL     1     -24.561   4.998  13.176  1.00  0.00     0.025 A 
ATOM     13  C   UNL     1     -25.621   4.086  13.303  1.00  0.00     0.016 A 
ATOM     14  C   UNL     1     -25.454   2.749  12.932  1.00  0.00     0.051 A 
ATOM     15  C   UNL     1     -24.229   2.309  12.415  1.00  0.00     0.157 A 
ATOM     16  C   UNL     1     -23.339   4.556  12.636  1.00  0.00     0.062 A 
ATOM     17  C   UNL     1     -23.172   3.214  12.262  1.00  0.00     0.158 A 
BRANCH  15  18
ATOM     18  O   UNL     1     -24.057   0.976  12.046  1.00  0.00    -0.504 OA
ATOM     19  H   UNL     1     -23.411   0.708  11.312  1.00  0.00     0.293 HD
ENDBRANCH  15  18
BRANCH  17  20
ATOM     20  O   UNL     1     -21.958   2.776  11.734  1.00  0.00    -0.504 OA
ATOM     21  H   UNL     1     -21.357   2.140  12.245  1.00  0.00     0.293 HD
ENDBRANCH  17  20
ENDBRANCH   1  12
BRANCH   2  22
ATOM     22  O   UNL     1     -23.366   6.200  15.532  1.00  0.00    -0.502 OA
ATOM     23  H   UNL     1     -23.411   6.270  16.541  1.00  0.00     0.293 HD
ENDBRANCH   2  22
BRANCH   6  24
ATOM     24  O   UNL     1     -24.960  11.149  15.436  1.00  0.00    -0.507 OA
ATOM     25  H   UNL     1     -24.501  10.664  16.198  1.00  0.00     0.293 HD
ENDBRANCH   6  24
BRANCH   8  26
ATOM     26  O   UNL     1     -27.815  11.157  11.527  1.00  0.00    -0.508 OA
ATOM     27  H   UNL     1     -28.817  11.014  11.552  1.00  0.00     0.293 HD
ENDBRANCH   8  26
TORSDOF 6
ENDMDL
MODEL 2
REMARK VINA RESULT:    -8.678      0.712      1.446
REMARK INTER + INTRA:         -10.715
REMARK INTER:                 -10.398
REMARK INTRA:                  -0.317
REMARK UNBOUND:                -0.262
REMARK SMILES O=c1c(O)c(-c2ccc(O)c(O)c2)oc2cc(O)cc(O)c12
REMARK SMILES IDX 5 1 3 2 2 3 1 4 22 5 20 6 19 7 17 8 16 9 15 10 14 11 6 12
REMARK SMILES IDX 7 13 8 14 9 15 13 16 11 17 10 18 12 20 4 22 21 24 18 26
REMARK H PARENT 10 19 12 21 4 23 21 25 18 27
REMARK Flexibility Score: inf
ROOT
ATOM      1  C   UNL     1     -24.306   6.635  13.550  1.00  0.00     0.180 A 
ATOM      2  C   UNL     1     -23.890   7.204  14.769  1.00  0.00     0.208 A 
ATOM      3  C   UNL     1     -24.309   8.506  15.087  1.00  0.00     0.238 A 
ATOM      4  O   UNL     1     -23.935   9.030  16.170  1.00  0.00    -0.285 OA
ATOM      5  C   UNL     1     -25.148   9.206  14.195  1.00  0.00     0.111 A 
ATOM      6  C   UNL     1     -25.616  10.519  14.442  1.00  0.00     0.134 A 
ATOM      7  C   UNL     1     -26.456  11.144  13.509  1.00  0.00     0.093 A 
ATOM      8  C   UNL     1     -26.835  10.483  12.335  1.00  0.00     0.123 A 
ATOM      9  C   UNL     1     -26.374   9.189  12.087  1.00  0.00     0.094 A 
ATOM     10  C   UNL     1     -25.537   8.549  13.004  1.00  0.00     0.146 A 
ATOM     11  O   UNL     1     -25.109   7.319  12.740  1.00  0.00    -0.452 OA
ENDROOT
BRANCH   1  12
ATOM     12  C   UNL     1     -23.892   5.275  13.135  1.00  0.00     0.025 A 
ATOM     13  C   UNL     1     -22.651   5.094  12.502  1.00  0.00     0.016 A 
ATOM     14  C   UNL     1     -22.229   3.818  12.121  1.00  0.00     0.051 A 
ATOM     15  C   UNL     1     -23.036   2.702  12.381  1.00  0.00     0.157 A 
ATOM     16  C   UNL     1     -24.688   4.149  13.412  1.00  0.00     0.062 A 
ATOM     17  C   UNL     1     -24.265   2.868  13.031  1.00  0.00     0.158 A 
BRANCH  15  18
ATOM     18  O   UNL     1     -22.621   1.428  12.000  1.00  0.00    -0.504 OA
ATOM     19  H   UNL     1     -22.157   1.263  11.113  1.00  0.00     0.293 HD
ENDBRANCH  15  18
BRANCH  17  20
ATOM     20  O   UNL     1     -25.059   1.753  13.301  1.00  0.00    -0.504 OA
ATOM     21  H   UNL     1     -26.069   1.819  13.338  1.00  0.00     0.293 HD
ENDBRANCH  17  20
ENDBRANCH   1  12
BRANCH   2  22
ATOM     22  O   UNL     1     -23.101   6.471  15.658  1.00  0.00    -0.502 OA
ATOM     23  H   UNL     1     -22.448   6.911  16.294  1.00  0.00     0.293 HD
ENDBRANCH   2  22
BRANCH   6  24
ATOM     24  O   UNL     1     -25.256  11.203  15.604  1.00  0.00    -0.507 OA
ATOM     25  H   UNL     1     -25.833  11.181  16.436  1.00  0.00     0.293 HD
ENDBRANCH   6  24
BRANCH   8  26
ATOM     26  O   UNL     1     -27.670  11.105  11.409  1.00  0.00    -0.508 OA
ATOM     27  H   UNL     1     -27.566  10.948  10.413  1.00  0.00     0.293 HD
ENDBRANCH   8  26
TORSDOF 6
ENDMDL
MODEL 3
REMARK VINA RESULT:    -8.373      1.661      7.061
REMARK INTER + INTRA:         -10.348
REMARK INTER:                 -10.105
REMARK INTRA:                  -0.243
REMARK UNBOUND:                -0.262
REMARK SMILES O=c1c(O)c(-c2ccc(O)c(O)c2)oc2cc(O)cc(O)c12
REMARK SMILES IDX 5 1 3 2 2 3 1 4 22 5 20 6 19 7 17 8 16 9 15 10 14 11 6 12
REMARK SMILES IDX 7 13 8 14 9 15 13 16 11 17 10 18 12 20 4 22 21 24 18 26
REMARK H PARENT 10 19 12 21 4 23 21 25 18 27
REMARK Flexibility Score: inf
ROOT
ATOM      1  C   UNL     1     -25.613   6.920  12.562  1.00  0.00     0.180 A 
ATOM      2  C   UNL     1     -26.450   5.836  12.886  1.00  0.00     0.208 A 
ATOM      3  C   UNL     1     -25.908   4.541  12.896  1.00  0.00     0.238 A 
ATOM      4  O   UNL     1     -26.651   3.561  13.175  1.00  0.00    -0.285 OA
ATOM      5  C   UNL     1     -24.542   4.355  12.603  1.00  0.00     0.111 A 
ATOM      6  C   UNL     1     -23.918   3.084  12.594  1.00  0.00     0.134 A 
ATOM      7  C   UNL     1     -22.550   2.983  12.301  1.00  0.00     0.093 A 
ATOM      8  C   UNL     1     -21.795   4.127  12.018  1.00  0.00     0.123 A 
ATOM      9  C   UNL     1     -22.407   5.381  12.022  1.00  0.00     0.094 A 
ATOM     10  C   UNL     1     -23.768   5.503  12.312  1.00  0.00     0.146 A 
ATOM     11  O   UNL     1     -24.326   6.709  12.304  1.00  0.00    -0.452 OA
ENDROOT
BRANCH   1  12
ATOM     12  C   UNL     1     -26.115   8.313  12.511  1.00  0.00     0.025 A 
ATOM     13  C   UNL     1     -26.955   8.707  11.457  1.00  0.00     0.016 A 
ATOM     14  C   UNL     1     -27.457  10.010  11.401  1.00  0.00     0.051 A 
ATOM     15  C   UNL     1     -27.138  10.933  12.405  1.00  0.00     0.157 A 
ATOM     16  C   UNL     1     -25.815   9.238  13.529  1.00  0.00     0.062 A 
ATOM     17  C   UNL     1     -26.320  10.545  13.473  1.00  0.00     0.158 A 
BRANCH  15  18
ATOM     18  O   UNL     1     -27.634  12.234  12.351  1.00  0.00    -0.504 OA
ATOM     19  H   UNL     1     -27.045  13.035  12.550  1.00  0.00     0.293 HD
ENDBRANCH  15  18
BRANCH  17  20
ATOM     20  O   UNL     1     -26.015  11.462  14.479  1.00  0.00    -0.504 OA
ATOM     21  H   UNL     1     -26.157  11.241  15.457  1.00  0.00     0.293 HD
ENDBRANCH  17  20
ENDBRANCH   1  12
BRANCH   2  22
ATOM     22  O   UNL     1     -27.789   6.052  13.222  1.00  0.00    -0.502 OA
ATOM     23  H   UNL     1     -28.467   5.302  13.261  1.00  0.00     0.293 HD
ENDBRANCH   2  22
BRANCH   6  24
ATOM     24  O   UNL     1     -24.644   1.925  12.876  1.00  0.00    -0.507 OA
ATOM     25  H   UNL     1     -25.079   1.377  12.144  1.00  0.00     0.293 HD
ENDBRANCH   6  24
BRANCH   8  26
ATOM     26  O   UNL     1     -20.436   4.026  11.727  1.00  0.00    -0.508 OA
ATOM     27  H   UNL     1     -19.938   3.149  11.821  1.00  0.00     0.293 HD
ENDBRANCH   8  26
TORSDOF 6
ENDMDL
MODEL 4
REMARK VINA RESULT:    -8.239      1.793      1.798
REMARK INTER + INTRA:         -10.187
REMARK INTER:                 -10.038
REMARK INTRA:                  -0.149
REMARK UNBOUND:                -0.262
REMARK SMILES O=c1c(O)c(-c2ccc(O)c(O)c2)oc2cc(O)cc(O)c12
REMARK SMILES IDX 5 1 3 2 2 3 1 4 22 5 20 6 19 7 17 8 16 9 15 10 14 11 6 12
REMARK SMILES IDX 7 13 8 14 9 15 13 16 11 17 10 18 12 20 4 22 21 24 18 26
REMARK H PARENT 10 19 12 21 4 23 21 25 18 27
REMARK Flexibility Score: inf
ROOT
ATOM      1  C   UNL     1     -24.240   6.314  13.827  1.00  0.00     0.180 A 
ATOM      2  C   UNL     1     -24.476   6.639  15.177  1.00  0.00     0.208 A 
ATOM      3  C   UNL     1     -24.378   7.981  15.577  1.00  0.00     0.238 A 
ATOM      4  O   UNL     1     -24.577   8.283  16.785  1.00  0.00    -0.285 OA
ATOM      5  C   UNL     1     -24.066   8.973  14.625  1.00  0.00     0.111 A 
ATOM      6  C   UNL     1     -23.951  10.346  14.946  1.00  0.00     0.134 A 
ATOM      7  C   UNL     1     -23.647  11.273  13.938  1.00  0.00     0.093 A 
ATOM      8  C   UNL     1     -23.457  10.853  12.617  1.00  0.00     0.123 A 
ATOM      9  C   UNL     1     -23.567   9.499  12.296  1.00  0.00     0.094 A 
ATOM     10  C   UNL     1     -23.869   8.560  13.286  1.00  0.00     0.146 A 
ATOM     11  O   UNL     1     -23.963   7.277  12.953  1.00  0.00    -0.452 OA
ENDROOT
BRANCH   1  12
ATOM     12  C   UNL     1     -24.306   4.920  13.331  1.00  0.00     0.025 A 
ATOM     13  C   UNL     1     -25.533   4.238  13.350  1.00  0.00     0.016 A 
ATOM     14  C   UNL     1     -25.624   2.930  12.868  1.00  0.00     0.051 A 
ATOM     15  C   UNL     1     -24.492   2.291  12.345  1.00  0.00     0.157 A 
ATOM     16  C   UNL     1     -23.177   4.282  12.786  1.00  0.00     0.062 A 
ATOM     17  C   UNL     1     -23.269   2.969  12.300  1.00  0.00     0.158 A 
BRANCH  15  18
ATOM     18  O   UNL     1     -24.577   0.985  11.866  1.00  0.00    -0.504 OA
ATOM     19  H   UNL     1     -25.447   0.465  11.893  1.00  0.00     0.293 HD
ENDBRANCH  15  18
BRANCH  17  20
ATOM     20  O   UNL     1     -22.147   2.335  11.766  1.00  0.00    -0.504 OA
ATOM     21  H   UNL     1     -22.160   1.352  11.522  1.00  0.00     0.293 HD
ENDBRANCH  17  20
ENDBRANCH   1  12
BRANCH   2  22
ATOM     22  O   UNL     1     -24.832   5.645  16.091  1.00  0.00    -0.502 OA
ATOM     23  H   UNL     1     -24.945   4.676  15.824  1.00  0.00     0.293 HD
ENDBRANCH   2  22
BRANCH   6  24
ATOM     24  O   UNL     1     -24.138  10.797  16.254  1.00  0.00    -0.507 OA
ATOM     25  H   UNL     1     -23.960  10.201  17.054  1.00  0.00     0.293 HD
ENDBRANCH   6  24
BRANCH   8  26
ATOM     26  O   UNL     1     -23.155  11.774  11.615  1.00  0.00    -0.508 OA
ATOM     27  H   UNL     1     -23.414  12.750  11.697  1.00  0.00     0.293 HD
ENDBRANCH   8  26
TORSDOF 6
ENDMDL
MODEL 5
REMARK VINA RESULT:    -8.172      1.352      3.177
REMARK INTER + INTRA:         -10.106
REMARK INTER:                  -9.775
REMARK INTRA:                  -0.331
REMARK UNBOUND:                -0.262
REMARK SMILES O=c1c(O)c(-c2ccc(O)c(O)c2)oc2cc(O)cc(O)c12
REMARK SMILES IDX 5 1 3 2 2 3 1 4 22 5 20 6 19 7 17 8 16 9 15 10 14 11 6 12
REMARK SMILES IDX 7 13 8 14 9 15 13 16 11 17 10 18 12 20 4 22 21 24 18 26
REMARK H PARENT 10 19 12 21 4 23 21 25 18 27
REMARK Flexibility Score: inf
ROOT
ATOM      1  C   UNL     1     -24.642   6.984  12.978  1.00  0.00     0.180 A 
ATOM      2  C   UNL     1     -25.432   7.618  12.000  1.00  0.00     0.208 A 
ATOM      3  C   UNL     1     -25.928   8.905  12.259  1.00  0.00     0.238 A 
ATOM      4  O   UNL     1     -26.645   9.478  11.395  1.00  0.00    -0.285 OA
ATOM      5  C   UNL     1     -25.612   9.542  13.476  1.00  0.00     0.111 A 
ATOM      6  C   UNL     1     -26.069  10.839  13.813  1.00  0.00     0.134 A 
ATOM      7  C   UNL     1     -25.702  11.408  15.042  1.00  0.00     0.093 A 
ATOM      8  C   UNL     1     -24.888  10.706  15.938  1.00  0.00     0.123 A 
ATOM      9  C   UNL     1     -24.437   9.427  15.611  1.00  0.00     0.094 A 
ATOM     10  C   UNL     1     -24.791   8.842  14.392  1.00  0.00     0.146 A 
ATOM     11  O   UNL     1     -24.352   7.621  14.109  1.00  0.00    -0.452 OA
ENDROOT
BRANCH   1  12
ATOM     12  C   UNL     1     -24.098   5.620  12.787  1.00  0.00     0.025 A 
ATOM     13  C   UNL     1     -22.793   5.460  12.291  1.00  0.00     0.016 A 
ATOM     14  C   UNL     1     -22.251   4.183  12.123  1.00  0.00     0.051 A 
ATOM     15  C   UNL     1     -23.001   3.049  12.462  1.00  0.00     0.157 A 
ATOM     16  C   UNL     1     -24.838   4.479  13.146  1.00  0.00     0.062 A 
ATOM     17  C   UNL     1     -24.294   3.197  12.978  1.00  0.00     0.158 A 
BRANCH  15  18
ATOM     18  O   UNL     1     -22.466   1.773  12.293  1.00  0.00    -0.504 OA
ATOM     19  H   UNL     1     -21.466   1.623  12.211  1.00  0.00     0.293 HD
ENDBRANCH  15  18
BRANCH  17  20
ATOM     20  O   UNL     1     -25.032   2.066  13.328  1.00  0.00    -0.504 OA
ATOM     21  H   UNL     1     -25.784   1.723  12.742  1.00  0.00     0.293 HD
ENDBRANCH  17  20
ENDBRANCH   1  12
BRANCH   2  22
ATOM     22  O   UNL     1     -25.689   6.986  10.781  1.00  0.00    -0.502 OA
ATOM     23  H   UNL     1     -24.951   6.633  10.186  1.00  0.00     0.293 HD
ENDBRANCH   2  22
BRANCH   6  24
ATOM     24  O   UNL     1     -26.880  11.565  12.939  1.00  0.00    -0.507 OA
ATOM     25  H   UNL     1     -27.778  11.933  13.227  1.00  0.00     0.293 HD
ENDBRANCH   6  24
BRANCH   8  26
ATOM     26  O   UNL     1     -24.524  11.272  17.158  1.00  0.00    -0.508 OA
ATOM     27  H   UNL     1     -24.366  10.702  17.981  1.00  0.00     0.293 HD
ENDBRANCH   8  26
TORSDOF 6
ENDMDL
MODEL 6
REMARK VINA RESULT:    -8.164      1.350      2.941
REMARK INTER + INTRA:         -10.096
REMARK INTER:                  -9.807
REMARK INTRA:                  -0.289
REMARK UNBOUND:                -0.262
REMARK SMILES O=c1c(O)c(-c2ccc(O)c(O)c2)oc2cc(O)cc(O)c12
REMARK SMILES IDX 5 1 3 2 2 3 1 4 22 5 20 6 19 7 17 8 16 9 15 10 14 11 6 12
REMARK SMILES IDX 7 13 8 14 9 15 13 16 11 17 10 18 12 20 4 22 21 24 18 26
REMARK H PARENT 10 19 12 21 4 23 21 25 18 27
REMARK Flexibility Score: inf
ROOT
ATOM      1  C   UNL     1     -24.706   7.108  12.944  1.00  0.00     0.180 A 
ATOM      2  C   UNL     1     -25.500   7.720  11.956  1.00  0.00     0.208 A 
ATOM      3  C   UNL     1     -26.018   9.002  12.201  1.00  0.00     0.238 A 
ATOM      4  O   UNL     1     -26.739   9.556  11.328  1.00  0.00    -0.285 OA
ATOM      5  C   UNL     1     -25.721   9.653  13.415  1.00  0.00     0.111 A 
ATOM      6  C   UNL     1     -26.202  10.945  13.739  1.00  0.00     0.134 A 
ATOM      7  C   UNL     1     -25.853  11.530  14.965  1.00  0.00     0.093 A 
ATOM      8  C   UNL     1     -25.034  10.849  15.873  1.00  0.00     0.123 A 
ATOM      9  C   UNL     1     -24.560   9.574  15.559  1.00  0.00     0.094 A 
ATOM     10  C   UNL     1     -24.896   8.974  14.343  1.00  0.00     0.146 A 
ATOM     11  O   UNL     1     -24.435   7.758  14.072  1.00  0.00    -0.452 OA
ENDROOT
BRANCH   1  12
ATOM     12  C   UNL     1     -24.139   5.751  12.768  1.00  0.00     0.025 A 
ATOM     13  C   UNL     1     -24.964   4.629  12.949  1.00  0.00     0.016 A 
ATOM     14  C   UNL     1     -24.456   3.340  12.767  1.00  0.00     0.051 A 
ATOM     15  C   UNL     1     -23.120   3.155  12.387  1.00  0.00     0.157 A 
ATOM     16  C   UNL     1     -22.804   5.561  12.366  1.00  0.00     0.062 A 
ATOM     17  C   UNL     1     -22.295   4.267  12.182  1.00  0.00     0.158 A 
BRANCH  15  18
ATOM     18  O   UNL     1     -22.608   1.872  12.208  1.00  0.00    -0.504 OA
ATOM     19  H   UNL     1     -22.518   1.460  11.286  1.00  0.00     0.293 HD
ENDBRANCH  15  18
BRANCH  17  20
ATOM     20  O   UNL     1     -20.969   4.081  11.790  1.00  0.00    -0.504 OA
ATOM     21  H   UNL     1     -20.228   3.961  12.470  1.00  0.00     0.293 HD
ENDBRANCH  17  20
ENDBRANCH   1  12
BRANCH   2  22
ATOM     22  O   UNL     1     -25.738   7.075  10.740  1.00  0.00    -0.502 OA
ATOM     23  H   UNL     1     -26.416   7.413  10.069  1.00  0.00     0.293 HD
ENDBRANCH   2  22
BRANCH   6  24
ATOM     24  O   UNL     1     -27.018  11.651  12.853  1.00  0.00    -0.507 OA
ATOM     25  H   UNL     1     -27.427  11.210  12.038  1.00  0.00     0.293 HD
ENDBRANCH   6  24
BRANCH   8  26
ATOM     26  O   UNL     1     -24.688  11.430  17.091  1.00  0.00    -0.508 OA
ATOM     27  H   UNL     1     -25.294  12.099  17.550  1.00  0.00     0.293 HD
ENDBRANCH   8  26
TORSDOF 6
ENDMDL
MODEL 7
REMARK VINA RESULT:    -7.805      2.416      6.966
REMARK INTER + INTRA:          -9.664
REMARK INTER:                  -9.383
REMARK INTRA:                  -0.281
REMARK UNBOUND:                -0.262
REMARK SMILES O=c1c(O)c(-c2ccc(O)c(O)c2)oc2cc(O)cc(O)c12
REMARK SMILES IDX 5 1 3 2 2 3 1 4 22 5 20 6 19 7 17 8 16 9 15 10 14 11 6 12
REMARK SMILES IDX 7 13 8 14 9 15 13 16 11 17 10 18 12 20 4 22 21 24 18 26
REMARK H PARENT 10 19 12 21 4 23 21 25 18 27
REMARK Flexibility Score: inf
ROOT
ATOM      1  C   UNL     1     -24.771   7.950  12.208  1.00  0.00     0.180 A 
ATOM      2  C   UNL     1     -26.099   7.703  12.606  1.00  0.00     0.208 A 
ATOM      3  C   UNL     1     -26.527   6.373  12.749  1.00  0.00     0.238 A 
ATOM      4  O   UNL     1     -27.716   6.140  13.096  1.00  0.00    -0.285 OA
ATOM      5  C   UNL     1     -25.622   5.319  12.510  1.00  0.00     0.111 A 
ATOM      6  C   UNL     1     -25.973   3.954  12.634  1.00  0.00     0.134 A 
ATOM      7  C   UNL     1     -25.011   2.963  12.388  1.00  0.00     0.093 A 
ATOM      8  C   UNL     1     -23.706   3.312  12.022  1.00  0.00     0.123 A 
ATOM      9  C   UNL     1     -23.356   4.657  11.896  1.00  0.00     0.094 A 
ATOM     10  C   UNL     1     -24.300   5.659  12.137  1.00  0.00     0.146 A 
ATOM     11  O   UNL     1     -23.941   6.931  12.005  1.00  0.00    -0.452 OA
ENDROOT
BRANCH   1  12
ATOM     12  C   UNL     1     -24.250   9.323  12.018  1.00  0.00     0.025 A 
ATOM     13  C   UNL     1     -24.598  10.040  10.862  1.00  0.00     0.016 A 
ATOM     14  C   UNL     1     -24.135  11.344  10.671  1.00  0.00     0.051 A 
ATOM     15  C   UNL     1     -23.330  11.956  11.641  1.00  0.00     0.157 A 
ATOM     16  C   UNL     1     -23.459   9.949  12.999  1.00  0.00     0.062 A 
ATOM     17  C   UNL     1     -22.995  11.259  12.808  1.00  0.00     0.158 A 
BRANCH  15  18
ATOM     18  O   UNL     1     -22.864  13.256  11.454  1.00  0.00    -0.504 OA
ATOM     19  H   UNL     1     -22.497  13.564  10.560  1.00  0.00     0.293 HD
ENDBRANCH  15  18
BRANCH  17  20
ATOM     20  O   UNL     1     -22.205  11.875  13.778  1.00  0.00    -0.504 OA
ATOM     21  H   UNL     1     -22.064  12.879  13.787  1.00  0.00     0.293 HD
ENDBRANCH  17  20
ENDBRANCH   1  12
BRANCH   2  22
ATOM     22  O   UNL     1     -26.962   8.765  12.886  1.00  0.00    -0.502 OA
ATOM     23  H   UNL     1     -26.887   9.662  12.423  1.00  0.00     0.293 HD
ENDBRANCH   2  22
BRANCH   6  24
ATOM     24  O   UNL     1     -27.266   3.574  13.000  1.00  0.00    -0.507 OA
ATOM     25  H   UNL     1     -27.886   4.203  13.496  1.00  0.00     0.293 HD
ENDBRANCH   6  24
BRANCH   8  26
ATOM     26  O   UNL     1     -22.751   2.328  11.778  1.00  0.00    -0.508 OA
ATOM     27  H   UNL     1     -22.259   2.274  10.894  1.00  0.00     0.293 HD
ENDBRANCH   8  26
TORSDOF 6
ENDMDL
MODEL 8
REMARK VINA RESULT:    -7.555      2.762      6.456
REMARK INTER + INTRA:          -9.362
REMARK INTER:                  -9.175
REMARK INTRA:                  -0.187
REMARK UNBOUND:                -0.262
REMARK SMILES O=c1c(O)c(-c2ccc(O)c(O)c2)oc2cc(O)cc(O)c12
REMARK SMILES IDX 5 1 3 2 2 3 1 4 22 5 20 6 19 7 17 8 16 9 15 10 14 11 6 12
REMARK SMILES IDX 7 13 8 14 9 15 13 16 11 17 10 18 12 20 4 22 21 24 18 26
REMARK H PARENT 10 19 12 21 4 23 21 25 18 27
REMARK Flexibility Score: inf
ROOT
ATOM      1  C   UNL     1     -24.459   7.919  12.302  1.00  0.00     0.180 A 
ATOM      2  C   UNL     1     -23.514   6.889  12.475  1.00  0.00     0.208 A 
ATOM      3  C   UNL     1     -23.970   5.591  12.756  1.00  0.00     0.238 A 
ATOM      4  O   UNL     1     -23.134   4.663  12.922  1.00  0.00    -0.285 OA
ATOM      5  C   UNL     1     -25.355   5.342  12.841  1.00  0.00     0.111 A 
ATOM      6  C   UNL     1     -25.896   4.064  13.119  1.00  0.00     0.134 A 
ATOM      7  C   UNL     1     -27.288   3.895  13.178  1.00  0.00     0.093 A 
ATOM      8  C   UNL     1     -28.147   4.979  12.965  1.00  0.00     0.123 A 
ATOM      9  C   UNL     1     -27.618   6.242  12.694  1.00  0.00     0.094 A 
ATOM     10  C   UNL     1     -26.234   6.430  12.631  1.00  0.00     0.146 A 
ATOM     11  O   UNL     1     -25.758   7.644  12.376  1.00  0.00    -0.452 OA
ENDROOT
BRANCH   1  12
ATOM     12  C   UNL     1     -24.056   9.316  12.022  1.00  0.00     0.025 A 
ATOM     13  C   UNL     1     -24.459   9.923  10.821  1.00  0.00     0.016 A 
ATOM     14  C   UNL     1     -24.109  11.247  10.544  1.00  0.00     0.051 A 
ATOM     15  C   UNL     1     -23.364  11.988  11.471  1.00  0.00     0.157 A 
ATOM     16  C   UNL     1     -23.327  10.071  12.959  1.00  0.00     0.062 A 
ATOM     17  C   UNL     1     -22.977  11.401  12.682  1.00  0.00     0.158 A 
BRANCH  15  18
ATOM     18  O   UNL     1     -23.010  13.308  11.198  1.00  0.00    -0.504 OA
ATOM     19  H   UNL     1     -22.860  13.981  11.941  1.00  0.00     0.293 HD
ENDBRANCH  15  18
BRANCH  17  20
ATOM     20  O   UNL     1     -22.247  12.145  13.608  1.00  0.00    -0.504 OA
ATOM     21  H   UNL     1     -21.261  11.974  13.767  1.00  0.00     0.293 HD
ENDBRANCH  17  20
ENDBRANCH   1  12
BRANCH   2  22
ATOM     22  O   UNL     1     -22.149   7.151  12.335  1.00  0.00    -0.502 OA
ATOM     23  H   UNL     1     -21.722   7.344  11.438  1.00  0.00     0.293 HD
ENDBRANCH   2  22
BRANCH   6  24
ATOM     24  O   UNL     1     -25.066   2.962  13.333  1.00  0.00    -0.507 OA
ATOM     25  H   UNL     1     -24.910   2.264  12.616  1.00  0.00     0.293 HD
ENDBRANCH   6  24
BRANCH   8  26
ATOM     26  O   UNL     1     -29.529   4.812  13.024  1.00  0.00    -0.508 OA
ATOM     27  H   UNL     1     -30.111   4.917  12.202  1.00  0.00     0.293 HD
ENDBRANCH   8  26
TORSDOF 6
ENDMDL
MODEL 9
REMARK VINA RESULT:    -7.370      1.535      2.384
REMARK INTER + INTRA:          -9.139
REMARK INTER:                  -8.932
REMARK INTRA:                  -0.208
REMARK UNBOUND:                -0.262
REMARK SMILES O=c1c(O)c(-c2ccc(O)c(O)c2)oc2cc(O)cc(O)c12
REMARK SMILES IDX 5 1 3 2 2 3 1 4 22 5 20 6 19 7 17 8 16 9 15 10 14 11 6 12
REMARK SMILES IDX 7 13 8 14 9 15 13 16 11 17 10 18 12 20 4 22 21 24 18 26
REMARK H PARENT 10 19 12 21 4 23 21 25 18 27
REMARK Flexibility Score: inf
ROOT
ATOM      1  C   UNL     1     -25.417   8.002  13.910  1.00  0.00     0.180 A 
ATOM      2  C   UNL     1     -24.893   8.559  15.093  1.00  0.00     0.208 A 
ATOM      3  C   UNL     1     -24.981   9.946  15.285  1.00  0.00     0.238 A 
ATOM      4  O   UNL     1     -24.507  10.458  16.335  1.00  0.00    -0.285 OA
ATOM      5  C   UNL     1     -25.603  10.748  14.306  1.00  0.00     0.111 A 
ATOM      6  C   UNL     1     -25.734  12.153  14.425  1.00  0.00     0.134 A 
ATOM      7  C   UNL     1     -26.375  12.879  13.411  1.00  0.00     0.093 A 
ATOM      8  C   UNL     1     -26.887  12.229  12.283  1.00  0.00     0.123 A 
ATOM      9  C   UNL     1     -26.759  10.844  12.160  1.00  0.00     0.094 A 
ATOM     10  C   UNL     1     -26.123  10.103  13.160  1.00  0.00     0.146 A 
ATOM     11  O   UNL     1     -26.010   8.787  13.015  1.00  0.00    -0.452 OA
ENDROOT
BRANCH   1  12
ATOM     12  C   UNL     1     -25.346   6.550  13.626  1.00  0.00     0.025 A 
ATOM     13  C   UNL     1     -24.099   5.955  13.378  1.00  0.00     0.016 A 
ATOM     14  C   UNL     1     -24.006   4.583  13.129  1.00  0.00     0.051 A 
ATOM     15  C   UNL     1     -25.157   3.785  13.139  1.00  0.00     0.157 A 
ATOM     16  C   UNL     1     -26.497   5.741  13.656  1.00  0.00     0.062 A 
ATOM     17  C   UNL     1     -26.403   4.364  13.407  1.00  0.00     0.158 A 
BRANCH  15  18
ATOM     18  O   UNL     1     -25.069   2.417  12.888  1.00  0.00    -0.504 OA
ATOM     19  H   UNL     1     -24.856   2.060  11.963  1.00  0.00     0.293 HD
ENDBRANCH  15  18
BRANCH  17  20
ATOM     20  O   UNL     1     -27.546   3.564  13.430  1.00  0.00    -0.504 OA
ATOM     21  H   UNL     1     -27.489   2.557  13.334  1.00  0.00     0.293 HD
ENDBRANCH  17  20
ENDBRANCH   1  12
BRANCH   2  22
ATOM     22  O   UNL     1     -24.327   7.737  16.070  1.00  0.00    -0.502 OA
ATOM     23  H   UNL     1     -24.669   7.710  17.022  1.00  0.00     0.293 HD
ENDBRANCH   2  22
BRANCH   6  24
ATOM     24  O   UNL     1     -25.236  12.830  15.539  1.00  0.00    -0.507 OA
ATOM     25  H   UNL     1     -25.847  13.309  16.189  1.00  0.00     0.293 HD
ENDBRANCH   6  24
BRANCH   8  26
ATOM     26  O   UNL     1     -27.525  12.951  11.275  1.00  0.00    -0.508 OA
ATOM     27  H   UNL     1     -28.267  13.608  11.483  1.00  0.00     0.293 HD
ENDBRANCH   8  26
TORSDOF 6
ENDMDL
