MODEL 1
REMARK VINA RESULT:    -3.814      0.000      0.000
REMARK INTER + INTRA:          -4.810
REMARK INTER:                  -4.706
REMARK INTRA:                  -0.103
REMARK UNBOUND:                -0.103
REMARK SMILES CCCCCC(=O)[O-]
REMARK SMILES IDX 4 1 5 2 6 3 7 4 8 5 3 6 2 7 1 8
REMARK H PARENT
REMARK Flexibility Score: inf
ROOT
ATOM      1  C   UNL     1      -2.372 -25.926   1.250  1.00  0.00     0.006 C 
ENDROOT
BRANCH   1   2
ATOM      2  C   UNL     1      -1.650 -25.641  -0.074  1.00  0.00     0.053 C 
BRANCH   2   3
ATOM      3  C   UNL     1      -2.549 -24.968  -1.066  1.00  0.00     0.041 C 
ATOM      4  O   UNL     1      -2.371 -23.756  -1.361  1.00  0.00    -0.550 OA
ATOM      5  O   UNL     1      -3.562 -25.685  -1.688  1.00  0.00    -0.550 OA
ENDBRANCH   2   3
ENDBRANCH   1   2
BRANCH   1   6
ATOM      6  C   UNL     1      -1.948 -27.270   1.865  1.00  0.00     0.000 C 
BRANCH   6   7
ATOM      7  C   UNL     1      -1.118 -27.097   3.147  1.00  0.00    -0.003 C 
ATOM      8  C   UNL     1      -1.336 -25.741   3.816  1.00  0.00     0.004 C 
ENDBRANCH   6   7
ENDBRANCH   1   6
TORSDOF 4
ENDMDL
MODEL 2
REMARK VINA RESULT:    -3.801      1.191      2.051
REMARK INTER + INTRA:          -4.793
REMARK INTER:                  -4.680
REMARK INTRA:                  -0.113
REMARK UNBOUND:                -0.103
REMARK SMILES CCCCCC(=O)[O-]
REMARK SMILES IDX 4 1 5 2 6 3 7 4 8 5 3 6 2 7 1 8
REMARK H PARENT
REMARK Flexibility Score: inf
ROOT
ATOM      1  C   UNL     1      -2.298 -26.100   1.228  1.00  0.00     0.006 C 
ENDROOT
BRANCH   1   2
ATOM      2  C   UNL     1      -1.538 -25.590  -0.004  1.00  0.00     0.053 C 
BRANCH   2   3
ATOM      3  C   UNL     1      -2.463 -25.007  -1.028  1.00  0.00     0.041 C 
ATOM      4  O   UNL     1      -3.442 -25.677  -1.451  1.00  0.00    -0.550 OA
ATOM      5  O   UNL     1      -2.264 -23.712  -1.491  1.00  0.00    -0.550 OA
ENDBRANCH   2   3
ENDBRANCH   1   2
BRANCH   1   6
ATOM      6  C   UNL     1      -1.918 -27.546   1.587  1.00  0.00     0.000 C 
BRANCH   6   7
ATOM      7  C   UNL     1      -0.402 -27.793   1.518  1.00  0.00    -0.003 C 
ATOM      8  C   UNL     1      -0.041 -29.277   1.551  1.00  0.00     0.004 C 
ENDBRANCH   6   7
ENDBRANCH   1   6
TORSDOF 4
ENDMDL
MODEL 3
REMARK VINA RESULT:    -3.796      0.257      1.155
REMARK INTER + INTRA:          -4.787
REMARK INTER:                  -4.669
REMARK INTRA:                  -0.117
REMARK UNBOUND:                -0.103
REMARK SMILES CCCCCC(=O)[O-]
REMARK SMILES IDX 4 1 5 2 6 3 7 4 8 5 3 6 2 7 1 8
REMARK H PARENT
REMARK Flexibility Score: inf
ROOT
ATOM      1  C   UNL     1      -2.292 -25.803   1.175  1.00  0.00     0.006 C 
ENDROOT
BRANCH   1   2
ATOM      2  C   UNL     1      -1.578 -25.411  -0.126  1.00  0.00     0.053 C 
BRANCH   2   3
ATOM      3  C   UNL     1      -2.524 -24.819  -1.125  1.00  0.00     0.041 C 
ATOM      4  O   UNL     1      -3.578 -25.432  -1.440  1.00  0.00    -0.550 OA
ATOM      5  O   UNL     1      -2.259 -23.575  -1.684  1.00  0.00    -0.550 OA
ENDBRANCH   2   3
ENDBRANCH   1   2
BRANCH   1   6
ATOM      6  C   UNL     1      -1.914 -27.220   1.641  1.00  0.00     0.000 C 
BRANCH   6   7
ATOM      7  C   UNL     1      -1.248 -27.227   3.026  1.00  0.00    -0.003 C 
ATOM      8  C   UNL     1      -1.416 -25.904   3.772  1.00  0.00     0.004 C 
ENDBRANCH   6   7
ENDBRANCH   1   6
TORSDOF 4
ENDMDL
MODEL 4
REMARK VINA RESULT:    -3.774      8.429      9.602
REMARK INTER + INTRA:          -4.760
REMARK INTER:                  -4.701
REMARK INTRA:                  -0.059
REMARK UNBOUND:                -0.103
REMARK SMILES CCCCCC(=O)[O-]
REMARK SMILES IDX 4 1 5 2 6 3 7 4 8 5 3 6 2 7 1 8
REMARK H PARENT
REMARK Flexibility Score: inf
ROOT
ATOM      1  C   UNL     1      -2.232 -26.570   9.808  1.00  0.00     0.006 C 
ENDROOT
BRANCH   1   2
ATOM      2  C   UNL     1      -2.722 -25.576  10.869  1.00  0.00     0.053 C 
BRANCH   2   3
ATOM      3  C   UNL     1      -4.119 -25.109  10.593  1.00  0.00     0.041 C 
ATOM      4  O   UNL     1      -4.483 -23.957  10.949  1.00  0.00    -0.550 OA
ATOM      5  O   UNL     1      -5.009 -25.933   9.916  1.00  0.00    -0.550 OA
ENDBRANCH   2   3
ENDBRANCH   1   2
BRANCH   1   6
ATOM      6  C   UNL     1      -0.700 -26.563   9.668  1.00  0.00     0.000 C 
BRANCH   6   7
ATOM      7  C   UNL     1      -0.237 -26.881   8.238  1.00  0.00    -0.003 C 
ATOM      8  C   UNL     1      -0.719 -28.246   7.748  1.00  0.00     0.004 C 
ENDBRANCH   6   7
ENDBRANCH   1   6
TORSDOF 4
ENDMDL
MODEL 5
REMARK VINA RESULT:    -3.772      7.872      9.122
REMARK INTER + INTRA:          -4.758
REMARK INTER:                  -4.705
REMARK INTRA:                  -0.053
REMARK UNBOUND:                -0.103
REMARK SMILES CCCCCC(=O)[O-]
REMARK SMILES IDX 4 1 5 2 6 3 7 4 8 5 3 6 2 7 1 8
REMARK H PARENT
REMARK Flexibility Score: inf
ROOT
ATOM      1  C   UNL     1      -1.710 -26.833   9.582  1.00  0.00     0.006 C 
ENDROOT
BRANCH   1   2
ATOM      2  C   UNL     1      -0.200 -26.565   9.541  1.00  0.00     0.053 C 
BRANCH   2   3
ATOM      3  C   UNL     1       0.370 -26.789   8.174  1.00  0.00     0.041 C 
ATOM      4  O   UNL     1       1.616 -26.877   8.013  1.00  0.00    -0.550 OA
ATOM      5  O   UNL     1      -0.476 -26.933   7.081  1.00  0.00    -0.550 OA
ENDBRANCH   2   3
ENDBRANCH   1   2
BRANCH   1   6
ATOM      6  C   UNL     1      -2.419 -25.999  10.662  1.00  0.00     0.000 C 
BRANCH   6   7
ATOM      7  C   UNL     1      -3.838 -25.579  10.246  1.00  0.00    -0.003 C 
ATOM      8  C   UNL     1      -4.306 -24.300  10.940  1.00  0.00     0.004 C 
ENDBRANCH   6   7
ENDBRANCH   1   6
TORSDOF 4
ENDMDL
MODEL 6
REMARK VINA RESULT:    -3.668      2.067      2.646
REMARK INTER + INTRA:          -4.629
REMARK INTER:                  -4.561
REMARK INTRA:                  -0.068
REMARK UNBOUND:                -0.103
REMARK SMILES CCCCCC(=O)[O-]
REMARK SMILES IDX 4 1 5 2 6 3 7 4 8 5 3 6 2 7 1 8
REMARK H PARENT
REMARK Flexibility Score: inf
ROOT
ATOM      1  C   UNL     1      -1.868 -27.830   1.585  1.00  0.00     0.006 C 
ENDROOT
BRANCH   1   2
ATOM      2  C   UNL     1      -2.194 -26.331   1.539  1.00  0.00     0.053 C 
BRANCH   2   3
ATOM      3  C   UNL     1      -1.998 -25.759   0.169  1.00  0.00     0.041 C 
ATOM      4  O   UNL     1      -0.871 -25.314  -0.176  1.00  0.00    -0.550 OA
ATOM      5  O   UNL     1      -3.050 -25.746  -0.738  1.00  0.00    -0.550 OA
ENDBRANCH   2   3
ENDBRANCH   1   2
BRANCH   1   6
ATOM      6  C   UNL     1      -0.386 -28.093   1.899  1.00  0.00     0.000 C 
BRANCH   6   7
ATOM      7  C   UNL     1       0.044 -29.529   1.555  1.00  0.00    -0.003 C 
ATOM      8  C   UNL     1       0.927 -30.157   2.632  1.00  0.00     0.004 C 
ENDBRANCH   6   7
ENDBRANCH   1   6
TORSDOF 4
ENDMDL
MODEL 7
REMARK VINA RESULT:    -3.604      9.892     10.575
REMARK INTER + INTRA:          -4.550
REMARK INTER:                  -4.443
REMARK INTRA:                  -0.107
REMARK UNBOUND:                -0.103
REMARK SMILES CCCCCC(=O)[O-]
REMARK SMILES IDX 4 1 5 2 6 3 7 4 8 5 3 6 2 7 1 8
REMARK H PARENT
REMARK Flexibility Score: inf
ROOT
ATOM      1  C   UNL     1      -1.825 -26.887   9.635  1.00  0.00     0.006 C 
ENDROOT
BRANCH   1   2
ATOM      2  C   UNL     1      -0.326 -26.616   9.446  1.00  0.00     0.053 C 
BRANCH   2   3
ATOM      3  C   UNL     1       0.440 -26.812  10.718  1.00  0.00     0.041 C 
ATOM      4  O   UNL     1       0.412 -27.923  11.310  1.00  0.00    -0.550 OA
ATOM      5  O   UNL     1       1.212 -25.778  11.234  1.00  0.00    -0.550 OA
ENDBRANCH   2   3
ENDBRANCH   1   2
BRANCH   1   6
ATOM      6  C   UNL     1      -2.455 -25.960  10.688  1.00  0.00     0.000 C 
BRANCH   6   7
ATOM      7  C   UNL     1      -3.839 -25.443  10.265  1.00  0.00    -0.003 C 
ATOM      8  C   UNL     1      -4.243 -24.163  10.996  1.00  0.00     0.004 C 
ENDBRANCH   6   7
ENDBRANCH   1   6
TORSDOF 4
ENDMDL
MODEL 8
REMARK VINA RESULT:    -3.593      7.693      9.270
REMARK INTER + INTRA:          -4.537
REMARK INTER:                  -4.426
REMARK INTRA:                  -0.110
REMARK UNBOUND:                -0.103
REMARK SMILES CCCCCC(=O)[O-]
REMARK SMILES IDX 4 1 5 2 6 3 7 4 8 5 3 6 2 7 1 8
REMARK H PARENT
REMARK Flexibility Score: inf
ROOT
ATOM      1  C   UNL     1      -0.106 -26.589   9.485  1.00  0.00     0.006 C 
ENDROOT
BRANCH   1   2
ATOM      2  C   UNL     1      -1.599 -26.944   9.490  1.00  0.00     0.053 C 
BRANCH   2   3
ATOM      3  C   UNL     1      -2.351 -26.180  10.537  1.00  0.00     0.041 C 
ATOM      4  O   UNL     1      -1.767 -25.804  11.588  1.00  0.00    -0.550 OA
ATOM      5  O   UNL     1      -3.687 -25.855  10.339  1.00  0.00    -0.550 OA
ENDBRANCH   2   3
ENDBRANCH   1   2
BRANCH   1   6
ATOM      6  C   UNL     1       0.538 -26.810   8.106  1.00  0.00     0.000 C 
BRANCH   6   7
ATOM      7  C   UNL     1      -0.444 -27.404   7.084  1.00  0.00    -0.003 C 
ATOM      8  C   UNL     1      -0.111 -27.013   5.645  1.00  0.00     0.004 C 
ENDBRANCH   6   7
ENDBRANCH   1   6
TORSDOF 4
ENDMDL
MODEL 9
REMARK VINA RESULT:    -3.571      4.515      5.378
REMARK INTER + INTRA:          -4.509
REMARK INTER:                  -4.350
REMARK INTRA:                  -0.160
REMARK UNBOUND:                -0.103
REMARK SMILES CCCCCC(=O)[O-]
REMARK SMILES IDX 4 1 5 2 6 3 7 4 8 5 3 6 2 7 1 8
REMARK H PARENT
REMARK Flexibility Score: inf
ROOT
ATOM      1  C   UNL     1      -0.230 -28.055   1.588  1.00  0.00     0.006 C 
ENDROOT
BRANCH   1   2
ATOM      2  C   UNL     1       0.067 -29.552   1.745  1.00  0.00     0.053 C 
BRANCH   2   3
ATOM      3  C   UNL     1       0.730 -29.855   3.053  1.00  0.00     0.041 C 
ATOM      4  O   UNL     1       1.735 -30.613   3.094  1.00  0.00    -0.550 OA
ATOM      5  O   UNL     1       0.258 -29.276   4.225  1.00  0.00    -0.550 OA
ENDBRANCH   2   3
ENDBRANCH   1   2
BRANCH   1   6
ATOM      6  C   UNL     1      -1.735 -27.749   1.677  1.00  0.00     0.000 C 
BRANCH   6   7
ATOM      7  C   UNL     1      -2.018 -26.331   2.197  1.00  0.00    -0.003 C 
ATOM      8  C   UNL     1      -1.434 -26.080   3.586  1.00  0.00     0.004 C 
ENDBRANCH   6   7
ENDBRANCH   1   6
TORSDOF 4
ENDMDL
