MODEL 1
REMARK VINA RESULT:    13.945      0.000      0.000
REMARK INTER + INTRA:          16.490
REMARK INTER:                  15.575
REMARK INTRA:                   0.915
REMARK UNBOUND:                 0.915
REMARK SMILES CC1(C)CC[C@]2(C(=O)[O-])[C@H](O)C[C@@]3(C)C(=CC[C@@H]4[C@]5(C)CC[C@H](O)C(C)(C)[C@@H]5CC[C@@]43C)[C@H]2C1
REMARK SMILES IDX 6 1 5 2 33 3 10 4 4 5 34 6 15 7 12 8 2 9 16 10 13 11 1 12
REMARK SMILES IDX 3 13 17 14 31 15 14 16 18 17 30 18 32 19 19 20 29 21 21 22
REMARK SMILES IDX 20 23 28 24 22 25 25 26 23 27 26 28 27 29 7 30 8 31 9 32
REMARK SMILES IDX 11 33 24 35
REMARK H PARENT 11 34 24 36
REMARK Flexibility Score: inf
ROOT
ATOM      1  C   UNL     1      99.459 116.725 123.701  1.00  0.00     0.042 C 
ATOM      2  C   UNL     1      99.858 118.112 124.277  1.00  0.00     0.017 C 
ATOM      3  C   UNL     1      98.928 116.899 122.243  1.00  0.00     0.030 C 
ATOM      4  C   UNL     1     100.725 115.834 123.648  1.00  0.00     0.127 C 
ATOM      5  C   UNL     1      98.686 119.102 124.257  1.00  0.00     0.007 C 
ATOM      6  C   UNL     1      97.765 117.941 122.176  1.00  0.00     0.015 C 
ATOM      7  C   UNL     1      98.656 115.551 121.540  1.00  0.00    -0.063 C 
ATOM      8  C   UNL     1     100.382 114.412 123.171  1.00  0.00     0.044 C 
ATOM      9  C   UNL     1      98.102 119.309 122.839  1.00  0.00    -0.035 C 
ATOM     10  C   UNL     1      97.897 115.518 120.418  1.00  0.00    -0.027 C 
ATOM     11  C   UNL     1      99.434 114.265 121.900  1.00  0.00    -0.003 C 
ATOM     12  C   UNL     1      99.083 120.119 121.953  1.00  0.00     0.011 C 
ATOM     13  C   UNL     1      96.799 120.125 122.968  1.00  0.00     0.011 C 
ATOM     14  C   UNL     1      97.990 114.390 119.422  1.00  0.00     0.032 C 
ATOM     15  C   UNL     1     100.267 113.773 120.585  1.00  0.00    -0.020 C 
ATOM     16  C   UNL     1      98.339 113.233 122.364  1.00  0.00     0.017 C 
ATOM     17  C   UNL     1      99.474 114.010 119.199  1.00  0.00     0.006 C 
ATOM     18  C   UNL     1     100.703 112.282 120.780  1.00  0.00     0.008 C 
ATOM     19  C   UNL     1     101.585 114.598 120.441  1.00  0.00     0.012 C 
ATOM     20  C   UNL     1      99.773 112.980 117.980  1.00  0.00    -0.025 C 
ATOM     21  C   UNL     1      99.860 111.316 119.962  1.00  0.00     0.005 C 
ATOM     22  C   UNL     1      98.521 112.859 117.050  1.00  0.00     0.010 C 
ATOM     23  C   UNL     1     100.943 113.583 117.091  1.00  0.00     0.012 C 
ATOM     24  C   UNL     1     100.185 111.521 118.479  1.00  0.00     0.003 C 
ATOM     25  C   UNL     1      98.643 111.875 115.868  1.00  0.00     0.033 C 
ATOM     26  C   UNL     1      99.747 110.301 117.558  1.00  0.00    -0.006 C 
ATOM     27  C   UNL     1      99.685 110.775 116.076  1.00  0.00     0.120 C 
ATOM     28  C   UNL     1      98.395 109.674 117.992  1.00  0.00     0.014 C 
ATOM     29  C   UNL     1     100.815 109.174 117.657  1.00  0.00     0.014 C 
ENDROOT
BRANCH   1  30
ATOM     30  C   UNL     1      98.444 116.100 124.657  1.00  0.00     0.051 C 
ATOM     31  O   UNL     1      97.293 116.584 124.809  1.00  0.00    -0.549 OA
ATOM     32  O   UNL     1      98.801 114.984 125.407  1.00  0.00    -0.549 OA
ENDBRANCH   1  30
BRANCH   4  33
ATOM     33  O   UNL     1     101.706 116.410 122.825  1.00  0.00    -0.392 OA
ATOM     34  H   UNL     1     102.550 115.907 122.965  1.00  0.00     0.210 HD
ENDBRANCH   4  33
BRANCH  27  35
ATOM     35  O   UNL     1      99.373 109.708 115.213  1.00  0.00    -0.393 OA
ATOM     36  H   UNL     1      98.398 109.754 115.022  1.00  0.00     0.210 HD
ENDBRANCH  27  35
TORSDOF 3
ENDMDL
MODEL 2
REMARK VINA RESULT:    15.311      2.206      3.653
REMARK INTER + INTRA:          18.016
REMARK INTER:                  17.032
REMARK INTRA:                   0.983
REMARK UNBOUND:                 0.915
REMARK SMILES CC1(C)CC[C@]2(C(=O)[O-])[C@H](O)C[C@@]3(C)C(=CC[C@@H]4[C@]5(C)CC[C@H](O)C(C)(C)[C@@H]5CC[C@@]43C)[C@H]2C1
REMARK SMILES IDX 6 1 5 2 33 3 10 4 4 5 34 6 15 7 12 8 2 9 16 10 13 11 1 12
REMARK SMILES IDX 3 13 17 14 31 15 14 16 18 17 30 18 32 19 19 20 29 21 21 22
REMARK SMILES IDX 20 23 28 24 22 25 25 26 23 27 26 28 27 29 7 30 8 31 9 32
REMARK SMILES IDX 11 33 24 35
REMARK H PARENT 11 34 24 36
REMARK Flexibility Score: inf
ROOT
ATOM      1  C   UNL     1     100.078 114.127 122.079  1.00  0.00     0.042 C 
ATOM      2  C   UNL     1     100.854 114.512 123.369  1.00  0.00     0.017 C 
ATOM      3  C   UNL     1     100.612 114.969 120.879  1.00  0.00     0.030 C 
ATOM      4  C   UNL     1     100.346 112.632 121.774  1.00  0.00     0.127 C 
ATOM      5  C   UNL     1     100.740 116.009 123.684  1.00  0.00     0.007 C 
ATOM      6  C   UNL     1     100.558 116.502 121.183  1.00  0.00     0.015 C 
ATOM      7  C   UNL     1     100.002 114.538 119.527  1.00  0.00    -0.063 C 
ATOM      8  C   UNL     1      99.533 112.160 120.557  1.00  0.00     0.044 C 
ATOM      9  C   UNL     1     101.241 116.904 122.524  1.00  0.00    -0.035 C 
ATOM     10  C   UNL     1     100.098 115.359 118.452  1.00  0.00    -0.027 C 
ATOM     11  C   UNL     1      99.522 113.092 119.266  1.00  0.00    -0.003 C 
ATOM     12  C   UNL     1     102.784 116.827 122.397  1.00  0.00     0.011 C 
ATOM     13  C   UNL     1     100.865 118.365 122.845  1.00  0.00     0.011 C 
ATOM     14  C   UNL     1      99.995 114.842 117.040  1.00  0.00     0.032 C 
ATOM     15  C   UNL     1     100.417 112.454 118.059  1.00  0.00    -0.020 C 
ATOM     16  C   UNL     1      97.995 113.220 118.905  1.00  0.00     0.017 C 
ATOM     17  C   UNL     1     100.791 113.521 116.906  1.00  0.00     0.006 C 
ATOM     18  C   UNL     1      99.691 111.187 117.493  1.00  0.00     0.008 C 
ATOM     19  C   UNL     1     101.792 111.959 118.611  1.00  0.00     0.012 C 
ATOM     20  C   UNL     1     100.988 112.953 115.398  1.00  0.00    -0.025 C 
ATOM     21  C   UNL     1      99.020 111.449 116.154  1.00  0.00     0.005 C 
ATOM     22  C   UNL     1     100.631 114.058 114.349  1.00  0.00     0.010 C 
ATOM     23  C   UNL     1     102.524 112.609 115.189  1.00  0.00     0.012 C 
ATOM     24  C   UNL     1     100.108 111.655 115.096  1.00  0.00     0.003 C 
ATOM     25  C   UNL     1     100.728 113.647 112.866  1.00  0.00     0.033 C 
ATOM     26  C   UNL     1      99.587 111.478 113.604  1.00  0.00    -0.006 C 
ATOM     27  C   UNL     1     100.599 112.142 112.625  1.00  0.00     0.120 C 
ATOM     28  C   UNL     1      98.159 112.051 113.393  1.00  0.00     0.014 C 
ATOM     29  C   UNL     1      99.514 109.961 113.264  1.00  0.00     0.014 C 
ENDROOT
BRANCH   1  30
ATOM     30  C   UNL     1      98.588 114.323 122.358  1.00  0.00     0.051 C 
ATOM     31  O   UNL     1      97.789 113.351 122.393  1.00  0.00    -0.549 OA
ATOM     32  O   UNL     1      98.086 115.605 122.550  1.00  0.00    -0.549 OA
ENDBRANCH   1  30
BRANCH   4  33
ATOM     33  O   UNL     1     101.717 112.403 121.573  1.00  0.00    -0.392 OA
ATOM     34  H   UNL     1     101.989 112.898 120.757  1.00  0.00     0.210 HD
ENDBRANCH   4  33
BRANCH  27  35
ATOM     35  O   UNL     1     100.216 111.944 111.286  1.00  0.00    -0.393 OA
ATOM     36  H   UNL     1      99.833 112.801 110.955  1.00  0.00     0.210 HD
ENDBRANCH  27  35
TORSDOF 3
ENDMDL
MODEL 3
REMARK VINA RESULT:    15.908      4.791     10.867
REMARK INTER + INTRA:          18.683
REMARK INTER:                  18.418
REMARK INTRA:                   0.265
REMARK UNBOUND:                 0.915
REMARK SMILES CC1(C)CC[C@]2(C(=O)[O-])[C@H](O)C[C@@]3(C)C(=CC[C@@H]4[C@]5(C)CC[C@H](O)C(C)(C)[C@@H]5CC[C@@]43C)[C@H]2C1
REMARK SMILES IDX 6 1 5 2 33 3 10 4 4 5 34 6 15 7 12 8 2 9 16 10 13 11 1 12
REMARK SMILES IDX 3 13 17 14 31 15 14 16 18 17 30 18 32 19 19 20 29 21 21 22
REMARK SMILES IDX 20 23 28 24 22 25 25 26 23 27 26 28 27 29 7 30 8 31 9 32
REMARK SMILES IDX 11 33 24 35
REMARK H PARENT 11 34 24 36
REMARK Flexibility Score: inf
ROOT
ATOM      1  C   UNL     1      96.491 111.815 110.119  1.00  0.00     0.042 C 
ATOM      2  C   UNL     1      96.062 110.989 108.875  1.00  0.00     0.017 C 
ATOM      3  C   UNL     1      96.105 111.041 111.418  1.00  0.00     0.030 C 
ATOM      4  C   UNL     1      98.031 111.975 110.094  1.00  0.00     0.127 C 
ATOM      5  C   UNL     1      94.559 110.682 108.878  1.00  0.00     0.007 C 
ATOM      6  C   UNL     1      94.587 110.665 111.433  1.00  0.00     0.015 C 
ATOM      7  C   UNL     1      96.636 111.720 112.699  1.00  0.00    -0.063 C 
ATOM      8  C   UNL     1      98.515 112.863 111.253  1.00  0.00     0.044 C 
ATOM      9  C   UNL     1      94.106 109.925 110.150  1.00  0.00    -0.035 C 
ATOM     10  C   UNL     1      96.124 111.373 113.906  1.00  0.00    -0.027 C 
ATOM     11  C   UNL     1      97.917 112.583 112.701  1.00  0.00    -0.003 C 
ATOM     12  C   UNL     1      94.624 108.464 110.135  1.00  0.00     0.011 C 
ATOM     13  C   UNL     1      92.564 109.879 110.161  1.00  0.00     0.011 C 
ATOM     14  C   UNL     1      96.885 111.589 115.189  1.00  0.00     0.032 C 
ATOM     15  C   UNL     1      99.019 111.880 113.679  1.00  0.00    -0.020 C 
ATOM     16  C   UNL     1      97.460 114.004 113.202  1.00  0.00     0.017 C 
ATOM     17  C   UNL     1      98.369 111.196 114.990  1.00  0.00     0.006 C 
ATOM     18  C   UNL     1     100.132 112.923 114.035  1.00  0.00     0.008 C 
ATOM     19  C   UNL     1      99.738 110.713 112.931  1.00  0.00     0.012 C 
ATOM     20  C   UNL     1      99.280 111.137 116.332  1.00  0.00    -0.025 C 
ATOM     21  C   UNL     1      99.993 113.465 115.449  1.00  0.00     0.005 C 
ATOM     22  C   UNL     1      98.374 111.145 117.607  1.00  0.00     0.010 C 
ATOM     23  C   UNL     1     100.066 109.757 116.343  1.00  0.00     0.012 C 
ATOM     24  C   UNL     1     100.324 112.341 116.436  1.00  0.00     0.003 C 
ATOM     25  C   UNL     1      99.106 111.138 118.965  1.00  0.00     0.033 C 
ATOM     26  C   UNL     1     100.671 112.861 117.899  1.00  0.00    -0.006 C 
ATOM     27  C   UNL     1     100.534 111.682 118.907  1.00  0.00     0.120 C 
ATOM     28  C   UNL     1      99.791 114.063 118.335  1.00  0.00     0.014 C 
ATOM     29  C   UNL     1     102.146 113.352 117.931  1.00  0.00     0.014 C 
ENDROOT
BRANCH   1  30
ATOM     30  C   UNL     1      95.842 113.195 110.006  1.00  0.00     0.051 C 
ATOM     31  O   UNL     1      96.029 113.934 109.004  1.00  0.00    -0.549 OA
ATOM     32  O   UNL     1      95.047 113.670 111.043  1.00  0.00    -0.549 OA
ENDBRANCH   1  30
BRANCH   4  33
ATOM     33  O   UNL     1      98.662 110.720 110.134  1.00  0.00    -0.392 OA
ATOM     34  H   UNL     1      98.316 110.185 109.373  1.00  0.00     0.210 HD
ENDBRANCH   4  33
BRANCH  27  35
ATOM     35  O   UNL     1     100.905 112.078 120.205  1.00  0.00    -0.393 OA
ATOM     36  H   UNL     1     100.213 112.713 120.532  1.00  0.00     0.210 HD
ENDBRANCH  27  35
TORSDOF 3
ENDMDL
MODEL 4
REMARK VINA RESULT:    16.119      1.909      8.360
REMARK INTER + INTRA:          18.919
REMARK INTER:                  17.807
REMARK INTRA:                   1.112
REMARK UNBOUND:                 0.915
REMARK SMILES CC1(C)CC[C@]2(C(=O)[O-])[C@H](O)C[C@@]3(C)C(=CC[C@@H]4[C@]5(C)CC[C@H](O)C(C)(C)[C@@H]5CC[C@@]43C)[C@H]2C1
REMARK SMILES IDX 6 1 5 2 33 3 10 4 4 5 34 6 15 7 12 8 2 9 16 10 13 11 1 12
REMARK SMILES IDX 3 13 17 14 31 15 14 16 18 17 30 18 32 19 19 20 29 21 21 22
REMARK SMILES IDX 20 23 28 24 22 25 25 26 23 27 26 28 27 29 7 30 8 31 9 32
REMARK SMILES IDX 11 33 24 35
REMARK H PARENT 11 34 24 36
REMARK Flexibility Score: inf
ROOT
ATOM      1  C   UNL     1     100.250 111.883 115.375  1.00  0.00     0.042 C 
ATOM      2  C   UNL     1      99.829 110.735 114.416  1.00  0.00     0.017 C 
ATOM      3  C   UNL     1      98.977 112.615 115.904  1.00  0.00     0.030 C 
ATOM      4  C   UNL     1     100.986 111.262 116.589  1.00  0.00     0.127 C 
ATOM      5  C   UNL     1      98.989 111.249 113.239  1.00  0.00     0.007 C 
ATOM      6  C   UNL     1      98.069 113.108 114.731  1.00  0.00     0.015 C 
ATOM      7  C   UNL     1      99.299 113.669 116.986  1.00  0.00    -0.063 C 
ATOM      8  C   UNL     1     101.512 112.353 117.536  1.00  0.00     0.044 C 
ATOM      9  C   UNL     1      97.715 111.999 113.696  1.00  0.00    -0.035 C 
ATOM     10  C   UNL     1      98.374 114.607 117.307  1.00  0.00    -0.027 C 
ATOM     11  C   UNL     1     100.525 113.542 117.918  1.00  0.00    -0.003 C 
ATOM     12  C   UNL     1      96.677 111.011 114.287  1.00  0.00     0.011 C 
ATOM     13  C   UNL     1      97.079 112.669 112.460  1.00  0.00     0.011 C 
ATOM     14  C   UNL     1      98.390 115.324 118.634  1.00  0.00     0.032 C 
ATOM     15  C   UNL     1      99.999 113.413 119.458  1.00  0.00    -0.020 C 
ATOM     16  C   UNL     1     101.378 114.840 117.661  1.00  0.00     0.017 C 
ATOM     17  C   UNL     1      98.697 114.317 119.769  1.00  0.00     0.006 C 
ATOM     18  C   UNL     1     101.186 113.713 120.435  1.00  0.00     0.008 C 
ATOM     19  C   UNL     1      99.551 111.946 119.754  1.00  0.00     0.012 C 
ATOM     20  C   UNL     1      98.515 114.870 121.284  1.00  0.00    -0.025 C 
ATOM     21  C   UNL     1     101.086 115.092 121.067  1.00  0.00     0.005 C 
ATOM     22  C   UNL     1      97.716 116.215 121.282  1.00  0.00     0.010 C 
ATOM     23  C   UNL     1      97.638 113.823 122.097  1.00  0.00     0.012 C 
ATOM     24  C   UNL     1      99.903 115.098 122.040  1.00  0.00     0.003 C 
ATOM     25  C   UNL     1      97.504 116.885 122.654  1.00  0.00     0.033 C 
ATOM     26  C   UNL     1      99.953 116.285 123.097  1.00  0.00    -0.006 C 
ATOM     27  C   UNL     1      98.536 116.485 123.710  1.00  0.00     0.120 C 
ATOM     28  C   UNL     1     100.482 117.612 122.487  1.00  0.00     0.014 C 
ATOM     29  C   UNL     1     100.926 115.904 124.249  1.00  0.00     0.014 C 
ENDROOT
BRANCH   1  30
ATOM     30  C   UNL     1     101.215 112.793 114.615  1.00  0.00     0.051 C 
ATOM     31  O   UNL     1     100.877 113.374 113.551  1.00  0.00    -0.549 OA
ATOM     32  O   UNL     1     102.512 112.967 115.085  1.00  0.00    -0.549 OA
ENDBRANCH   1  30
BRANCH   4  33
ATOM     33  O   UNL     1     100.147 110.370 117.277  1.00  0.00    -0.392 OA
ATOM     34  H   UNL     1     100.078 110.685 118.216  1.00  0.00     0.210 HD
ENDBRANCH   4  33
BRANCH  27  35
ATOM     35  O   UNL     1      98.549 117.479 124.707  1.00  0.00    -0.393 OA
ATOM     36  H   UNL     1      99.424 117.948 124.648  1.00  0.00     0.210 HD
ENDBRANCH  27  35
TORSDOF 3
ENDMDL
MODEL 5
REMARK VINA RESULT:    16.714      4.988      8.664
REMARK INTER + INTRA:          19.583
REMARK INTER:                  18.564
REMARK INTRA:                   1.018
REMARK UNBOUND:                 0.915
REMARK SMILES CC1(C)CC[C@]2(C(=O)[O-])[C@H](O)C[C@@]3(C)C(=CC[C@@H]4[C@]5(C)CC[C@H](O)C(C)(C)[C@@H]5CC[C@@]43C)[C@H]2C1
REMARK SMILES IDX 6 1 5 2 33 3 10 4 4 5 34 6 15 7 12 8 2 9 16 10 13 11 1 12
REMARK SMILES IDX 3 13 17 14 31 15 14 16 18 17 30 18 32 19 19 20 29 21 21 22
REMARK SMILES IDX 20 23 28 24 22 25 25 26 23 27 26 28 27 29 7 30 8 31 9 32
REMARK SMILES IDX 11 33 24 35
REMARK H PARENT 11 34 24 36
REMARK Flexibility Score: inf
ROOT
ATOM      1  C   UNL     1     100.565 113.583 116.264  1.00  0.00     0.042 C 
ATOM      2  C   UNL     1     100.912 114.169 117.661  1.00  0.00     0.017 C 
ATOM      3  C   UNL     1      99.584 112.381 116.432  1.00  0.00     0.030 C 
ATOM      4  C   UNL     1      99.847 114.679 115.438  1.00  0.00     0.127 C 
ATOM      5  C   UNL     1     101.525 113.114 118.592  1.00  0.00     0.007 C 
ATOM      6  C   UNL     1     100.154 111.307 117.415  1.00  0.00     0.015 C 
ATOM      7  C   UNL     1      99.066 111.840 115.081  1.00  0.00    -0.063 C 
ATOM      8  C   UNL     1      99.556 114.193 114.008  1.00  0.00     0.044 C 
ATOM      9  C   UNL     1     100.605 111.884 118.788  1.00  0.00    -0.035 C 
ATOM     10  C   UNL     1      98.481 110.617 115.026  1.00  0.00    -0.027 C 
ATOM     11  C   UNL     1      98.935 112.738 113.831  1.00  0.00    -0.003 C 
ATOM     12  C   UNL     1      99.376 112.251 119.659  1.00  0.00     0.011 C 
ATOM     13  C   UNL     1     101.406 110.798 119.536  1.00  0.00     0.011 C 
ATOM     14  C   UNL     1      97.534 110.234 113.918  1.00  0.00     0.032 C 
ATOM     15  C   UNL     1      97.362 112.807 113.400  1.00  0.00    -0.020 C 
ATOM     16  C   UNL     1      99.849 112.068 112.739  1.00  0.00     0.017 C 
ATOM     17  C   UNL     1      96.577 111.412 113.616  1.00  0.00     0.006 C 
ATOM     18  C   UNL     1      97.253 113.336 111.930  1.00  0.00     0.008 C 
ATOM     19  C   UNL     1      96.602 113.839 114.292  1.00  0.00     0.012 C 
ATOM     20  C   UNL     1      95.336 111.090 112.619  1.00  0.00    -0.025 C 
ATOM     21  C   UNL     1      96.939 112.230 110.934  1.00  0.00     0.005 C 
ATOM     22  C   UNL     1      95.163 109.545 112.448  1.00  0.00     0.010 C 
ATOM     23  C   UNL     1      94.001 111.625 113.292  1.00  0.00     0.012 C 
ATOM     24  C   UNL     1      95.504 111.751 111.175  1.00  0.00     0.003 C 
ATOM     25  C   UNL     1      94.046 109.086 111.488  1.00  0.00     0.033 C 
ATOM     26  C   UNL     1      94.886 110.951 109.948  1.00  0.00    -0.006 C 
ATOM     27  C   UNL     1      93.658 110.129 110.439  1.00  0.00     0.120 C 
ATOM     28  C   UNL     1      95.921 110.029 109.248  1.00  0.00     0.014 C 
ATOM     29  C   UNL     1      94.389 111.962 108.875  1.00  0.00     0.014 C 
ENDROOT
BRANCH   1  30
ATOM     30  C   UNL     1     101.880 113.217 115.575  1.00  0.00     0.051 C 
ATOM     31  O   UNL     1     101.947 112.286 114.730  1.00  0.00    -0.549 OA
ATOM     32  O   UNL     1     103.045 113.901 115.904  1.00  0.00    -0.549 OA
ENDBRANCH   1  30
BRANCH   4  33
ATOM     33  O   UNL     1      98.662 115.086 116.075  1.00  0.00    -0.392 OA
ATOM     34  H   UNL     1      98.732 114.830 117.032  1.00  0.00     0.210 HD
ENDBRANCH   4  33
BRANCH  27  35
ATOM     35  O   UNL     1      93.032 109.462 109.369  1.00  0.00    -0.393 OA
ATOM     36  H   UNL     1      93.599 108.680 109.133  1.00  0.00     0.210 HD
ENDBRANCH  27  35
TORSDOF 3
ENDMDL
MODEL 6
REMARK VINA RESULT:    16.819      2.381      8.620
REMARK INTER + INTRA:          19.701
REMARK INTER:                  19.365
REMARK INTRA:                   0.336
REMARK UNBOUND:                 0.915
REMARK SMILES CC1(C)CC[C@]2(C(=O)[O-])[C@H](O)C[C@@]3(C)C(=CC[C@@H]4[C@]5(C)CC[C@H](O)C(C)(C)[C@@H]5CC[C@@]43C)[C@H]2C1
REMARK SMILES IDX 6 1 5 2 33 3 10 4 4 5 34 6 15 7 12 8 2 9 16 10 13 11 1 12
REMARK SMILES IDX 3 13 17 14 31 15 14 16 18 17 30 18 32 19 19 20 29 21 21 22
REMARK SMILES IDX 20 23 28 24 22 25 25 26 23 27 26 28 27 29 7 30 8 31 9 32
REMARK SMILES IDX 11 33 24 35
REMARK H PARENT 11 34 24 36
REMARK Flexibility Score: inf
ROOT
ATOM      1  C   UNL     1     100.371 112.874 114.186  1.00  0.00     0.042 C 
ATOM      2  C   UNL     1     100.385 111.701 113.167  1.00  0.00     0.017 C 
ATOM      3  C   UNL     1      99.365 112.555 115.335  1.00  0.00     0.030 C 
ATOM      4  C   UNL     1     101.786 113.001 114.805  1.00  0.00     0.127 C 
ATOM      5  C   UNL     1      98.991 111.427 112.587  1.00  0.00     0.007 C 
ATOM      6  C   UNL     1      97.944 112.220 114.779  1.00  0.00     0.015 C 
ATOM      7  C   UNL     1      99.406 113.600 116.473  1.00  0.00    -0.063 C 
ATOM      8  C   UNL     1     101.867 114.205 115.759  1.00  0.00     0.044 C 
ATOM      9  C   UNL     1      97.939 111.117 113.680  1.00  0.00    -0.035 C 
ATOM     10  C   UNL     1      98.390 113.659 117.369  1.00  0.00    -0.027 C 
ATOM     11  C   UNL     1     100.683 114.405 116.803  1.00  0.00    -0.003 C 
ATOM     12  C   UNL     1      98.190 109.721 114.305  1.00  0.00     0.011 C 
ATOM     13  C   UNL     1      96.546 111.093 113.016  1.00  0.00     0.011 C 
ATOM     14  C   UNL     1      98.567 114.262 118.739  1.00  0.00     0.032 C 
ATOM     15  C   UNL     1     101.154 114.036 118.322  1.00  0.00    -0.020 C 
ATOM     16  C   UNL     1     100.277 115.917 116.629  1.00  0.00     0.017 C 
ATOM     17  C   UNL     1      99.921 113.810 119.339  1.00  0.00     0.006 C 
ATOM     18  C   UNL     1     102.159 115.126 118.828  1.00  0.00     0.008 C 
ATOM     19  C   UNL     1     101.937 112.685 118.330  1.00  0.00     0.012 C 
ATOM     20  C   UNL     1     100.166 114.169 120.903  1.00  0.00    -0.025 C 
ATOM     21  C   UNL     1     101.523 116.090 119.818  1.00  0.00     0.005 C 
ATOM     22  C   UNL     1      98.821 114.591 121.582  1.00  0.00     0.010 C 
ATOM     23  C   UNL     1     100.658 112.855 121.648  1.00  0.00     0.012 C 
ATOM     24  C   UNL     1     101.238 115.333 121.120  1.00  0.00     0.003 C 
ATOM     25  C   UNL     1      98.907 115.007 123.065  1.00  0.00     0.033 C 
ATOM     26  C   UNL     1     101.014 116.286 122.373  1.00  0.00    -0.006 C 
ATOM     27  C   UNL     1     100.292 115.488 123.499  1.00  0.00     0.120 C 
ATOM     28  C   UNL     1     100.223 117.574 122.017  1.00  0.00     0.014 C 
ATOM     29  C   UNL     1     102.395 116.746 122.920  1.00  0.00     0.014 C 
ENDROOT
BRANCH   1  30
ATOM     30  C   UNL     1     100.045 114.154 113.416  1.00  0.00     0.051 C 
ATOM     31  O   UNL     1      99.156 114.954 113.809  1.00  0.00    -0.549 OA
ATOM     32  O   UNL     1     100.718 114.437 112.233  1.00  0.00    -0.549 OA
ENDBRANCH   1  30
BRANCH   4  33
ATOM     33  O   UNL     1     102.146 111.817 115.470  1.00  0.00    -0.392 OA
ATOM     34  H   UNL     1     101.386 111.557 116.055  1.00  0.00     0.210 HD
ENDBRANCH   4  33
BRANCH  27  35
ATOM     35  O   UNL     1     100.140 116.271 124.659  1.00  0.00    -0.393 OA
ATOM     36  H   UNL     1      99.969 117.207 124.366  1.00  0.00     0.210 HD
ENDBRANCH  27  35
TORSDOF 3
ENDMDL
MODEL 7
REMARK VINA RESULT:    16.824      3.886      7.281
REMARK INTER + INTRA:          19.706
REMARK INTER:                  19.297
REMARK INTRA:                   0.409
REMARK UNBOUND:                 0.915
REMARK SMILES CC1(C)CC[C@]2(C(=O)[O-])[C@H](O)C[C@@]3(C)C(=CC[C@@H]4[C@]5(C)CC[C@H](O)C(C)(C)[C@@H]5CC[C@@]43C)[C@H]2C1
REMARK SMILES IDX 6 1 5 2 33 3 10 4 4 5 34 6 15 7 12 8 2 9 16 10 13 11 1 12
REMARK SMILES IDX 3 13 17 14 31 15 14 16 18 17 30 18 32 19 19 20 29 21 21 22
REMARK SMILES IDX 20 23 28 24 22 25 25 26 23 27 26 28 27 29 7 30 8 31 9 32
REMARK SMILES IDX 11 33 24 35
REMARK H PARENT 11 34 24 36
REMARK Flexibility Score: inf
ROOT
ATOM      1  C   UNL     1     100.943 113.958 117.558  1.00  0.00     0.042 C 
ATOM      2  C   UNL     1     101.154 114.911 118.767  1.00  0.00     0.017 C 
ATOM      3  C   UNL     1      99.480 113.415 117.572  1.00  0.00     0.030 C 
ATOM      4  C   UNL     1     101.143 114.769 116.254  1.00  0.00     0.127 C 
ATOM      5  C   UNL     1     100.862 114.218 120.105  1.00  0.00     0.007 C 
ATOM      6  C   UNL     1      99.128 112.746 118.940  1.00  0.00     0.015 C 
ATOM      7  C   UNL     1      99.139 112.583 116.316  1.00  0.00    -0.063 C 
ATOM      8  C   UNL     1     101.037 113.863 115.015  1.00  0.00     0.044 C 
ATOM      9  C   UNL     1      99.427 113.642 120.177  1.00  0.00    -0.035 C 
ATOM     10  C   UNL     1      98.047 111.778 116.318  1.00  0.00    -0.027 C 
ATOM     11  C   UNL     1      99.829 112.829 114.955  1.00  0.00    -0.003 C 
ATOM     12  C   UNL     1      98.382 114.782 120.293  1.00  0.00     0.011 C 
ATOM     13  C   UNL     1      99.319 112.773 121.448  1.00  0.00     0.011 C 
ATOM     14  C   UNL     1      97.374 111.342 115.041  1.00  0.00     0.032 C 
ATOM     15  C   UNL     1      98.698 113.291 113.872  1.00  0.00    -0.020 C 
ATOM     16  C   UNL     1     100.519 111.463 114.587  1.00  0.00     0.017 C 
ATOM     17  C   UNL     1      97.282 112.538 114.063  1.00  0.00     0.006 C 
ATOM     18  C   UNL     1      99.274 113.130 112.425  1.00  0.00     0.008 C 
ATOM     19  C   UNL     1      98.373 114.809 114.046  1.00  0.00     0.012 C 
ATOM     20  C   UNL     1      96.372 112.310 112.738  1.00  0.00    -0.025 C 
ATOM     21  C   UNL     1      98.714 111.912 111.707  1.00  0.00     0.005 C 
ATOM     22  C   UNL     1      95.480 111.036 112.902  1.00  0.00     0.010 C 
ATOM     23  C   UNL     1      95.380 113.542 112.593  1.00  0.00     0.012 C 
ATOM     24  C   UNL     1      97.234 112.164 111.402  1.00  0.00     0.003 C 
ATOM     25  C   UNL     1      94.590 110.666 111.698  1.00  0.00     0.033 C 
ATOM     26  C   UNL     1      96.646 111.211 110.273  1.00  0.00    -0.006 C 
ATOM     27  C   UNL     1      95.091 111.213 110.361  1.00  0.00     0.120 C 
ATOM     28  C   UNL     1      97.200 109.764 110.358  1.00  0.00     0.014 C 
ATOM     29  C   UNL     1      97.049 111.763 108.875  1.00  0.00     0.014 C 
ENDROOT
BRANCH   1  30
ATOM     30  C   UNL     1     102.009 112.864 117.637  1.00  0.00     0.051 C 
ATOM     31  O   UNL     1     103.150 113.015 117.128  1.00  0.00    -0.549 OA
ATOM     32  O   UNL     1     101.711 111.656 118.258  1.00  0.00    -0.549 OA
ENDBRANCH   1  30
BRANCH   4  33
ATOM     33  O   UNL     1     100.218 115.824 116.177  1.00  0.00    -0.392 OA
ATOM     34  H   UNL     1     100.699 116.663 116.405  1.00  0.00     0.210 HD
ENDBRANCH   4  33
BRANCH  27  35
ATOM     35  O   UNL     1      94.523 110.440 109.331  1.00  0.00    -0.393 OA
ATOM     36  H   UNL     1      94.973 110.698 108.482  1.00  0.00     0.210 HD
ENDBRANCH  27  35
TORSDOF 3
ENDMDL
