MODEL 1
REMARK VINA RESULT:    -8.153      0.000      0.000
REMARK INTER + INTRA:          -8.153
REMARK INTER:                  -8.153
REMARK INTRA:                   0.000
REMARK UNBOUND:                 0.000
REMARK SMILES C=C1CCC[C@]2(C)CC(=O)C(=C(C)C)C[C@H]12
REMARK SMILES IDX 13 1 12 2 11 3 15 4 16 5 2 6 1 7 3 8 4 9 5 10 6 11 8 12 9 13
REMARK SMILES IDX 10 14 7 15 14 16
REMARK H PARENT
REMARK Flexibility Score: inf
ROOT
ATOM      1  C   UNL     1      26.753  14.545  84.047  1.00  0.00     0.039 C 
ATOM      2  C   UNL     1      26.352  14.876  82.628  1.00  0.00    -0.070 C 
ATOM      3  C   UNL     1      27.277  14.951  81.628  1.00  0.00    -0.006 C 
ATOM      4  C   UNL     1      28.752  14.668  81.834  1.00  0.00     0.047 C 
ATOM      5  C   UNL     1      29.278  13.519  80.915  1.00  0.00     0.025 C 
ATOM      6  C   UNL     1      30.820  13.494  80.832  1.00  0.00    -0.073 C 
ATOM      7  C   UNL     1      31.603  13.998  81.808  1.00  0.00     0.008 C 
ATOM      8  C   UNL     1      31.530  12.739  79.729  1.00  0.00     0.031 C 
ATOM      9  C   UNL     1      30.570  12.101  78.736  1.00  0.00     0.005 C 
ATOM     10  C   UNL     1      29.512  13.119  78.324  1.00  0.00     0.008 C 
ATOM     11  C   UNL     1      28.547  13.468  79.494  1.00  0.00    -0.018 C 
ATOM     12  C   UNL     1      27.883  14.835  79.147  1.00  0.00     0.088 C 
ATOM     13  C   UNL     1      26.938  15.277  80.223  1.00  0.00     0.159 C 
ATOM     14  O   UNL     1      25.936  15.977  79.918  1.00  0.00    -0.295 OA
ATOM     15  C   UNL     1      27.433  12.381  79.534  1.00  0.00     0.012 C 
ATOM     16  C   UNL     1      24.878  15.074  82.357  1.00  0.00     0.039 C 
ENDROOT
TORSDOF 0
ENDMDL
MODEL 2
REMARK VINA RESULT:    -8.121      2.375      4.067
REMARK INTER + INTRA:          -8.121
REMARK INTER:                  -8.121
REMARK INTRA:                   0.000
REMARK UNBOUND:                 0.000
REMARK SMILES C=C1CCC[C@]2(C)CC(=O)C(=C(C)C)C[C@H]12
REMARK SMILES IDX 13 1 12 2 11 3 15 4 16 5 2 6 1 7 3 8 4 9 5 10 6 11 8 12 9 13
REMARK SMILES IDX 10 14 7 15 14 16
REMARK H PARENT
REMARK Flexibility Score: inf
ROOT
ATOM      1  C   UNL     1      27.691  13.731  84.552  1.00  0.00     0.039 C 
ATOM      2  C   UNL     1      27.846  12.550  83.622  1.00  0.00    -0.070 C 
ATOM      3  C   UNL     1      27.273  12.542  82.384  1.00  0.00    -0.006 C 
ATOM      4  C   UNL     1      26.487  13.710  81.821  1.00  0.00     0.047 C 
ATOM      5  C   UNL     1      27.080  14.243  80.477  1.00  0.00     0.025 C 
ATOM      6  C   UNL     1      26.086  15.144  79.714  1.00  0.00    -0.073 C 
ATOM      7  C   UNL     1      25.100  15.821  80.338  1.00  0.00     0.008 C 
ATOM      8  C   UNL     1      26.282  15.455  78.245  1.00  0.00     0.031 C 
ATOM      9  C   UNL     1      27.487  14.744  77.648  1.00  0.00     0.005 C 
ATOM     10  C   UNL     1      27.470  13.277  78.060  1.00  0.00     0.008 C 
ATOM     11  C   UNL     1      27.738  13.093  79.583  1.00  0.00    -0.018 C 
ATOM     12  C   UNL     1      27.195  11.686  79.976  1.00  0.00     0.088 C 
ATOM     13  C   UNL     1      27.389  11.409  81.436  1.00  0.00     0.159 C 
ATOM     14  O   UNL     1      27.561  10.223  81.824  1.00  0.00    -0.295 OA
ATOM     15  C   UNL     1      29.280  13.098  79.799  1.00  0.00     0.012 C 
ATOM     16  C   UNL     1      28.700  11.400  84.104  1.00  0.00     0.039 C 
ENDROOT
TORSDOF 0
ENDMDL
MODEL 3
REMARK VINA RESULT:    -7.919      2.429      4.986
REMARK INTER + INTRA:          -7.919
REMARK INTER:                  -7.919
REMARK INTRA:                   0.000
REMARK UNBOUND:                 0.000
REMARK SMILES C=C1CCC[C@]2(C)CC(=O)C(=C(C)C)C[C@H]12
REMARK SMILES IDX 13 1 12 2 11 3 15 4 16 5 2 6 1 7 3 8 4 9 5 10 6 11 8 12 9 13
REMARK SMILES IDX 10 14 7 15 14 16
REMARK H PARENT
REMARK Flexibility Score: inf
ROOT
ATOM      1  C   UNL     1      26.795  10.430  80.711  1.00  0.00     0.039 C 
ATOM      2  C   UNL     1      27.704  11.294  81.555  1.00  0.00    -0.070 C 
ATOM      3  C   UNL     1      27.909  12.609  81.257  1.00  0.00    -0.006 C 
ATOM      4  C   UNL     1      27.221  13.322  80.109  1.00  0.00     0.047 C 
ATOM      5  C   UNL     1      26.393  14.560  80.580  1.00  0.00     0.025 C 
ATOM      6  C   UNL     1      26.027  15.499  79.409  1.00  0.00    -0.073 C 
ATOM      7  C   UNL     1      25.937  15.064  78.136  1.00  0.00     0.008 C 
ATOM      8  C   UNL     1      25.573  16.922  79.662  1.00  0.00     0.031 C 
ATOM      9  C   UNL     1      25.592  17.294  81.137  1.00  0.00     0.005 C 
ATOM     10  C   UNL     1      26.913  16.856  81.757  1.00  0.00     0.008 C 
ATOM     11  C   UNL     1      27.038  15.306  81.837  1.00  0.00    -0.018 C 
ATOM     12  C   UNL     1      28.555  14.976  81.977  1.00  0.00     0.088 C 
ATOM     13  C   UNL     1      28.792  13.498  82.047  1.00  0.00     0.159 C 
ATOM     14  O   UNL     1      29.776  13.059  82.701  1.00  0.00    -0.295 OA
ATOM     15  C   UNL     1      26.315  14.836  83.134  1.00  0.00     0.012 C 
ATOM     16  C   UNL     1      28.337  10.650  82.766  1.00  0.00     0.039 C 
ENDROOT
TORSDOF 0
ENDMDL
MODEL 4
REMARK VINA RESULT:    -7.851      1.682      2.649
REMARK INTER + INTRA:          -7.851
REMARK INTER:                  -7.851
REMARK INTRA:                   0.000
REMARK UNBOUND:                 0.000
REMARK SMILES C=C1CCC[C@]2(C)CC(=O)C(=C(C)C)C[C@H]12
REMARK SMILES IDX 13 1 12 2 11 3 15 4 16 5 2 6 1 7 3 8 4 9 5 10 6 11 8 12 9 13
REMARK SMILES IDX 10 14 7 15 14 16
REMARK H PARENT
REMARK Flexibility Score: inf
ROOT
ATOM      1  C   UNL     1      24.231  15.258  82.007  1.00  0.00     0.039 C 
ATOM      2  C   UNL     1      25.562  15.912  81.716  1.00  0.00    -0.070 C 
ATOM      3  C   UNL     1      26.702  15.174  81.587  1.00  0.00    -0.006 C 
ATOM      4  C   UNL     1      26.729  13.660  81.671  1.00  0.00     0.047 C 
ATOM      5  C   UNL     1      27.310  12.995  80.382  1.00  0.00     0.025 C 
ATOM      6  C   UNL     1      27.702  11.520  80.610  1.00  0.00    -0.073 C 
ATOM      7  C   UNL     1      27.133  10.761  81.569  1.00  0.00     0.008 C 
ATOM      8  C   UNL     1      28.619  10.798  79.645  1.00  0.00     0.031 C 
ATOM      9  C   UNL     1      29.122  11.696  78.525  1.00  0.00     0.005 C 
ATOM     10  C   UNL     1      29.614  13.014  79.110  1.00  0.00     0.008 C 
ATOM     11  C   UNL     1      28.448  13.873  79.682  1.00  0.00    -0.018 C 
ATOM     12  C   UNL     1      29.076  14.890  80.681  1.00  0.00     0.088 C 
ATOM     13  C   UNL     1      28.032  15.764  81.307  1.00  0.00     0.159 C 
ATOM     14  O   UNL     1      28.331  16.938  81.653  1.00  0.00    -0.295 OA
ATOM     15  C   UNL     1      27.821  14.672  78.502  1.00  0.00     0.012 C 
ATOM     16  C   UNL     1      25.567  17.412  81.529  1.00  0.00     0.039 C 
ENDROOT
TORSDOF 0
ENDMDL
MODEL 5
REMARK VINA RESULT:    -7.643      2.168      5.143
REMARK INTER + INTRA:          -7.643
REMARK INTER:                  -7.643
REMARK INTRA:                   0.000
REMARK UNBOUND:                 0.000
REMARK SMILES C=C1CCC[C@]2(C)CC(=O)C(=C(C)C)C[C@H]12
REMARK SMILES IDX 13 1 12 2 11 3 15 4 16 5 2 6 1 7 3 8 4 9 5 10 6 11 8 12 9 13
REMARK SMILES IDX 10 14 7 15 14 16
REMARK H PARENT
REMARK Flexibility Score: inf
ROOT
ATOM      1  C   UNL     1      27.549  10.372  78.477  1.00  0.00     0.039 C 
ATOM      2  C   UNL     1      28.625  10.979  79.348  1.00  0.00    -0.070 C 
ATOM      3  C   UNL     1      28.721  12.329  79.520  1.00  0.00    -0.006 C 
ATOM      4  C   UNL     1      27.749  13.319  78.909  1.00  0.00     0.047 C 
ATOM      5  C   UNL     1      27.043  14.210  79.981  1.00  0.00     0.025 C 
ATOM      6  C   UNL     1      26.371  15.453  79.359  1.00  0.00    -0.073 C 
ATOM      7  C   UNL     1      25.968  15.489  78.072  1.00  0.00     0.008 C 
ATOM      8  C   UNL     1      25.968  16.634  80.217  1.00  0.00     0.031 C 
ATOM      9  C   UNL     1      26.355  16.461  81.678  1.00  0.00     0.005 C 
ATOM     10  C   UNL     1      27.799  15.984  81.771  1.00  0.00     0.008 C 
ATOM     11  C   UNL     1      27.972  14.530  81.241  1.00  0.00    -0.018 C 
ATOM     12  C   UNL     1      29.481  14.346  80.896  1.00  0.00     0.088 C 
ATOM     13  C   UNL     1      29.758  12.975  80.358  1.00  0.00     0.159 C 
ATOM     14  O   UNL     1      30.885  12.448  80.557  1.00  0.00    -0.295 OA
ATOM     15  C   UNL     1      27.614  13.555  82.400  1.00  0.00     0.012 C 
ATOM     16  C   UNL     1      29.560  10.025  80.054  1.00  0.00     0.039 C 
ENDROOT
TORSDOF 0
ENDMDL
MODEL 6
REMARK VINA RESULT:    -7.618      1.832      5.268
REMARK INTER + INTRA:          -7.618
REMARK INTER:                  -7.618
REMARK INTRA:                   0.000
REMARK UNBOUND:                 0.000
REMARK SMILES C=C1CCC[C@]2(C)CC(=O)C(=C(C)C)C[C@H]12
REMARK SMILES IDX 13 1 12 2 11 3 15 4 16 5 2 6 1 7 3 8 4 9 5 10 6 11 8 12 9 13
REMARK SMILES IDX 10 14 7 15 14 16
REMARK H PARENT
REMARK Flexibility Score: inf
ROOT
ATOM      1  C   UNL     1      30.019  12.829  78.175  1.00  0.00     0.039 C 
ATOM      2  C   UNL     1      30.318  13.115  79.628  1.00  0.00    -0.070 C 
ATOM      3  C   UNL     1      29.582  14.017  80.340  1.00  0.00    -0.006 C 
ATOM      4  C   UNL     1      28.392  14.761  79.766  1.00  0.00     0.047 C 
ATOM      5  C   UNL     1      27.080  14.512  80.577  1.00  0.00     0.025 C 
ATOM      6  C   UNL     1      25.984  15.549  80.248  1.00  0.00    -0.073 C 
ATOM      7  C   UNL     1      25.943  16.209  79.072  1.00  0.00     0.008 C 
ATOM      8  C   UNL     1      24.793  15.744  81.164  1.00  0.00     0.031 C 
ATOM      9  C   UNL     1      24.859  14.874  82.410  1.00  0.00     0.005 C 
ATOM     10  C   UNL     1      26.248  14.975  83.030  1.00  0.00     0.008 C 
ATOM     11  C   UNL     1      27.338  14.308  82.141  1.00  0.00    -0.018 C 
ATOM     12  C   UNL     1      28.710  14.905  82.574  1.00  0.00     0.088 C 
ATOM     13  C   UNL     1      29.836  14.338  81.764  1.00  0.00     0.159 C 
ATOM     14  O   UNL     1      30.979  14.228  82.284  1.00  0.00    -0.295 OA
ATOM     15  C   UNL     1      27.345  12.784  82.460  1.00  0.00     0.012 C 
ATOM     16  C   UNL     1      31.437  12.327  80.269  1.00  0.00     0.039 C 
ENDROOT
TORSDOF 0
ENDMDL
MODEL 7
REMARK VINA RESULT:    -7.553      1.950      3.290
REMARK INTER + INTRA:          -7.553
REMARK INTER:                  -7.553
REMARK INTRA:                   0.000
REMARK UNBOUND:                 0.000
REMARK SMILES C=C1CCC[C@]2(C)CC(=O)C(=C(C)C)C[C@H]12
REMARK SMILES IDX 13 1 12 2 11 3 15 4 16 5 2 6 1 7 3 8 4 9 5 10 6 11 8 12 9 13
REMARK SMILES IDX 10 14 7 15 14 16
REMARK H PARENT
REMARK Flexibility Score: inf
ROOT
ATOM      1  C   UNL     1      25.250  14.980  81.940  1.00  0.00     0.039 C 
ATOM      2  C   UNL     1      26.294  14.338  82.823  1.00  0.00    -0.070 C 
ATOM      3  C   UNL     1      27.167  13.412  82.331  1.00  0.00    -0.006 C 
ATOM      4  C   UNL     1      27.202  12.989  80.876  1.00  0.00     0.047 C 
ATOM      5  C   UNL     1      28.595  13.231  80.212  1.00  0.00     0.025 C 
ATOM      6  C   UNL     1      28.754  12.458  78.885  1.00  0.00    -0.073 C 
ATOM      7  C   UNL     1      27.697  12.089  78.133  1.00  0.00     0.008 C 
ATOM      8  C   UNL     1      30.120  12.232  78.272  1.00  0.00     0.031 C 
ATOM      9  C   UNL     1      31.250  12.783  79.128  1.00  0.00     0.005 C 
ATOM     10  C   UNL     1      31.049  12.352  80.576  1.00  0.00     0.008 C 
ATOM     11  C   UNL     1      29.815  13.043  81.228  1.00  0.00    -0.018 C 
ATOM     12  C   UNL     1      29.403  12.178  82.457  1.00  0.00     0.088 C 
ATOM     13  C   UNL     1      28.206  12.749  83.154  1.00  0.00     0.159 C 
ATOM     14  O   UNL     1      28.072  12.579  84.396  1.00  0.00    -0.295 OA
ATOM     15  C   UNL     1      30.268  14.440  81.743  1.00  0.00     0.012 C 
ATOM     16  C   UNL     1      26.359  14.798  84.261  1.00  0.00     0.039 C 
ENDROOT
TORSDOF 0
ENDMDL
MODEL 8
REMARK VINA RESULT:    -7.536      2.267      5.283
REMARK INTER + INTRA:          -7.536
REMARK INTER:                  -7.536
REMARK INTRA:                   0.000
REMARK UNBOUND:                 0.000
REMARK SMILES C=C1CCC[C@]2(C)CC(=O)C(=C(C)C)C[C@H]12
REMARK SMILES IDX 13 1 12 2 11 3 15 4 16 5 2 6 1 7 3 8 4 9 5 10 6 11 8 12 9 13
REMARK SMILES IDX 10 14 7 15 14 16
REMARK H PARENT
REMARK Flexibility Score: inf
ROOT
ATOM      1  C   UNL     1      27.133  10.931  77.714  1.00  0.00     0.039 C 
ATOM      2  C   UNL     1      28.346  11.035  78.610  1.00  0.00    -0.070 C 
ATOM      3  C   UNL     1      28.517  12.095  79.452  1.00  0.00    -0.006 C 
ATOM      4  C   UNL     1      27.506  13.215  79.600  1.00  0.00     0.047 C 
ATOM      5  C   UNL     1      26.997  13.375  81.068  1.00  0.00     0.025 C 
ATOM      6  C   UNL     1      26.291  14.729  81.298  1.00  0.00    -0.073 C 
ATOM      7  C   UNL     1      25.708  15.419  80.297  1.00  0.00     0.008 C 
ATOM      8  C   UNL     1      26.061  15.262  82.697  1.00  0.00     0.031 C 
ATOM      9  C   UNL     1      26.648  14.363  83.775  1.00  0.00     0.005 C 
ATOM     10  C   UNL     1      28.071  13.972  83.395  1.00  0.00     0.008 C 
ATOM     11  C   UNL     1      28.110  13.025  82.160  1.00  0.00    -0.018 C 
ATOM     12  C   UNL     1      29.545  13.116  81.559  1.00  0.00     0.088 C 
ATOM     13  C   UNL     1      29.689  12.248  80.346  1.00  0.00     0.159 C 
ATOM     14  O   UNL     1      30.812  11.744  80.074  1.00  0.00    -0.295 OA
ATOM     15  C   UNL     1      27.886  11.571  82.668  1.00  0.00     0.012 C 
ATOM     16  C   UNL     1      29.336   9.894  78.565  1.00  0.00     0.039 C 
ENDROOT
TORSDOF 0
ENDMDL
MODEL 9
REMARK VINA RESULT:    -7.463      2.106      4.539
REMARK INTER + INTRA:          -7.463
REMARK INTER:                  -7.463
REMARK INTRA:                   0.000
REMARK UNBOUND:                 0.000
REMARK SMILES C=C1CCC[C@]2(C)CC(=O)C(=C(C)C)C[C@H]12
REMARK SMILES IDX 13 1 12 2 11 3 15 4 16 5 2 6 1 7 3 8 4 9 5 10 6 11 8 12 9 13
REMARK SMILES IDX 10 14 7 15 14 16
REMARK H PARENT
REMARK Flexibility Score: inf
ROOT
ATOM      1  C   UNL     1      25.641  14.728  77.559  1.00  0.00     0.039 C 
ATOM      2  C   UNL     1      26.751  13.730  77.795  1.00  0.00    -0.070 C 
ATOM      3  C   UNL     1      27.540  13.796  78.906  1.00  0.00    -0.006 C 
ATOM      4  C   UNL     1      27.349  14.823  80.005  1.00  0.00     0.047 C 
ATOM      5  C   UNL     1      27.106  14.170  81.404  1.00  0.00     0.025 C 
ATOM      6  C   UNL     1      27.303  15.174  82.560  1.00  0.00    -0.073 C 
ATOM      7  C   UNL     1      27.155  16.504  82.395  1.00  0.00     0.008 C 
ATOM      8  C   UNL     1      27.498  14.696  83.984  1.00  0.00     0.031 C 
ATOM      9  C   UNL     1      27.535  13.179  84.097  1.00  0.00     0.005 C 
ATOM     10  C   UNL     1      28.464  12.611  83.031  1.00  0.00     0.008 C 
ATOM     11  C   UNL     1      27.889  12.790  81.595  1.00  0.00    -0.018 C 
ATOM     12  C   UNL     1      29.086  12.672  80.605  1.00  0.00     0.088 C 
ATOM     13  C   UNL     1      28.643  12.846  79.184  1.00  0.00     0.159 C 
ATOM     14  O   UNL     1      29.266  12.253  78.263  1.00  0.00    -0.295 OA
ATOM     15  C   UNL     1      26.912  11.609  81.323  1.00  0.00     0.012 C 
ATOM     16  C   UNL     1      26.918  12.630  76.773  1.00  0.00     0.039 C 
ENDROOT
TORSDOF 0
ENDMDL
