MODEL 1
REMARK VINA RESULT:    -4.562      0.000      0.000
REMARK INTER + INTRA:          -5.057
REMARK INTER:                  -4.962
REMARK INTRA:                  -0.095
REMARK UNBOUND:                -0.095
REMARK SMILES C=C(C)[C@@H]1CC=C(C)[C@H](O)C1
REMARK SMILES IDX 8 1 7 2 6 3 5 4 4 5 11 6 9 7 10 8 2 10 1 11 3 12
REMARK H PARENT 10 9
REMARK Flexibility Score: inf
ROOT
ATOM      1  C   UNL     1      49.118   6.969 113.024  1.00  0.00     0.042 C 
ATOM      2  C   UNL     1      47.847   7.340 113.746  1.00  0.00    -0.049 C 
ATOM      3  C   UNL     1      46.739   7.584 113.013  1.00  0.00    -0.025 C 
ATOM      4  C   UNL     1      45.414   7.962 113.625  1.00  0.00     0.035 C 
ATOM      5  C   UNL     1      45.585   8.590 115.016  1.00  0.00     0.021 C 
ATOM      6  C   UNL     1      46.489   7.696 115.876  1.00  0.00     0.044 C 
ATOM      7  C   UNL     1      47.890   7.582 115.249  1.00  0.00     0.140 C 
ENDROOT
BRANCH   7   8
ATOM      8  O   UNL     1      48.593   6.538 115.871  1.00  0.00    -0.389 OA
ATOM      9  H   UNL     1      47.917   5.962 116.316  1.00  0.00     0.211 HD
ENDBRANCH   7   8
BRANCH   5  10
ATOM     10  C   UNL     1      44.237   8.833 115.685  1.00  0.00    -0.077 C 
ATOM     11  C   UNL     1      43.527   7.797 116.160  1.00  0.00     0.008 C 
ATOM     12  C   UNL     1      43.674  10.224 115.841  1.00  0.00     0.039 C 
ENDBRANCH   5  10
TORSDOF 2
ENDMDL
MODEL 2
REMARK VINA RESULT:    -4.495      2.312      4.761
REMARK INTER + INTRA:          -4.984
REMARK INTER:                  -4.886
REMARK INTRA:                  -0.098
REMARK UNBOUND:                -0.095
REMARK SMILES C=C(C)[C@@H]1CC=C(C)[C@H](O)C1
REMARK SMILES IDX 8 1 7 2 6 3 5 4 4 5 11 6 9 7 10 8 2 10 1 11 3 12
REMARK H PARENT 10 9
REMARK Flexibility Score: inf
ROOT
ATOM      1  C   UNL     1      43.296  10.582 118.948  1.00  0.00     0.042 C 
ATOM      2  C   UNL     1      43.783   9.737 117.798  1.00  0.00    -0.049 C 
ATOM      3  C   UNL     1      43.693  10.242 116.547  1.00  0.00    -0.025 C 
ATOM      4  C   UNL     1      44.149   9.491 115.322  1.00  0.00     0.035 C 
ATOM      5  C   UNL     1      44.160   7.972 115.553  1.00  0.00     0.021 C 
ATOM      6  C   UNL     1      44.915   7.655 116.852  1.00  0.00     0.044 C 
ATOM      7  C   UNL     1      44.207   8.298 118.059  1.00  0.00     0.140 C 
ENDROOT
BRANCH   7   8
ATOM      8  O   UNL     1      45.061   8.257 119.173  1.00  0.00    -0.389 OA
ATOM      9  H   UNL     1      44.507   7.978 119.948  1.00  0.00     0.211 HD
ENDBRANCH   7   8
BRANCH   5  10
ATOM     10  C   UNL     1      44.759   7.233 114.363  1.00  0.00    -0.077 C 
ATOM     11  C   UNL     1      45.809   7.754 113.708  1.00  0.00     0.008 C 
ATOM     12  C   UNL     1      44.206   5.908 113.898  1.00  0.00     0.039 C 
ENDBRANCH   5  10
TORSDOF 2
ENDMDL
MODEL 3
REMARK VINA RESULT:    -4.479      1.713      2.327
REMARK INTER + INTRA:          -4.966
REMARK INTER:                  -4.870
REMARK INTRA:                  -0.097
REMARK UNBOUND:                -0.095
REMARK SMILES C=C(C)[C@@H]1CC=C(C)[C@H](O)C1
REMARK SMILES IDX 8 1 7 2 6 3 5 4 4 5 11 6 9 7 10 8 2 10 1 11 3 12
REMARK H PARENT 10 9
REMARK Flexibility Score: inf
ROOT
ATOM      1  C   UNL     1      49.455   7.281 113.367  1.00  0.00     0.042 C 
ATOM      2  C   UNL     1      48.042   7.442 113.869  1.00  0.00    -0.049 C 
ATOM      3  C   UNL     1      47.841   7.524 115.203  1.00  0.00    -0.025 C 
ATOM      4  C   UNL     1      46.475   7.687 115.820  1.00  0.00     0.035 C 
ATOM      5  C   UNL     1      45.363   7.177 114.892  1.00  0.00     0.021 C 
ATOM      6  C   UNL     1      45.542   7.783 113.493  1.00  0.00     0.044 C 
ATOM      7  C   UNL     1      46.886   7.346 112.883  1.00  0.00     0.140 C 
ENDROOT
BRANCH   7   8
ATOM      8  O   UNL     1      47.164   8.140 111.759  1.00  0.00    -0.389 OA
ATOM      9  H   UNL     1      48.045   8.569 111.921  1.00  0.00     0.211 HD
ENDBRANCH   7   8
BRANCH   5  10
ATOM     10  C   UNL     1      43.982   7.479 115.461  1.00  0.00    -0.077 C 
ATOM     11  C   UNL     1      42.883   7.199 114.743  1.00  0.00     0.008 C 
ATOM     12  C   UNL     1      43.811   8.083 116.834  1.00  0.00     0.039 C 
ENDBRANCH   5  10
TORSDOF 2
ENDMDL
MODEL 4
REMARK VINA RESULT:    -4.470      2.112      5.150
REMARK INTER + INTRA:          -4.957
REMARK INTER:                  -4.870
REMARK INTRA:                  -0.087
REMARK UNBOUND:                -0.095
REMARK SMILES C=C(C)[C@@H]1CC=C(C)[C@H](O)C1
REMARK SMILES IDX 8 1 7 2 6 3 5 4 4 5 11 6 9 7 10 8 2 10 1 11 3 12
REMARK H PARENT 10 9
REMARK Flexibility Score: inf
ROOT
ATOM      1  C   UNL     1      46.700   8.585 116.003  1.00  0.00     0.042 C 
ATOM      2  C   UNL     1      47.287   7.931 114.778  1.00  0.00    -0.049 C 
ATOM      3  C   UNL     1      48.615   8.047 114.560  1.00  0.00    -0.025 C 
ATOM      4  C   UNL     1      49.312   7.435 113.372  1.00  0.00     0.035 C 
ATOM      5  C   UNL     1      48.346   7.203 112.200  1.00  0.00     0.021 C 
ATOM      6  C   UNL     1      47.099   6.461 112.701  1.00  0.00     0.044 C 
ATOM      7  C   UNL     1      46.353   7.304 113.751  1.00  0.00     0.140 C 
ENDROOT
BRANCH   7   8
ATOM      8  O   UNL     1      45.409   6.498 114.407  1.00  0.00    -0.389 OA
ATOM      9  H   UNL     1      45.522   5.577 114.053  1.00  0.00     0.211 HD
ENDBRANCH   7   8
BRANCH   5  10
ATOM     10  C   UNL     1      49.025   6.452 111.061  1.00  0.00    -0.077 C 
ATOM     11  C   UNL     1      49.279   7.078 109.901  1.00  0.00     0.008 C 
ATOM     12  C   UNL     1      49.436   5.007 111.205  1.00  0.00     0.039 C 
ENDBRANCH   5  10
TORSDOF 2
ENDMDL
MODEL 5
REMARK VINA RESULT:    -4.466      8.111      8.788
REMARK INTER + INTRA:          -4.953
REMARK INTER:                  -4.854
REMARK INTRA:                  -0.099
REMARK UNBOUND:                -0.095
REMARK SMILES C=C(C)[C@@H]1CC=C(C)[C@H](O)C1
REMARK SMILES IDX 8 1 7 2 6 3 5 4 4 5 11 6 9 7 10 8 2 10 1 11 3 12
REMARK H PARENT 10 9
REMARK Flexibility Score: inf
ROOT
ATOM      1  C   UNL     1      43.381  -2.125 111.589  1.00  0.00     0.042 C 
ATOM      2  C   UNL     1      42.731  -0.984 112.330  1.00  0.00    -0.049 C 
ATOM      3  C   UNL     1      41.536  -1.200 112.923  1.00  0.00    -0.025 C 
ATOM      4  C   UNL     1      40.794  -0.137 113.691  1.00  0.00     0.035 C 
ATOM      5  C   UNL     1      41.204   1.277 113.252  1.00  0.00     0.021 C 
ATOM      6  C   UNL     1      42.734   1.393 113.257  1.00  0.00     0.044 C 
ATOM      7  C   UNL     1      43.354   0.403 112.253  1.00  0.00     0.140 C 
ENDROOT
BRANCH   7   8
ATOM      8  O   UNL     1      44.735   0.309 112.489  1.00  0.00    -0.389 OA
ATOM      9  H   UNL     1      44.851  -0.260 113.295  1.00  0.00     0.211 HD
ENDBRANCH   7   8
BRANCH   5  10
ATOM     10  C   UNL     1      40.559   2.340 114.133  1.00  0.00    -0.077 C 
ATOM     11  C   UNL     1      39.932   1.985 115.265  1.00  0.00     0.008 C 
ATOM     12  C   UNL     1      40.614   3.804 113.769  1.00  0.00     0.039 C 
ENDBRANCH   5  10
TORSDOF 2
ENDMDL
MODEL 6
REMARK VINA RESULT:    -4.463      4.144      6.142
REMARK INTER + INTRA:          -4.949
REMARK INTER:                  -4.850
REMARK INTRA:                  -0.099
REMARK UNBOUND:                -0.095
REMARK SMILES C=C(C)[C@@H]1CC=C(C)[C@H](O)C1
REMARK SMILES IDX 8 1 7 2 6 3 5 4 4 5 11 6 9 7 10 8 2 10 1 11 3 12
REMARK H PARENT 10 9
REMARK Flexibility Score: inf
ROOT
ATOM      1  C   UNL     1      43.826   8.522 114.293  1.00  0.00     0.042 C 
ATOM      2  C   UNL     1      43.209   9.886 114.121  1.00  0.00    -0.049 C 
ATOM      3  C   UNL     1      43.135  10.699 115.198  1.00  0.00    -0.025 C 
ATOM      4  C   UNL     1      42.540  12.084 115.145  1.00  0.00     0.035 C 
ATOM      5  C   UNL     1      41.549  12.237 113.982  1.00  0.00     0.021 C 
ATOM      6  C   UNL     1      42.199  11.737 112.684  1.00  0.00     0.044 C 
ATOM      7  C   UNL     1      42.549  10.242 112.795  1.00  0.00     0.140 C 
ENDROOT
BRANCH   7   8
ATOM      8  O   UNL     1      43.402   9.886 111.738  1.00  0.00    -0.389 OA
ATOM      9  H   UNL     1      43.720  10.733 111.328  1.00  0.00     0.211 HD
ENDBRANCH   7   8
BRANCH   5  10
ATOM     10  C   UNL     1      41.067  13.676 113.849  1.00  0.00    -0.077 C 
ATOM     11  C   UNL     1      41.820  14.683 114.319  1.00  0.00     0.008 C 
ATOM     12  C   UNL     1      39.753  14.008 113.185  1.00  0.00     0.039 C 
ENDBRANCH   5  10
TORSDOF 2
ENDMDL
MODEL 7
REMARK VINA RESULT:    -4.450      2.883      4.657
REMARK INTER + INTRA:          -4.936
REMARK INTER:                  -4.837
REMARK INTRA:                  -0.099
REMARK UNBOUND:                -0.095
REMARK SMILES C=C(C)[C@@H]1CC=C(C)[C@H](O)C1
REMARK SMILES IDX 8 1 7 2 6 3 5 4 4 5 11 6 9 7 10 8 2 10 1 11 3 12
REMARK H PARENT 10 9
REMARK Flexibility Score: inf
ROOT
ATOM      1  C   UNL     1      45.141   9.601 119.897  1.00  0.00     0.042 C 
ATOM      2  C   UNL     1      44.977   9.315 118.426  1.00  0.00    -0.049 C 
ATOM      3  C   UNL     1      46.051   9.462 117.620  1.00  0.00    -0.025 C 
ATOM      4  C   UNL     1      46.007   9.204 116.135  1.00  0.00     0.035 C 
ATOM      5  C   UNL     1      44.584   9.338 115.573  1.00  0.00     0.021 C 
ATOM      6  C   UNL     1      43.615   8.508 116.426  1.00  0.00     0.044 C 
ATOM      7  C   UNL     1      43.587   9.028 117.875  1.00  0.00     0.140 C 
ENDROOT
BRANCH   7   8
ATOM      8  O   UNL     1      42.944   8.087 118.694  1.00  0.00    -0.389 OA
ATOM      9  H   UNL     1      42.175   7.733 118.174  1.00  0.00     0.211 HD
ENDBRANCH   7   8
BRANCH   5  10
ATOM     10  C   UNL     1      44.527   8.932 114.105  1.00  0.00    -0.077 C 
ATOM     11  C   UNL     1      45.399   8.034 113.621  1.00  0.00     0.008 C 
ATOM     12  C   UNL     1      43.495   9.512 113.168  1.00  0.00     0.039 C 
ENDBRANCH   5  10
TORSDOF 2
ENDMDL
MODEL 8
REMARK VINA RESULT:    -4.444      7.456      9.415
REMARK INTER + INTRA:          -4.929
REMARK INTER:                  -4.831
REMARK INTRA:                  -0.097
REMARK UNBOUND:                -0.095
REMARK SMILES C=C(C)[C@@H]1CC=C(C)[C@H](O)C1
REMARK SMILES IDX 8 1 7 2 6 3 5 4 4 5 11 6 9 7 10 8 2 10 1 11 3 12
REMARK H PARENT 10 9
REMARK Flexibility Score: inf
ROOT
ATOM      1  C   UNL     1      42.037  12.171 111.802  1.00  0.00     0.042 C 
ATOM      2  C   UNL     1      41.760  13.483 112.491  1.00  0.00    -0.049 C 
ATOM      3  C   UNL     1      42.074  13.601 113.800  1.00  0.00    -0.025 C 
ATOM      4  C   UNL     1      41.845  14.863 114.591  1.00  0.00     0.035 C 
ATOM      5  C   UNL     1      40.743  15.735 113.971  1.00  0.00     0.021 C 
ATOM      6  C   UNL     1      41.020  15.925 112.473  1.00  0.00     0.044 C 
ATOM      7  C   UNL     1      40.998  14.570 111.743  1.00  0.00     0.140 C 
ENDROOT
BRANCH   7   8
ATOM      8  O   UNL     1      41.545  14.725 110.460  1.00  0.00    -0.389 OA
ATOM      9  H   UNL     1      42.419  14.253 110.461  1.00  0.00     0.211 HD
ENDBRANCH   7   8
BRANCH   5  10
ATOM     10  C   UNL     1      40.621  17.072 114.692  1.00  0.00    -0.077 C 
ATOM     11  C   UNL     1      39.997  18.101 114.098  1.00  0.00     0.008 C 
ATOM     12  C   UNL     1      41.179  17.272 116.080  1.00  0.00     0.039 C 
ENDBRANCH   5  10
TORSDOF 2
ENDMDL
MODEL 9
REMARK VINA RESULT:    -4.368      4.301      5.821
REMARK INTER + INTRA:          -4.846
REMARK INTER:                  -4.759
REMARK INTRA:                  -0.086
REMARK UNBOUND:                -0.095
REMARK SMILES C=C(C)[C@@H]1CC=C(C)[C@H](O)C1
REMARK SMILES IDX 8 1 7 2 6 3 5 4 4 5 11 6 9 7 10 8 2 10 1 11 3 12
REMARK H PARENT 10 9
REMARK Flexibility Score: inf
ROOT
ATOM      1  C   UNL     1      46.140   8.626 117.000  1.00  0.00     0.042 C 
ATOM      2  C   UNL     1      45.136   9.233 117.946  1.00  0.00    -0.049 C 
ATOM      3  C   UNL     1      45.354   9.119 119.275  1.00  0.00    -0.025 C 
ATOM      4  C   UNL     1      44.421   9.686 120.314  1.00  0.00     0.035 C 
ATOM      5  C   UNL     1      42.996   9.861 119.769  1.00  0.00     0.021 C 
ATOM      6  C   UNL     1      43.046  10.614 118.432  1.00  0.00     0.044 C 
ATOM      7  C   UNL     1      43.841   9.809 117.388  1.00  0.00     0.140 C 
ENDROOT
BRANCH   7   8
ATOM      8  O   UNL     1      44.132  10.634 116.290  1.00  0.00    -0.389 OA
ATOM      9  H   UNL     1      45.031  11.022 116.453  1.00  0.00     0.211 HD
ENDBRANCH   7   8
BRANCH   5  10
ATOM     10  C   UNL     1      42.099  10.569 120.776  1.00  0.00    -0.077 C 
ATOM     11  C   UNL     1      41.170   9.875 121.453  1.00  0.00     0.008 C 
ATOM     12  C   UNL     1      42.233  12.048 121.049  1.00  0.00     0.039 C 
ENDBRANCH   5  10
TORSDOF 2
ENDMDL
