MODEL 1
REMARK VINA RESULT:    -8.844      0.000      0.000
REMARK INTER + INTRA:         -12.933
REMARK INTER:                 -12.205
REMARK INTRA:                  -0.728
REMARK UNBOUND:                -0.728
REMARK SMILES C[C@@H]1OC(=O)[C@H](C)[C@H]1C[C@@H](O)[C@](C)(O)[C@@H]1CC[C@]2(O)C3=CC(=O)[C@H]4C[C@H](O)[C@@H](O)C[C@@]4(C)[C@H]3CC[C@]12C
REMARK SMILES IDX 12 1 13 2 10 3 9 4 8 5 7 6 6 7 4 8 2 9 3 10 5 11 1 12 11 13
REMARK SMILES IDX 15 15 16 16 36 17 17 18 18 19 35 20 37 21 20 22 34 23 33 24
REMARK SMILES IDX 21 25 31 26 22 27 24 28 30 29 32 30 23 31 25 32 28 33 26 34
REMARK SMILES IDX 19 35 29 37 27 39 14 41
REMARK H PARENT 11 14 19 36 29 38 27 40 14 42
REMARK Flexibility Score: inf
ROOT
ATOM      1  C   UNL     1      11.659 116.753  17.828  1.00  0.00     0.091 C 
ATOM      2  C   UNL     1      12.346 117.686  18.877  1.00  0.00     0.045 C 
ENDROOT
BRANCH   1   3
ATOM      3  C   UNL     1      10.326 117.419  17.284  1.00  0.00     0.146 C 
BRANCH   3   4
ATOM      4  C   UNL     1      10.013 118.823  17.897  1.00  0.00     0.043 C 
BRANCH   4   5
ATOM      5  C   UNL     1       8.847 118.954  18.918  1.00  0.00     0.046 C 
ATOM      6  C   UNL     1       9.022 120.869  20.621  1.00  0.00     0.020 C 
ATOM      7  C   UNL     1       9.247 119.374  20.358  1.00  0.00     0.103 C 
ATOM      8  C   UNL     1       8.346 118.530  21.182  1.00  0.00     0.309 C 
ATOM      9  C   UNL     1       7.969 117.676  19.062  1.00  0.00     0.177 C 
ATOM     10  O   UNL     1       7.641 117.607  20.441  1.00  0.00    -0.462 OA
ATOM     11  O   UNL     1       8.243 118.617  22.435  1.00  0.00    -0.252 OA
ATOM     12  C   UNL     1       6.692 117.740  18.224  1.00  0.00     0.053 C 
ENDBRANCH   4   5
ENDBRANCH   3   4
BRANCH   3  13
ATOM     13  O   UNL     1      10.405 117.534  15.888  1.00  0.00    -0.390 OA
ATOM     14  H   UNL     1      11.320 117.845  15.665  1.00  0.00     0.211 HD
ENDBRANCH   3  13
ENDBRANCH   1   3
BRANCH   1  15
ATOM     15  C   UNL     1      11.376 115.361  18.542  1.00  0.00     0.032 C 
ATOM     16  C   UNL     1      11.223 115.502  20.074  1.00  0.00     0.010 C 
ATOM     17  C   UNL     1      12.339 114.129  18.363  1.00  0.00     0.006 C 
ATOM     18  C   UNL     1      11.667 114.195  20.707  1.00  0.00     0.041 C 
ATOM     19  C   UNL     1      11.933 113.213  19.560  1.00  0.00     0.092 C 
ATOM     20  C   UNL     1      13.835 114.530  18.506  1.00  0.00     0.011 C 
ATOM     21  C   UNL     1      12.095 113.384  17.019  1.00  0.00     0.015 C 
ATOM     22  C   UNL     1      12.992 112.188  20.006  1.00  0.00    -0.031 C 
ATOM     23  C   UNL     1      14.756 113.311  18.520  1.00  0.00     0.009 C 
ATOM     24  C   UNL     1      14.478 112.361  19.714  1.00  0.00     0.025 C 
ATOM     25  C   UNL     1      12.646 111.329  20.975  1.00  0.00     0.050 C 
ATOM     26  C   UNL     1      15.264 110.978  19.646  1.00  0.00    -0.013 C 
ATOM     27  C   UNL     1      13.646 110.477  21.614  1.00  0.00     0.159 C 
ATOM     28  C   UNL     1      14.856 110.017  20.850  1.00  0.00     0.070 C 
ATOM     29  C   UNL     1      15.022 110.254  18.281  1.00  0.00     0.042 C 
ATOM     30  C   UNL     1      16.783 111.299  19.766  1.00  0.00     0.013 C 
ATOM     31  O   UNL     1      13.436 110.046  22.779  1.00  0.00    -0.295 OA
ATOM     32  C   UNL     1      14.572 108.554  20.422  1.00  0.00     0.047 C 
ATOM     33  C   UNL     1      15.711 108.869  18.172  1.00  0.00     0.143 C 
ATOM     34  C   UNL     1      15.618 108.004  19.458  1.00  0.00     0.143 C 
BRANCH  19  35
ATOM     35  O   UNL     1      10.705 112.568  19.273  1.00  0.00    -0.385 OA
ATOM     36  H   UNL     1      10.188 112.477  20.114  1.00  0.00     0.211 HD
ENDBRANCH  19  35
BRANCH  33  37
ATOM     37  O   UNL     1      15.199 108.167  17.065  1.00  0.00    -0.390 OA
ATOM     38  H   UNL     1      14.272 108.493  16.908  1.00  0.00     0.211 HD
ENDBRANCH  33  37
BRANCH  34  39
ATOM     39  O   UNL     1      16.859 107.934  20.112  1.00  0.00    -0.390 OA
ATOM     40  H   UNL     1      17.226 107.027  19.937  1.00  0.00     0.211 HD
ENDBRANCH  34  39
ENDBRANCH   1  15
BRANCH   1  41
ATOM     41  O   UNL     1      12.565 116.549  16.768  1.00  0.00    -0.387 OA
ATOM     42  H   UNL     1      13.032 115.686  16.920  1.00  0.00     0.211 HD
ENDBRANCH   1  41
TORSDOF 9
ENDMDL
MODEL 2
REMARK VINA RESULT:    -7.888      0.974      1.363
REMARK INTER + INTRA:         -11.613
REMARK INTER:                 -11.600
REMARK INTRA:                  -0.012
REMARK UNBOUND:                -0.728
REMARK SMILES C[C@@H]1OC(=O)[C@H](C)[C@H]1C[C@@H](O)[C@](C)(O)[C@@H]1CC[C@]2(O)C3=CC(=O)[C@H]4C[C@H](O)[C@@H](O)C[C@@]4(C)[C@H]3CC[C@]12C
REMARK SMILES IDX 12 1 13 2 10 3 9 4 8 5 7 6 6 7 4 8 2 9 3 10 5 11 1 12 11 13
REMARK SMILES IDX 15 15 16 16 36 17 17 18 18 19 35 20 37 21 20 22 34 23 33 24
REMARK SMILES IDX 21 25 31 26 22 27 24 28 30 29 32 30 23 31 25 32 28 33 26 34
REMARK SMILES IDX 19 35 29 37 27 39 14 41
REMARK H PARENT 11 14 19 36 29 38 27 40 14 42
REMARK Flexibility Score: inf
ROOT
ATOM      1  C   UNL     1      11.292 116.768  18.165  1.00  0.00     0.091 C 
ATOM      2  C   UNL     1      11.900 117.694  19.267  1.00  0.00     0.045 C 
ENDROOT
BRANCH   1   3
ATOM      3  C   UNL     1       9.871 117.307  17.710  1.00  0.00     0.146 C 
BRANCH   3   4
ATOM      4  C   UNL     1       8.775 117.246  18.823  1.00  0.00     0.043 C 
BRANCH   4   5
ATOM      5  C   UNL     1       8.841 118.261  19.999  1.00  0.00     0.046 C 
ATOM      6  C   UNL     1       9.569 117.331  22.280  1.00  0.00     0.020 C 
ATOM      7  C   UNL     1       8.387 117.729  21.385  1.00  0.00     0.103 C 
ATOM      8  C   UNL     1       7.652 118.895  21.933  1.00  0.00     0.309 C 
ATOM      9  C   UNL     1       8.050 119.581  19.756  1.00  0.00     0.177 C 
ATOM     10  O   UNL     1       7.489 119.911  21.017  1.00  0.00    -0.462 OA
ATOM     11  O   UNL     1       7.192 118.956  23.105  1.00  0.00    -0.252 OA
ATOM     12  C   UNL     1       8.942 120.722  19.267  1.00  0.00     0.053 C 
ENDBRANCH   4   5
ENDBRANCH   3   4
BRANCH   3  13
ATOM     13  O   UNL     1      10.002 118.630  17.263  1.00  0.00    -0.390 OA
ATOM     14  H   UNL     1       9.452 118.725  16.443  1.00  0.00     0.211 HD
ENDBRANCH   3  13
ENDBRANCH   1   3
BRANCH   1  15
ATOM     15  C   UNL     1      11.202 115.301  18.770  1.00  0.00     0.032 C 
ATOM     16  C   UNL     1      11.201 115.299  20.316  1.00  0.00     0.010 C 
ATOM     17  C   UNL     1      12.240 114.182  18.384  1.00  0.00     0.006 C 
ATOM     18  C   UNL     1      11.816 113.989  20.779  1.00  0.00     0.041 C 
ATOM     19  C   UNL     1      12.040 113.135  19.525  1.00  0.00     0.092 C 
ATOM     20  C   UNL     1      13.704 114.705  18.418  1.00  0.00     0.011 C 
ATOM     21  C   UNL     1      11.918 113.532  17.008  1.00  0.00     0.015 C 
ATOM     22  C   UNL     1      13.221 112.178  19.769  1.00  0.00    -0.031 C 
ATOM     23  C   UNL     1      14.719 113.579  18.228  1.00  0.00     0.009 C 
ATOM     24  C   UNL     1      14.648 112.511  19.350  1.00  0.00     0.025 C 
ATOM     25  C   UNL     1      13.052 111.213  20.683  1.00  0.00     0.050 C 
ATOM     26  C   UNL     1      15.535 111.216  19.079  1.00  0.00    -0.013 C 
ATOM     27  C   UNL     1      14.180 110.406  21.140  1.00  0.00     0.159 C 
ATOM     28  C   UNL     1      15.337 110.124  20.222  1.00  0.00     0.070 C 
ATOM     29  C   UNL     1      15.210 110.590  17.682  1.00  0.00     0.042 C 
ATOM     30  C   UNL     1      17.026 111.664  19.078  1.00  0.00     0.013 C 
ATOM     31  O   UNL     1      14.131 109.862  22.275  1.00  0.00    -0.295 OA
ATOM     32  C   UNL     1      15.132 108.682  19.691  1.00  0.00     0.047 C 
ATOM     33  C   UNL     1      15.996 109.288  17.378  1.00  0.00     0.143 C 
ATOM     34  C   UNL     1      16.111 108.313  18.582  1.00  0.00     0.143 C 
BRANCH  19  35
ATOM     35  O   UNL     1      10.846 112.407  19.301  1.00  0.00    -0.385 OA
ATOM     36  H   UNL     1      10.091 113.046  19.231  1.00  0.00     0.211 HD
ENDBRANCH  19  35
BRANCH  33  37
ATOM     37  O   UNL     1      15.430 108.637  16.267  1.00  0.00    -0.390 OA
ATOM     38  H   UNL     1      16.116 108.626  15.546  1.00  0.00     0.211 HD
ENDBRANCH  33  37
BRANCH  34  39
ATOM     39  O   UNL     1      17.416 108.303  19.102  1.00  0.00    -0.390 OA
ATOM     40  H   UNL     1      18.007 107.937  18.392  1.00  0.00     0.211 HD
ENDBRANCH  34  39
ENDBRANCH   1  15
BRANCH   1  41
ATOM     41  O   UNL     1      12.179 116.758  17.068  1.00  0.00    -0.387 OA
ATOM     42  H   UNL     1      11.748 117.242  16.316  1.00  0.00     0.211 HD
ENDBRANCH   1  41
TORSDOF 9
ENDMDL
MODEL 3
REMARK VINA RESULT:    -7.671      1.602      2.138
REMARK INTER + INTRA:         -11.314
REMARK INTER:                 -10.837
REMARK INTRA:                  -0.476
REMARK UNBOUND:                -0.728
REMARK SMILES C[C@@H]1OC(=O)[C@H](C)[C@H]1C[C@@H](O)[C@](C)(O)[C@@H]1CC[C@]2(O)C3=CC(=O)[C@H]4C[C@H](O)[C@@H](O)C[C@@]4(C)[C@H]3CC[C@]12C
REMARK SMILES IDX 12 1 13 2 10 3 9 4 8 5 7 6 6 7 4 8 2 9 3 10 5 11 1 12 11 13
REMARK SMILES IDX 15 15 16 16 36 17 17 18 18 19 35 20 37 21 20 22 34 23 33 24
REMARK SMILES IDX 21 25 31 26 22 27 24 28 30 29 32 30 23 31 25 32 28 33 26 34
REMARK SMILES IDX 19 35 29 37 27 39 14 41
REMARK H PARENT 11 14 19 36 29 38 27 40 14 42
REMARK Flexibility Score: inf
ROOT
ATOM      1  C   UNL     1      11.512 116.103  19.227  1.00  0.00     0.091 C 
ATOM      2  C   UNL     1      10.894 115.940  20.652  1.00  0.00     0.045 C 
ENDROOT
BRANCH   1   3
ATOM      3  C   UNL     1      10.513 116.888  18.276  1.00  0.00     0.146 C 
BRANCH   3   4
ATOM      4  C   UNL     1      10.337 118.399  18.638  1.00  0.00     0.043 C 
BRANCH   4   5
ATOM      5  C   UNL     1       8.984 118.876  19.236  1.00  0.00     0.046 C 
ATOM      6  C   UNL     1       9.029 121.066  20.579  1.00  0.00     0.020 C 
ATOM      7  C   UNL     1       9.053 119.532  20.641  1.00  0.00     0.103 C 
ATOM      8  C   UNL     1       7.833 118.990  21.290  1.00  0.00     0.309 C 
ATOM      9  C   UNL     1       7.891 117.769  19.322  1.00  0.00     0.177 C 
ATOM     10  O   UNL     1       7.201 118.026  20.535  1.00  0.00    -0.462 OA
ATOM     11  O   UNL     1       7.418 119.344  22.426  1.00  0.00    -0.252 OA
ATOM     12  C   UNL     1       6.913 117.813  18.147  1.00  0.00     0.053 C 
ENDBRANCH   4   5
ENDBRANCH   3   4
BRANCH   3  13
ATOM     13  O   UNL     1      10.959 116.781  16.951  1.00  0.00    -0.390 OA
ATOM     14  H   UNL     1      11.279 115.851  16.816  1.00  0.00     0.211 HD
ENDBRANCH   3  13
ENDBRANCH   1   3
BRANCH   1  15
ATOM     15  C   UNL     1      11.830 114.646  18.676  1.00  0.00     0.032 C 
ATOM     16  C   UNL     1      10.871 113.576  19.246  1.00  0.00     0.010 C 
ATOM     17  C   UNL     1      13.259 114.000  18.823  1.00  0.00     0.006 C 
ATOM     18  C   UNL     1      11.618 112.254  19.279  1.00  0.00     0.041 C 
ATOM     19  C   UNL     1      12.964 112.485  18.583  1.00  0.00     0.092 C 
ATOM     20  C   UNL     1      13.843 114.191  20.251  1.00  0.00     0.011 C 
ATOM     21  C   UNL     1      14.252 114.523  17.746  1.00  0.00     0.015 C 
ATOM     22  C   UNL     1      14.005 111.505  19.155  1.00  0.00    -0.031 C 
ATOM     23  C   UNL     1      15.139 113.407  20.448  1.00  0.00     0.009 C 
ATOM     24  C   UNL     1      14.945 111.876  20.296  1.00  0.00     0.025 C 
ATOM     25  C   UNL     1      13.828 110.202  18.896  1.00  0.00     0.050 C 
ATOM     26  C   UNL     1      16.302 111.043  20.280  1.00  0.00    -0.013 C 
ATOM     27  C   UNL     1      14.628 109.187  19.576  1.00  0.00     0.159 C 
ATOM     28  C   UNL     1      16.031 109.494  20.022  1.00  0.00     0.070 C 
ATOM     29  C   UNL     1      17.295 111.596  19.205  1.00  0.00     0.042 C 
ATOM     30  C   UNL     1      16.962 111.201  21.681  1.00  0.00     0.013 C 
ATOM     31  O   UNL     1      14.172 108.019  19.696  1.00  0.00    -0.295 OA
ATOM     32  C   UNL     1      16.973 108.853  18.971  1.00  0.00     0.047 C 
ATOM     33  C   UNL     1      18.615 110.790  19.094  1.00  0.00     0.143 C 
ATOM     34  C   UNL     1      18.433 109.249  19.163  1.00  0.00     0.143 C 
BRANCH  19  35
ATOM     35  O   UNL     1      12.764 112.250  17.201  1.00  0.00    -0.385 OA
ATOM     36  H   UNL     1      13.396 112.815  16.687  1.00  0.00     0.211 HD
ENDBRANCH  19  35
BRANCH  33  37
ATOM     37  O   UNL     1      19.300 111.155  17.920  1.00  0.00    -0.390 OA
ATOM     38  H   UNL     1      18.987 110.553  17.193  1.00  0.00     0.211 HD
ENDBRANCH  33  37
BRANCH  34  39
ATOM     39  O   UNL     1      18.893 108.740  20.389  1.00  0.00    -0.390 OA
ATOM     40  H   UNL     1      19.856 108.975  20.456  1.00  0.00     0.211 HD
ENDBRANCH  34  39
ENDBRANCH   1  15
BRANCH   1  41
ATOM     41  O   UNL     1      12.720 116.819  19.355  1.00  0.00    -0.387 OA
ATOM     42  H   UNL     1      12.945 116.877  20.320  1.00  0.00     0.211 HD
ENDBRANCH   1  41
TORSDOF 9
ENDMDL
MODEL 4
REMARK VINA RESULT:    -7.668      2.264      9.166
REMARK INTER + INTRA:         -11.310
REMARK INTER:                 -10.638
REMARK INTRA:                  -0.672
REMARK UNBOUND:                -0.728
REMARK SMILES C[C@@H]1OC(=O)[C@H](C)[C@H]1C[C@@H](O)[C@](C)(O)[C@@H]1CC[C@]2(O)C3=CC(=O)[C@H]4C[C@H](O)[C@@H](O)C[C@@]4(C)[C@H]3CC[C@]12C
REMARK SMILES IDX 12 1 13 2 10 3 9 4 8 5 7 6 6 7 4 8 2 9 3 10 5 11 1 12 11 13
REMARK SMILES IDX 15 15 16 16 36 17 17 18 18 19 35 20 37 21 20 22 34 23 33 24
REMARK SMILES IDX 21 25 31 26 22 27 24 28 30 29 32 30 23 31 25 32 28 33 26 34
REMARK SMILES IDX 19 35 29 37 27 39 14 41
REMARK H PARENT 11 14 19 36 29 38 27 40 14 42
REMARK Flexibility Score: inf
ROOT
ATOM      1  C   UNL     1      12.658 113.363  18.391  1.00  0.00     0.091 C 
ATOM      2  C   UNL     1      11.257 112.807  18.803  1.00  0.00     0.045 C 
ENDROOT
BRANCH   1   3
ATOM      3  C   UNL     1      13.776 112.257  18.594  1.00  0.00     0.146 C 
BRANCH   3   4
ATOM      4  C   UNL     1      13.237 110.891  19.131  1.00  0.00     0.043 C 
BRANCH   4   5
ATOM      5  C   UNL     1      13.585 110.465  20.585  1.00  0.00     0.046 C 
ATOM      6  C   UNL     1      11.699 109.372  21.945  1.00  0.00     0.020 C 
ATOM      7  C   UNL     1      12.465 110.667  21.642  1.00  0.00     0.103 C 
ATOM      8  C   UNL     1      13.238 111.136  22.818  1.00  0.00     0.309 C 
ATOM      9  C   UNL     1      14.862 111.141  21.167  1.00  0.00     0.177 C 
ATOM     10  O   UNL     1      14.564 111.379  22.533  1.00  0.00    -0.462 OA
ATOM     11  O   UNL     1      12.743 111.325  23.962  1.00  0.00    -0.252 OA
ATOM     12  C   UNL     1      16.103 110.254  21.051  1.00  0.00     0.053 C 
ENDBRANCH   4   5
ENDBRANCH   3   4
BRANCH   3  13
ATOM     13  O   UNL     1      14.439 112.043  17.377  1.00  0.00    -0.390 OA
ATOM     14  H   UNL     1      15.310 112.516  17.423  1.00  0.00     0.211 HD
ENDBRANCH   3  13
ENDBRANCH   1   3
BRANCH   1  15
ATOM     15  C   UNL     1      12.937 114.655  19.274  1.00  0.00     0.032 C 
ATOM     16  C   UNL     1      13.092 114.322  20.776  1.00  0.00     0.010 C 
ATOM     17  C   UNL     1      11.968 115.897  19.254  1.00  0.00     0.006 C 
ATOM     18  C   UNL     1      12.644 115.537  21.570  1.00  0.00     0.041 C 
ATOM     19  C   UNL     1      12.373 116.655  20.557  1.00  0.00     0.092 C 
ATOM     20  C   UNL     1      10.474 115.475  19.347  1.00  0.00     0.011 C 
ATOM     21  C   UNL     1      12.208 116.807  18.015  1.00  0.00     0.015 C 
ATOM     22  C   UNL     1      11.311 117.611  21.130  1.00  0.00    -0.031 C 
ATOM     23  C   UNL     1       9.549 116.679  19.515  1.00  0.00     0.009 C 
ATOM     24  C   UNL     1       9.825 117.471  20.820  1.00  0.00     0.025 C 
ATOM     25  C   UNL     1      11.655 118.342  22.199  1.00  0.00     0.050 C 
ATOM     26  C   UNL     1       9.034 118.848  20.928  1.00  0.00    -0.013 C 
ATOM     27  C   UNL     1      10.653 119.102  22.942  1.00  0.00     0.159 C 
ATOM     28  C   UNL     1       9.440 119.651  22.244  1.00  0.00     0.070 C 
ATOM     29  C   UNL     1       9.272 119.741  19.665  1.00  0.00     0.042 C 
ATOM     30  C   UNL     1       7.516 118.509  21.007  1.00  0.00     0.013 C 
ATOM     31  O   UNL     1      10.863 119.383  24.152  1.00  0.00    -0.295 OA
ATOM     32  C   UNL     1       9.718 121.157  22.005  1.00  0.00     0.047 C 
ATOM     33  C   UNL     1       8.577 121.126  19.733  1.00  0.00     0.143 C 
ATOM     34  C   UNL     1       8.669 121.821  21.119  1.00  0.00     0.143 C 
BRANCH  19  35
ATOM     35  O   UNL     1      13.598 117.336  20.352  1.00  0.00    -0.385 OA
ATOM     36  H   UNL     1      13.532 117.869  19.519  1.00  0.00     0.211 HD
ENDBRANCH  19  35
BRANCH  33  37
ATOM     37  O   UNL     1       9.086 121.964  18.724  1.00  0.00    -0.390 OA
ATOM     38  H   UNL     1       9.072 121.449  17.873  1.00  0.00     0.211 HD
ENDBRANCH  33  37
BRANCH  34  39
ATOM     39  O   UNL     1       7.429 121.803  21.777  1.00  0.00    -0.390 OA
ATOM     40  H   UNL     1       7.339 120.907  22.198  1.00  0.00     0.211 HD
ENDBRANCH  34  39
ENDBRANCH   1  15
BRANCH   1  41
ATOM     41  O   UNL     1      12.593 113.741  17.034  1.00  0.00    -0.387 OA
ATOM     42  H   UNL     1      11.637 113.823  16.779  1.00  0.00     0.211 HD
ENDBRANCH   1  41
TORSDOF 9
ENDMDL
MODEL 5
REMARK VINA RESULT:    -7.588      1.987      9.555
REMARK INTER + INTRA:         -11.200
REMARK INTER:                 -10.949
REMARK INTRA:                  -0.251
REMARK UNBOUND:                -0.728
REMARK SMILES C[C@@H]1OC(=O)[C@H](C)[C@H]1C[C@@H](O)[C@](C)(O)[C@@H]1CC[C@]2(O)C3=CC(=O)[C@H]4C[C@H](O)[C@@H](O)C[C@@]4(C)[C@H]3CC[C@]12C
REMARK SMILES IDX 12 1 13 2 10 3 9 4 8 5 7 6 6 7 4 8 2 9 3 10 5 11 1 12 11 13
REMARK SMILES IDX 15 15 16 16 36 17 17 18 18 19 35 20 37 21 20 22 34 23 33 24
REMARK SMILES IDX 21 25 31 26 22 27 24 28 30 29 32 30 23 31 25 32 28 33 26 34
REMARK SMILES IDX 19 35 29 37 27 39 14 41
REMARK H PARENT 11 14 19 36 29 38 27 40 14 42
REMARK Flexibility Score: inf
ROOT
ATOM      1  C   UNL     1      13.489 114.102  18.060  1.00  0.00     0.091 C 
ATOM      2  C   UNL     1      12.182 113.501  17.451  1.00  0.00     0.045 C 
ENDROOT
BRANCH   1   3
ATOM      3  C   UNL     1      14.580 112.967  18.260  1.00  0.00     0.146 C 
BRANCH   3   4
ATOM      4  C   UNL     1      14.467 111.783  17.245  1.00  0.00     0.043 C 
BRANCH   4   5
ATOM      5  C   UNL     1      14.955 110.372  17.679  1.00  0.00     0.046 C 
ATOM      6  C   UNL     1      13.886 109.387  19.797  1.00  0.00     0.020 C 
ATOM      7  C   UNL     1      15.089 110.137  19.207  1.00  0.00     0.103 C 
ATOM      8  C   UNL     1      16.331 109.328  19.284  1.00  0.00     0.309 C 
ATOM      9  C   UNL     1      16.312 109.937  17.049  1.00  0.00     0.177 C 
ATOM     10  O   UNL     1      16.983 109.222  18.074  1.00  0.00    -0.462 OA
ATOM     11  O   UNL     1      16.774 108.808  20.343  1.00  0.00    -0.252 OA
ATOM     12  C   UNL     1      16.133 109.043  15.821  1.00  0.00     0.053 C 
ENDBRANCH   4   5
ENDBRANCH   3   4
BRANCH   3  13
ATOM     13  O   UNL     1      15.859 113.535  18.165  1.00  0.00    -0.390 OA
ATOM     14  H   UNL     1      15.815 114.258  17.487  1.00  0.00     0.211 HD
ENDBRANCH   3  13
ENDBRANCH   1   3
BRANCH   1  15
ATOM     15  C   UNL     1      13.099 114.796  19.437  1.00  0.00     0.032 C 
ATOM     16  C   UNL     1      12.517 113.794  20.460  1.00  0.00     0.010 C 
ATOM     17  C   UNL     1      12.114 116.022  19.494  1.00  0.00     0.006 C 
ATOM     18  C   UNL     1      11.565 114.557  21.365  1.00  0.00     0.041 C 
ATOM     19  C   UNL     1      11.692 116.040  20.997  1.00  0.00     0.092 C 
ATOM     20  C   UNL     1      10.854 115.802  18.609  1.00  0.00     0.011 C 
ATOM     21  C   UNL     1      12.819 117.360  19.126  1.00  0.00     0.015 C 
ATOM     22  C   UNL     1      10.366 116.755  21.311  1.00  0.00    -0.031 C 
ATOM     23  C   UNL     1       9.814 116.903  18.810  1.00  0.00     0.009 C 
ATOM     24  C   UNL     1       9.278 116.966  20.264  1.00  0.00     0.025 C 
ATOM     25  C   UNL     1      10.015 116.862  22.600  1.00  0.00     0.050 C 
ATOM     26  C   UNL     1       8.358 118.229  20.568  1.00  0.00    -0.013 C 
ATOM     27  C   UNL     1       8.680 117.320  22.978  1.00  0.00     0.159 C 
ATOM     28  C   UNL     1       7.926 118.280  22.101  1.00  0.00     0.070 C 
ATOM     29  C   UNL     1       9.077 119.562  20.174  1.00  0.00     0.042 C 
ATOM     30  C   UNL     1       7.074 118.092  19.698  1.00  0.00     0.013 C 
ATOM     31  O   UNL     1       8.207 116.984  24.097  1.00  0.00    -0.295 OA
ATOM     32  C   UNL     1       8.074 119.678  22.755  1.00  0.00     0.047 C 
ATOM     33  C   UNL     1       8.259 120.839  20.501  1.00  0.00     0.143 C 
ATOM     34  C   UNL     1       7.538 120.803  21.877  1.00  0.00     0.143 C 
BRANCH  19  35
ATOM     35  O   UNL     1      12.744 116.573  21.782  1.00  0.00    -0.385 OA
ATOM     36  H   UNL     1      12.887 115.983  22.567  1.00  0.00     0.211 HD
ENDBRANCH  19  35
BRANCH  33  37
ATOM     37  O   UNL     1       9.086 121.973  20.405  1.00  0.00    -0.390 OA
ATOM     38  H   UNL     1       9.259 122.296  21.329  1.00  0.00     0.211 HD
ENDBRANCH  33  37
BRANCH  34  39
ATOM     39  O   UNL     1       6.152 120.646  21.717  1.00  0.00    -0.390 OA
ATOM     40  H   UNL     1       5.819 121.463  21.260  1.00  0.00     0.211 HD
ENDBRANCH  34  39
ENDBRANCH   1  15
BRANCH   1  41
ATOM     41  O   UNL     1      13.972 115.084  17.172  1.00  0.00    -0.387 OA
ATOM     42  H   UNL     1      13.547 114.938  16.286  1.00  0.00     0.211 HD
ENDBRANCH   1  41
TORSDOF 9
ENDMDL
MODEL 6
REMARK VINA RESULT:    -7.548      2.069      9.311
REMARK INTER + INTRA:         -11.144
REMARK INTER:                 -10.505
REMARK INTRA:                  -0.639
REMARK UNBOUND:                -0.728
REMARK SMILES C[C@@H]1OC(=O)[C@H](C)[C@H]1C[C@@H](O)[C@](C)(O)[C@@H]1CC[C@]2(O)C3=CC(=O)[C@H]4C[C@H](O)[C@@H](O)C[C@@]4(C)[C@H]3CC[C@]12C
REMARK SMILES IDX 12 1 13 2 10 3 9 4 8 5 7 6 6 7 4 8 2 9 3 10 5 11 1 12 11 13
REMARK SMILES IDX 15 15 16 16 36 17 17 18 18 19 35 20 37 21 20 22 34 23 33 24
REMARK SMILES IDX 21 25 31 26 22 27 24 28 30 29 32 30 23 31 25 32 28 33 26 34
REMARK SMILES IDX 19 35 29 37 27 39 14 41
REMARK H PARENT 11 14 19 36 29 38 27 40 14 42
REMARK Flexibility Score: inf
ROOT
ATOM      1  C   UNL     1      13.740 114.048  18.597  1.00  0.00     0.091 C 
ATOM      2  C   UNL     1      12.597 113.060  18.200  1.00  0.00     0.045 C 
ENDROOT
BRANCH   1   3
ATOM      3  C   UNL     1      15.102 113.264  18.809  1.00  0.00     0.146 C 
BRANCH   3   4
ATOM      4  C   UNL     1      15.046 111.757  18.396  1.00  0.00     0.043 C 
BRANCH   4   5
ATOM      5  C   UNL     1      15.094 110.670  19.508  1.00  0.00     0.046 C 
ATOM      6  C   UNL     1      14.310 108.315  18.848  1.00  0.00     0.020 C 
ATOM      7  C   UNL     1      13.929 109.645  19.511  1.00  0.00     0.103 C 
ATOM      8  C   UNL     1      13.672 109.481  20.963  1.00  0.00     0.309 C 
ATOM      9  C   UNL     1      15.185 111.235  20.957  1.00  0.00     0.177 C 
ATOM     10  O   UNL     1      14.388 110.363  21.743  1.00  0.00    -0.462 OA
ATOM     11  O   UNL     1      12.864 108.644  21.450  1.00  0.00    -0.252 OA
ATOM     12  C   UNL     1      16.617 111.256  21.493  1.00  0.00     0.053 C 
ENDBRANCH   4   5
ENDBRANCH   3   4
BRANCH   3  13
ATOM     13  O   UNL     1      16.119 113.901  18.083  1.00  0.00    -0.390 OA
ATOM     14  H   UNL     1      16.896 114.011  18.689  1.00  0.00     0.211 HD
ENDBRANCH   3  13
ENDBRANCH   1   3
BRANCH   1  15
ATOM     15  C   UNL     1      13.281 114.803  19.919  1.00  0.00     0.032 C 
ATOM     16  C   UNL     1      12.683 113.841  20.971  1.00  0.00     0.010 C 
ATOM     17  C   UNL     1      12.265 116.005  19.875  1.00  0.00     0.006 C 
ATOM     18  C   UNL     1      11.679 114.625  21.798  1.00  0.00     0.041 C 
ATOM     19  C   UNL     1      11.786 116.090  21.358  1.00  0.00     0.092 C 
ATOM     20  C   UNL     1      11.047 115.708  18.956  1.00  0.00     0.011 C 
ATOM     21  C   UNL     1      12.953 117.339  19.464  1.00  0.00     0.015 C 
ATOM     22  C   UNL     1      10.431 116.786  21.583  1.00  0.00    -0.031 C 
ATOM     23  C   UNL     1       9.974 116.791  19.059  1.00  0.00     0.009 C 
ATOM     24  C   UNL     1       9.381 116.915  20.486  1.00  0.00     0.025 C 
ATOM     25  C   UNL     1      10.028 116.951  22.851  1.00  0.00     0.050 C 
ATOM     26  C   UNL     1       8.420 118.169  20.689  1.00  0.00    -0.013 C 
ATOM     27  C   UNL     1       8.670 117.394  23.154  1.00  0.00     0.159 C 
ATOM     28  C   UNL     1       7.928 118.288  22.199  1.00  0.00     0.070 C 
ATOM     29  C   UNL     1       9.123 119.498  20.252  1.00  0.00     0.042 C 
ATOM     30  C   UNL     1       7.174 117.954  19.780  1.00  0.00     0.013 C 
ATOM     31  O   UNL     1       8.161 117.105  24.270  1.00  0.00    -0.295 OA
ATOM     32  C   UNL     1       8.018 119.721  22.784  1.00  0.00     0.047 C 
ATOM     33  C   UNL     1       8.263 120.768  20.481  1.00  0.00     0.143 C 
ATOM     34  C   UNL     1       7.491 120.786  21.828  1.00  0.00     0.143 C 
BRANCH  19  35
ATOM     35  O   UNL     1      12.793 116.689  22.153  1.00  0.00    -0.385 OA
ATOM     36  H   UNL     1      12.398 116.954  23.023  1.00  0.00     0.211 HD
ENDBRANCH  19  35
BRANCH  33  37
ATOM     37  O   UNL     1       9.067 121.917  20.356  1.00  0.00    -0.390 OA
ATOM     38  H   UNL     1       8.591 122.551  19.756  1.00  0.00     0.211 HD
ENDBRANCH  33  37
BRANCH  34  39
ATOM     39  O   UNL     1       6.116 120.586  21.625  1.00  0.00    -0.390 OA
ATOM     40  H   UNL     1       5.937 119.622  21.792  1.00  0.00     0.211 HD
ENDBRANCH  34  39
ENDBRANCH   1  15
BRANCH   1  41
ATOM     41  O   UNL     1      13.882 114.990  17.557  1.00  0.00    -0.387 OA
ATOM     42  H   UNL     1      14.148 115.859  17.959  1.00  0.00     0.211 HD
ENDBRANCH   1  41
TORSDOF 9
ENDMDL
MODEL 7
REMARK VINA RESULT:    -7.361      2.154      3.730
REMARK INTER + INTRA:         -10.886
REMARK INTER:                  -9.893
REMARK INTRA:                  -0.993
REMARK UNBOUND:                -0.728
REMARK SMILES C[C@@H]1OC(=O)[C@H](C)[C@H]1C[C@@H](O)[C@](C)(O)[C@@H]1CC[C@]2(O)C3=CC(=O)[C@H]4C[C@H](O)[C@@H](O)C[C@@]4(C)[C@H]3CC[C@]12C
REMARK SMILES IDX 12 1 13 2 10 3 9 4 8 5 7 6 6 7 4 8 2 9 3 10 5 11 1 12 11 13
REMARK SMILES IDX 15 15 16 16 36 17 17 18 18 19 35 20 37 21 20 22 34 23 33 24
REMARK SMILES IDX 21 25 31 26 22 27 24 28 30 29 32 30 23 31 25 32 28 33 26 34
REMARK SMILES IDX 19 35 29 37 27 39 14 41
REMARK H PARENT 11 14 19 36 29 38 27 40 14 42
REMARK Flexibility Score: inf
ROOT
ATOM      1  C   UNL     1       9.635 118.263  18.832  1.00  0.00     0.091 C 
ATOM      2  C   UNL     1      10.117 118.566  17.378  1.00  0.00     0.045 C 
ENDROOT
BRANCH   1   3
ATOM      3  C   UNL     1       8.990 119.557  19.484  1.00  0.00     0.146 C 
BRANCH   3   4
ATOM      4  C   UNL     1       9.727 120.067  20.765  1.00  0.00     0.043 C 
BRANCH   4   5
ATOM      5  C   UNL     1       9.040 119.889  22.148  1.00  0.00     0.046 C 
ATOM      6  C   UNL     1      10.578 119.342  24.132  1.00  0.00     0.020 C 
ATOM      7  C   UNL     1       9.629 118.782  23.064  1.00  0.00     0.103 C 
ATOM      8  C   UNL     1       8.403 118.203  23.668  1.00  0.00     0.309 C 
ATOM      9  C   UNL     1       7.506 119.629  22.078  1.00  0.00     0.177 C 
ATOM     10  O   UNL     1       7.242 118.696  23.114  1.00  0.00    -0.462 OA
ATOM     11  O   UNL     1       8.406 117.328  24.576  1.00  0.00    -0.252 OA
ATOM     12  C   UNL     1       6.682 120.898  22.296  1.00  0.00     0.053 C 
ENDBRANCH   4   5
ENDBRANCH   3   4
BRANCH   3  13
ATOM     13  O   UNL     1       8.959 120.586  18.530  1.00  0.00    -0.390 OA
ATOM     14  H   UNL     1       8.255 121.228  18.806  1.00  0.00     0.211 HD
ENDBRANCH   3  13
ENDBRANCH   1   3
BRANCH   1  15
ATOM     15  C   UNL     1      10.896 117.752  19.656  1.00  0.00     0.032 C 
ATOM     16  C   UNL     1      12.235 118.168  19.004  1.00  0.00     0.010 C 
ATOM     17  C   UNL     1      11.095 116.230  20.005  1.00  0.00     0.006 C 
ATOM     18  C   UNL     1      13.274 117.123  19.372  1.00  0.00     0.041 C 
ATOM     19  C   UNL     1      12.611 116.169  20.372  1.00  0.00     0.092 C 
ATOM     20  C   UNL     1      10.822 115.309  18.783  1.00  0.00     0.011 C 
ATOM     21  C   UNL     1      10.237 115.793  21.227  1.00  0.00     0.015 C 
ATOM     22  C   UNL     1      13.269 114.781  20.259  1.00  0.00    -0.031 C 
ATOM     23  C   UNL     1      11.195 113.855  19.068  1.00  0.00     0.009 C 
ATOM     24  C   UNL     1      12.702 113.671  19.382  1.00  0.00     0.025 C 
ATOM     25  C   UNL     1      14.548 114.675  20.646  1.00  0.00     0.050 C 
ATOM     26  C   UNL     1      13.091 112.214  19.893  1.00  0.00    -0.013 C 
ATOM     27  C   UNL     1      15.316 113.464  20.368  1.00  0.00     0.159 C 
ATOM     28  C   UNL     1      14.632 112.127  20.289  1.00  0.00     0.070 C 
ATOM     29  C   UNL     1      12.205 111.784  21.109  1.00  0.00     0.042 C 
ATOM     30  C   UNL     1      12.827 111.222  18.722  1.00  0.00     0.013 C 
ATOM     31  O   UNL     1      16.573 113.533  20.298  1.00  0.00    -0.295 OA
ATOM     32  C   UNL     1      14.900 111.419  21.641  1.00  0.00     0.047 C 
ATOM     33  C   UNL     1      12.573 110.397  21.697  1.00  0.00     0.143 C 
ATOM     34  C   UNL     1      14.099 110.131  21.805  1.00  0.00     0.143 C 
BRANCH  19  35
ATOM     35  O   UNL     1      12.813 116.714  21.663  1.00  0.00    -0.385 OA
ATOM     36  H   UNL     1      12.549 116.038  22.339  1.00  0.00     0.211 HD
ENDBRANCH  19  35
BRANCH  33  37
ATOM     37  O   UNL     1      11.951 110.230  22.949  1.00  0.00    -0.390 OA
ATOM     38  H   UNL     1      11.048 109.847  22.785  1.00  0.00     0.211 HD
ENDBRANCH  33  37
BRANCH  34  39
ATOM     39  O   UNL     1      14.519 109.199  20.842  1.00  0.00    -0.390 OA
ATOM     40  H   UNL     1      14.093 109.460  19.983  1.00  0.00     0.211 HD
ENDBRANCH  34  39
ENDBRANCH   1  15
BRANCH   1  41
ATOM     41  O   UNL     1       8.681 117.227  18.767  1.00  0.00    -0.387 OA
ATOM     42  H   UNL     1       7.897 117.559  18.256  1.00  0.00     0.211 HD
ENDBRANCH   1  41
TORSDOF 9
ENDMDL
MODEL 8
REMARK VINA RESULT:    -7.338      1.701      9.315
REMARK INTER + INTRA:         -10.854
REMARK INTER:                 -10.334
REMARK INTRA:                  -0.520
REMARK UNBOUND:                -0.728
REMARK SMILES C[C@@H]1OC(=O)[C@H](C)[C@H]1C[C@@H](O)[C@](C)(O)[C@@H]1CC[C@]2(O)C3=CC(=O)[C@H]4C[C@H](O)[C@@H](O)C[C@@]4(C)[C@H]3CC[C@]12C
REMARK SMILES IDX 12 1 13 2 10 3 9 4 8 5 7 6 6 7 4 8 2 9 3 10 5 11 1 12 11 13
REMARK SMILES IDX 15 15 16 16 36 17 17 18 18 19 35 20 37 21 20 22 34 23 33 24
REMARK SMILES IDX 21 25 31 26 22 27 24 28 30 29 32 30 23 31 25 32 28 33 26 34
REMARK SMILES IDX 19 35 29 37 27 39 14 41
REMARK H PARENT 11 14 19 36 29 38 27 40 14 42
REMARK Flexibility Score: inf
ROOT
ATOM      1  C   UNL     1      15.503 113.165  20.656  1.00  0.00     0.091 C 
ATOM      2  C   UNL     1      16.701 112.793  19.725  1.00  0.00     0.045 C 
ENDROOT
BRANCH   1   3
ATOM      3  C   UNL     1      15.219 111.995  21.688  1.00  0.00     0.146 C 
BRANCH   3   4
ATOM      4  C   UNL     1      16.094 110.718  21.468  1.00  0.00     0.043 C 
BRANCH   4   5
ATOM      5  C   UNL     1      15.484 109.512  20.699  1.00  0.00     0.046 C 
ATOM      6  C   UNL     1      17.146 107.884  19.610  1.00  0.00     0.020 C 
ATOM      7  C   UNL     1      16.219 109.090  19.399  1.00  0.00     0.103 C 
ATOM      8  C   UNL     1      15.085 108.760  18.502  1.00  0.00     0.309 C 
ATOM      9  C   UNL     1      13.983 109.683  20.318  1.00  0.00     0.177 C 
ATOM     10  O   UNL     1      13.858 109.086  19.037  1.00  0.00    -0.462 OA
ATOM     11  O   UNL     1      15.213 108.258  17.352  1.00  0.00    -0.252 OA
ATOM     12  C   UNL     1      13.041 108.997  21.308  1.00  0.00     0.053 C 
ENDBRANCH   4   5
ENDBRANCH   3   4
BRANCH   3  13
ATOM     13  O   UNL     1      15.421 112.472  22.992  1.00  0.00    -0.390 OA
ATOM     14  H   UNL     1      15.355 111.698  23.608  1.00  0.00     0.211 HD
ENDBRANCH   3  13
ENDBRANCH   1   3
BRANCH   1  15
ATOM     15  C   UNL     1      14.245 113.450  19.725  1.00  0.00     0.032 C 
ATOM     16  C   UNL     1      14.648 114.032  18.350  1.00  0.00     0.010 C 
ATOM     17  C   UNL     1      13.057 114.367  20.198  1.00  0.00     0.006 C 
ATOM     18  C   UNL     1      13.501 114.898  17.859  1.00  0.00     0.041 C 
ATOM     19  C   UNL     1      12.347 114.712  18.851  1.00  0.00     0.092 C 
ATOM     20  C   UNL     1      13.559 115.679  20.865  1.00  0.00     0.011 C 
ATOM     21  C   UNL     1      12.072 113.613  21.138  1.00  0.00     0.015 C 
ATOM     22  C   UNL     1      11.478 115.983  18.860  1.00  0.00    -0.031 C 
ATOM     23  C   UNL     1      12.415 116.649  21.153  1.00  0.00     0.009 C 
ATOM     24  C   UNL     1      11.679 117.109  19.868  1.00  0.00     0.025 C 
ATOM     25  C   UNL     1      10.787 116.264  17.747  1.00  0.00     0.050 C 
ATOM     26  C   UNL     1      10.352 117.946  20.139  1.00  0.00    -0.013 C 
ATOM     27  C   UNL     1      10.119 117.552  17.583  1.00  0.00     0.159 C 
ATOM     28  C   UNL     1       9.598 118.299  18.780  1.00  0.00     0.070 C 
ATOM     29  C   UNL     1       9.384 117.180  21.100  1.00  0.00     0.042 C 
ATOM     30  C   UNL     1      10.772 119.278  20.828  1.00  0.00     0.013 C 
ATOM     31  O   UNL     1       9.891 117.987  16.422  1.00  0.00    -0.295 OA
ATOM     32  C   UNL     1       8.069 118.046  18.820  1.00  0.00     0.047 C 
ATOM     33  C   UNL     1       8.042 117.914  21.358  1.00  0.00     0.143 C 
ATOM     34  C   UNL     1       7.415 118.566  20.096  1.00  0.00     0.143 C 
BRANCH  19  35
ATOM     35  O   UNL     1      11.594 113.597  18.408  1.00  0.00    -0.385 OA
ATOM     36  H   UNL     1      10.655 113.882  18.267  1.00  0.00     0.211 HD
ENDBRANCH  19  35
BRANCH  33  37
ATOM     37  O   UNL     1       7.127 117.035  21.967  1.00  0.00    -0.390 OA
ATOM     38  H   UNL     1       6.458 116.776  21.278  1.00  0.00     0.211 HD
ENDBRANCH  33  37
BRANCH  34  39
ATOM     39  O   UNL     1       7.532 119.965  20.138  1.00  0.00    -0.390 OA
ATOM     40  H   UNL     1       8.334 120.171  20.688  1.00  0.00     0.211 HD
ENDBRANCH  34  39
ENDBRANCH   1  15
BRANCH   1  41
ATOM     41  O   UNL     1      15.839 114.348  21.346  1.00  0.00    -0.387 OA
ATOM     42  H   UNL     1      16.795 114.551  21.166  1.00  0.00     0.211 HD
ENDBRANCH   1  41
TORSDOF 9
ENDMDL
MODEL 9
REMARK VINA RESULT:    -7.264      1.990      2.988
REMARK INTER + INTRA:         -10.752
REMARK INTER:                  -9.929
REMARK INTRA:                  -0.823
REMARK UNBOUND:                -0.728
REMARK SMILES C[C@@H]1OC(=O)[C@H](C)[C@H]1C[C@@H](O)[C@](C)(O)[C@@H]1CC[C@]2(O)C3=CC(=O)[C@H]4C[C@H](O)[C@@H](O)C[C@@]4(C)[C@H]3CC[C@]12C
REMARK SMILES IDX 12 1 13 2 10 3 9 4 8 5 7 6 6 7 4 8 2 9 3 10 5 11 1 12 11 13
REMARK SMILES IDX 15 15 16 16 36 17 17 18 18 19 35 20 37 21 20 22 34 23 33 24
REMARK SMILES IDX 21 25 31 26 22 27 24 28 30 29 32 30 23 31 25 32 28 33 26 34
REMARK SMILES IDX 19 35 29 37 27 39 14 41
REMARK H PARENT 11 14 19 36 29 38 27 40 14 42
REMARK Flexibility Score: inf
ROOT
ATOM      1  C   UNL     1      12.559 116.696  22.177  1.00  0.00     0.091 C 
ATOM      2  C   UNL     1      13.346 116.545  23.517  1.00  0.00     0.045 C 
ENDROOT
BRANCH   1   3
ATOM      3  C   UNL     1      11.331 117.683  22.364  1.00  0.00     0.146 C 
BRANCH   3   4
ATOM      4  C   UNL     1      10.010 117.202  21.679  1.00  0.00     0.043 C 
BRANCH   4   5
ATOM      5  C   UNL     1       9.531 117.916  20.384  1.00  0.00     0.046 C 
ATOM      6  C   UNL     1       7.478 119.445  20.608  1.00  0.00     0.020 C 
ATOM      7  C   UNL     1       7.995 118.055  20.211  1.00  0.00     0.103 C 
ATOM      8  C   UNL     1       7.828 117.801  18.759  1.00  0.00     0.309 C 
ATOM      9  C   UNL     1      10.065 117.284  19.064  1.00  0.00     0.177 C 
ATOM     10  O   UNL     1       8.990 117.388  18.144  1.00  0.00    -0.462 OA
ATOM     11  O   UNL     1       6.736 117.919  18.139  1.00  0.00    -0.252 OA
ATOM     12  C   UNL     1      11.293 118.013  18.516  1.00  0.00     0.053 C 
ENDBRANCH   4   5
ENDBRANCH   3   4
BRANCH   3  13
ATOM     13  O   UNL     1      11.097 117.872  23.734  1.00  0.00    -0.390 OA
ATOM     14  H   UNL     1      11.842 118.421  24.092  1.00  0.00     0.211 HD
ENDBRANCH   3  13
ENDBRANCH   1   3
BRANCH   1  15
ATOM     15  C   UNL     1      12.088 115.244  21.733  1.00  0.00     0.032 C 
ATOM     16  C   UNL     1      11.668 114.366  22.935  1.00  0.00     0.010 C 
ATOM     17  C   UNL     1      13.011 114.302  20.873  1.00  0.00     0.006 C 
ATOM     18  C   UNL     1      11.930 112.917  22.564  1.00  0.00     0.041 C 
ATOM     19  C   UNL     1      12.353 112.903  21.091  1.00  0.00     0.092 C 
ATOM     20  C   UNL     1      14.473 114.272  21.403  1.00  0.00     0.011 C 
ATOM     21  C   UNL     1      12.980 114.672  19.362  1.00  0.00     0.015 C 
ATOM     22  C   UNL     1      13.266 111.689  20.838  1.00  0.00    -0.031 C 
ATOM     23  C   UNL     1      15.319 113.220  20.688  1.00  0.00     0.009 C 
ATOM     24  C   UNL     1      14.787 111.779  20.895  1.00  0.00     0.025 C 
ATOM     25  C   UNL     1      12.712 110.473  20.934  1.00  0.00     0.050 C 
ATOM     26  C   UNL     1      15.509 110.680  19.996  1.00  0.00    -0.013 C 
ATOM     27  C   UNL     1      13.540 109.270  20.933  1.00  0.00     0.159 C 
ATOM     28  C   UNL     1      14.847 109.243  20.188  1.00  0.00     0.070 C 
ATOM     29  C   UNL     1      15.484 111.079  18.483  1.00  0.00     0.042 C 
ATOM     30  C   UNL     1      16.994 110.603  20.457  1.00  0.00     0.013 C 
ATOM     31  O   UNL     1      13.104 108.219  21.474  1.00  0.00    -0.295 OA
ATOM     32  C   UNL     1      14.578 108.488  18.862  1.00  0.00     0.047 C 
ATOM     33  C   UNL     1      16.118 110.021  17.543  1.00  0.00     0.143 C 
ATOM     34  C   UNL     1      15.754 108.552  17.893  1.00  0.00     0.143 C 
BRANCH  19  35
ATOM     35  O   UNL     1      11.170 112.806  20.320  1.00  0.00    -0.385 OA
ATOM     36  H   UNL     1      11.406 112.484  19.412  1.00  0.00     0.211 HD
ENDBRANCH  19  35
BRANCH  33  37
ATOM     37  O   UNL     1      15.783 110.309  16.207  1.00  0.00    -0.390 OA
ATOM     38  H   UNL     1      15.204 111.117  16.212  1.00  0.00     0.211 HD
ENDBRANCH  33  37
BRANCH  34  39
ATOM     39  O   UNL     1      16.852 107.879  18.454  1.00  0.00    -0.390 OA
ATOM     40  H   UNL     1      17.032 108.303  19.334  1.00  0.00     0.211 HD
ENDBRANCH  34  39
ENDBRANCH   1  15
BRANCH   1  41
ATOM     41  O   UNL     1      13.446 117.207  21.207  1.00  0.00    -0.387 OA
ATOM     42  H   UNL     1      13.402 116.620  20.407  1.00  0.00     0.211 HD
ENDBRANCH   1  41
TORSDOF 9
ENDMDL
