MODEL 1
REMARK VINA RESULT:    -6.199      0.000      0.000
REMARK INTER + INTRA:          -8.823
REMARK INTER:                  -8.373
REMARK INTRA:                  -0.450
REMARK UNBOUND:                -0.450
REMARK SMILES CC(=O)CCC=C(C)CCC=C(C)C
REMARK SMILES IDX 7 1 6 2 8 3 9 4 10 5 11 6 13 7 12 8 14 9 5 10 4 11 2 12 3 13
REMARK SMILES IDX 1 14
REMARK H PARENT
REMARK Flexibility Score: inf
ROOT
ATOM      1  C   UNL     1      13.430  13.960  15.858  1.00  0.00    -0.077 C 
ATOM      2  C   UNL     1      14.743  14.269  15.793  1.00  0.00    -0.028 C 
ATOM      3  C   UNL     1      12.964  12.583  16.265  1.00  0.00     0.039 C 
ENDROOT
BRANCH   1   4
ATOM      4  C   UNL     1      12.402  15.019  15.513  1.00  0.00     0.034 C 
BRANCH   4   5
ATOM      5  C   UNL     1      12.322  15.269  13.999  1.00  0.00     0.032 C 
BRANCH   5   6
ATOM      6  C   UNL     1      11.134  16.126  13.634  1.00  0.00    -0.028 C 
ATOM      7  C   UNL     1       9.625  17.403  12.177  1.00  0.00     0.039 C 
ATOM      8  C   UNL     1      10.816  16.502  12.377  1.00  0.00    -0.080 C 
ATOM      9  C   UNL     1      11.604  16.033  11.176  1.00  0.00     0.039 C 
ENDBRANCH   5   6
ENDBRANCH   4   5
ENDBRANCH   1   4
BRANCH   2  10
ATOM     10  C   UNL     1      15.841  13.277  16.104  1.00  0.00     0.035 C 
BRANCH  10  11
ATOM     11  C   UNL     1      16.475  12.703  14.832  1.00  0.00     0.079 C 
BRANCH  11  12
ATOM     12  C   UNL     1      16.811  11.241  14.989  1.00  0.00     0.130 C 
ATOM     13  O   UNL     1      16.038  10.507  15.586  1.00  0.00    -0.300 OA
ATOM     14  C   UNL     1      18.081  10.667  14.434  1.00  0.00     0.087 C 
ENDBRANCH  11  12
ENDBRANCH  10  11
ENDBRANCH   2  10
TORSDOF 6
ENDMDL
MODEL 2
REMARK VINA RESULT:    -6.012      0.778      1.171
REMARK INTER + INTRA:          -8.571
REMARK INTER:                  -8.190
REMARK INTRA:                  -0.381
REMARK UNBOUND:                -0.450
REMARK SMILES CC(=O)CCC=C(C)CCC=C(C)C
REMARK SMILES IDX 7 1 6 2 8 3 9 4 10 5 11 6 13 7 12 8 14 9 5 10 4 11 2 12 3 13
REMARK SMILES IDX 1 14
REMARK H PARENT
REMARK Flexibility Score: inf
ROOT
ATOM      1  C   UNL     1      14.125  14.219  15.804  1.00  0.00    -0.077 C 
ATOM      2  C   UNL     1      14.470  12.918  15.708  1.00  0.00    -0.028 C 
ATOM      3  C   UNL     1      15.125  15.272  16.219  1.00  0.00     0.039 C 
ENDROOT
BRANCH   1   4
ATOM      4  C   UNL     1      12.700  14.632  15.491  1.00  0.00     0.034 C 
BRANCH   4   5
ATOM      5  C   UNL     1      12.562  15.176  14.061  1.00  0.00     0.032 C 
BRANCH   5   6
ATOM      6  C   UNL     1      11.330  16.035  13.905  1.00  0.00    -0.028 C 
ATOM      7  C   UNL     1       9.612  17.339  12.730  1.00  0.00     0.039 C 
ATOM      8  C   UNL     1      10.822  16.441  12.721  1.00  0.00    -0.080 C 
ATOM      9  C   UNL     1      11.416  16.007  11.402  1.00  0.00     0.039 C 
ENDBRANCH   5   6
ENDBRANCH   4   5
ENDBRANCH   1   4
BRANCH   2  10
ATOM     10  C   UNL     1      15.860  12.408  16.013  1.00  0.00     0.035 C 
BRANCH  10  11
ATOM     11  C   UNL     1      16.740  12.348  14.758  1.00  0.00     0.079 C 
BRANCH  11  12
ATOM     12  C   UNL     1      17.341  10.978  14.566  1.00  0.00     0.130 C 
ATOM     13  O   UNL     1      17.091  10.092  15.370  1.00  0.00    -0.300 OA
ATOM     14  C   UNL     1      18.251  10.679  13.412  1.00  0.00     0.087 C 
ENDBRANCH  11  12
ENDBRANCH  10  11
ENDBRANCH   2  10
TORSDOF 6
ENDMDL
MODEL 3
REMARK VINA RESULT:    -5.849      3.395      7.364
REMARK INTER + INTRA:          -8.350
REMARK INTER:                  -7.549
REMARK INTRA:                  -0.801
REMARK UNBOUND:                -0.450
REMARK SMILES CC(=O)CCC=C(C)CCC=C(C)C
REMARK SMILES IDX 7 1 6 2 8 3 9 4 10 5 11 6 13 7 12 8 14 9 5 10 4 11 2 12 3 13
REMARK SMILES IDX 1 14
REMARK H PARENT
REMARK Flexibility Score: inf
ROOT
ATOM      1  C   UNL     1      12.568  15.313  13.300  1.00  0.00    -0.077 C 
ATOM      2  C   UNL     1      11.907  15.449  12.131  1.00  0.00    -0.028 C 
ATOM      3  C   UNL     1      11.857  15.441  14.627  1.00  0.00     0.039 C 
ENDROOT
BRANCH   1   4
ATOM      4  C   UNL     1      14.057  15.029  13.281  1.00  0.00     0.034 C 
BRANCH   4   5
ATOM      5  C   UNL     1      14.648  14.974  14.698  1.00  0.00     0.032 C 
BRANCH   5   6
ATOM      6  C   UNL     1      15.433  13.705  14.928  1.00  0.00    -0.028 C 
ATOM      7  C   UNL     1      15.908  11.466  15.820  1.00  0.00     0.039 C 
ATOM      8  C   UNL     1      14.986  12.644  15.636  1.00  0.00    -0.080 C 
ATOM      9  C   UNL     1      13.596  12.600  16.224  1.00  0.00     0.039 C 
ENDBRANCH   5   6
ENDBRANCH   4   5
ENDBRANCH   1   4
BRANCH   2  10
ATOM     10  C   UNL     1      10.427  15.747  12.049  1.00  0.00     0.035 C 
BRANCH  10  11
ATOM     11  C   UNL     1      10.154  17.196  11.625  1.00  0.00     0.079 C 
BRANCH  11  12
ATOM     12  C   UNL     1       9.036  17.809  12.429  1.00  0.00     0.130 C 
ATOM     13  O   UNL     1       8.123  18.382  11.852  1.00  0.00    -0.300 OA
ATOM     14  C   UNL     1       9.022  17.740  13.928  1.00  0.00     0.087 C 
ENDBRANCH  11  12
ENDBRANCH  10  11
ENDBRANCH   2  10
TORSDOF 6
ENDMDL
MODEL 4
REMARK VINA RESULT:    -5.827      1.060      1.717
REMARK INTER + INTRA:          -8.321
REMARK INTER:                  -7.681
REMARK INTRA:                  -0.641
REMARK UNBOUND:                -0.450
REMARK SMILES CC(=O)CCC=C(C)CCC=C(C)C
REMARK SMILES IDX 7 1 6 2 8 3 9 4 10 5 11 6 13 7 12 8 14 9 5 10 4 11 2 12 3 13
REMARK SMILES IDX 1 14
REMARK H PARENT
REMARK Flexibility Score: inf
ROOT
ATOM      1  C   UNL     1      13.276  14.683  14.462  1.00  0.00    -0.077 C 
ATOM      2  C   UNL     1      14.273  13.782  14.587  1.00  0.00    -0.028 C 
ATOM      3  C   UNL     1      12.347  14.996  15.610  1.00  0.00     0.039 C 
ENDROOT
BRANCH   1   4
ATOM      4  C   UNL     1      13.083  15.395  13.137  1.00  0.00     0.034 C 
BRANCH   4   5
ATOM      5  C   UNL     1      11.752  15.015  12.471  1.00  0.00     0.032 C 
BRANCH   5   6
ATOM      6  C   UNL     1      11.053  16.221  11.890  1.00  0.00    -0.028 C 
ATOM      7  C   UNL     1       9.408  18.040  11.759  1.00  0.00     0.039 C 
ATOM      8  C   UNL     1      10.039  16.883  12.489  1.00  0.00    -0.080 C 
ATOM      9  C   UNL     1       9.540  16.510  13.865  1.00  0.00     0.039 C 
ENDBRANCH   5   6
ENDBRANCH   4   5
ENDBRANCH   1   4
BRANCH   2  10
ATOM     10  C   UNL     1      14.535  13.012  15.862  1.00  0.00     0.035 C 
BRANCH  10  11
ATOM     11  C   UNL     1      16.033  12.777  16.094  1.00  0.00     0.079 C 
BRANCH  11  12
ATOM     12  C   UNL     1      16.530  11.571  15.338  1.00  0.00     0.130 C 
ATOM     13  O   UNL     1      15.986  10.489  15.505  1.00  0.00    -0.300 OA
ATOM     14  C   UNL     1      17.687  11.667  14.388  1.00  0.00     0.087 C 
ENDBRANCH  11  12
ENDBRANCH  10  11
ENDBRANCH   2  10
TORSDOF 6
ENDMDL
MODEL 5
REMARK VINA RESULT:    -5.766      1.036      1.838
REMARK INTER + INTRA:          -8.239
REMARK INTER:                  -7.758
REMARK INTRA:                  -0.481
REMARK UNBOUND:                -0.450
REMARK SMILES CC(=O)CCC=C(C)CCC=C(C)C
REMARK SMILES IDX 7 1 6 2 8 3 9 4 10 5 11 6 13 7 12 8 14 9 5 10 4 11 2 12 3 13
REMARK SMILES IDX 1 14
REMARK H PARENT
REMARK Flexibility Score: inf
ROOT
ATOM      1  C   UNL     1      14.317  13.728  15.806  1.00  0.00    -0.077 C 
ATOM      2  C   UNL     1      14.811  12.475  15.720  1.00  0.00    -0.028 C 
ATOM      3  C   UNL     1      15.222  14.919  16.014  1.00  0.00     0.039 C 
ENDROOT
BRANCH   1   4
ATOM      4  C   UNL     1      12.821  13.944  15.693  1.00  0.00     0.034 C 
BRANCH   4   5
ATOM      5  C   UNL     1      12.483  15.243  14.946  1.00  0.00     0.032 C 
BRANCH   5   6
ATOM      6  C   UNL     1      12.665  15.094  13.455  1.00  0.00    -0.028 C 
ATOM      7  C   UNL     1      12.126  15.344  11.072  1.00  0.00     0.039 C 
ATOM      8  C   UNL     1      11.839  15.622  12.525  1.00  0.00    -0.080 C 
ATOM      9  C   UNL     1      10.660  16.489  12.898  1.00  0.00     0.039 C 
ENDBRANCH   5   6
ENDBRANCH   4   5
ENDBRANCH   1   4
BRANCH   2  10
ATOM     10  C   UNL     1      16.285  12.159  15.834  1.00  0.00     0.035 C 
BRANCH  10  11
ATOM     11  C   UNL     1      16.972  12.114  14.463  1.00  0.00     0.079 C 
BRANCH  11  12
ATOM     12  C   UNL     1      17.701  10.811  14.249  1.00  0.00     0.130 C 
ATOM     13  O   UNL     1      17.687   9.962  15.128  1.00  0.00    -0.300 OA
ATOM     14  C   UNL     1      18.453  10.535  12.981  1.00  0.00     0.087 C 
ENDBRANCH  11  12
ENDBRANCH  10  11
ENDBRANCH   2  10
TORSDOF 6
ENDMDL
MODEL 6
REMARK VINA RESULT:    -5.609      3.570      7.527
REMARK INTER + INTRA:          -8.027
REMARK INTER:                  -7.612
REMARK INTRA:                  -0.415
REMARK UNBOUND:                -0.450
REMARK SMILES CC(=O)CCC=C(C)CCC=C(C)C
REMARK SMILES IDX 7 1 6 2 8 3 9 4 10 5 11 6 13 7 12 8 14 9 5 10 4 11 2 12 3 13
REMARK SMILES IDX 1 14
REMARK H PARENT
REMARK Flexibility Score: inf
ROOT
ATOM      1  C   UNL     1      12.635  15.409  11.838  1.00  0.00    -0.077 C 
ATOM      2  C   UNL     1      11.403  15.748  12.276  1.00  0.00    -0.028 C 
ATOM      3  C   UNL     1      12.966  15.377  10.365  1.00  0.00     0.039 C 
ENDROOT
BRANCH   1   4
ATOM      4  C   UNL     1      13.707  15.049  12.847  1.00  0.00     0.034 C 
BRANCH   4   5
ATOM      5  C   UNL     1      13.113  14.741  14.230  1.00  0.00     0.032 C 
BRANCH   5   6
ATOM      6  C   UNL     1      13.877  13.648  14.937  1.00  0.00    -0.028 C 
ATOM      7  C   UNL     1      15.666  12.644  16.287  1.00  0.00     0.039 C 
ATOM      8  C   UNL     1      14.984  13.845  15.684  1.00  0.00    -0.080 C 
ATOM      9  C   UNL     1      15.541  15.225  15.945  1.00  0.00     0.039 C 
ENDBRANCH   5   6
ENDBRANCH   4   5
ENDBRANCH   1   4
BRANCH   2  10
ATOM     10  C   UNL     1      10.267  16.108  11.347  1.00  0.00     0.035 C 
BRANCH  10  11
ATOM     11  C   UNL     1       9.975  17.614  11.350  1.00  0.00     0.079 C 
BRANCH  11  12
ATOM     12  C   UNL     1       8.890  17.967  12.337  1.00  0.00     0.130 C 
ATOM     13  O   UNL     1       7.842  18.449  11.933  1.00  0.00    -0.300 OA
ATOM     14  C   UNL     1       9.073  17.748  13.810  1.00  0.00     0.087 C 
ENDBRANCH  11  12
ENDBRANCH  10  11
ENDBRANCH   2  10
TORSDOF 6
ENDMDL
MODEL 7
REMARK VINA RESULT:    -5.372      2.273      7.100
REMARK INTER + INTRA:          -7.706
REMARK INTER:                  -7.310
REMARK INTRA:                  -0.396
REMARK UNBOUND:                -0.450
REMARK SMILES CC(=O)CCC=C(C)CCC=C(C)C
REMARK SMILES IDX 7 1 6 2 8 3 9 4 10 5 11 6 13 7 12 8 14 9 5 10 4 11 2 12 3 13
REMARK SMILES IDX 1 14
REMARK H PARENT
REMARK Flexibility Score: inf
ROOT
ATOM      1  C   UNL     1      15.131  13.812  15.541  1.00  0.00    -0.077 C 
ATOM      2  C   UNL     1      13.912  13.612  14.996  1.00  0.00    -0.028 C 
ATOM      3  C   UNL     1      15.629  15.200  15.867  1.00  0.00     0.039 C 
ENDROOT
BRANCH   1   4
ATOM      4  C   UNL     1      16.019  12.619  15.829  1.00  0.00     0.034 C 
BRANCH   4   5
ATOM      5  C   UNL     1      16.704  12.094  14.559  1.00  0.00     0.032 C 
BRANCH   5   6
ATOM      6  C   UNL     1      17.775  11.079  14.878  1.00  0.00    -0.028 C 
ATOM      7  C   UNL     1      19.448   9.335  14.436  1.00  0.00     0.039 C 
ATOM      8  C   UNL     1      18.438  10.347  13.957  1.00  0.00    -0.080 C 
ATOM      9  C   UNL     1      18.211  10.526  12.474  1.00  0.00     0.039 C 
ENDBRANCH   5   6
ENDBRANCH   4   5
ENDBRANCH   1   4
BRANCH   2  10
ATOM     10  C   UNL     1      12.962  14.738  14.660  1.00  0.00     0.035 C 
BRANCH  10  11
ATOM     11  C   UNL     1      13.007  15.105  13.171  1.00  0.00     0.079 C 
BRANCH  11  12
ATOM     12  C   UNL     1      11.626  15.347  12.615  1.00  0.00     0.130 C 
ATOM     13  O   UNL     1      11.183  14.598  11.757  1.00  0.00    -0.300 OA
ATOM     14  C   UNL     1      10.785  16.495  13.088  1.00  0.00     0.087 C 
ENDBRANCH  11  12
ENDBRANCH  10  11
ENDBRANCH   2  10
TORSDOF 6
ENDMDL
MODEL 8
REMARK VINA RESULT:    -4.955      2.171      3.879
REMARK INTER + INTRA:          -7.144
REMARK INTER:                  -6.495
REMARK INTRA:                  -0.648
REMARK UNBOUND:                -0.450
REMARK SMILES CC(=O)CCC=C(C)CCC=C(C)C
REMARK SMILES IDX 7 1 6 2 8 3 9 4 10 5 11 6 13 7 12 8 14 9 5 10 4 11 2 12 3 13
REMARK SMILES IDX 1 14
REMARK H PARENT
REMARK Flexibility Score: inf
ROOT
ATOM      1  C   UNL     1      13.016  15.178  11.313  1.00  0.00    -0.077 C 
ATOM      2  C   UNL     1      12.956  14.983  12.647  1.00  0.00    -0.028 C 
ATOM      3  C   UNL     1      14.262  15.715  10.650  1.00  0.00     0.039 C 
ENDROOT
BRANCH   1   4
ATOM      4  C   UNL     1      11.804  14.852  10.462  1.00  0.00     0.034 C 
BRANCH   4   5
ATOM      5  C   UNL     1      10.506  14.869  11.282  1.00  0.00     0.032 C 
BRANCH   5   6
ATOM      6  C   UNL     1       9.844  16.226  11.254  1.00  0.00    -0.028 C 
ATOM      7  C   UNL     1       8.975  18.341  12.152  1.00  0.00     0.039 C 
ATOM      8  C   UNL     1       9.706  17.034  12.327  1.00  0.00    -0.080 C 
ATOM      9  C   UNL     1      10.276  16.677  13.680  1.00  0.00     0.039 C 
ENDBRANCH   5   6
ENDBRANCH   4   5
ENDBRANCH   1   4
BRANCH   2  10
ATOM     10  C   UNL     1      14.106  15.291  13.579  1.00  0.00     0.035 C 
BRANCH  10  11
ATOM     11  C   UNL     1      13.964  14.571  14.926  1.00  0.00     0.079 C 
BRANCH  11  12
ATOM     12  C   UNL     1      15.275  14.518  15.669  1.00  0.00     0.130 C 
ATOM     13  O   UNL     1      15.842  15.560  15.964  1.00  0.00    -0.300 OA
ATOM     14  C   UNL     1      15.907  13.211  16.047  1.00  0.00     0.087 C 
ENDBRANCH  11  12
ENDBRANCH  10  11
ENDBRANCH   2  10
TORSDOF 6
ENDMDL
MODEL 9
REMARK VINA RESULT:    -4.363      2.518      6.566
REMARK INTER + INTRA:          -6.344
REMARK INTER:                  -6.205
REMARK INTRA:                  -0.139
REMARK UNBOUND:                -0.450
REMARK SMILES CC(=O)CCC=C(C)CCC=C(C)C
REMARK SMILES IDX 7 1 6 2 8 3 9 4 10 5 11 6 13 7 12 8 14 9 5 10 4 11 2 12 3 13
REMARK SMILES IDX 1 14
REMARK H PARENT
REMARK Flexibility Score: inf
ROOT
ATOM      1  C   UNL     1      12.590  15.155  14.068  1.00  0.00    -0.077 C 
ATOM      2  C   UNL     1      11.416  15.820  14.044  1.00  0.00    -0.028 C 
ATOM      3  C   UNL     1      13.485  15.094  12.853  1.00  0.00     0.039 C 
ENDROOT
BRANCH   1   4
ATOM      4  C   UNL     1      13.018  14.451  15.340  1.00  0.00     0.034 C 
BRANCH   4   5
ATOM      5  C   UNL     1      14.389  14.937  15.832  1.00  0.00     0.032 C 
BRANCH   5   6
ATOM      6  C   UNL     1      15.519  14.162  15.198  1.00  0.00    -0.028 C 
ATOM      7  C   UNL     1      16.916  12.208  14.685  1.00  0.00     0.039 C 
ATOM      8  C   UNL     1      15.711  12.832  15.340  1.00  0.00    -0.080 C 
ATOM      9  C   UNL     1      14.749  11.960  16.113  1.00  0.00     0.039 C 
ENDBRANCH   5   6
ENDBRANCH   4   5
ENDBRANCH   1   4
BRANCH   2  10
ATOM     10  C   UNL     1      10.898  16.540  12.820  1.00  0.00     0.035 C 
BRANCH  10  11
ATOM     11  C   UNL     1      10.012  15.636  11.953  1.00  0.00     0.079 C 
BRANCH  11  12
ATOM     12  C   UNL     1      10.680  15.293  10.644  1.00  0.00     0.130 C 
ATOM     13  O   UNL     1      10.590  14.158  10.202  1.00  0.00    -0.300 OA
ATOM     14  C   UNL     1      11.462  16.316   9.875  1.00  0.00     0.087 C 
ENDBRANCH  11  12
ENDBRANCH  10  11
ENDBRANCH   2  10
TORSDOF 6
ENDMDL
