MODEL 1
REMARK VINA RESULT:    -3.583      0.000      0.000
REMARK INTER + INTRA:          -4.469
REMARK INTER:                  -4.421
REMARK INTRA:                  -0.049
REMARK UNBOUND:                -0.049
REMARK SMILES CCCCCC(=O)[O-]
REMARK SMILES IDX 4 1 5 2 6 3 7 4 8 5 3 6 2 7 1 8
REMARK H PARENT
REMARK Flexibility Score: inf
ROOT
ATOM      1  C   UNL     1     -11.180  -1.434 -40.425  1.00  0.00     0.006 C 
ENDROOT
BRANCH   1   2
ATOM      2  C   UNL     1     -10.263  -0.733 -41.432  1.00  0.00     0.053 C 
BRANCH   2   3
ATOM      3  C   UNL     1      -9.096  -1.604 -41.772  1.00  0.00     0.041 C 
ATOM      4  O   UNL     1      -9.276  -2.703 -42.360  1.00  0.00    -0.550 OA
ATOM      5  O   UNL     1      -7.805  -1.180 -41.485  1.00  0.00    -0.550 OA
ENDBRANCH   2   3
ENDBRANCH   1   2
BRANCH   1   6
ATOM      6  C   UNL     1     -12.541  -0.727 -40.338  1.00  0.00     0.000 C 
BRANCH   6   7
ATOM      7  C   UNL     1     -13.675  -1.678 -39.925  1.00  0.00    -0.003 C 
ATOM      8  C   UNL     1     -15.044  -1.220 -40.430  1.00  0.00     0.004 C 
ENDBRANCH   6   7
ENDBRANCH   1   6
TORSDOF 4
ENDMDL
MODEL 2
REMARK VINA RESULT:    -3.527      1.209      1.548
REMARK INTER + INTRA:          -4.400
REMARK INTER:                  -4.284
REMARK INTRA:                  -0.116
REMARK UNBOUND:                -0.049
REMARK SMILES CCCCCC(=O)[O-]
REMARK SMILES IDX 4 1 5 2 6 3 7 4 8 5 3 6 2 7 1 8
REMARK H PARENT
REMARK Flexibility Score: inf
ROOT
ATOM      1  C   UNL     1     -11.659  -1.848 -39.138  1.00  0.00     0.006 C 
ENDROOT
BRANCH   1   2
ATOM      2  C   UNL     1     -11.000  -1.344 -40.426  1.00  0.00     0.053 C 
BRANCH   2   3
ATOM      3  C   UNL     1      -9.830  -2.204 -40.786  1.00  0.00     0.041 C 
ATOM      4  O   UNL     1      -9.342  -2.997 -39.939  1.00  0.00    -0.550 OA
ATOM      5  O   UNL     1      -9.310  -2.165 -42.074  1.00  0.00    -0.550 OA
ENDBRANCH   2   3
ENDBRANCH   1   2
BRANCH   1   6
ATOM      6  C   UNL     1     -13.174  -2.016 -39.327  1.00  0.00     0.000 C 
BRANCH   6   7
ATOM      7  C   UNL     1     -13.748  -1.057 -40.382  1.00  0.00    -0.003 C 
ATOM      8  C   UNL     1     -15.277  -1.061 -40.414  1.00  0.00     0.004 C 
ENDBRANCH   6   7
ENDBRANCH   1   6
TORSDOF 4
ENDMDL
MODEL 3
REMARK VINA RESULT:    -3.363      9.246     10.416
REMARK INTER + INTRA:          -4.198
REMARK INTER:                  -4.067
REMARK INTRA:                  -0.131
REMARK UNBOUND:                -0.049
REMARK SMILES CCCCCC(=O)[O-]
REMARK SMILES IDX 4 1 5 2 6 3 7 4 8 5 3 6 2 7 1 8
REMARK H PARENT
REMARK Flexibility Score: inf
ROOT
ATOM      1  C   UNL     1     -17.119   5.891 -42.466  1.00  0.00     0.006 C 
ENDROOT
BRANCH   1   2
ATOM      2  C   UNL     1     -18.147   6.924 -41.996  1.00  0.00     0.053 C 
BRANCH   2   3
ATOM      3  C   UNL     1     -17.623   7.687 -40.821  1.00  0.00     0.041 C 
ATOM      4  O   UNL     1     -16.738   8.569 -40.982  1.00  0.00    -0.550 OA
ATOM      5  O   UNL     1     -18.146   7.460 -39.554  1.00  0.00    -0.550 OA
ENDBRANCH   2   3
ENDBRANCH   1   2
BRANCH   1   6
ATOM      6  C   UNL     1     -16.932   4.786 -41.416  1.00  0.00     0.000 C 
BRANCH   6   7
ATOM      7  C   UNL     1     -18.038   3.720 -41.477  1.00  0.00    -0.003 C 
ATOM      8  C   UNL     1     -17.844   2.608 -40.446  1.00  0.00     0.004 C 
ENDBRANCH   6   7
ENDBRANCH   1   6
TORSDOF 4
ENDMDL
MODEL 4
REMARK VINA RESULT:    -3.283      8.220      9.219
REMARK INTER + INTRA:          -4.100
REMARK INTER:                  -3.879
REMARK INTRA:                  -0.221
REMARK UNBOUND:                -0.049
REMARK SMILES CCCCCC(=O)[O-]
REMARK SMILES IDX 4 1 5 2 6 3 7 4 8 5 3 6 2 7 1 8
REMARK H PARENT
REMARK Flexibility Score: inf
ROOT
ATOM      1  C   UNL     1     -16.011   5.111 -41.675  1.00  0.00     0.006 C 
ENDROOT
BRANCH   1   2
ATOM      2  C   UNL     1     -16.812   4.658 -40.451  1.00  0.00     0.053 C 
BRANCH   2   3
ATOM      3  C   UNL     1     -17.626   3.446 -40.777  1.00  0.00     0.041 C 
ATOM      4  O   UNL     1     -18.509   3.499 -41.673  1.00  0.00    -0.550 OA
ATOM      5  O   UNL     1     -17.375   2.244 -40.127  1.00  0.00    -0.550 OA
ENDBRANCH   2   3
ENDBRANCH   1   2
BRANCH   1   6
ATOM      6  C   UNL     1     -16.665   6.333 -42.337  1.00  0.00     0.000 C 
BRANCH   6   7
ATOM      7  C   UNL     1     -17.005   6.092 -43.816  1.00  0.00    -0.003 C 
ATOM      8  C   UNL     1     -16.429   4.780 -44.349  1.00  0.00     0.004 C 
ENDBRANCH   6   7
ENDBRANCH   1   6
TORSDOF 4
ENDMDL
MODEL 5
REMARK VINA RESULT:    -3.270      3.011      4.655
REMARK INTER + INTRA:          -4.084
REMARK INTER:                  -3.991
REMARK INTRA:                  -0.093
REMARK UNBOUND:                -0.049
REMARK SMILES CCCCCC(=O)[O-]
REMARK SMILES IDX 4 1 5 2 6 3 7 4 8 5 3 6 2 7 1 8
REMARK H PARENT
REMARK Flexibility Score: inf
ROOT
ATOM      1  C   UNL     1     -11.131  -1.669 -39.882  1.00  0.00     0.006 C 
ENDROOT
BRANCH   1   2
ATOM      2  C   UNL     1     -12.406  -0.956 -40.342  1.00  0.00     0.053 C 
BRANCH   2   3
ATOM      3  C   UNL     1     -13.617  -1.737 -39.940  1.00  0.00     0.041 C 
ATOM      4  O   UNL     1     -14.761  -1.369 -40.315  1.00  0.00    -0.550 OA
ATOM      5  O   UNL     1     -13.478  -2.899 -39.192  1.00  0.00    -0.550 OA
ENDBRANCH   2   3
ENDBRANCH   1   2
BRANCH   1   6
ATOM      6  C   UNL     1      -9.958  -0.682 -39.781  1.00  0.00     0.000 C 
BRANCH   6   7
ATOM      7  C   UNL     1      -9.162  -0.574 -41.092  1.00  0.00    -0.003 C 
ATOM      8  C   UNL     1      -9.180  -1.871 -41.902  1.00  0.00     0.004 C 
ENDBRANCH   6   7
ENDBRANCH   1   6
TORSDOF 4
ENDMDL
MODEL 6
REMARK VINA RESULT:    -3.266      2.767      3.066
REMARK INTER + INTRA:          -4.078
REMARK INTER:                  -3.990
REMARK INTRA:                  -0.088
REMARK UNBOUND:                -0.049
REMARK SMILES CCCCCC(=O)[O-]
REMARK SMILES IDX 4 1 5 2 6 3 7 4 8 5 3 6 2 7 1 8
REMARK H PARENT
REMARK Flexibility Score: inf
ROOT
ATOM      1  C   UNL     1     -12.178  -0.289 -40.770  1.00  0.00     0.006 C 
ENDROOT
BRANCH   1   2
ATOM      2  C   UNL     1     -10.839   0.454 -40.733  1.00  0.00     0.053 C 
BRANCH   2   3
ATOM      3  C   UNL     1     -10.997   1.844 -41.263  1.00  0.00     0.041 C 
ATOM      4  O   UNL     1     -12.142   2.356 -41.366  1.00  0.00    -0.550 OA
ATOM      5  O   UNL     1      -9.875   2.593 -41.596  1.00  0.00    -0.550 OA
ENDBRANCH   2   3
ENDBRANCH   1   2
BRANCH   1   6
ATOM      6  C   UNL     1     -12.167  -1.486 -39.807  1.00  0.00     0.000 C 
BRANCH   6   7
ATOM      7  C   UNL     1     -13.562  -2.100 -39.612  1.00  0.00    -0.003 C 
ATOM      8  C   UNL     1     -14.654  -1.334 -40.360  1.00  0.00     0.004 C 
ENDBRANCH   6   7
ENDBRANCH   1   6
TORSDOF 4
ENDMDL
MODEL 7
REMARK VINA RESULT:    -3.260      8.424      9.611
REMARK INTER + INTRA:          -4.072
REMARK INTER:                  -3.955
REMARK INTRA:                  -0.117
REMARK UNBOUND:                -0.049
REMARK SMILES CCCCCC(=O)[O-]
REMARK SMILES IDX 4 1 5 2 6 3 7 4 8 5 3 6 2 7 1 8
REMARK H PARENT
REMARK Flexibility Score: inf
ROOT
ATOM      1  C   UNL     1     -16.738   5.160 -42.197  1.00  0.00     0.006 C 
ENDROOT
BRANCH   1   2
ATOM      2  C   UNL     1     -16.612   4.356 -40.899  1.00  0.00     0.053 C 
BRANCH   2   3
ATOM      3  C   UNL     1     -17.696   3.329 -40.811  1.00  0.00     0.041 C 
ATOM      4  O   UNL     1     -18.776   3.492 -41.438  1.00  0.00    -0.550 OA
ATOM      5  O   UNL     1     -17.494   2.167 -40.077  1.00  0.00    -0.550 OA
ENDBRANCH   2   3
ENDBRANCH   1   2
BRANCH   1   6
ATOM      6  C   UNL     1     -16.593   6.665 -41.926  1.00  0.00     0.000 C 
BRANCH   6   7
ATOM      7  C   UNL     1     -17.909   7.313 -41.467  1.00  0.00    -0.003 C 
ATOM      8  C   UNL     1     -17.989   7.476 -39.948  1.00  0.00     0.004 C 
ENDBRANCH   6   7
ENDBRANCH   1   6
TORSDOF 4
ENDMDL
MODEL 8
REMARK VINA RESULT:    -3.252      9.261     10.470
REMARK INTER + INTRA:          -4.061
REMARK INTER:                  -3.814
REMARK INTRA:                  -0.247
REMARK UNBOUND:                -0.049
REMARK SMILES CCCCCC(=O)[O-]
REMARK SMILES IDX 4 1 5 2 6 3 7 4 8 5 3 6 2 7 1 8
REMARK H PARENT
REMARK Flexibility Score: inf
ROOT
ATOM      1  C   UNL     1     -17.545   5.664 -42.349  1.00  0.00     0.006 C 
ENDROOT
BRANCH   1   2
ATOM      2  C   UNL     1     -18.457   6.808 -41.894  1.00  0.00     0.053 C 
BRANCH   2   3
ATOM      3  C   UNL     1     -17.814   7.581 -40.787  1.00  0.00     0.041 C 
ATOM      4  O   UNL     1     -18.122   7.348 -39.589  1.00  0.00    -0.550 OA
ATOM      5  O   UNL     1     -16.837   8.527 -41.075  1.00  0.00    -0.550 OA
ENDBRANCH   2   3
ENDBRANCH   1   2
BRANCH   1   6
ATOM      6  C   UNL     1     -17.867   4.370 -41.584  1.00  0.00     0.000 C 
BRANCH   6   7
ATOM      7  C   UNL     1     -16.762   3.983 -40.588  1.00  0.00    -0.003 C 
ATOM      8  C   UNL     1     -15.461   4.751 -40.821  1.00  0.00     0.004 C 
ENDBRANCH   6   7
ENDBRANCH   1   6
TORSDOF 4
ENDMDL
MODEL 9
REMARK VINA RESULT:    -3.169      2.599      2.977
REMARK INTER + INTRA:          -3.959
REMARK INTER:                  -3.737
REMARK INTRA:                  -0.222
REMARK UNBOUND:                -0.049
REMARK SMILES CCCCCC(=O)[O-]
REMARK SMILES IDX 4 1 5 2 6 3 7 4 8 5 3 6 2 7 1 8
REMARK H PARENT
REMARK Flexibility Score: inf
ROOT
ATOM      1  C   UNL     1     -11.162  -1.443 -40.474  1.00  0.00     0.006 C 
ENDROOT
BRANCH   1   2
ATOM      2  C   UNL     1     -10.085  -0.734 -39.648  1.00  0.00     0.053 C 
BRANCH   2   3
ATOM      3  C   UNL     1     -10.120  -1.203 -38.228  1.00  0.00     0.041 C 
ATOM      4  O   UNL     1      -9.430  -2.194 -37.871  1.00  0.00    -0.550 OA
ATOM      5  O   UNL     1     -10.877  -0.515 -37.287  1.00  0.00    -0.550 OA
ENDBRANCH   2   3
ENDBRANCH   1   2
BRANCH   1   6
ATOM      6  C   UNL     1     -12.420  -0.570 -40.601  1.00  0.00     0.000 C 
BRANCH   6   7
ATOM      7  C   UNL     1     -13.697  -1.307 -40.168  1.00  0.00    -0.003 C 
ATOM      8  C   UNL     1     -13.406  -2.551 -39.329  1.00  0.00     0.004 C 
ENDBRANCH   6   7
ENDBRANCH   1   6
TORSDOF 4
ENDMDL
