MODEL 1
REMARK VINA RESULT:    -5.479      0.000      0.000
REMARK INTER + INTRA:          -6.084
REMARK INTER:                  -5.960
REMARK INTRA:                  -0.124
REMARK UNBOUND:                -0.124
REMARK SMILES Cc1ccc(C(C)C)cc1O
REMARK SMILES IDX 1 1 2 2 10 3 9 4 5 5 4 6 3 7 11 8 6 10 7 11 8 12
REMARK H PARENT 11 9
REMARK Flexibility Score: inf
ROOT
ATOM      1  C   UNL     1      17.563  43.287   8.936  1.00  0.00     0.048 C 
ATOM      2  C   UNL     1      16.861  43.679   7.666  1.00  0.00    -0.009 A 
ATOM      3  C   UNL     1      16.021  44.814   7.614  1.00  0.00     0.118 A 
ATOM      4  C   UNL     1      15.382  45.153   6.416  1.00  0.00     0.050 A 
ATOM      5  C   UNL     1      15.563  44.378   5.256  1.00  0.00    -0.042 A 
ATOM      6  C   UNL     1      16.398  43.252   5.316  1.00  0.00     0.004 A 
ATOM      7  C   UNL     1      17.039  42.906   6.507  1.00  0.00     0.007 A 
ENDROOT
BRANCH   3   8
ATOM      8  O   UNL     1      15.803  45.623   8.730  1.00  0.00    -0.508 OA
ATOM      9  H   UNL     1      15.957  46.624   8.726  1.00  0.00     0.293 HD
ENDBRANCH   3   8
BRANCH   5  10
ATOM     10  C   UNL     1      14.871  44.741   3.954  1.00  0.00     0.013 C 
ATOM     11  C   UNL     1      14.406  43.486   3.207  1.00  0.00     0.012 C 
ATOM     12  C   UNL     1      13.703  45.703   4.199  1.00  0.00     0.012 C 
ENDBRANCH   5  10
TORSDOF 2
ENDMDL
MODEL 2
REMARK VINA RESULT:    -5.424      2.046      3.264
REMARK INTER + INTRA:          -6.024
REMARK INTER:                  -5.908
REMARK INTRA:                  -0.116
REMARK UNBOUND:                -0.124
REMARK SMILES Cc1ccc(C(C)C)cc1O
REMARK SMILES IDX 1 1 2 2 10 3 9 4 5 5 4 6 3 7 11 8 6 10 7 11 8 12
REMARK H PARENT 11 9
REMARK Flexibility Score: inf
ROOT
ATOM      1  C   UNL     1      17.119  43.125   4.427  1.00  0.00     0.048 C 
ATOM      2  C   UNL     1      15.844  43.917   4.518  1.00  0.00    -0.009 A 
ATOM      3  C   UNL     1      15.681  44.934   5.485  1.00  0.00     0.118 A 
ATOM      4  C   UNL     1      14.482  45.653   5.543  1.00  0.00     0.050 A 
ATOM      5  C   UNL     1      13.430  45.378   4.651  1.00  0.00    -0.042 A 
ATOM      6  C   UNL     1      13.599  44.365   3.694  1.00  0.00     0.004 A 
ATOM      7  C   UNL     1      14.792  43.643   3.629  1.00  0.00     0.007 A 
ENDROOT
BRANCH   3   8
ATOM      8  O   UNL     1      16.689  45.254   6.396  1.00  0.00    -0.508 OA
ATOM      9  H   UNL     1      16.744  46.149   6.867  1.00  0.00     0.293 HD
ENDBRANCH   3   8
BRANCH   5  10
ATOM     10  C   UNL     1      12.127  46.155   4.711  1.00  0.00     0.013 C 
ATOM     11  C   UNL     1      12.119  47.131   5.893  1.00  0.00     0.012 C 
ATOM     12  C   UNL     1      11.858  46.886   3.391  1.00  0.00     0.012 C 
ENDBRANCH   5  10
TORSDOF 2
ENDMDL
MODEL 3
REMARK VINA RESULT:    -5.418      1.763      2.012
REMARK INTER + INTRA:          -6.018
REMARK INTER:                  -5.889
REMARK INTRA:                  -0.128
REMARK UNBOUND:                -0.124
REMARK SMILES Cc1ccc(C(C)C)cc1O
REMARK SMILES IDX 1 1 2 2 10 3 9 4 5 5 4 6 3 7 11 8 6 10 7 11 8 12
REMARK H PARENT 11 9
REMARK Flexibility Score: inf
ROOT
ATOM      1  C   UNL     1      16.974  42.454   8.545  1.00  0.00     0.048 C 
ATOM      2  C   UNL     1      16.236  42.828   7.289  1.00  0.00    -0.009 A 
ATOM      3  C   UNL     1      16.904  43.425   6.197  1.00  0.00     0.118 A 
ATOM      4  C   UNL     1      16.189  43.761   5.043  1.00  0.00     0.050 A 
ATOM      5  C   UNL     1      14.807  43.512   4.951  1.00  0.00    -0.042 A 
ATOM      6  C   UNL     1      14.150  42.919   6.040  1.00  0.00     0.004 A 
ATOM      7  C   UNL     1      14.857  42.581   7.196  1.00  0.00     0.007 A 
ENDROOT
BRANCH   3   8
ATOM      8  O   UNL     1      18.274  43.696   6.228  1.00  0.00    -0.508 OA
ATOM      9  H   UNL     1      18.806  43.945   5.404  1.00  0.00     0.293 HD
ENDBRANCH   3   8
BRANCH   5  10
ATOM     10  C   UNL     1      14.026  43.875   3.701  1.00  0.00     0.013 C 
ATOM     11  C   UNL     1      13.129  42.716   3.253  1.00  0.00     0.012 C 
ATOM     12  C   UNL     1      13.210  45.156   3.911  1.00  0.00     0.012 C 
ENDBRANCH   5  10
TORSDOF 2
ENDMDL
MODEL 4
REMARK VINA RESULT:    -5.280      1.503      3.700
REMARK INTER + INTRA:          -5.868
REMARK INTER:                  -5.740
REMARK INTRA:                  -0.127
REMARK UNBOUND:                -0.124
REMARK SMILES Cc1ccc(C(C)C)cc1O
REMARK SMILES IDX 1 1 2 2 10 3 9 4 5 5 4 6 3 7 11 8 6 10 7 11 8 12
REMARK H PARENT 11 9
REMARK Flexibility Score: inf
ROOT
ATOM      1  C   UNL     1      12.247  47.158   6.242  1.00  0.00     0.048 C 
ATOM      2  C   UNL     1      13.388  46.193   6.075  1.00  0.00    -0.009 A 
ATOM      3  C   UNL     1      14.053  45.645   7.194  1.00  0.00     0.118 A 
ATOM      4  C   UNL     1      15.111  44.748   7.005  1.00  0.00     0.050 A 
ATOM      5  C   UNL     1      15.526  44.383   5.711  1.00  0.00    -0.042 A 
ATOM      6  C   UNL     1      14.860  44.933   4.604  1.00  0.00     0.004 A 
ATOM      7  C   UNL     1      13.804  45.828   4.784  1.00  0.00     0.007 A 
ENDROOT
BRANCH   3   8
ATOM      8  O   UNL     1      13.687  45.968   8.502  1.00  0.00    -0.508 OA
ATOM      9  H   UNL     1      13.794  45.328   9.279  1.00  0.00     0.293 HD
ENDBRANCH   3   8
BRANCH   5  10
ATOM     10  C   UNL     1      16.673  43.412   5.500  1.00  0.00     0.013 C 
ATOM     11  C   UNL     1      17.103  43.375   4.030  1.00  0.00     0.012 C 
ATOM     12  C   UNL     1      17.858  43.749   6.414  1.00  0.00     0.012 C 
ENDBRANCH   5  10
TORSDOF 2
ENDMDL
MODEL 5
REMARK VINA RESULT:    -5.227      2.880      4.904
REMARK INTER + INTRA:          -5.809
REMARK INTER:                  -5.682
REMARK INTRA:                  -0.127
REMARK UNBOUND:                -0.124
REMARK SMILES Cc1ccc(C(C)C)cc1O
REMARK SMILES IDX 1 1 2 2 10 3 9 4 5 5 4 6 3 7 11 8 6 10 7 11 8 12
REMARK H PARENT 11 9
REMARK Flexibility Score: inf
ROOT
ATOM      1  C   UNL     1      15.313  45.207   3.650  1.00  0.00     0.048 C 
ATOM      2  C   UNL     1      14.161  45.736   4.459  1.00  0.00    -0.009 A 
ATOM      3  C   UNL     1      14.307  46.034   5.832  1.00  0.00     0.118 A 
ATOM      4  C   UNL     1      13.216  46.526   6.557  1.00  0.00     0.050 A 
ATOM      5  C   UNL     1      11.969  46.730   5.938  1.00  0.00    -0.042 A 
ATOM      6  C   UNL     1      11.832  46.431   4.573  1.00  0.00     0.004 A 
ATOM      7  C   UNL     1      12.916  45.939   3.843  1.00  0.00     0.007 A 
ENDROOT
BRANCH   3   8
ATOM      8  O   UNL     1      15.518  45.854   6.502  1.00  0.00    -0.508 OA
ATOM      9  H   UNL     1      15.850  44.949   6.810  1.00  0.00     0.293 HD
ENDBRANCH   3   8
BRANCH   5  10
ATOM     10  C   UNL     1      10.782  47.262   6.720  1.00  0.00     0.013 C 
ATOM     11  C   UNL     1       9.767  47.938   5.792  1.00  0.00     0.012 C 
ATOM     12  C   UNL     1      10.122  46.152   7.546  1.00  0.00     0.012 C 
ENDBRANCH   5  10
TORSDOF 2
ENDMDL
MODEL 6
REMARK VINA RESULT:    -5.190      2.465      3.640
REMARK INTER + INTRA:          -5.770
REMARK INTER:                  -5.655
REMARK INTRA:                  -0.114
REMARK UNBOUND:                -0.124
REMARK SMILES Cc1ccc(C(C)C)cc1O
REMARK SMILES IDX 1 1 2 2 10 3 9 4 5 5 4 6 3 7 11 8 6 10 7 11 8 12
REMARK H PARENT 11 9
REMARK Flexibility Score: inf
ROOT
ATOM      1  C   UNL     1      16.949  43.263   4.032  1.00  0.00     0.048 C 
ATOM      2  C   UNL     1      15.670  43.895   4.506  1.00  0.00    -0.009 A 
ATOM      3  C   UNL     1      14.946  43.358   5.594  1.00  0.00     0.118 A 
ATOM      4  C   UNL     1      13.759  43.971   6.011  1.00  0.00     0.050 A 
ATOM      5  C   UNL     1      13.271  45.119   5.360  1.00  0.00    -0.042 A 
ATOM      6  C   UNL     1      13.995  45.646   4.279  1.00  0.00     0.004 A 
ATOM      7  C   UNL     1      15.180  45.041   3.857  1.00  0.00     0.007 A 
ENDROOT
BRANCH   3   8
ATOM      8  O   UNL     1      15.380  42.223   6.281  1.00  0.00    -0.508 OA
ATOM      9  H   UNL     1      15.478  41.316   5.841  1.00  0.00     0.293 HD
ENDBRANCH   3   8
BRANCH   5  10
ATOM     10  C   UNL     1      11.984  45.787   5.807  1.00  0.00     0.013 C 
ATOM     11  C   UNL     1      11.254  44.935   6.852  1.00  0.00     0.012 C 
ATOM     12  C   UNL     1      12.249  47.201   6.335  1.00  0.00     0.012 C 
ENDBRANCH   5  10
TORSDOF 2
ENDMDL
MODEL 7
REMARK VINA RESULT:    -5.172      1.287      4.183
REMARK INTER + INTRA:          -5.750
REMARK INTER:                  -5.644
REMARK INTRA:                  -0.106
REMARK UNBOUND:                -0.124
REMARK SMILES Cc1ccc(C(C)C)cc1O
REMARK SMILES IDX 1 1 2 2 10 3 9 4 5 5 4 6 3 7 11 8 6 10 7 11 8 12
REMARK H PARENT 11 9
REMARK Flexibility Score: inf
ROOT
ATOM      1  C   UNL     1      14.883  45.399   3.482  1.00  0.00     0.048 C 
ATOM      2  C   UNL     1      15.462  44.715   4.690  1.00  0.00    -0.009 A 
ATOM      3  C   UNL     1      15.300  45.254   5.986  1.00  0.00     0.118 A 
ATOM      4  C   UNL     1      15.850  44.592   7.089  1.00  0.00     0.050 A 
ATOM      5  C   UNL     1      16.567  43.392   6.928  1.00  0.00    -0.042 A 
ATOM      6  C   UNL     1      16.724  42.863   5.638  1.00  0.00     0.004 A 
ATOM      7  C   UNL     1      16.178  43.517   4.532  1.00  0.00     0.007 A 
ENDROOT
BRANCH   3   8
ATOM      8  O   UNL     1      14.598  46.440   6.209  1.00  0.00    -0.508 OA
ATOM      9  H   UNL     1      14.850  47.103   6.931  1.00  0.00     0.293 HD
ENDBRANCH   3   8
BRANCH   5  10
ATOM     10  C   UNL     1      17.166  42.671   8.122  1.00  0.00     0.013 C 
ATOM     11  C   UNL     1      17.469  43.648   9.263  1.00  0.00     0.012 C 
ATOM     12  C   UNL     1      16.254  41.534   8.596  1.00  0.00     0.012 C 
ENDBRANCH   5  10
TORSDOF 2
ENDMDL
MODEL 8
REMARK VINA RESULT:    -5.167      2.504      4.765
REMARK INTER + INTRA:          -5.745
REMARK INTER:                  -5.618
REMARK INTRA:                  -0.127
REMARK UNBOUND:                -0.124
REMARK SMILES Cc1ccc(C(C)C)cc1O
REMARK SMILES IDX 1 1 2 2 10 3 9 4 5 5 4 6 3 7 11 8 6 10 7 11 8 12
REMARK H PARENT 11 9
REMARK Flexibility Score: inf
ROOT
ATOM      1  C   UNL     1      12.213  46.466   3.726  1.00  0.00     0.048 C 
ATOM      2  C   UNL     1      13.255  45.540   4.289  1.00  0.00    -0.009 A 
ATOM      3  C   UNL     1      13.225  44.153   4.021  1.00  0.00     0.118 A 
ATOM      4  C   UNL     1      14.210  43.318   4.560  1.00  0.00     0.050 A 
ATOM      5  C   UNL     1      15.236  43.840   5.369  1.00  0.00    -0.042 A 
ATOM      6  C   UNL     1      15.259  45.219   5.631  1.00  0.00     0.004 A 
ATOM      7  C   UNL     1      14.280  46.059   5.098  1.00  0.00     0.007 A 
ENDROOT
BRANCH   3   8
ATOM      8  O   UNL     1      12.233  43.577   3.225  1.00  0.00    -0.508 OA
ATOM      9  H   UNL     1      11.374  43.199   3.601  1.00  0.00     0.293 HD
ENDBRANCH   3   8
BRANCH   5  10
ATOM     10  C   UNL     1      16.306  42.938   5.957  1.00  0.00     0.013 C 
ATOM     11  C   UNL     1      17.605  43.712   6.207  1.00  0.00     0.012 C 
ATOM     12  C   UNL     1      15.813  42.258   7.239  1.00  0.00     0.012 C 
ENDBRANCH   5  10
TORSDOF 2
ENDMDL
MODEL 9
REMARK VINA RESULT:    -5.127      1.969      2.252
REMARK INTER + INTRA:          -5.701
REMARK INTER:                  -5.573
REMARK INTRA:                  -0.128
REMARK UNBOUND:                -0.124
REMARK SMILES Cc1ccc(C(C)C)cc1O
REMARK SMILES IDX 1 1 2 2 10 3 9 4 5 5 4 6 3 7 11 8 6 10 7 11 8 12
REMARK H PARENT 11 9
REMARK Flexibility Score: inf
ROOT
ATOM      1  C   UNL     1      16.369  40.702   9.079  1.00  0.00     0.048 C 
ATOM      2  C   UNL     1      16.142  41.841   8.124  1.00  0.00    -0.009 A 
ATOM      3  C   UNL     1      17.123  42.838   7.925  1.00  0.00     0.118 A 
ATOM      4  C   UNL     1      16.881  43.885   7.029  1.00  0.00     0.050 A 
ATOM      5  C   UNL     1      15.670  43.962   6.319  1.00  0.00    -0.042 A 
ATOM      6  C   UNL     1      14.699  42.969   6.522  1.00  0.00     0.004 A 
ATOM      7  C   UNL     1      14.932  41.921   7.414  1.00  0.00     0.007 A 
ENDROOT
BRANCH   3   8
ATOM      8  O   UNL     1      18.345  42.814   8.600  1.00  0.00    -0.508 OA
ATOM      9  H   UNL     1      18.942  41.997   8.633  1.00  0.00     0.293 HD
ENDBRANCH   3   8
BRANCH   5  10
ATOM     10  C   UNL     1      15.402  45.097   5.346  1.00  0.00     0.013 C 
ATOM     11  C   UNL     1      15.056  44.561   3.953  1.00  0.00     0.012 C 
ATOM     12  C   UNL     1      14.300  46.025   5.870  1.00  0.00     0.012 C 
ENDBRANCH   5  10
TORSDOF 2
ENDMDL
