MODEL 1
REMARK VINA RESULT:    -3.640      0.000      0.000
REMARK INTER + INTRA:          -4.550
REMARK INTER:                  -4.491
REMARK INTRA:                  -0.059
REMARK UNBOUND:                -0.059
REMARK SMILES CCCCCC=O
REMARK SMILES IDX 4 1 3 2 2 3 1 4 5 5 6 6 7 7
REMARK H PARENT
REMARK Flexibility Score: inf
ROOT
ATOM      1  C   UNL     1      25.546  56.500  -8.993  1.00  0.00     0.008 C 
ENDROOT
BRANCH   1   2
ATOM      2  C   UNL     1      24.269  55.647  -8.947  1.00  0.00     0.000 C 
BRANCH   2   3
ATOM      3  C   UNL     1      23.773  55.402  -7.514  1.00  0.00    -0.003 C 
ATOM      4  C   UNL     1      22.452  54.634  -7.469  1.00  0.00     0.004 C 
ENDBRANCH   2   3
ENDBRANCH   1   2
BRANCH   1   5
ATOM      5  C   UNL     1      25.205  57.994  -9.029  1.00  0.00     0.072 C 
BRANCH   5   6
ATOM      6  C   UNL     1      26.272  58.770  -9.741  1.00  0.00     0.224 C 
ATOM      7  O   UNL     1      27.064  58.202 -10.477  1.00  0.00    -0.303 OA
ENDBRANCH   5   6
ENDBRANCH   1   5
TORSDOF 4
ENDMDL
MODEL 2
REMARK VINA RESULT:    -3.577      2.797      4.792
REMARK INTER + INTRA:          -4.472
REMARK INTER:                  -4.442
REMARK INTRA:                  -0.030
REMARK UNBOUND:                -0.059
REMARK SMILES CCCCCC=O
REMARK SMILES IDX 4 1 3 2 2 3 1 4 5 5 6 6 7 7
REMARK H PARENT
REMARK Flexibility Score: inf
ROOT
ATOM      1  C   UNL     1      24.189  56.350  -8.865  1.00  0.00     0.008 C 
ENDROOT
BRANCH   1   2
ATOM      2  C   UNL     1      25.641  56.850  -8.909  1.00  0.00     0.000 C 
BRANCH   2   3
ATOM      3  C   UNL     1      25.751  58.309  -9.378  1.00  0.00    -0.003 C 
ATOM      4  C   UNL     1      26.970  58.555 -10.266  1.00  0.00     0.004 C 
ENDBRANCH   2   3
ENDBRANCH   1   2
BRANCH   1   5
ATOM      5  C   UNL     1      24.062  55.114  -7.967  1.00  0.00     0.072 C 
BRANCH   5   6
ATOM      6  C   UNL     1      22.635  54.886  -7.569  1.00  0.00     0.224 C 
ATOM      7  O   UNL     1      22.364  54.444  -6.463  1.00  0.00    -0.303 OA
ENDBRANCH   5   6
ENDBRANCH   1   5
TORSDOF 4
ENDMDL
MODEL 3
REMARK VINA RESULT:    -3.539      2.818      4.574
REMARK INTER + INTRA:          -4.426
REMARK INTER:                  -4.333
REMARK INTRA:                  -0.093
REMARK UNBOUND:                -0.059
REMARK SMILES CCCCCC=O
REMARK SMILES IDX 4 1 3 2 2 3 1 4 5 5 6 6 7 7
REMARK H PARENT
REMARK Flexibility Score: inf
ROOT
ATOM      1  C   UNL     1      24.556  55.002  -8.521  1.00  0.00     0.008 C 
ENDROOT
BRANCH   1   2
ATOM      2  C   UNL     1      25.606  56.114  -8.663  1.00  0.00     0.000 C 
BRANCH   2   3
ATOM      3  C   UNL     1      24.975  57.510  -8.780  1.00  0.00    -0.003 C 
ATOM      4  C   UNL     1      25.905  58.524  -9.448  1.00  0.00     0.004 C 
ENDBRANCH   2   3
ENDBRANCH   1   2
BRANCH   1   5
ATOM      5  C   UNL     1      23.201  55.578  -8.091  1.00  0.00     0.072 C 
BRANCH   5   6
ATOM      6  C   UNL     1      22.416  54.571  -7.306  1.00  0.00     0.224 C 
ATOM      7  O   UNL     1      22.569  54.472  -6.099  1.00  0.00    -0.303 OA
ENDBRANCH   5   6
ENDBRANCH   1   5
TORSDOF 4
ENDMDL
MODEL 4
REMARK VINA RESULT:    -3.401      0.931      1.557
REMARK INTER + INTRA:          -4.255
REMARK INTER:                  -4.208
REMARK INTRA:                  -0.047
REMARK UNBOUND:                -0.059
REMARK SMILES CCCCCC=O
REMARK SMILES IDX 4 1 3 2 2 3 1 4 5 5 6 6 7 7
REMARK H PARENT
REMARK Flexibility Score: inf
ROOT
ATOM      1  C   UNL     1      24.608  55.677  -7.800  1.00  0.00     0.008 C 
ENDROOT
BRANCH   1   2
ATOM      2  C   UNL     1      23.115  55.548  -8.136  1.00  0.00     0.000 C 
BRANCH   2   3
ATOM      3  C   UNL     1      22.465  54.318  -7.484  1.00  0.00    -0.003 C 
ATOM      4  C   UNL     1      22.432  54.408  -5.958  1.00  0.00     0.004 C 
ENDBRANCH   2   3
ENDBRANCH   1   2
BRANCH   1   5
ATOM      5  C   UNL     1      25.408  56.136  -9.024  1.00  0.00     0.072 C 
BRANCH   5   6
ATOM      6  C   UNL     1      25.565  57.627  -9.033  1.00  0.00     0.224 C 
ATOM      7  O   UNL     1      26.387  58.159  -9.762  1.00  0.00    -0.303 OA
ENDBRANCH   5   6
ENDBRANCH   1   5
TORSDOF 4
ENDMDL
MODEL 5
REMARK VINA RESULT:    -3.243     16.506     17.450
REMARK INTER + INTRA:          -4.061
REMARK INTER:                  -3.910
REMARK INTRA:                  -0.151
REMARK UNBOUND:                -0.059
REMARK SMILES CCCCCC=O
REMARK SMILES IDX 4 1 3 2 2 3 1 4 5 5 6 6 7 7
REMARK H PARENT
REMARK Flexibility Score: inf
ROOT
ATOM      1  C   UNL     1      19.033  44.631   0.032  1.00  0.00     0.008 C 
ENDROOT
BRANCH   1   2
ATOM      2  C   UNL     1      17.499  44.592  -0.027  1.00  0.00     0.000 C 
BRANCH   2   3
ATOM      3  C   UNL     1      16.877  43.917   1.205  1.00  0.00    -0.003 C 
ATOM      4  C   UNL     1      15.669  44.680   1.750  1.00  0.00     0.004 C 
ENDBRANCH   2   3
ENDBRANCH   1   2
BRANCH   1   5
ATOM      5  C   UNL     1      19.542  44.134   1.390  1.00  0.00     0.072 C 
BRANCH   5   6
ATOM      6  C   UNL     1      20.608  43.094   1.215  1.00  0.00     0.224 C 
ATOM      7  O   UNL     1      20.674  42.442   0.185  1.00  0.00    -0.303 OA
ENDBRANCH   5   6
ENDBRANCH   1   5
TORSDOF 4
ENDMDL
MODEL 6
REMARK VINA RESULT:    -3.114      4.681      6.574
REMARK INTER + INTRA:          -3.901
REMARK INTER:                  -3.866
REMARK INTRA:                  -0.035
REMARK UNBOUND:                -0.059
REMARK SMILES CCCCCC=O
REMARK SMILES IDX 4 1 3 2 2 3 1 4 5 5 6 6 7 7
REMARK H PARENT
REMARK Flexibility Score: inf
ROOT
ATOM      1  C   UNL     1      29.088  58.891 -11.831  1.00  0.00     0.008 C 
ENDROOT
BRANCH   1   2
ATOM      2  C   UNL     1      29.339  57.906 -12.983  1.00  0.00     0.000 C 
BRANCH   2   3
ATOM      3  C   UNL     1      30.812  57.871 -13.420  1.00  0.00    -0.003 C 
ATOM      4  C   UNL     1      31.299  56.459 -13.743  1.00  0.00     0.004 C 
ENDBRANCH   2   3
ENDBRANCH   1   2
BRANCH   1   5
ATOM      5  C   UNL     1      27.697  58.677 -11.222  1.00  0.00     0.072 C 
BRANCH   5   6
ATOM      6  C   UNL     1      27.359  59.776 -10.259  1.00  0.00     0.224 C 
ATOM      7  O   UNL     1      26.298  59.766  -9.656  1.00  0.00    -0.303 OA
ENDBRANCH   5   6
ENDBRANCH   1   5
TORSDOF 4
ENDMDL
MODEL 7
REMARK VINA RESULT:    -3.088     15.418     16.479
REMARK INTER + INTRA:          -3.869
REMARK INTER:                  -3.790
REMARK INTRA:                  -0.079
REMARK UNBOUND:                -0.059
REMARK SMILES CCCCCC=O
REMARK SMILES IDX 4 1 3 2 2 3 1 4 5 5 6 6 7 7
REMARK H PARENT
REMARK Flexibility Score: inf
ROOT
ATOM      1  C   UNL     1      30.422  45.352   1.526  1.00  0.00     0.008 C 
ENDROOT
BRANCH   1   2
ATOM      2  C   UNL     1      31.704  44.660   2.014  1.00  0.00     0.000 C 
BRANCH   2   3
ATOM      3  C   UNL     1      32.569  45.572   2.896  1.00  0.00    -0.003 C 
ATOM      4  C   UNL     1      31.839  46.845   3.325  1.00  0.00     0.004 C 
ENDBRANCH   2   3
ENDBRANCH   1   2
BRANCH   1   5
ATOM      5  C   UNL     1      30.235  45.161   0.017  1.00  0.00     0.072 C 
BRANCH   5   6
ATOM      6  C   UNL     1      28.781  45.067  -0.337  1.00  0.00     0.224 C 
ATOM      7  O   UNL     1      28.172  46.055  -0.717  1.00  0.00    -0.303 OA
ENDBRANCH   5   6
ENDBRANCH   1   5
TORSDOF 4
ENDMDL
MODEL 8
REMARK VINA RESULT:    -3.079     16.627     17.750
REMARK INTER + INTRA:          -3.858
REMARK INTER:                  -3.729
REMARK INTRA:                  -0.129
REMARK UNBOUND:                -0.059
REMARK SMILES CCCCCC=O
REMARK SMILES IDX 4 1 3 2 2 3 1 4 5 5 6 6 7 7
REMARK H PARENT
REMARK Flexibility Score: inf
ROOT
ATOM      1  C   UNL     1      17.632  44.269   0.049  1.00  0.00     0.008 C 
ENDROOT
BRANCH   1   2
ATOM      2  C   UNL     1      19.111  44.676   0.123  1.00  0.00     0.000 C 
BRANCH   2   3
ATOM      3  C   UNL     1      19.852  44.002   1.288  1.00  0.00    -0.003 C 
ATOM      4  C   UNL     1      20.730  42.836   0.835  1.00  0.00     0.004 C 
ENDBRANCH   2   3
ENDBRANCH   1   2
BRANCH   1   5
ATOM      5  C   UNL     1      17.095  43.899   1.437  1.00  0.00     0.072 C 
BRANCH   5   6
ATOM      6  C   UNL     1      15.808  44.613   1.722  1.00  0.00     0.224 C 
ATOM      7  O   UNL     1      15.298  45.331   0.876  1.00  0.00    -0.303 OA
ENDBRANCH   5   6
ENDBRANCH   1   5
TORSDOF 4
ENDMDL
MODEL 9
REMARK VINA RESULT:    -3.047     15.781     16.708
REMARK INTER + INTRA:          -3.818
REMARK INTER:                  -3.751
REMARK INTRA:                  -0.067
REMARK UNBOUND:                -0.059
REMARK SMILES CCCCCC=O
REMARK SMILES IDX 4 1 3 2 2 3 1 4 5 5 6 6 7 7
REMARK H PARENT
REMARK Flexibility Score: inf
ROOT
ATOM      1  C   UNL     1      31.617  44.829   1.952  1.00  0.00     0.008 C 
ENDROOT
BRANCH   1   2
ATOM      2  C   UNL     1      30.261  45.374   1.480  1.00  0.00     0.000 C 
BRANCH   2   3
ATOM      3  C   UNL     1      29.963  45.028   0.013  1.00  0.00    -0.003 C 
ATOM      4  C   UNL     1      28.570  45.475  -0.428  1.00  0.00     0.004 C 
ENDBRANCH   2   3
ENDBRANCH   1   2
BRANCH   1   5
ATOM      5  C   UNL     1      32.575  45.974   2.303  1.00  0.00     0.072 C 
BRANCH   5   6
ATOM      6  C   UNL     1      32.330  46.471   3.695  1.00  0.00     0.224 C 
ATOM      7  O   UNL     1      31.766  47.538   3.881  1.00  0.00    -0.303 OA
ENDBRANCH   5   6
ENDBRANCH   1   5
TORSDOF 4
ENDMDL
