MODEL 1
REMARK VINA RESULT:    -4.463      0.000      0.000
REMARK INTER + INTRA:          -5.407
REMARK INTER:                  -5.115
REMARK INTRA:                  -0.292
REMARK UNBOUND:                -0.292
REMARK SMILES COC(=O)c1ccccc1O
REMARK SMILES IDX 5 1 6 2 7 3 8 4 9 5 10 6 3 7 4 8 2 9 1 10 11 11
REMARK H PARENT 11 12
REMARK Flexibility Score: inf
ROOT
ATOM      1  C   UNL     1     -17.433  19.033  42.649  1.00  0.00     0.101 A 
ATOM      2  C   UNL     1     -17.357  18.472  41.358  1.00  0.00     0.019 A 
ATOM      3  C   UNL     1     -16.852  17.184  41.167  1.00  0.00     0.001 A 
ATOM      4  C   UNL     1     -16.416  16.434  42.258  1.00  0.00     0.004 A 
ATOM      5  C   UNL     1     -16.483  16.970  43.544  1.00  0.00     0.047 A 
ATOM      6  C   UNL     1     -16.987  18.264  43.751  1.00  0.00     0.130 A 
ENDROOT
BRANCH   1   7
ATOM      7  C   UNL     1     -17.974  20.406  42.821  1.00  0.00     0.341 C 
ATOM      8  O   UNL     1     -17.462  21.180  43.676  1.00  0.00    -0.246 OA
BRANCH   7   9
ATOM      9  O   UNL     1     -19.046  20.851  42.040  1.00  0.00    -0.465 OA
ATOM     10  C   UNL     1     -20.387  20.432  42.265  1.00  0.00     0.282 C 
ENDBRANCH   7   9
ENDBRANCH   1   7
BRANCH   6  11
ATOM     11  O   UNL     1     -17.043  18.775  45.048  1.00  0.00    -0.507 OA
ATOM     12  H   UNL     1     -16.470  18.398  45.794  1.00  0.00     0.293 HD
ENDBRANCH   6  11
TORSDOF 3
ENDMDL
MODEL 2
REMARK VINA RESULT:    -4.342      1.873      4.543
REMARK INTER + INTRA:          -5.269
REMARK INTER:                  -4.976
REMARK INTRA:                  -0.293
REMARK UNBOUND:                -0.292
REMARK SMILES COC(=O)c1ccccc1O
REMARK SMILES IDX 5 1 6 2 7 3 8 4 9 5 10 6 3 7 4 8 2 9 1 10 11 11
REMARK H PARENT 11 12
REMARK Flexibility Score: inf
ROOT
ATOM      1  C   UNL     1     -18.602  20.409  41.917  1.00  0.00     0.101 A 
ATOM      2  C   UNL     1     -19.963  20.192  42.210  1.00  0.00     0.019 A 
ATOM      3  C   UNL     1     -20.939  21.093  41.778  1.00  0.00     0.001 A 
ATOM      4  C   UNL     1     -20.574  22.224  41.049  1.00  0.00     0.004 A 
ATOM      5  C   UNL     1     -19.233  22.457  40.749  1.00  0.00     0.047 A 
ATOM      6  C   UNL     1     -18.241  21.560  41.176  1.00  0.00     0.130 A 
ENDROOT
BRANCH   1   7
ATOM      7  C   UNL     1     -17.586  19.433  42.390  1.00  0.00     0.341 C 
ATOM      8  O   UNL     1     -17.486  19.177  43.622  1.00  0.00    -0.246 OA
BRANCH   7   9
ATOM      9  O   UNL     1     -16.739  18.792  41.480  1.00  0.00    -0.465 OA
ATOM     10  C   UNL     1     -17.024  17.508  40.936  1.00  0.00     0.282 C 
ENDBRANCH   7   9
ENDBRANCH   1   7
BRANCH   6  11
ATOM     11  O   UNL     1     -16.907  21.818  40.861  1.00  0.00    -0.507 OA
ATOM     12  H   UNL     1     -16.269  21.076  40.597  1.00  0.00     0.293 HD
ENDBRANCH   6  11
TORSDOF 3
ENDMDL
MODEL 3
REMARK VINA RESULT:    -4.298      1.908      3.953
REMARK INTER + INTRA:          -5.218
REMARK INTER:                  -5.065
REMARK INTRA:                  -0.154
REMARK UNBOUND:                -0.292
REMARK SMILES COC(=O)c1ccccc1O
REMARK SMILES IDX 5 1 6 2 7 3 8 4 9 5 10 6 3 7 4 8 2 9 1 10 11 11
REMARK H PARENT 11 12
REMARK Flexibility Score: inf
ROOT
ATOM      1  C   UNL     1     -17.378  18.765  42.664  1.00  0.00     0.101 A 
ATOM      2  C   UNL     1     -17.777  19.522  41.543  1.00  0.00     0.019 A 
ATOM      3  C   UNL     1     -18.239  20.831  41.693  1.00  0.00     0.001 A 
ATOM      4  C   UNL     1     -18.310  21.407  42.960  1.00  0.00     0.004 A 
ATOM      5  C   UNL     1     -17.920  20.676  44.082  1.00  0.00     0.047 A 
ATOM      6  C   UNL     1     -17.454  19.359  43.947  1.00  0.00     0.130 A 
ENDROOT
BRANCH   1   7
ATOM      7  C   UNL     1     -16.891  17.374  42.473  1.00  0.00     0.341 C 
ATOM      8  O   UNL     1     -16.863  16.871  41.316  1.00  0.00    -0.246 OA
BRANCH   7   9
ATOM      9  O   UNL     1     -16.461  16.615  43.567  1.00  0.00    -0.465 OA
ATOM     10  C   UNL     1     -16.109  15.241  43.460  1.00  0.00     0.282 C 
ENDBRANCH   7   9
ENDBRANCH   1   7
BRANCH   6  11
ATOM     11  O   UNL     1     -17.070  18.651  45.086  1.00  0.00    -0.507 OA
ATOM     12  H   UNL     1     -16.355  17.935  45.051  1.00  0.00     0.293 HD
ENDBRANCH   6  11
TORSDOF 3
ENDMDL
MODEL 4
REMARK VINA RESULT:    -4.259      1.832      2.646
REMARK INTER + INTRA:          -5.173
REMARK INTER:                  -4.908
REMARK INTRA:                  -0.265
REMARK UNBOUND:                -0.292
REMARK SMILES COC(=O)c1ccccc1O
REMARK SMILES IDX 5 1 6 2 7 3 8 4 9 5 10 6 3 7 4 8 2 9 1 10 11 11
REMARK H PARENT 11 12
REMARK Flexibility Score: inf
ROOT
ATOM      1  C   UNL     1     -16.980  17.846  42.086  1.00  0.00     0.101 A 
ATOM      2  C   UNL     1     -16.670  17.375  43.378  1.00  0.00     0.019 A 
ATOM      3  C   UNL     1     -16.278  16.050  43.580  1.00  0.00     0.001 A 
ATOM      4  C   UNL     1     -16.188  15.174  42.500  1.00  0.00     0.004 A 
ATOM      5  C   UNL     1     -16.490  15.619  41.213  1.00  0.00     0.047 A 
ATOM      6  C   UNL     1     -16.886  16.948  40.995  1.00  0.00     0.130 A 
ENDROOT
BRANCH   1   7
ATOM      7  C   UNL     1     -17.395  19.261  41.901  1.00  0.00     0.341 C 
ATOM      8  O   UNL     1     -16.675  20.043  41.221  1.00  0.00    -0.246 OA
BRANCH   7   9
ATOM      9  O   UNL     1     -18.580  19.735  42.474  1.00  0.00    -0.465 OA
ATOM     10  C   UNL     1     -19.667  20.226  41.699  1.00  0.00     0.282 C 
ENDBRANCH   7   9
ENDBRANCH   1   7
BRANCH   6  11
ATOM     11  O   UNL     1     -17.182  17.367  39.698  1.00  0.00    -0.507 OA
ATOM     12  H   UNL     1     -16.474  17.770  39.094  1.00  0.00     0.293 HD
ENDBRANCH   6  11
TORSDOF 3
ENDMDL
MODEL 5
REMARK VINA RESULT:    -4.181      2.261      4.828
REMARK INTER + INTRA:          -5.083
REMARK INTER:                  -4.810
REMARK INTRA:                  -0.273
REMARK UNBOUND:                -0.292
REMARK SMILES COC(=O)c1ccccc1O
REMARK SMILES IDX 5 1 6 2 7 3 8 4 9 5 10 6 3 7 4 8 2 9 1 10 11 11
REMARK H PARENT 11 12
REMARK Flexibility Score: inf
ROOT
ATOM      1  C   UNL     1     -19.040  20.713  41.667  1.00  0.00     0.101 A 
ATOM      2  C   UNL     1     -20.402  20.525  41.978  1.00  0.00     0.019 A 
ATOM      3  C   UNL     1     -21.365  21.443  41.554  1.00  0.00     0.001 A 
ATOM      4  C   UNL     1     -20.987  22.562  40.813  1.00  0.00     0.004 A 
ATOM      5  C   UNL     1     -19.644  22.766  40.494  1.00  0.00     0.047 A 
ATOM      6  C   UNL     1     -18.666  21.852  40.914  1.00  0.00     0.130 A 
ENDROOT
BRANCH   1   7
ATOM      7  C   UNL     1     -18.038  19.719  42.132  1.00  0.00     0.341 C 
ATOM      8  O   UNL     1     -17.498  18.935  41.303  1.00  0.00    -0.246 OA
BRANCH   7   9
ATOM      9  O   UNL     1     -17.685  19.645  43.484  1.00  0.00    -0.465 OA
ATOM     10  C   UNL     1     -17.539  20.798  44.305  1.00  0.00     0.282 C 
ENDBRANCH   7   9
ENDBRANCH   1   7
BRANCH   6  11
ATOM     11  O   UNL     1     -17.331  22.081  40.580  1.00  0.00    -0.507 OA
ATOM     12  H   UNL     1     -16.650  21.330  40.564  1.00  0.00     0.293 HD
ENDBRANCH   6  11
TORSDOF 3
ENDMDL
MODEL 6
REMARK VINA RESULT:    -4.067      2.385      5.393
REMARK INTER + INTRA:          -4.953
REMARK INTER:                  -4.678
REMARK INTRA:                  -0.276
REMARK UNBOUND:                -0.292
REMARK SMILES COC(=O)c1ccccc1O
REMARK SMILES IDX 5 1 6 2 7 3 8 4 9 5 10 6 3 7 4 8 2 9 1 10 11 11
REMARK H PARENT 11 12
REMARK Flexibility Score: inf
ROOT
ATOM      1  C   UNL     1     -19.380  21.507  41.238  1.00  0.00     0.101 A 
ATOM      2  C   UNL     1     -20.709  21.159  41.552  1.00  0.00     0.019 A 
ATOM      3  C   UNL     1     -21.776  21.957  41.132  1.00  0.00     0.001 A 
ATOM      4  C   UNL     1     -21.535  23.113  40.392  1.00  0.00     0.004 A 
ATOM      5  C   UNL     1     -20.227  23.476  40.070  1.00  0.00     0.047 A 
ATOM      6  C   UNL     1     -19.146  22.684  40.487  1.00  0.00     0.130 A 
ENDROOT
BRANCH   1   7
ATOM      7  C   UNL     1     -18.266  20.639  41.699  1.00  0.00     0.341 C 
ATOM      8  O   UNL     1     -17.258  21.154  42.257  1.00  0.00    -0.246 OA
BRANCH   7   9
ATOM      9  O   UNL     1     -18.325  19.253  41.522  1.00  0.00    -0.465 OA
ATOM     10  C   UNL     1     -17.162  18.437  41.440  1.00  0.00     0.282 C 
ENDBRANCH   7   9
ENDBRANCH   1   7
BRANCH   6  11
ATOM     11  O   UNL     1     -17.848  23.071  40.150  1.00  0.00    -0.507 OA
ATOM     12  H   UNL     1     -17.446  22.853  39.246  1.00  0.00     0.293 HD
ENDBRANCH   6  11
TORSDOF 3
ENDMDL
MODEL 7
REMARK VINA RESULT:    -4.002      3.588      4.973
REMARK INTER + INTRA:          -4.878
REMARK INTER:                  -4.587
REMARK INTRA:                  -0.291
REMARK UNBOUND:                -0.292
REMARK SMILES COC(=O)c1ccccc1O
REMARK SMILES IDX 5 1 6 2 7 3 8 4 9 5 10 6 3 7 4 8 2 9 1 10 11 11
REMARK H PARENT 11 12
REMARK Flexibility Score: inf
ROOT
ATOM      1  C   UNL     1     -20.160  21.918  40.846  1.00  0.00     0.101 A 
ATOM      2  C   UNL     1     -20.864  21.035  41.689  1.00  0.00     0.019 A 
ATOM      3  C   UNL     1     -20.189  20.261  42.636  1.00  0.00     0.001 A 
ATOM      4  C   UNL     1     -18.804  20.355  42.757  1.00  0.00     0.004 A 
ATOM      5  C   UNL     1     -18.088  21.222  41.933  1.00  0.00     0.047 A 
ATOM      6  C   UNL     1     -18.753  22.006  40.976  1.00  0.00     0.130 A 
ENDROOT
BRANCH   1   7
ATOM      7  C   UNL     1     -20.905  22.729  39.848  1.00  0.00     0.341 C 
ATOM      8  O   UNL     1     -20.686  23.968  39.755  1.00  0.00    -0.246 OA
BRANCH   7   9
ATOM      9  O   UNL     1     -21.848  22.129  39.007  1.00  0.00    -0.465 OA
ATOM     10  C   UNL     1     -21.624  21.931  37.616  1.00  0.00     0.282 C 
ENDBRANCH   7   9
ENDBRANCH   1   7
BRANCH   6  11
ATOM     11  O   UNL     1     -18.012  22.866  40.165  1.00  0.00    -0.507 OA
ATOM     12  H   UNL     1     -17.578  22.546  39.308  1.00  0.00     0.293 HD
ENDBRANCH   6  11
TORSDOF 3
ENDMDL
MODEL 8
REMARK VINA RESULT:    -3.939      2.638      5.061
REMARK INTER + INTRA:          -4.807
REMARK INTER:                  -4.488
REMARK INTRA:                  -0.318
REMARK UNBOUND:                -0.292
REMARK SMILES COC(=O)c1ccccc1O
REMARK SMILES IDX 5 1 6 2 7 3 8 4 9 5 10 6 3 7 4 8 2 9 1 10 11 11
REMARK H PARENT 11 12
REMARK Flexibility Score: inf
ROOT
ATOM      1  C   UNL     1     -19.251  21.735  41.362  1.00  0.00     0.101 A 
ATOM      2  C   UNL     1     -19.103  22.819  40.474  1.00  0.00     0.019 A 
ATOM      3  C   UNL     1     -20.201  23.322  39.772  1.00  0.00     0.001 A 
ATOM      4  C   UNL     1     -21.462  22.753  39.943  1.00  0.00     0.004 A 
ATOM      5  C   UNL     1     -21.630  21.679  40.817  1.00  0.00     0.047 A 
ATOM      6  C   UNL     1     -20.536  21.163  41.529  1.00  0.00     0.130 A 
ENDROOT
BRANCH   1   7
ATOM      7  C   UNL     1     -18.065  21.221  42.096  1.00  0.00     0.341 C 
ATOM      8  O   UNL     1     -17.039  20.860  41.456  1.00  0.00    -0.246 OA
BRANCH   7   9
ATOM      9  O   UNL     1     -18.075  21.136  43.492  1.00  0.00    -0.465 OA
ATOM     10  C   UNL     1     -17.696  19.957  44.194  1.00  0.00     0.282 C 
ENDBRANCH   7   9
ENDBRANCH   1   7
BRANCH   6  11
ATOM     11  O   UNL     1     -20.733  20.090  42.398  1.00  0.00    -0.507 OA
ATOM     12  H   UNL     1     -19.993  19.751  43.001  1.00  0.00     0.293 HD
ENDBRANCH   6  11
TORSDOF 3
ENDMDL
MODEL 9
REMARK VINA RESULT:    -3.899     14.176     15.321
REMARK INTER + INTRA:          -4.761
REMARK INTER:                  -4.487
REMARK INTRA:                  -0.274
REMARK UNBOUND:                -0.292
REMARK SMILES COC(=O)c1ccccc1O
REMARK SMILES IDX 5 1 6 2 7 3 8 4 9 5 10 6 3 7 4 8 2 9 1 10 11 11
REMARK H PARENT 11 12
REMARK Flexibility Score: inf
ROOT
ATOM      1  C   UNL     1      -6.747  28.258  46.057  1.00  0.00     0.101 A 
ATOM      2  C   UNL     1      -7.927  28.941  45.700  1.00  0.00     0.019 A 
ATOM      3  C   UNL     1      -8.140  30.260  46.107  1.00  0.00     0.001 A 
ATOM      4  C   UNL     1      -7.181  30.919  46.875  1.00  0.00     0.004 A 
ATOM      5  C   UNL     1      -6.006  30.261  47.239  1.00  0.00     0.047 A 
ATOM      6  C   UNL     1      -5.779  28.936  46.837  1.00  0.00     0.130 A 
ENDROOT
BRANCH   1   7
ATOM      7  C   UNL     1      -6.548  26.855  45.609  1.00  0.00     0.341 C 
ATOM      8  O   UNL     1      -6.304  25.954  46.458  1.00  0.00    -0.246 OA
BRANCH   7   9
ATOM      9  O   UNL     1      -6.632  26.523  44.253  1.00  0.00    -0.465 OA
ATOM     10  C   UNL     1      -5.813  25.526  43.653  1.00  0.00     0.282 C 
ENDBRANCH   7   9
ENDBRANCH   1   7
BRANCH   6  11
ATOM     11  O   UNL     1      -4.595  28.302  47.214  1.00  0.00    -0.507 OA
ATOM     12  H   UNL     1      -3.753  28.372  46.655  1.00  0.00     0.293 HD
ENDBRANCH   6  11
TORSDOF 3
ENDMDL
