MODEL 1
REMARK VINA RESULT:    -5.455      0.000      0.000
REMARK INTER + INTRA:          -7.193
REMARK INTER:                  -7.049
REMARK INTRA:                  -0.143
REMARK UNBOUND:                -0.143
REMARK SMILES C=CC(=O)CCCCC
REMARK SMILES IDX 6 1 7 2 8 3 9 4 5 5 3 6 4 7 2 8 1 9
REMARK H PARENT
REMARK Flexibility Score: inf
ROOT
ATOM      1  C   UNL     1      19.546  26.116   3.953  1.00  0.00     0.008 C 
ENDROOT
BRANCH   1   2
ATOM      2  C   UNL     1      20.188  27.476   4.254  1.00  0.00     0.000 C 
BRANCH   2   3
ATOM      3  C   UNL     1      20.908  28.028   3.019  1.00  0.00    -0.003 C 
ATOM      4  C   UNL     1      22.153  27.208   2.694  1.00  0.00     0.004 C 
ENDBRANCH   2   3
ENDBRANCH   1   2
BRANCH   1   5
ATOM      5  C   UNL     1      18.065  26.275   3.592  1.00  0.00     0.080 C 
BRANCH   5   6
ATOM      6  C   UNL     1      17.219  25.359   4.425  1.00  0.00     0.155 C 
ATOM      7  O   UNL     1      17.715  24.283   4.859  1.00  0.00    -0.295 OA
BRANCH   6   8
ATOM      8  C   UNL     1      15.834  25.738   4.767  1.00  0.00     0.039 C 
ATOM      9  C   UNL     1      15.183  25.210   5.802  1.00  0.00     0.012 C 
ENDBRANCH   6   8
ENDBRANCH   5   6
ENDBRANCH   1   5
TORSDOF 5
ENDMDL
MODEL 2
REMARK VINA RESULT:    -5.361      1.369      5.047
REMARK INTER + INTRA:          -7.071
REMARK INTER:                  -6.877
REMARK INTRA:                  -0.194
REMARK UNBOUND:                -0.143
REMARK SMILES C=CC(=O)CCCCC
REMARK SMILES IDX 6 1 7 2 8 3 9 4 5 5 3 6 4 7 2 8 1 9
REMARK H PARENT
REMARK Flexibility Score: inf
ROOT
ATOM      1  C   UNL     1      18.003  26.469   3.774  1.00  0.00     0.008 C 
ENDROOT
BRANCH   1   2
ATOM      2  C   UNL     1      17.501  25.058   4.102  1.00  0.00     0.000 C 
BRANCH   2   3
ATOM      3  C   UNL     1      16.572  25.075   5.321  1.00  0.00    -0.003 C 
ATOM      4  C   UNL     1      15.386  26.009   5.097  1.00  0.00     0.004 C 
ENDBRANCH   2   3
ENDBRANCH   1   2
BRANCH   1   5
ATOM      5  C   UNL     1      19.206  26.842   4.646  1.00  0.00     0.080 C 
BRANCH   5   6
ATOM      6  C   UNL     1      20.489  26.491   3.953  1.00  0.00     0.155 C 
ATOM      7  O   UNL     1      20.968  25.332   4.089  1.00  0.00    -0.295 OA
BRANCH   6   8
ATOM      8  C   UNL     1      21.155  27.481   3.085  1.00  0.00     0.039 C 
ATOM      9  C   UNL     1      22.375  27.289   2.587  1.00  0.00     0.012 C 
ENDBRANCH   6   8
ENDBRANCH   5   6
ENDBRANCH   1   5
TORSDOF 5
ENDMDL
MODEL 3
REMARK VINA RESULT:    -5.334      1.295      1.696
REMARK INTER + INTRA:          -7.036
REMARK INTER:                  -6.828
REMARK INTRA:                  -0.208
REMARK UNBOUND:                -0.143
REMARK SMILES C=CC(=O)CCCCC
REMARK SMILES IDX 6 1 7 2 8 3 9 4 5 5 3 6 4 7 2 8 1 9
REMARK H PARENT
REMARK Flexibility Score: inf
ROOT
ATOM      1  C   UNL     1      20.572  26.045   4.625  1.00  0.00     0.008 C 
ENDROOT
BRANCH   1   2
ATOM      2  C   UNL     1      21.458  26.060   3.373  1.00  0.00     0.000 C 
BRANCH   2   3
ATOM      3  C   UNL     1      21.737  27.496   2.916  1.00  0.00    -0.003 C 
ATOM      4  C   UNL     1      20.479  28.355   2.997  1.00  0.00     0.004 C 
ENDBRANCH   2   3
ENDBRANCH   1   2
BRANCH   1   5
ATOM      5  C   UNL     1      19.300  25.223   4.389  1.00  0.00     0.080 C 
BRANCH   5   6
ATOM      6  C   UNL     1      18.091  25.980   4.850  1.00  0.00     0.155 C 
ATOM      7  O   UNL     1      18.216  26.859   5.746  1.00  0.00    -0.295 OA
BRANCH   6   8
ATOM      8  C   UNL     1      16.777  25.726   4.226  1.00  0.00     0.039 C 
ATOM      9  C   UNL     1      15.637  25.788   4.910  1.00  0.00     0.012 C 
ENDBRANCH   6   8
ENDBRANCH   5   6
ENDBRANCH   1   5
TORSDOF 5
ENDMDL
MODEL 4
REMARK VINA RESULT:    -5.077      1.332      4.986
REMARK INTER + INTRA:          -6.704
REMARK INTER:                  -6.488
REMARK INTRA:                  -0.217
REMARK UNBOUND:                -0.143
REMARK SMILES C=CC(=O)CCCCC
REMARK SMILES IDX 6 1 7 2 8 3 9 4 5 5 3 6 4 7 2 8 1 9
REMARK H PARENT
REMARK Flexibility Score: inf
ROOT
ATOM      1  C   UNL     1      17.118  25.250   4.419  1.00  0.00     0.008 C 
ENDROOT
BRANCH   1   2
ATOM      2  C   UNL     1      15.754  25.669   4.979  1.00  0.00     0.000 C 
BRANCH   2   3
ATOM      3  C   UNL     1      15.452  24.939   6.293  1.00  0.00    -0.003 C 
ATOM      4  C   UNL     1      16.225  25.555   7.455  1.00  0.00     0.004 C 
ENDBRANCH   2   3
ENDBRANCH   1   2
BRANCH   1   5
ATOM      5  C   UNL     1      17.801  26.419   3.701  1.00  0.00     0.080 C 
BRANCH   5   6
ATOM      6  C   UNL     1      19.013  26.869   4.460  1.00  0.00     0.155 C 
ATOM      7  O   UNL     1      18.958  26.956   5.717  1.00  0.00    -0.295 OA
BRANCH   6   8
ATOM      8  C   UNL     1      20.269  27.161   3.742  1.00  0.00     0.039 C 
ATOM      9  C   UNL     1      20.508  28.340   3.171  1.00  0.00     0.012 C 
ENDBRANCH   6   8
ENDBRANCH   5   6
ENDBRANCH   1   5
TORSDOF 5
ENDMDL
MODEL 5
REMARK VINA RESULT:    -4.988      1.335      1.422
REMARK INTER + INTRA:          -6.589
REMARK INTER:                  -6.394
REMARK INTRA:                  -0.195
REMARK UNBOUND:                -0.143
REMARK SMILES C=CC(=O)CCCCC
REMARK SMILES IDX 6 1 7 2 8 3 9 4 5 5 3 6 4 7 2 8 1 9
REMARK H PARENT
REMARK Flexibility Score: inf
ROOT
ATOM      1  C   UNL     1      19.220  25.601   4.523  1.00  0.00     0.008 C 
ENDROOT
BRANCH   1   2
ATOM      2  C   UNL     1      20.321  26.648   4.319  1.00  0.00     0.000 C 
BRANCH   2   3
ATOM      3  C   UNL     1      21.463  26.084   3.466  1.00  0.00    -0.003 C 
ATOM      4  C   UNL     1      22.152  27.187   2.668  1.00  0.00     0.004 C 
ENDBRANCH   2   3
ENDBRANCH   1   2
BRANCH   1   5
ATOM      5  C   UNL     1      17.919  26.031   3.835  1.00  0.00     0.080 C 
BRANCH   5   6
ATOM      6  C   UNL     1      16.735  25.701   4.694  1.00  0.00     0.155 C 
ATOM      7  O   UNL     1      15.583  25.686   4.180  1.00  0.00    -0.295 OA
BRANCH   6   8
ATOM      8  C   UNL     1      16.926  25.353   6.116  1.00  0.00     0.039 C 
ATOM      9  C   UNL     1      15.926  24.939   6.891  1.00  0.00     0.012 C 
ENDBRANCH   6   8
ENDBRANCH   5   6
ENDBRANCH   1   5
TORSDOF 5
ENDMDL
MODEL 6
REMARK VINA RESULT:    -4.833      2.309      4.557
REMARK INTER + INTRA:          -6.389
REMARK INTER:                  -5.863
REMARK INTRA:                  -0.526
REMARK UNBOUND:                -0.143
REMARK SMILES C=CC(=O)CCCCC
REMARK SMILES IDX 6 1 7 2 8 3 9 4 5 5 3 6 4 7 2 8 1 9
REMARK H PARENT
REMARK Flexibility Score: inf
ROOT
ATOM      1  C   UNL     1      17.413  25.232   4.454  1.00  0.00     0.008 C 
ENDROOT
BRANCH   1   2
ATOM      2  C   UNL     1      15.976  25.748   4.315  1.00  0.00     0.000 C 
BRANCH   2   3
ATOM      3  C   UNL     1      15.235  25.675   5.654  1.00  0.00    -0.003 C 
ATOM      4  C   UNL     1      15.549  24.375   6.388  1.00  0.00     0.004 C 
ENDBRANCH   2   3
ENDBRANCH   1   2
BRANCH   1   5
ATOM      5  C   UNL     1      18.421  26.385   4.386  1.00  0.00     0.080 C 
BRANCH   5   6
ATOM      6  C   UNL     1      19.201  26.478   5.662  1.00  0.00     0.155 C 
ATOM      7  O   UNL     1      20.462  26.487   5.617  1.00  0.00    -0.295 OA
BRANCH   6   8
ATOM      8  C   UNL     1      18.497  26.604   6.953  1.00  0.00     0.039 C 
ATOM      9  C   UNL     1      18.718  25.776   7.972  1.00  0.00     0.012 C 
ENDBRANCH   6   8
ENDBRANCH   5   6
ENDBRANCH   1   5
TORSDOF 5
ENDMDL
MODEL 7
REMARK VINA RESULT:    -4.807      2.796      5.183
REMARK INTER + INTRA:          -6.355
REMARK INTER:                  -6.232
REMARK INTRA:                  -0.123
REMARK UNBOUND:                -0.143
REMARK SMILES C=CC(=O)CCCCC
REMARK SMILES IDX 6 1 7 2 8 3 9 4 5 5 3 6 4 7 2 8 1 9
REMARK H PARENT
REMARK Flexibility Score: inf
ROOT
ATOM      1  C   UNL     1      18.740  26.890   6.002  1.00  0.00     0.008 C 
ENDROOT
BRANCH   1   2
ATOM      2  C   UNL     1      18.602  25.717   6.979  1.00  0.00     0.000 C 
BRANCH   2   3
ATOM      3  C   UNL     1      17.979  26.174   8.302  1.00  0.00    -0.003 C 
ATOM      4  C   UNL     1      18.854  25.779   9.489  1.00  0.00     0.004 C 
ENDBRANCH   2   3
ENDBRANCH   1   2
BRANCH   1   5
ATOM      5  C   UNL     1      20.028  26.774   5.180  1.00  0.00     0.080 C 
BRANCH   5   6
ATOM      6  C   UNL     1      19.820  27.307   3.794  1.00  0.00     0.155 C 
ATOM      7  O   UNL     1      18.674  27.238   3.271  1.00  0.00    -0.295 OA
BRANCH   6   8
ATOM      8  C   UNL     1      20.937  27.947   3.072  1.00  0.00     0.039 C 
ATOM      9  C   UNL     1      22.023  27.275   2.696  1.00  0.00     0.012 C 
ENDBRANCH   6   8
ENDBRANCH   5   6
ENDBRANCH   1   5
TORSDOF 5
ENDMDL
MODEL 8
REMARK VINA RESULT:    -4.641      2.368      4.783
REMARK INTER + INTRA:          -6.141
REMARK INTER:                  -5.619
REMARK INTRA:                  -0.522
REMARK UNBOUND:                -0.143
REMARK SMILES C=CC(=O)CCCCC
REMARK SMILES IDX 6 1 7 2 8 3 9 4 5 5 3 6 4 7 2 8 1 9
REMARK H PARENT
REMARK Flexibility Score: inf
ROOT
ATOM      1  C   UNL     1      17.614  26.880   7.196  1.00  0.00     0.008 C 
ENDROOT
BRANCH   1   2
ATOM      2  C   UNL     1      16.506  26.014   7.807  1.00  0.00     0.000 C 
BRANCH   2   3
ATOM      3  C   UNL     1      15.980  24.997   6.788  1.00  0.00    -0.003 C 
ATOM      4  C   UNL     1      15.225  25.689   5.657  1.00  0.00     0.004 C 
ENDBRANCH   2   3
ENDBRANCH   1   2
BRANCH   1   5
ATOM      5  C   UNL     1      18.806  26.021   6.760  1.00  0.00     0.080 C 
BRANCH   5   6
ATOM      6  C   UNL     1      19.284  26.434   5.400  1.00  0.00     0.155 C 
ATOM      7  O   UNL     1      20.234  27.258   5.302  1.00  0.00    -0.295 OA
BRANCH   6   8
ATOM      8  C   UNL     1      18.674  25.845   4.192  1.00  0.00     0.039 C 
ATOM      9  C   UNL     1      17.904  26.548   3.364  1.00  0.00     0.012 C 
ENDBRANCH   6   8
ENDBRANCH   5   6
ENDBRANCH   1   5
TORSDOF 5
ENDMDL
MODEL 9
REMARK VINA RESULT:    -4.571      2.685      3.835
REMARK INTER + INTRA:          -6.050
REMARK INTER:                  -5.609
REMARK INTRA:                  -0.441
REMARK UNBOUND:                -0.143
REMARK SMILES C=CC(=O)CCCCC
REMARK SMILES IDX 6 1 7 2 8 3 9 4 5 5 3 6 4 7 2 8 1 9
REMARK H PARENT
REMARK Flexibility Score: inf
ROOT
ATOM      1  C   UNL     1      18.930  26.150   6.286  1.00  0.00     0.008 C 
ENDROOT
BRANCH   1   2
ATOM      2  C   UNL     1      17.978  26.909   7.217  1.00  0.00     0.000 C 
BRANCH   2   3
ATOM      3  C   UNL     1      17.592  26.050   8.426  1.00  0.00    -0.003 C 
ATOM      4  C   UNL     1      18.828  25.602   9.201  1.00  0.00     0.004 C 
ENDBRANCH   2   3
ENDBRANCH   1   2
BRANCH   1   5
ATOM      5  C   UNL     1      18.158  25.192   5.372  1.00  0.00     0.080 C 
BRANCH   5   6
ATOM      6  C   UNL     1      17.283  25.958   4.425  1.00  0.00     0.155 C 
ATOM      7  O   UNL     1      17.815  26.705   3.558  1.00  0.00    -0.295 OA
BRANCH   6   8
ATOM      8  C   UNL     1      15.817  25.800   4.482  1.00  0.00     0.039 C 
ATOM      9  C   UNL     1      15.195  25.270   5.533  1.00  0.00     0.012 C 
ENDBRANCH   6   8
ENDBRANCH   5   6
ENDBRANCH   1   5
TORSDOF 5
ENDMDL
