MODEL 1
REMARK VINA RESULT:    -3.425      0.000      0.000
REMARK INTER + INTRA:          -8.968
REMARK INTER:                  -6.229
REMARK INTRA:                  -2.739
REMARK UNBOUND:                -2.739
REMARK SMILES CCCCCCCCCCCCCCCC(=O)[O-]
REMARK SMILES IDX 9 1 10 2 11 3 12 4 13 5 14 6 15 7 16 8 17 9 18 10 8 11 7 12
REMARK SMILES IDX 6 13 5 14 4 15 3 16 2 17 1 18
REMARK H PARENT
REMARK Flexibility Score: inf
ROOT
ATOM      1  C   UNL     1      -2.848  -9.322   6.979  1.00  0.00     0.000 C 
ENDROOT
BRANCH   1   2
ATOM      2  C   UNL     1      -2.293 -10.604   6.334  1.00  0.00     0.000 C 
BRANCH   2   3
ATOM      3  C   UNL     1      -2.419 -11.828   7.255  1.00  0.00     0.000 C 
BRANCH   3   4
ATOM      4  C   UNL     1      -1.136 -12.675   7.295  1.00  0.00     0.000 C 
BRANCH   4   5
ATOM      5  C   UNL     1      -0.164 -12.342   6.148  1.00  0.00     0.000 C 
BRANCH   5   6
ATOM      6  C   UNL     1       1.316 -12.241   6.562  1.00  0.00     0.006 C 
BRANCH   6   7
ATOM      7  C   UNL     1       2.159 -13.419   6.057  1.00  0.00     0.053 C 
BRANCH   7   8
ATOM      8  C   UNL     1       3.597 -13.225   6.419  1.00  0.00     0.041 C 
ATOM      9  O   UNL     1       3.949 -12.227   7.102  1.00  0.00    -0.550 OA
ATOM     10  O   UNL     1       4.542 -14.171   6.046  1.00  0.00    -0.550 OA
ENDBRANCH   7   8
ENDBRANCH   6   7
ENDBRANCH   5   6
ENDBRANCH   4   5
ENDBRANCH   3   4
ENDBRANCH   2   3
ENDBRANCH   1   2
BRANCH   1  11
ATOM     11  C   UNL     1      -1.804  -8.194   7.038  1.00  0.00     0.000 C 
BRANCH  11  12
ATOM     12  C   UNL     1      -0.457  -8.607   6.420  1.00  0.00    -0.000 C 
BRANCH  12  13
ATOM     13  C   UNL     1       0.689  -8.638   7.449  1.00  0.00    -0.000 C 
BRANCH  13  14
ATOM     14  C   UNL     1       0.241  -8.729   8.918  1.00  0.00    -0.000 C 
BRANCH  14  15
ATOM     15  C   UNL     1       0.514 -10.108   9.543  1.00  0.00    -0.000 C 
BRANCH  15  16
ATOM     16  C   UNL     1      -0.707 -10.670  10.289  1.00  0.00    -0.000 C 
BRANCH  16  17
ATOM     17  C   UNL     1      -1.757  -9.593  10.596  1.00  0.00    -0.003 C 
ATOM     18  C   UNL     1      -3.165 -10.181  10.588  1.00  0.00     0.004 C 
ENDBRANCH  16  17
ENDBRANCH  15  16
ENDBRANCH  14  15
ENDBRANCH  13  14
ENDBRANCH  12  13
ENDBRANCH  11  12
ENDBRANCH   1  11
TORSDOF 14
ENDMDL
MODEL 2
REMARK VINA RESULT:    -3.299     13.762     16.054
REMARK INTER + INTRA:          -8.738
REMARK INTER:                  -6.825
REMARK INTRA:                  -1.913
REMARK UNBOUND:                -2.739
REMARK SMILES CCCCCCCCCCCCCCCC(=O)[O-]
REMARK SMILES IDX 9 1 10 2 11 3 12 4 13 5 14 6 15 7 16 8 17 9 18 10 8 11 7 12
REMARK SMILES IDX 6 13 5 14 4 15 3 16 2 17 1 18
REMARK H PARENT
REMARK Flexibility Score: inf
ROOT
ATOM      1  C   UNL     1      -9.772   2.921   8.097  1.00  0.00     0.000 C 
ENDROOT
BRANCH   1   2
ATOM      2  C   UNL     1      -9.251   4.251   7.527  1.00  0.00     0.000 C 
BRANCH   2   3
ATOM      3  C   UNL     1      -9.609   4.437   6.044  1.00  0.00     0.000 C 
BRANCH   3   4
ATOM      4  C   UNL     1      -8.900   3.421   5.130  1.00  0.00     0.000 C 
BRANCH   4   5
ATOM      5  C   UNL     1      -7.368   3.560   5.161  1.00  0.00     0.000 C 
BRANCH   5   6
ATOM      6  C   UNL     1      -6.635   2.473   5.970  1.00  0.00     0.006 C 
BRANCH   6   7
ATOM      7  C   UNL     1      -5.662   3.053   7.004  1.00  0.00     0.053 C 
BRANCH   7   8
ATOM      8  C   UNL     1      -4.770   1.978   7.540  1.00  0.00     0.041 C 
ATOM      9  O   UNL     1      -4.069   1.286   6.756  1.00  0.00    -0.550 OA
ATOM     10  O   UNL     1      -4.675   1.773   8.911  1.00  0.00    -0.550 OA
ENDBRANCH   7   8
ENDBRANCH   6   7
ENDBRANCH   5   6
ENDBRANCH   4   5
ENDBRANCH   3   4
ENDBRANCH   2   3
ENDBRANCH   1   2
BRANCH   1  11
ATOM     11  C   UNL     1     -11.302   2.800   8.002  1.00  0.00     0.000 C 
BRANCH  11  12
ATOM     12  C   UNL     1     -11.757   1.382   7.613  1.00  0.00    -0.000 C 
BRANCH  12  13
ATOM     13  C   UNL     1     -12.187   1.275   6.138  1.00  0.00    -0.000 C 
BRANCH  13  14
ATOM     14  C   UNL     1     -11.127   0.682   5.193  1.00  0.00    -0.000 C 
BRANCH  14  15
ATOM     15  C   UNL     1     -10.046  -0.122   5.937  1.00  0.00    -0.000 C 
BRANCH  15  16
ATOM     16  C   UNL     1      -9.513  -1.302   5.108  1.00  0.00    -0.000 C 
BRANCH  16  17
ATOM     17  C   UNL     1      -9.380  -0.962   3.617  1.00  0.00    -0.003 C 
ATOM     18  C   UNL     1      -8.073  -0.226   3.337  1.00  0.00     0.004 C 
ENDBRANCH  16  17
ENDBRANCH  15  16
ENDBRANCH  14  15
ENDBRANCH  13  14
ENDBRANCH  12  13
ENDBRANCH  11  12
ENDBRANCH   1  11
TORSDOF 14
ENDMDL
MODEL 3
REMARK VINA RESULT:    -3.271      1.441      3.056
REMARK INTER + INTRA:          -8.687
REMARK INTER:                  -6.537
REMARK INTRA:                  -2.151
REMARK UNBOUND:                -2.739
REMARK SMILES CCCCCCCCCCCCCCCC(=O)[O-]
REMARK SMILES IDX 9 1 10 2 11 3 12 4 13 5 14 6 15 7 16 8 17 9 18 10 8 11 7 12
REMARK SMILES IDX 6 13 5 14 4 15 3 16 2 17 1 18
REMARK H PARENT
REMARK Flexibility Score: inf
ROOT
ATOM      1  C   UNL     1       0.204 -10.844   9.028  1.00  0.00     0.000 C 
ENDROOT
BRANCH   1   2
ATOM      2  C   UNL     1       1.155 -11.597   8.081  1.00  0.00     0.000 C 
BRANCH   2   3
ATOM      3  C   UNL     1       0.482 -12.806   7.411  1.00  0.00     0.000 C 
BRANCH   3   4
ATOM      4  C   UNL     1       0.771 -12.884   5.902  1.00  0.00     0.000 C 
BRANCH   4   5
ATOM      5  C   UNL     1       1.501 -14.179   5.501  1.00  0.00     0.000 C 
BRANCH   5   6
ATOM      6  C   UNL     1       2.706 -14.544   6.388  1.00  0.00     0.006 C 
BRANCH   6   7
ATOM      7  C   UNL     1       4.007 -13.869   5.937  1.00  0.00     0.053 C 
BRANCH   7   8
ATOM      8  C   UNL     1       4.409 -12.808   6.911  1.00  0.00     0.041 C 
ATOM      9  O   UNL     1       4.363 -13.033   8.149  1.00  0.00    -0.550 OA
ATOM     10  O   UNL     1       4.882 -11.585   6.452  1.00  0.00    -0.550 OA
ENDBRANCH   7   8
ENDBRANCH   6   7
ENDBRANCH   5   6
ENDBRANCH   4   5
ENDBRANCH   3   4
ENDBRANCH   2   3
ENDBRANCH   1   2
BRANCH   1  11
ATOM     11  C   UNL     1       0.423  -9.322   8.993  1.00  0.00     0.000 C 
BRANCH  11  12
ATOM     12  C   UNL     1       0.941  -8.834   7.629  1.00  0.00    -0.000 C 
BRANCH  12  13
ATOM     13  C   UNL     1      -0.181  -8.673   6.586  1.00  0.00    -0.000 C 
BRANCH  13  14
ATOM     14  C   UNL     1      -1.551  -8.273   7.161  1.00  0.00    -0.000 C 
BRANCH  14  15
ATOM     15  C   UNL     1      -2.690  -9.192   6.687  1.00  0.00    -0.000 C 
BRANCH  15  16
ATOM     16  C   UNL     1      -2.176 -10.524   6.116  1.00  0.00    -0.000 C 
BRANCH  16  17
ATOM     17  C   UNL     1      -3.092 -11.706   6.463  1.00  0.00    -0.003 C 
ATOM     18  C   UNL     1      -3.088 -11.983   7.964  1.00  0.00     0.004 C 
ENDBRANCH  16  17
ENDBRANCH  15  16
ENDBRANCH  14  15
ENDBRANCH  13  14
ENDBRANCH  12  13
ENDBRANCH  11  12
ENDBRANCH   1  11
TORSDOF 14
ENDMDL
MODEL 4
REMARK VINA RESULT:    -3.222     13.542     15.383
REMARK INTER + INTRA:          -8.597
REMARK INTER:                  -6.498
REMARK INTRA:                  -2.100
REMARK UNBOUND:                -2.739
REMARK SMILES CCCCCCCCCCCCCCCC(=O)[O-]
REMARK SMILES IDX 9 1 10 2 11 3 12 4 13 5 14 6 15 7 16 8 17 9 18 10 8 11 7 12
REMARK SMILES IDX 6 13 5 14 4 15 3 16 2 17 1 18
REMARK H PARENT
REMARK Flexibility Score: inf
ROOT
ATOM      1  C   UNL     1      -7.808   2.348   6.044  1.00  0.00     0.000 C 
ENDROOT
BRANCH   1   2
ATOM      2  C   UNL     1      -8.143   2.514   7.536  1.00  0.00     0.000 C 
BRANCH   2   3
ATOM      3  C   UNL     1      -8.208   1.169   8.277  1.00  0.00     0.000 C 
BRANCH   3   4
ATOM      4  C   UNL     1      -7.959   1.311   9.789  1.00  0.00     0.000 C 
BRANCH   4   5
ATOM      5  C   UNL     1      -7.146   2.569  10.144  1.00  0.00     0.000 C 
BRANCH   5   6
ATOM      6  C   UNL     1      -5.642   2.326  10.369  1.00  0.00     0.006 C 
BRANCH   6   7
ATOM      7  C   UNL     1      -4.774   2.846   9.216  1.00  0.00     0.053 C 
BRANCH   7   8
ATOM      8  C   UNL     1      -4.047   1.715   8.559  1.00  0.00     0.041 C 
ATOM      9  O   UNL     1      -4.685   0.841   7.915  1.00  0.00    -0.550 OA
ATOM     10  O   UNL     1      -2.661   1.653   8.616  1.00  0.00    -0.550 OA
ENDBRANCH   7   8
ENDBRANCH   6   7
ENDBRANCH   5   6
ENDBRANCH   4   5
ENDBRANCH   3   4
ENDBRANCH   2   3
ENDBRANCH   1   2
BRANCH   1  11
ATOM     11  C   UNL     1      -8.959   2.800   5.130  1.00  0.00     0.000 C 
BRANCH  11  12
ATOM     12  C   UNL     1     -10.171   3.318   5.923  1.00  0.00    -0.000 C 
BRANCH  12  13
ATOM     13  C   UNL     1     -11.324   2.297   5.990  1.00  0.00    -0.000 C 
BRANCH  13  14
ATOM     14  C   UNL     1     -11.140   1.052   5.105  1.00  0.00    -0.000 C 
BRANCH  14  15
ATOM     15  C   UNL     1     -10.814  -0.215   5.914  1.00  0.00    -0.000 C 
BRANCH  15  16
ATOM     16  C   UNL     1      -9.663  -1.028   5.301  1.00  0.00    -0.000 C 
BRANCH  16  17
ATOM     17  C   UNL     1      -9.547  -0.832   3.783  1.00  0.00    -0.003 C 
ATOM     18  C   UNL     1      -8.145  -0.371   3.394  1.00  0.00     0.004 C 
ENDBRANCH  16  17
ENDBRANCH  15  16
ENDBRANCH  14  15
ENDBRANCH  13  14
ENDBRANCH  12  13
ENDBRANCH  11  12
ENDBRANCH   1  11
TORSDOF 14
ENDMDL
MODEL 5
REMARK VINA RESULT:    -3.201      2.526      5.456
REMARK INTER + INTRA:          -8.560
REMARK INTER:                  -6.729
REMARK INTRA:                  -1.831
REMARK UNBOUND:                -2.739
REMARK SMILES CCCCCCCCCCCCCCCC(=O)[O-]
REMARK SMILES IDX 9 1 10 2 11 3 12 4 13 5 14 6 15 7 16 8 17 9 18 10 8 11 7 12
REMARK SMILES IDX 6 13 5 14 4 15 3 16 2 17 1 18
REMARK H PARENT
REMARK Flexibility Score: inf
ROOT
ATOM      1  C   UNL     1      -3.796 -11.720   7.790  1.00  0.00     0.000 C 
ENDROOT
BRANCH   1   2
ATOM      2  C   UNL     1      -3.326 -10.299   8.146  1.00  0.00     0.000 C 
BRANCH   2   3
ATOM      3  C   UNL     1      -2.921  -9.485   6.907  1.00  0.00     0.000 C 
BRANCH   3   4
ATOM      4  C   UNL     1      -1.911  -8.371   7.232  1.00  0.00     0.000 C 
BRANCH   4   5
ATOM      5  C   UNL     1      -0.581  -8.532   6.475  1.00  0.00     0.000 C 
BRANCH   5   6
ATOM      6  C   UNL     1       0.662  -8.679   7.372  1.00  0.00     0.006 C 
BRANCH   6   7
ATOM      7  C   UNL     1       0.536  -9.822   8.386  1.00  0.00     0.053 C 
BRANCH   7   8
ATOM      8  C   UNL     1       0.747  -9.313   9.777  1.00  0.00     0.041 C 
ATOM      9  O   UNL     1       1.326 -10.031  10.634  1.00  0.00    -0.550 OA
ATOM     10  O   UNL     1       0.350  -8.026  10.114  1.00  0.00    -0.550 OA
ENDBRANCH   7   8
ENDBRANCH   6   7
ENDBRANCH   5   6
ENDBRANCH   4   5
ENDBRANCH   3   4
ENDBRANCH   2   3
ENDBRANCH   1   2
BRANCH   1  11
ATOM     11  C   UNL     1      -5.121 -11.723   7.011  1.00  0.00     0.000 C 
BRANCH  11  12
ATOM     12  C   UNL     1      -5.268 -12.957   6.104  1.00  0.00    -0.000 C 
BRANCH  12  13
ATOM     13  C   UNL     1      -3.933 -13.690   5.870  1.00  0.00    -0.000 C 
BRANCH  13  14
ATOM     14  C   UNL     1      -3.147 -13.229   4.630  1.00  0.00    -0.000 C 
BRANCH  14  15
ATOM     15  C   UNL     1      -1.626 -13.393   4.791  1.00  0.00    -0.000 C 
BRANCH  15  16
ATOM     16  C   UNL     1      -0.971 -12.185   5.478  1.00  0.00    -0.000 C 
BRANCH  16  17
ATOM     17  C   UNL     1       0.493 -12.447   5.861  1.00  0.00    -0.003 C 
ATOM     18  C   UNL     1       0.860 -13.913   5.654  1.00  0.00     0.004 C 
ENDBRANCH  16  17
ENDBRANCH  15  16
ENDBRANCH  14  15
ENDBRANCH  13  14
ENDBRANCH  12  13
ENDBRANCH  11  12
ENDBRANCH   1  11
TORSDOF 14
ENDMDL
MODEL 6
REMARK VINA RESULT:    -3.197     13.906     15.954
REMARK INTER + INTRA:          -8.553
REMARK INTER:                  -5.977
REMARK INTRA:                  -2.575
REMARK UNBOUND:                -2.739
REMARK SMILES CCCCCCCCCCCCCCCC(=O)[O-]
REMARK SMILES IDX 9 1 10 2 11 3 12 4 13 5 14 6 15 7 16 8 17 9 18 10 8 11 7 12
REMARK SMILES IDX 6 13 5 14 4 15 3 16 2 17 1 18
REMARK H PARENT
REMARK Flexibility Score: inf
ROOT
ATOM      1  C   UNL     1      -9.509  -0.879   5.053  1.00  0.00     0.000 C 
ENDROOT
BRANCH   1   2
ATOM      2  C   UNL     1     -10.197  -0.662   6.412  1.00  0.00     0.000 C 
BRANCH   2   3
ATOM      3  C   UNL     1      -9.266  -0.962   7.597  1.00  0.00     0.000 C 
BRANCH   3   4
ATOM      4  C   UNL     1      -9.256   0.166   8.644  1.00  0.00     0.000 C 
BRANCH   4   5
ATOM      5  C   UNL     1      -8.006   1.059   8.548  1.00  0.00     0.000 C 
BRANCH   5   6
ATOM      6  C   UNL     1      -8.175   2.318   7.679  1.00  0.00     0.006 C 
BRANCH   6   7
ATOM      7  C   UNL     1      -7.117   2.429   6.574  1.00  0.00     0.053 C 
BRANCH   7   8
ATOM      8  C   UNL     1      -5.749   2.534   7.171  1.00  0.00     0.041 C 
ATOM      9  O   UNL     1      -4.859   1.696   6.868  1.00  0.00    -0.550 OA
ATOM     10  O   UNL     1      -5.441   3.585   8.024  1.00  0.00    -0.550 OA
ENDBRANCH   7   8
ENDBRANCH   6   7
ENDBRANCH   5   6
ENDBRANCH   4   5
ENDBRANCH   3   4
ENDBRANCH   2   3
ENDBRANCH   1   2
BRANCH   1  11
ATOM     11  C   UNL     1      -9.570   0.369   4.157  1.00  0.00     0.000 C 
BRANCH  11  12
ATOM     12  C   UNL     1     -10.805   1.241   4.446  1.00  0.00    -0.000 C 
BRANCH  12  13
ATOM     13  C   UNL     1     -10.441   2.689   4.821  1.00  0.00    -0.000 C 
BRANCH  13  14
ATOM     14  C   UNL     1     -11.152   3.235   6.073  1.00  0.00    -0.000 C 
BRANCH  14  15
ATOM     15  C   UNL     1     -12.322   2.347   6.530  1.00  0.00    -0.000 C 
BRANCH  15  16
ATOM     16  C   UNL     1     -12.274   2.037   8.035  1.00  0.00    -0.000 C 
BRANCH  16  17
ATOM     17  C   UNL     1     -12.977   0.719   8.387  1.00  0.00    -0.003 C 
ATOM     18  C   UNL     1     -13.798   0.202   7.209  1.00  0.00     0.004 C 
ENDBRANCH  16  17
ENDBRANCH  15  16
ENDBRANCH  14  15
ENDBRANCH  13  14
ENDBRANCH  12  13
ENDBRANCH  11  12
ENDBRANCH   1  11
TORSDOF 14
ENDMDL
MODEL 7
REMARK VINA RESULT:    -3.194      1.294      2.837
REMARK INTER + INTRA:          -8.547
REMARK INTER:                  -6.256
REMARK INTRA:                  -2.291
REMARK UNBOUND:                -2.739
REMARK SMILES CCCCCCCCCCCCCCCC(=O)[O-]
REMARK SMILES IDX 9 1 10 2 11 3 12 4 13 5 14 6 15 7 16 8 17 9 18 10 8 11 7 12
REMARK SMILES IDX 6 13 5 14 4 15 3 16 2 17 1 18
REMARK H PARENT
REMARK Flexibility Score: inf
ROOT
ATOM      1  C   UNL     1      -1.806 -12.002   7.755  1.00  0.00     0.000 C 
ENDROOT
BRANCH   1   2
ATOM      2  C   UNL     1      -0.697 -12.689   8.571  1.00  0.00     0.000 C 
BRANCH   2   3
ATOM      3  C   UNL     1       0.639 -12.748   7.814  1.00  0.00     0.000 C 
BRANCH   3   4
ATOM      4  C   UNL     1       0.457 -12.742   6.286  1.00  0.00     0.000 C 
BRANCH   4   5
ATOM      5  C   UNL     1       1.371 -13.754   5.573  1.00  0.00     0.000 C 
BRANCH   5   6
ATOM      6  C   UNL     1       2.512 -14.319   6.438  1.00  0.00     0.006 C 
BRANCH   6   7
ATOM      7  C   UNL     1       3.897 -13.829   5.995  1.00  0.00     0.053 C 
BRANCH   7   8
ATOM      8  C   UNL     1       4.384 -12.748   6.907  1.00  0.00     0.041 C 
ATOM      9  O   UNL     1       4.155 -12.810   8.143  1.00  0.00    -0.550 OA
ATOM     10  O   UNL     1       5.135 -11.696   6.399  1.00  0.00    -0.550 OA
ENDBRANCH   7   8
ENDBRANCH   6   7
ENDBRANCH   5   6
ENDBRANCH   4   5
ENDBRANCH   3   4
ENDBRANCH   2   3
ENDBRANCH   1   2
BRANCH   1  11
ATOM     11  C   UNL     1      -2.849 -11.309   8.648  1.00  0.00     0.000 C 
BRANCH  11  12
ATOM     12  C   UNL     1      -3.067  -9.835   8.262  1.00  0.00    -0.000 C 
BRANCH  12  13
ATOM     13  C   UNL     1      -2.442  -9.474   6.901  1.00  0.00    -0.000 C 
BRANCH  13  14
ATOM     14  C   UNL     1      -1.374  -8.367   6.950  1.00  0.00    -0.000 C 
BRANCH  14  15
ATOM     15  C   UNL     1       0.022  -8.865   6.539  1.00  0.00    -0.000 C 
BRANCH  15  16
ATOM     16  C   UNL     1       0.938  -9.119   7.747  1.00  0.00    -0.000 C 
BRANCH  16  17
ATOM     17  C   UNL     1       0.318  -8.639   9.067  1.00  0.00    -0.003 C 
ATOM     18  C   UNL     1       0.619  -9.614  10.202  1.00  0.00     0.004 C 
ENDBRANCH  16  17
ENDBRANCH  15  16
ENDBRANCH  14  15
ENDBRANCH  13  14
ENDBRANCH  12  13
ENDBRANCH  11  12
ENDBRANCH   1  11
TORSDOF 14
ENDMDL
MODEL 8
REMARK VINA RESULT:    -3.168      2.849      5.318
REMARK INTER + INTRA:          -8.500
REMARK INTER:                  -5.978
REMARK INTRA:                  -2.522
REMARK UNBOUND:                -2.739
REMARK SMILES CCCCCCCCCCCCCCCC(=O)[O-]
REMARK SMILES IDX 9 1 10 2 11 3 12 4 13 5 14 6 15 7 16 8 17 9 18 10 8 11 7 12
REMARK SMILES IDX 6 13 5 14 4 15 3 16 2 17 1 18
REMARK H PARENT
REMARK Flexibility Score: inf
ROOT
ATOM      1  C   UNL     1      -0.082  -8.707   8.964  1.00  0.00     0.000 C 
ENDROOT
BRANCH   1   2
ATOM      2  C   UNL     1       0.848  -8.637   7.740  1.00  0.00     0.000 C 
BRANCH   2   3
ATOM      3  C   UNL     1       0.095  -8.848   6.416  1.00  0.00     0.000 C 
BRANCH   3   4
ATOM      4  C   UNL     1      -1.427  -8.679   6.565  1.00  0.00     0.000 C 
BRANCH   4   5
ATOM      5  C   UNL     1      -2.204  -9.975   6.270  1.00  0.00     0.000 C 
BRANCH   5   6
ATOM      6  C   UNL     1      -3.089 -10.477   7.426  1.00  0.00     0.006 C 
BRANCH   6   7
ATOM      7  C   UNL     1      -4.215 -11.407   6.955  1.00  0.00     0.053 C 
BRANCH   7   8
ATOM      8  C   UNL     1      -3.645 -12.637   6.323  1.00  0.00     0.041 C 
ATOM      9  O   UNL     1      -3.157 -13.550   7.040  1.00  0.00    -0.550 OA
ATOM     10  O   UNL     1      -3.698 -12.799   4.945  1.00  0.00    -0.550 OA
ENDBRANCH   7   8
ENDBRANCH   6   7
ENDBRANCH   5   6
ENDBRANCH   4   5
ENDBRANCH   3   4
ENDBRANCH   2   3
ENDBRANCH   1   2
BRANCH   1  11
ATOM     11  C   UNL     1       0.622  -9.279  10.205  1.00  0.00     0.000 C 
BRANCH  11  12
ATOM     12  C   UNL     1       0.918 -10.783  10.072  1.00  0.00    -0.000 C 
BRANCH  12  13
ATOM     13  C   UNL     1      -0.309 -11.597   9.616  1.00  0.00    -0.000 C 
BRANCH  13  14
ATOM     14  C   UNL     1      -0.074 -12.490   8.385  1.00  0.00    -0.000 C 
BRANCH  14  15
ATOM     15  C   UNL     1       1.265 -12.202   7.684  1.00  0.00    -0.000 C 
BRANCH  15  16
ATOM     16  C   UNL     1       1.350 -12.842   6.289  1.00  0.00    -0.000 C 
BRANCH  16  17
ATOM     17  C   UNL     1       0.049 -12.686   5.489  1.00  0.00    -0.003 C 
ATOM     18  C   UNL     1      -0.337 -13.996   4.808  1.00  0.00     0.004 C 
ENDBRANCH  16  17
ENDBRANCH  15  16
ENDBRANCH  14  15
ENDBRANCH  13  14
ENDBRANCH  12  13
ENDBRANCH  11  12
ENDBRANCH   1  11
TORSDOF 14
ENDMDL
MODEL 9
REMARK VINA RESULT:    -3.138     14.382     16.234
REMARK INTER + INTRA:          -8.446
REMARK INTER:                  -5.924
REMARK INTRA:                  -2.521
REMARK UNBOUND:                -2.739
REMARK SMILES CCCCCCCCCCCCCCCC(=O)[O-]
REMARK SMILES IDX 9 1 10 2 11 3 12 4 13 5 14 6 15 7 16 8 17 9 18 10 8 11 7 12
REMARK SMILES IDX 6 13 5 14 4 15 3 16 2 17 1 18
REMARK H PARENT
REMARK Flexibility Score: inf
ROOT
ATOM      1  C   UNL     1      -9.523   4.325   4.848  1.00  0.00     0.000 C 
ENDROOT
BRANCH   1   2
ATOM      2  C   UNL     1     -10.058   4.802   6.209  1.00  0.00     0.000 C 
BRANCH   2   3
ATOM      3  C   UNL     1     -10.779   3.685   6.982  1.00  0.00     0.000 C 
BRANCH   3   4
ATOM      4  C   UNL     1     -11.316   2.577   6.060  1.00  0.00     0.000 C 
BRANCH   4   5
ATOM      5  C   UNL     1     -11.459   1.222   6.776  1.00  0.00     0.000 C 
BRANCH   5   6
ATOM      6  C   UNL     1     -10.892   0.017   6.002  1.00  0.00     0.006 C 
BRANCH   6   7
ATOM      7  C   UNL     1     -10.117   0.426   4.743  1.00  0.00     0.053 C 
BRANCH   7   8
ATOM      8  C   UNL     1      -9.023  -0.554   4.462  1.00  0.00     0.041 C 
ATOM      9  O   UNL     1      -8.949  -1.626   5.118  1.00  0.00    -0.550 OA
ATOM     10  O   UNL     1      -8.114  -0.308   3.442  1.00  0.00    -0.550 OA
ENDBRANCH   7   8
ENDBRANCH   6   7
ENDBRANCH   5   6
ENDBRANCH   4   5
ENDBRANCH   3   4
ENDBRANCH   2   3
ENDBRANCH   1   2
BRANCH   1  11
ATOM     11  C   UNL     1      -8.293   5.125   4.387  1.00  0.00     0.000 C 
BRANCH  11  12
ATOM     12  C   UNL     1      -7.000   4.291   4.426  1.00  0.00    -0.000 C 
BRANCH  12  13
ATOM     13  C   UNL     1      -7.234   2.847   4.909  1.00  0.00    -0.000 C 
BRANCH  13  14
ATOM     14  C   UNL     1      -6.519   2.478   6.221  1.00  0.00    -0.000 C 
BRANCH  14  15
ATOM     15  C   UNL     1      -6.625   3.579   7.290  1.00  0.00    -0.000 C 
BRANCH  15  16
ATOM     16  C   UNL     1      -7.402   3.121   8.535  1.00  0.00    -0.000 C 
BRANCH  16  17
ATOM     17  C   UNL     1      -7.941   1.691   8.400  1.00  0.00    -0.003 C 
ATOM     18  C   UNL     1      -9.022   1.411   9.440  1.00  0.00     0.004 C 
ENDBRANCH  16  17
ENDBRANCH  15  16
ENDBRANCH  14  15
ENDBRANCH  13  14
ENDBRANCH  12  13
ENDBRANCH  11  12
ENDBRANCH   1  11
TORSDOF 14
ENDMDL
