MODEL 1
REMARK VINA RESULT:    -5.269      0.000      0.000
REMARK INTER + INTRA:          -8.097
REMARK INTER:                  -7.117
REMARK INTRA:                  -0.980
REMARK UNBOUND:                -0.980
REMARK SMILES CC(=O)CCC=C(C)CCC=C(C)C
REMARK SMILES IDX 7 1 6 2 8 3 9 4 10 5 11 6 13 7 12 8 14 9 5 10 4 11 2 12 3 13
REMARK SMILES IDX 1 14
REMARK H PARENT
REMARK Flexibility Score: inf
ROOT
ATOM      1  C   UNL     1      15.594 -32.533  22.094  1.00  0.00    -0.077 C 
ATOM      2  C   UNL     1      14.959 -33.611  21.578  1.00  0.00    -0.028 C 
ATOM      3  C   UNL     1      16.585 -31.729  21.287  1.00  0.00     0.039 C 
ENDROOT
BRANCH   1   4
ATOM      4  C   UNL     1      15.364 -32.161  23.543  1.00  0.00     0.034 C 
BRANCH   4   5
ATOM      5  C   UNL     1      13.870 -31.991  23.858  1.00  0.00     0.032 C 
BRANCH   5   6
ATOM      6  C   UNL     1      13.455 -30.539  23.862  1.00  0.00    -0.028 C 
ATOM      7  C   UNL     1      12.290 -30.689  21.649  1.00  0.00     0.039 C 
ATOM      8  C   UNL     1      12.722 -29.948  22.893  1.00  0.00    -0.080 C 
ATOM      9  C   UNL     1      12.343 -28.499  23.063  1.00  0.00     0.039 C 
ENDBRANCH   5   6
ENDBRANCH   4   5
ENDBRANCH   1   4
BRANCH   2  10
ATOM     10  C   UNL     1      15.094 -34.082  20.152  1.00  0.00     0.035 C 
BRANCH  10  11
ATOM     11  C   UNL     1      15.740 -35.474  20.101  1.00  0.00     0.079 C 
BRANCH  11  12
ATOM     12  C   UNL     1      17.015 -35.571  19.287  1.00  0.00     0.130 C 
ATOM     13  O   UNL     1      17.294 -36.654  18.797  1.00  0.00    -0.300 OA
ATOM     14  C   UNL     1      17.965 -34.427  19.042  1.00  0.00     0.087 C 
ENDBRANCH  11  12
ENDBRANCH  10  11
ENDBRANCH   2  10
TORSDOF 6
ENDMDL
MODEL 2
REMARK VINA RESULT:    -5.262      1.080      1.642
REMARK INTER + INTRA:          -8.088
REMARK INTER:                  -7.494
REMARK INTRA:                  -0.595
REMARK UNBOUND:                -0.980
REMARK SMILES CC(=O)CCC=C(C)CCC=C(C)C
REMARK SMILES IDX 7 1 6 2 8 3 9 4 10 5 11 6 13 7 12 8 14 9 5 10 4 11 2 12 3 13
REMARK SMILES IDX 1 14
REMARK H PARENT
REMARK Flexibility Score: inf
ROOT
ATOM      1  C   UNL     1      14.162 -31.836  21.559  1.00  0.00    -0.077 C 
ATOM      2  C   UNL     1      14.988 -32.852  21.220  1.00  0.00    -0.028 C 
ATOM      3  C   UNL     1      12.997 -31.429  20.689  1.00  0.00     0.039 C 
ENDROOT
BRANCH   1   4
ATOM      4  C   UNL     1      14.452 -31.030  22.808  1.00  0.00     0.034 C 
BRANCH   4   5
ATOM      5  C   UNL     1      13.163 -30.634  23.543  1.00  0.00     0.032 C 
BRANCH   5   6
ATOM      6  C   UNL     1      13.114 -29.154  23.840  1.00  0.00    -0.028 C 
ATOM      7  C   UNL     1      10.965 -28.802  22.603  1.00  0.00     0.039 C 
ATOM      8  C   UNL     1      12.120 -28.326  23.450  1.00  0.00    -0.080 C 
ATOM      9  C   UNL     1      12.188 -26.879  23.866  1.00  0.00     0.039 C 
ENDBRANCH   5   6
ENDBRANCH   4   5
ENDBRANCH   1   4
BRANCH   2  10
ATOM     10  C   UNL     1      14.807 -33.734  20.010  1.00  0.00     0.035 C 
BRANCH  10  11
ATOM     11  C   UNL     1      15.531 -35.074  20.204  1.00  0.00     0.079 C 
BRANCH  11  12
ATOM     12  C   UNL     1      16.768 -35.275  19.352  1.00  0.00     0.130 C 
ATOM     13  O   UNL     1      17.058 -36.418  19.033  1.00  0.00    -0.300 OA
ATOM     14  C   UNL     1      17.668 -34.165  18.872  1.00  0.00     0.087 C 
ENDBRANCH  11  12
ENDBRANCH  10  11
ENDBRANCH   2  10
TORSDOF 6
ENDMDL
MODEL 3
REMARK VINA RESULT:    -5.148      3.101      7.078
REMARK INTER + INTRA:          -7.933
REMARK INTER:                  -7.452
REMARK INTRA:                  -0.481
REMARK UNBOUND:                -0.980
REMARK SMILES CC(=O)CCC=C(C)CCC=C(C)C
REMARK SMILES IDX 7 1 6 2 8 3 9 4 10 5 11 6 13 7 12 8 14 9 5 10 4 11 2 12 3 13
REMARK SMILES IDX 1 14
REMARK H PARENT
REMARK Flexibility Score: inf
ROOT
ATOM      1  C   UNL     1      14.055 -31.676  21.619  1.00  0.00    -0.077 C 
ATOM      2  C   UNL     1      14.568 -30.776  22.489  1.00  0.00    -0.028 C 
ATOM      3  C   UNL     1      12.880 -31.347  20.730  1.00  0.00     0.039 C 
ENDROOT
BRANCH   1   4
ATOM      4  C   UNL     1      14.623 -33.079  21.583  1.00  0.00     0.034 C 
BRANCH   4   5
ATOM      5  C   UNL     1      14.646 -33.648  20.157  1.00  0.00     0.032 C 
BRANCH   5   6
ATOM      6  C   UNL     1      15.376 -34.969  20.087  1.00  0.00    -0.028 C 
ATOM      7  C   UNL     1      17.300 -34.032  18.786  1.00  0.00     0.039 C 
ATOM      8  C   UNL     1      16.580 -35.150  19.502  1.00  0.00    -0.080 C 
ATOM      9  C   UNL     1      17.205 -36.520  19.557  1.00  0.00     0.039 C 
ENDBRANCH   5   6
ENDBRANCH   4   5
ENDBRANCH   1   4
BRANCH   2  10
ATOM     10  C   UNL     1      14.100 -29.348  22.619  1.00  0.00     0.035 C 
BRANCH  10  11
ATOM     11  C   UNL     1      13.068 -29.217  23.747  1.00  0.00     0.079 C 
BRANCH  11  12
ATOM     12  C   UNL     1      11.806 -28.455  23.391  1.00  0.00     0.130 C 
ATOM     13  O   UNL     1      11.073 -28.937  22.542  1.00  0.00    -0.300 OA
ATOM     14  C   UNL     1      11.394 -27.144  24.009  1.00  0.00     0.087 C 
ENDBRANCH  11  12
ENDBRANCH  10  11
ENDBRANCH   2  10
TORSDOF 6
ENDMDL
MODEL 4
REMARK VINA RESULT:    -4.964      1.891      3.197
REMARK INTER + INTRA:          -7.686
REMARK INTER:                  -6.976
REMARK INTRA:                  -0.710
REMARK UNBOUND:                -0.980
REMARK SMILES CC(=O)CCC=C(C)CCC=C(C)C
REMARK SMILES IDX 7 1 6 2 8 3 9 4 10 5 11 6 13 7 12 8 14 9 5 10 4 11 2 12 3 13
REMARK SMILES IDX 1 14
REMARK H PARENT
REMARK Flexibility Score: inf
ROOT
ATOM      1  C   UNL     1      16.042 -34.592  19.492  1.00  0.00    -0.077 C 
ATOM      2  C   UNL     1      16.104 -35.896  19.847  1.00  0.00    -0.028 C 
ATOM      3  C   UNL     1      17.216 -33.879  18.865  1.00  0.00     0.039 C 
ENDROOT
BRANCH   1   4
ATOM      4  C   UNL     1      14.788 -33.800  19.797  1.00  0.00     0.034 C 
BRANCH   4   5
ATOM      5  C   UNL     1      14.744 -33.344  21.263  1.00  0.00     0.032 C 
BRANCH   5   6
ATOM      6  C   UNL     1      13.911 -32.097  21.442  1.00  0.00    -0.028 C 
ATOM      7  C   UNL     1      13.857 -32.285  23.939  1.00  0.00     0.039 C 
ATOM      8  C   UNL     1      13.530 -31.594  22.636  1.00  0.00    -0.080 C 
ATOM      9  C   UNL     1      12.741 -30.310  22.655  1.00  0.00     0.039 C 
ENDBRANCH   5   6
ENDBRANCH   4   5
ENDBRANCH   1   4
BRANCH   2  10
ATOM     10  C   UNL     1      17.287 -36.797  19.595  1.00  0.00     0.035 C 
BRANCH  10  11
ATOM     11  C   UNL     1      17.984 -37.157  20.914  1.00  0.00     0.079 C 
BRANCH  11  12
ATOM     12  C   UNL     1      18.438 -35.980  21.754  1.00  0.00     0.130 C 
ATOM     13  O   UNL     1      19.412 -35.352  21.371  1.00  0.00    -0.300 OA
ATOM     14  C   UNL     1      17.774 -35.532  23.031  1.00  0.00     0.087 C 
ENDBRANCH  11  12
ENDBRANCH  10  11
ENDBRANCH   2  10
TORSDOF 6
ENDMDL
MODEL 5
REMARK VINA RESULT:    -4.893      1.319      2.055
REMARK INTER + INTRA:          -7.589
REMARK INTER:                  -6.478
REMARK INTRA:                  -1.112
REMARK UNBOUND:                -0.980
REMARK SMILES CC(=O)CCC=C(C)CCC=C(C)C
REMARK SMILES IDX 7 1 6 2 8 3 9 4 10 5 11 6 13 7 12 8 14 9 5 10 4 11 2 12 3 13
REMARK SMILES IDX 1 14
REMARK H PARENT
REMARK Flexibility Score: inf
ROOT
ATOM      1  C   UNL     1      15.568 -32.636  22.319  1.00  0.00    -0.077 C 
ATOM      2  C   UNL     1      16.648 -31.851  22.102  1.00  0.00    -0.028 C 
ATOM      3  C   UNL     1      14.792 -33.259  21.184  1.00  0.00     0.039 C 
ENDROOT
BRANCH   1   4
ATOM      4  C   UNL     1      15.073 -32.840  23.736  1.00  0.00     0.034 C 
BRANCH   4   5
ATOM      5  C   UNL     1      13.671 -32.249  23.940  1.00  0.00     0.032 C 
BRANCH   5   6
ATOM      6  C   UNL     1      13.680 -30.739  23.877  1.00  0.00    -0.028 C 
ATOM      7  C   UNL     1      12.244 -30.645  21.827  1.00  0.00     0.039 C 
ATOM      8  C   UNL     1      13.022 -30.006  22.953  1.00  0.00    -0.080 C 
ATOM      9  C   UNL     1      13.086 -28.503  23.051  1.00  0.00     0.039 C 
ENDBRANCH   5   6
ENDBRANCH   4   5
ENDBRANCH   1   4
BRANCH   2  10
ATOM     10  C   UNL     1      17.246 -31.574  20.745  1.00  0.00     0.035 C 
BRANCH  10  11
ATOM     11  C   UNL     1      18.541 -32.374  20.550  1.00  0.00     0.079 C 
BRANCH  11  12
ATOM     12  C   UNL     1      18.357 -33.844  20.229  1.00  0.00     0.130 C 
ATOM     13  O   UNL     1      18.707 -34.658  21.069  1.00  0.00    -0.300 OA
ATOM     14  C   UNL     1      17.774 -34.373  18.943  1.00  0.00     0.087 C 
ENDBRANCH  11  12
ENDBRANCH  10  11
ENDBRANCH   2  10
TORSDOF 6
ENDMDL
MODEL 6
REMARK VINA RESULT:    -4.883      4.212      6.406
REMARK INTER + INTRA:          -7.576
REMARK INTER:                  -6.612
REMARK INTRA:                  -0.964
REMARK UNBOUND:                -0.980
REMARK SMILES CC(=O)CCC=C(C)CCC=C(C)C
REMARK SMILES IDX 7 1 6 2 8 3 9 4 10 5 11 6 13 7 12 8 14 9 5 10 4 11 2 12 3 13
REMARK SMILES IDX 1 14
REMARK H PARENT
REMARK Flexibility Score: inf
ROOT
ATOM      1  C   UNL     1      18.823 -37.011  21.984  1.00  0.00    -0.077 C 
ATOM      2  C   UNL     1      18.116 -37.379  20.891  1.00  0.00    -0.028 C 
ATOM      3  C   UNL     1      19.370 -35.613  22.148  1.00  0.00     0.039 C 
ENDROOT
BRANCH   1   4
ATOM      4  C   UNL     1      19.141 -38.045  23.043  1.00  0.00     0.034 C 
BRANCH   4   5
ATOM      5  C   UNL     1      19.503 -37.392  24.386  1.00  0.00     0.032 C 
BRANCH   5   6
ATOM      6  C   UNL     1      18.561 -37.812  25.490  1.00  0.00    -0.028 C 
ATOM      7  C   UNL     1      17.296 -35.650  25.466  1.00  0.00     0.039 C 
ATOM      8  C   UNL     1      17.549 -37.053  25.964  1.00  0.00    -0.080 C 
ATOM      9  C   UNL     1      16.661 -37.631  27.037  1.00  0.00     0.039 C 
ENDBRANCH   5   6
ENDBRANCH   4   5
ENDBRANCH   1   4
BRANCH   2  10
ATOM     10  C   UNL     1      17.726 -36.447  19.770  1.00  0.00     0.035 C 
BRANCH  10  11
ATOM     11  C   UNL     1      16.212 -36.200  19.774  1.00  0.00     0.079 C 
BRANCH  11  12
ATOM     12  C   UNL     1      15.778 -34.816  20.216  1.00  0.00     0.130 C 
ATOM     13  O   UNL     1      15.330 -34.063  19.366  1.00  0.00    -0.300 OA
ATOM     14  C   UNL     1      15.863 -34.303  21.631  1.00  0.00     0.087 C 
ENDBRANCH  11  12
ENDBRANCH  10  11
ENDBRANCH   2  10
TORSDOF 6
ENDMDL
MODEL 7
REMARK VINA RESULT:    -4.860      1.710      2.553
REMARK INTER + INTRA:          -7.544
REMARK INTER:                  -7.055
REMARK INTRA:                  -0.490
REMARK UNBOUND:                -0.980
REMARK SMILES CC(=O)CCC=C(C)CCC=C(C)C
REMARK SMILES IDX 7 1 6 2 8 3 9 4 10 5 11 6 13 7 12 8 14 9 5 10 4 11 2 12 3 13
REMARK SMILES IDX 1 14
REMARK H PARENT
REMARK Flexibility Score: inf
ROOT
ATOM      1  C   UNL     1      17.967 -30.977  21.063  1.00  0.00    -0.077 C 
ATOM      2  C   UNL     1      17.335 -32.079  20.597  1.00  0.00    -0.028 C 
ATOM      3  C   UNL     1      19.465 -30.814  20.966  1.00  0.00     0.039 C 
ENDROOT
BRANCH   1   4
ATOM      4  C   UNL     1      17.164 -29.905  21.769  1.00  0.00     0.034 C 
BRANCH   4   5
ATOM      5  C   UNL     1      16.250 -30.498  22.851  1.00  0.00     0.032 C 
BRANCH   5   6
ATOM      6  C   UNL     1      14.995 -29.678  23.042  1.00  0.00    -0.028 C 
ATOM      7  C   UNL     1      13.626 -31.637  23.793  1.00  0.00     0.039 C 
ATOM      8  C   UNL     1      13.820 -30.169  23.491  1.00  0.00    -0.080 C 
ATOM      9  C   UNL     1      12.668 -29.215  23.677  1.00  0.00     0.039 C 
ENDBRANCH   5   6
ENDBRANCH   4   5
ENDBRANCH   1   4
BRANCH   2  10
ATOM     10  C   UNL     1      18.015 -33.213  19.871  1.00  0.00     0.035 C 
BRANCH  10  11
ATOM     11  C   UNL     1      17.016 -33.959  18.977  1.00  0.00     0.079 C 
BRANCH  11  12
ATOM     12  C   UNL     1      16.355 -35.169  19.608  1.00  0.00     0.130 C 
ATOM     13  O   UNL     1      15.292 -34.999  20.185  1.00  0.00    -0.300 OA
ATOM     14  C   UNL     1      16.917 -36.567  19.574  1.00  0.00     0.087 C 
ENDBRANCH  11  12
ENDBRANCH  10  11
ENDBRANCH   2  10
TORSDOF 6
ENDMDL
MODEL 8
REMARK VINA RESULT:    -4.832      2.845      4.899
REMARK INTER + INTRA:          -7.507
REMARK INTER:                  -6.183
REMARK INTRA:                  -1.324
REMARK UNBOUND:                -0.980
REMARK SMILES CC(=O)CCC=C(C)CCC=C(C)C
REMARK SMILES IDX 7 1 6 2 8 3 9 4 10 5 11 6 13 7 12 8 14 9 5 10 4 11 2 12 3 13
REMARK SMILES IDX 1 14
REMARK H PARENT
REMARK Flexibility Score: inf
ROOT
ATOM      1  C   UNL     1      17.753 -33.847  20.345  1.00  0.00    -0.077 C 
ATOM      2  C   UNL     1      17.898 -32.545  20.009  1.00  0.00    -0.028 C 
ATOM      3  C   UNL     1      18.554 -34.480  21.458  1.00  0.00     0.039 C 
ENDROOT
BRANCH   1   4
ATOM      4  C   UNL     1      16.816 -34.721  19.537  1.00  0.00     0.034 C 
BRANCH   4   5
ATOM      5  C   UNL     1      15.462 -34.905  20.239  1.00  0.00     0.032 C 
BRANCH   5   6
ATOM      6  C   UNL     1      14.610 -33.660  20.157  1.00  0.00    -0.028 C 
ATOM      7  C   UNL     1      14.819 -33.150  22.600  1.00  0.00     0.039 C 
ATOM      8  C   UNL     1      14.337 -32.848  21.201  1.00  0.00    -0.080 C 
ATOM      9  C   UNL     1      13.511 -31.612  20.952  1.00  0.00     0.039 C 
ENDBRANCH   5   6
ENDBRANCH   4   5
ENDBRANCH   1   4
BRANCH   2  10
ATOM     10  C   UNL     1      18.790 -31.569  20.735  1.00  0.00     0.035 C 
BRANCH  10  11
ATOM     11  C   UNL     1      18.042 -30.259  21.017  1.00  0.00     0.079 C 
BRANCH  11  12
ATOM     12  C   UNL     1      17.204 -30.245  22.280  1.00  0.00     0.130 C 
ATOM     13  O   UNL     1      16.163 -29.607  22.264  1.00  0.00    -0.300 OA
ATOM     14  C   UNL     1      17.566 -30.962  23.556  1.00  0.00     0.087 C 
ENDBRANCH  11  12
ENDBRANCH  10  11
ENDBRANCH   2  10
TORSDOF 6
ENDMDL
MODEL 9
REMARK VINA RESULT:    -4.823      3.007      5.816
REMARK INTER + INTRA:          -7.495
REMARK INTER:                  -6.010
REMARK INTRA:                  -1.485
REMARK UNBOUND:                -0.980
REMARK SMILES CC(=O)CCC=C(C)CCC=C(C)C
REMARK SMILES IDX 7 1 6 2 8 3 9 4 10 5 11 6 13 7 12 8 14 9 5 10 4 11 2 12 3 13
REMARK SMILES IDX 1 14
REMARK H PARENT
REMARK Flexibility Score: inf
ROOT
ATOM      1  C   UNL     1      16.516 -35.105  19.520  1.00  0.00    -0.077 C 
ATOM      2  C   UNL     1      15.362 -34.939  20.206  1.00  0.00    -0.028 C 
ATOM      3  C   UNL     1      17.142 -33.984  18.726  1.00  0.00     0.039 C 
ENDROOT
BRANCH   1   4
ATOM      4  C   UNL     1      17.165 -36.473  19.484  1.00  0.00     0.034 C 
BRANCH   4   5
ATOM      5  C   UNL     1      17.776 -36.849  20.842  1.00  0.00     0.032 C 
BRANCH   5   6
ATOM      6  C   UNL     1      18.821 -35.853  21.287  1.00  0.00    -0.028 C 
ATOM      7  C   UNL     1      17.500 -35.096  23.275  1.00  0.00     0.039 C 
ATOM      8  C   UNL     1      18.724 -35.082  22.392  1.00  0.00    -0.080 C 
ATOM      9  C   UNL     1      19.875 -34.169  22.732  1.00  0.00     0.039 C 
ENDBRANCH   5   6
ENDBRANCH   4   5
ENDBRANCH   1   4
BRANCH   2  10
ATOM     10  C   UNL     1      14.620 -33.631  20.328  1.00  0.00     0.035 C 
BRANCH  10  11
ATOM     11  C   UNL     1      14.972 -32.930  21.647  1.00  0.00     0.079 C 
BRANCH  11  12
ATOM     12  C   UNL     1      15.824 -31.682  21.515  1.00  0.00     0.130 C 
ATOM     13  O   UNL     1      15.249 -30.616  21.359  1.00  0.00    -0.300 OA
ATOM     14  C   UNL     1      17.330 -31.665  21.560  1.00  0.00     0.087 C 
ENDBRANCH  11  12
ENDBRANCH  10  11
ENDBRANCH   2  10
TORSDOF 6
ENDMDL
