MODEL 1
REMARK VINA RESULT:    -3.333      0.000      0.000
REMARK INTER + INTRA:          -3.550
REMARK INTER:                  -3.528
REMARK INTRA:                  -0.022
REMARK UNBOUND:                -0.022
REMARK SMILES O=C([O-])c1cccnc1
REMARK SMILES IDX 4 1 5 2 9 3 6 4 8 5 7 6 2 7 1 8 3 9
REMARK H PARENT
REMARK Flexibility Score: inf
ROOT
ATOM      1  C   UNL     1      34.695  40.522  38.254  1.00  0.00     0.016 A 
ATOM      2  C   UNL     1      35.745  40.084  39.076  1.00  0.00     0.013 A 
ATOM      3  C   UNL     1      33.433  39.917  38.403  1.00  0.00     0.120 A 
ATOM      4  C   UNL     1      35.528  39.073  40.014  1.00  0.00     0.021 A 
ATOM      5  N   UNL     1      33.248  38.934  39.325  1.00  0.00    -0.264 NA
ATOM      6  C   UNL     1      34.259  38.503  40.125  1.00  0.00     0.111 A 
ENDROOT
BRANCH   1   7
ATOM      7  C   UNL     1      34.913  41.592  37.258  1.00  0.00     0.073 C 
ATOM      8  O   UNL     1      36.044  41.748  36.724  1.00  0.00    -0.545 OA
ATOM      9  O   UNL     1      33.875  42.442  36.898  1.00  0.00    -0.545 OA
ENDBRANCH   1   7
TORSDOF 1
ENDMDL
MODEL 2
REMARK VINA RESULT:    -3.168      8.311      9.701
REMARK INTER + INTRA:          -3.375
REMARK INTER:                  -3.355
REMARK INTRA:                  -0.021
REMARK UNBOUND:                -0.022
REMARK SMILES O=C([O-])c1cccnc1
REMARK SMILES IDX 4 1 5 2 9 3 6 4 8 5 7 6 2 7 1 8 3 9
REMARK H PARENT
REMARK Flexibility Score: inf
ROOT
ATOM      1  C   UNL     1      33.602  48.947  37.754  1.00  0.00     0.016 A 
ATOM      2  C   UNL     1      32.874  49.818  38.580  1.00  0.00     0.013 A 
ATOM      3  C   UNL     1      33.770  49.293  36.401  1.00  0.00     0.120 A 
ATOM      4  C   UNL     1      32.338  50.997  38.057  1.00  0.00     0.021 A 
ATOM      5  N   UNL     1      33.237  50.447  35.917  1.00  0.00    -0.264 NA
ATOM      6  C   UNL     1      32.531  51.297  36.709  1.00  0.00     0.111 A 
ENDROOT
BRANCH   1   7
ATOM      7  C   UNL     1      34.175  47.697  38.297  1.00  0.00     0.073 C 
ATOM      8  O   UNL     1      34.676  47.672  39.454  1.00  0.00    -0.545 OA
ATOM      9  O   UNL     1      34.170  46.532  37.539  1.00  0.00    -0.545 OA
ENDBRANCH   1   7
TORSDOF 1
ENDMDL
MODEL 3
REMARK VINA RESULT:    -3.160      3.199      3.861
REMARK INTER + INTRA:          -3.367
REMARK INTER:                  -3.346
REMARK INTRA:                  -0.021
REMARK UNBOUND:                -0.022
REMARK SMILES O=C([O-])c1cccnc1
REMARK SMILES IDX 4 1 5 2 9 3 6 4 8 5 7 6 2 7 1 8 3 9
REMARK H PARENT
REMARK Flexibility Score: inf
ROOT
ATOM      1  C   UNL     1      33.490  38.748  39.504  1.00  0.00     0.016 A 
ATOM      2  C   UNL     1      34.758  38.578  40.082  1.00  0.00     0.013 A 
ATOM      3  C   UNL     1      33.323  39.763  38.545  1.00  0.00     0.120 A 
ATOM      4  C   UNL     1      35.818  39.404  39.703  1.00  0.00     0.021 A 
ATOM      5  N   UNL     1      34.373  40.554  38.194  1.00  0.00    -0.264 NA
ATOM      6  C   UNL     1      35.604  40.398  38.747  1.00  0.00     0.111 A 
ENDROOT
BRANCH   1   7
ATOM      7  C   UNL     1      32.360  37.879  39.897  1.00  0.00     0.073 C 
ATOM      8  O   UNL     1      32.538  36.645  40.087  1.00  0.00    -0.545 OA
ATOM      9  O   UNL     1      31.087  38.410  40.063  1.00  0.00    -0.545 OA
ENDBRANCH   1   7
TORSDOF 1
ENDMDL
MODEL 4
REMARK VINA RESULT:    -3.100      3.553      4.209
REMARK INTER + INTRA:          -3.303
REMARK INTER:                  -3.287
REMARK INTRA:                  -0.017
REMARK UNBOUND:                -0.022
REMARK SMILES O=C([O-])c1cccnc1
REMARK SMILES IDX 4 1 5 2 9 3 6 4 8 5 7 6 2 7 1 8 3 9
REMARK H PARENT
REMARK Flexibility Score: inf
ROOT
ATOM      1  C   UNL     1      34.253  37.805  39.256  1.00  0.00     0.016 A 
ATOM      2  C   UNL     1      35.151  38.447  40.124  1.00  0.00     0.013 A 
ATOM      3  C   UNL     1      33.959  38.418  38.025  1.00  0.00     0.120 A 
ATOM      4  C   UNL     1      35.730  39.664  39.758  1.00  0.00     0.021 A 
ATOM      5  N   UNL     1      34.537  39.604  37.694  1.00  0.00    -0.264 NA
ATOM      6  C   UNL     1      35.407  40.234  38.527  1.00  0.00     0.111 A 
ENDROOT
BRANCH   1   7
ATOM      7  C   UNL     1      33.635  36.515  39.633  1.00  0.00     0.073 C 
ATOM      8  O   UNL     1      34.320  35.457  39.649  1.00  0.00    -0.545 OA
ATOM      9  O   UNL     1      32.289  36.452  39.972  1.00  0.00    -0.545 OA
ENDBRANCH   1   7
TORSDOF 1
ENDMDL
MODEL 5
REMARK VINA RESULT:    -3.094      2.494      3.731
REMARK INTER + INTRA:          -3.297
REMARK INTER:                  -3.280
REMARK INTRA:                  -0.017
REMARK UNBOUND:                -0.022
REMARK SMILES O=C([O-])c1cccnc1
REMARK SMILES IDX 4 1 5 2 9 3 6 4 8 5 7 6 2 7 1 8 3 9
REMARK H PARENT
REMARK Flexibility Score: inf
ROOT
ATOM      1  C   UNL     1      34.941  40.348  37.926  1.00  0.00     0.016 A 
ATOM      2  C   UNL     1      35.613  41.499  37.484  1.00  0.00     0.013 A 
ATOM      3  C   UNL     1      34.117  39.664  37.013  1.00  0.00     0.120 A 
ATOM      4  C   UNL     1      35.458  41.941  36.169  1.00  0.00     0.021 A 
ATOM      5  N   UNL     1      33.983  40.117  35.737  1.00  0.00    -0.264 NA
ATOM      6  C   UNL     1      34.630  41.229  35.301  1.00  0.00     0.111 A 
ENDROOT
BRANCH   1   7
ATOM      7  C   UNL     1      35.098  39.871  39.316  1.00  0.00     0.073 C 
ATOM      8  O   UNL     1      34.132  39.926  40.125  1.00  0.00    -0.545 OA
ATOM      9  O   UNL     1      36.312  39.355  39.751  1.00  0.00    -0.545 OA
ENDBRANCH   1   7
TORSDOF 1
ENDMDL
MODEL 6
REMARK VINA RESULT:    -3.054      8.425      9.612
REMARK INTER + INTRA:          -3.254
REMARK INTER:                  -3.231
REMARK INTRA:                  -0.023
REMARK UNBOUND:                -0.022
REMARK SMILES O=C([O-])c1cccnc1
REMARK SMILES IDX 4 1 5 2 9 3 6 4 8 5 7 6 2 7 1 8 3 9
REMARK H PARENT
REMARK Flexibility Score: inf
ROOT
ATOM      1  C   UNL     1      33.328  49.855  37.265  1.00  0.00     0.016 A 
ATOM      2  C   UNL     1      33.101  49.195  38.483  1.00  0.00     0.013 A 
ATOM      3  C   UNL     1      33.997  49.159  36.242  1.00  0.00     0.120 A 
ATOM      4  C   UNL     1      33.533  47.878  38.659  1.00  0.00     0.021 A 
ATOM      5  N   UNL     1      34.409  47.877  36.440  1.00  0.00    -0.264 NA
ATOM      6  C   UNL     1      34.193  47.230  37.615  1.00  0.00     0.111 A 
ENDROOT
BRANCH   1   7
ATOM      7  C   UNL     1      32.874  51.248  37.068  1.00  0.00     0.073 C 
ATOM      8  O   UNL     1      32.576  51.970  38.057  1.00  0.00    -0.545 OA
ATOM      9  O   UNL     1      32.769  51.780  35.789  1.00  0.00    -0.545 OA
ENDBRANCH   1   7
TORSDOF 1
ENDMDL
MODEL 7
REMARK VINA RESULT:    -3.000      2.189      3.021
REMARK INTER + INTRA:          -3.198
REMARK INTER:                  -3.178
REMARK INTRA:                  -0.020
REMARK UNBOUND:                -0.022
REMARK SMILES O=C([O-])c1cccnc1
REMARK SMILES IDX 4 1 5 2 9 3 6 4 8 5 7 6 2 7 1 8 3 9
REMARK H PARENT
REMARK Flexibility Score: inf
ROOT
ATOM      1  C   UNL     1      33.290  39.722  38.864  1.00  0.00     0.016 A 
ATOM      2  C   UNL     1      34.280  40.519  38.267  1.00  0.00     0.013 A 
ATOM      3  C   UNL     1      33.687  38.758  39.807  1.00  0.00     0.120 A 
ATOM      4  C   UNL     1      35.622  40.347  38.612  1.00  0.00     0.021 A 
ATOM      5  N   UNL     1      35.002  38.610  40.125  1.00  0.00    -0.264 NA
ATOM      6  C   UNL     1      35.967  39.376  39.553  1.00  0.00     0.111 A 
ENDROOT
BRANCH   1   7
ATOM      7  C   UNL     1      31.866  39.897  38.506  1.00  0.00     0.073 C 
ATOM      8  O   UNL     1      30.975  39.872  39.397  1.00  0.00    -0.545 OA
ATOM      9  O   UNL     1      31.491  40.090  37.183  1.00  0.00    -0.545 OA
ENDBRANCH   1   7
TORSDOF 1
ENDMDL
MODEL 8
REMARK VINA RESULT:    -2.997      2.208      2.973
REMARK INTER + INTRA:          -3.194
REMARK INTER:                  -3.174
REMARK INTRA:                  -0.020
REMARK UNBOUND:                -0.022
REMARK SMILES O=C([O-])c1cccnc1
REMARK SMILES IDX 4 1 5 2 9 3 6 4 8 5 7 6 2 7 1 8 3 9
REMARK H PARENT
REMARK Flexibility Score: inf
ROOT
ATOM      1  C   UNL     1      34.113  38.819  39.499  1.00  0.00     0.016 A 
ATOM      2  C   UNL     1      32.857  39.405  39.722  1.00  0.00     0.013 A 
ATOM      3  C   UNL     1      34.206  37.416  39.501  1.00  0.00     0.120 A 
ATOM      4  C   UNL     1      31.736  38.600  39.937  1.00  0.00     0.021 A 
ATOM      5  N   UNL     1      33.099  36.655  39.714  1.00  0.00    -0.264 NA
ATOM      6  C   UNL     1      31.878  37.212  39.930  1.00  0.00     0.111 A 
ENDROOT
BRANCH   1   7
ATOM      7  C   UNL     1      35.307  39.662  39.269  1.00  0.00     0.073 C 
ATOM      8  O   UNL     1      36.417  39.350  39.777  1.00  0.00    -0.545 OA
ATOM      9  O   UNL     1      35.219  40.809  38.491  1.00  0.00    -0.545 OA
ENDBRANCH   1   7
TORSDOF 1
ENDMDL
MODEL 9
REMARK VINA RESULT:    -2.973     19.069     20.170
REMARK INTER + INTRA:          -3.169
REMARK INTER:                  -3.151
REMARK INTRA:                  -0.018
REMARK UNBOUND:                -0.022
REMARK SMILES O=C([O-])c1cccnc1
REMARK SMILES IDX 4 1 5 2 9 3 6 4 8 5 7 6 2 7 1 8 3 9
REMARK H PARENT
REMARK Flexibility Score: inf
ROOT
ATOM      1  C   UNL     1      44.207  40.461  21.161  1.00  0.00     0.016 A 
ATOM      2  C   UNL     1      43.508  39.368  20.623  1.00  0.00     0.013 A 
ATOM      3  C   UNL     1      45.607  40.488  21.033  1.00  0.00     0.120 A 
ATOM      4  C   UNL     1      44.201  38.342  19.977  1.00  0.00     0.021 A 
ATOM      5  N   UNL     1      46.257  39.475  20.399  1.00  0.00    -0.264 NA
ATOM      6  C   UNL     1      45.591  38.413  19.875  1.00  0.00     0.111 A 
ENDROOT
BRANCH   1   7
ATOM      7  C   UNL     1      43.483  41.553  21.846  1.00  0.00     0.073 C 
ATOM      8  O   UNL     1      42.780  41.316  22.865  1.00  0.00    -0.545 OA
ATOM      9  O   UNL     1      43.567  42.857  21.375  1.00  0.00    -0.545 OA
ENDBRANCH   1   7
TORSDOF 1
ENDMDL
