MODEL 1
REMARK VINA RESULT:    -5.188      0.000      0.000
REMARK INTER + INTRA:          -5.188
REMARK INTER:                  -5.188
REMARK INTRA:                   0.000
REMARK UNBOUND:                 0.000
REMARK SMILES CC1=CC(=O)[C@H]2C[C@@H]1C2(C)C
REMARK SMILES IDX 1 1 2 2 3 3 4 4 5 5 6 6 7 7 8 8 9 9 10 10 11 11
REMARK H PARENT
REMARK Flexibility Score: inf
ROOT
ATOM      1  C   UNL     1     255.438 260.436 249.764  1.00  0.00     0.040 C 
ATOM      2  C   UNL     1     254.947 260.098 248.392  1.00  0.00    -0.066 C 
ATOM      3  C   UNL     1     255.581 260.558 247.279  1.00  0.00     0.047 C 
ATOM      4  C   UNL     1     254.973 260.175 245.964  1.00  0.00     0.159 C 
ATOM      5  O   UNL     1     255.443 260.571 244.865  1.00  0.00    -0.295 OA
ATOM      6  C   UNL     1     253.741 259.273 246.049  1.00  0.00     0.067 C 
ATOM      7  C   UNL     1     254.137 258.191 247.078  1.00  0.00     0.021 C 
ATOM      8  C   UNL     1     253.712 259.198 248.171  1.00  0.00     0.022 C 
ATOM      9  C   UNL     1     252.774 259.857 247.117  1.00  0.00    -0.019 C 
ATOM     10  C   UNL     1     252.576 261.399 247.171  1.00  0.00     0.012 C 
ATOM     11  C   UNL     1     251.375 259.190 247.074  1.00  0.00     0.012 C 
ENDROOT
TORSDOF 0
ENDMDL
MODEL 2
REMARK VINA RESULT:    -5.143      1.718      3.331
REMARK INTER + INTRA:          -5.143
REMARK INTER:                  -5.143
REMARK INTRA:                   0.000
REMARK UNBOUND:                 0.000
REMARK SMILES CC1=CC(=O)[C@H]2C[C@@H]1C2(C)C
REMARK SMILES IDX 1 1 2 2 3 3 4 4 5 5 6 6 7 7 8 8 9 9 10 10 11 11
REMARK H PARENT
REMARK Flexibility Score: inf
ROOT
ATOM      1  C   UNL     1     254.336 256.782 247.638  1.00  0.00     0.040 C 
ATOM      2  C   UNL     1     254.009 258.235 247.509  1.00  0.00    -0.066 C 
ATOM      3  C   UNL     1     252.726 258.660 247.342  1.00  0.00     0.047 C 
ATOM      4  C   UNL     1     252.531 260.138 247.193  1.00  0.00     0.159 C 
ATOM      5  O   UNL     1     251.399 260.651 246.994  1.00  0.00    -0.295 OA
ATOM      6  C   UNL     1     253.803 260.981 247.299  1.00  0.00     0.067 C 
ATOM      7  C   UNL     1     254.538 260.403 248.529  1.00  0.00     0.021 C 
ATOM      8  C   UNL     1     255.102 259.324 247.576  1.00  0.00     0.022 C 
ATOM      9  C   UNL     1     254.901 260.332 246.408  1.00  0.00    -0.019 C 
ATOM     10  C   UNL     1     254.488 259.772 245.016  1.00  0.00     0.012 C 
ATOM     11  C   UNL     1     256.127 261.260 246.213  1.00  0.00     0.012 C 
ENDROOT
TORSDOF 0
ENDMDL
MODEL 3
REMARK VINA RESULT:    -5.136      3.762      5.395
REMARK INTER + INTRA:          -5.136
REMARK INTER:                  -5.136
REMARK INTRA:                   0.000
REMARK UNBOUND:                 0.000
REMARK SMILES CC1=CC(=O)[C@H]2C[C@@H]1C2(C)C
REMARK SMILES IDX 1 1 2 2 3 3 4 4 5 5 6 6 7 7 8 8 9 9 10 10 11 11
REMARK H PARENT
REMARK Flexibility Score: inf
ROOT
ATOM      1  C   UNL     1     256.047 260.766 247.901  1.00  0.00     0.040 C 
ATOM      2  C   UNL     1     257.215 261.100 247.029  1.00  0.00    -0.066 C 
ATOM      3  C   UNL     1     258.458 260.610 247.289  1.00  0.00     0.047 C 
ATOM      4  C   UNL     1     259.551 261.044 246.360  1.00  0.00     0.159 C 
ATOM      5  O   UNL     1     260.748 260.691 246.519  1.00  0.00    -0.295 OA
ATOM      6  C   UNL     1     259.110 261.947 245.208  1.00  0.00     0.067 C 
ATOM      7  C   UNL     1     257.835 261.266 244.661  1.00  0.00     0.021 C 
ATOM      8  C   UNL     1     257.067 262.001 245.783  1.00  0.00     0.022 C 
ATOM      9  C   UNL     1     258.199 263.070 245.780  1.00  0.00    -0.019 C 
ATOM     10  C   UNL     1     258.595 263.725 247.134  1.00  0.00     0.012 C 
ATOM     11  C   UNL     1     257.939 264.200 244.752  1.00  0.00     0.012 C 
ENDROOT
TORSDOF 0
ENDMDL
MODEL 4
REMARK VINA RESULT:    -4.928      1.739      3.471
REMARK INTER + INTRA:          -4.928
REMARK INTER:                  -4.928
REMARK INTRA:                   0.000
REMARK UNBOUND:                 0.000
REMARK SMILES CC1=CC(=O)[C@H]2C[C@@H]1C2(C)C
REMARK SMILES IDX 1 1 2 2 3 3 4 4 5 5 6 6 7 7 8 8 9 9 10 10 11 11
REMARK H PARENT
REMARK Flexibility Score: inf
ROOT
ATOM      1  C   UNL     1     251.462 261.801 246.978  1.00  0.00     0.040 C 
ATOM      2  C   UNL     1     252.510 260.734 246.985  1.00  0.00    -0.066 C 
ATOM      3  C   UNL     1     252.243 259.483 247.452  1.00  0.00     0.047 C 
ATOM      4  C   UNL     1     253.384 258.512 247.435  1.00  0.00     0.159 C 
ATOM      5  O   UNL     1     253.276 257.338 247.876  1.00  0.00    -0.295 OA
ATOM      6  C   UNL     1     254.691 259.047 246.848  1.00  0.00     0.067 C 
ATOM      7  C   UNL     1     254.255 259.771 245.555  1.00  0.00     0.021 C 
ATOM      8  C   UNL     1     253.935 260.991 246.450  1.00  0.00     0.022 C 
ATOM      9  C   UNL     1     254.977 260.444 247.469  1.00  0.00    -0.019 C 
ATOM     10  C   UNL     1     254.700 260.650 248.985  1.00  0.00     0.012 C 
ATOM     11  C   UNL     1     256.414 260.941 247.166  1.00  0.00     0.012 C 
ENDROOT
TORSDOF 0
ENDMDL
MODEL 5
REMARK VINA RESULT:    -4.830      1.153      2.801
REMARK INTER + INTRA:          -4.830
REMARK INTER:                  -4.830
REMARK INTRA:                   0.000
REMARK UNBOUND:                 0.000
REMARK SMILES CC1=CC(=O)[C@H]2C[C@@H]1C2(C)C
REMARK SMILES IDX 1 1 2 2 3 3 4 4 5 5 6 6 7 7 8 8 9 9 10 10 11 11
REMARK H PARENT
REMARK Flexibility Score: inf
ROOT
ATOM      1  C   UNL     1     251.901 261.416 247.233  1.00  0.00     0.040 C 
ATOM      2  C   UNL     1     253.323 260.959 247.174  1.00  0.00    -0.066 C 
ATOM      3  C   UNL     1     254.110 261.225 246.095  1.00  0.00     0.047 C 
ATOM      4  C   UNL     1     255.507 260.686 246.142  1.00  0.00     0.159 C 
ATOM      5  O   UNL     1     256.317 260.831 245.190  1.00  0.00    -0.295 OA
ATOM      6  C   UNL     1     255.879 259.945 247.427  1.00  0.00     0.067 C 
ATOM      7  C   UNL     1     255.348 260.857 248.556  1.00  0.00     0.021 C 
ATOM      8  C   UNL     1     253.975 260.180 248.337  1.00  0.00     0.022 C 
ATOM      9  C   UNL     1     254.738 258.947 247.772  1.00  0.00    -0.019 C 
ATOM     10  C   UNL     1     254.081 258.146 246.611  1.00  0.00     0.012 C 
ATOM     11  C   UNL     1     255.145 257.945 248.882  1.00  0.00     0.012 C 
ENDROOT
TORSDOF 0
ENDMDL
MODEL 6
REMARK VINA RESULT:    -4.824      4.614      6.079
REMARK INTER + INTRA:          -4.824
REMARK INTER:                  -4.824
REMARK INTRA:                   0.000
REMARK UNBOUND:                 0.000
REMARK SMILES CC1=CC(=O)[C@H]2C[C@@H]1C2(C)C
REMARK SMILES IDX 1 1 2 2 3 3 4 4 5 5 6 6 7 7 8 8 9 9 10 10 11 11
REMARK H PARENT
REMARK Flexibility Score: inf
ROOT
ATOM      1  C   UNL     1     260.817 259.305 246.363  1.00  0.00     0.040 C 
ATOM      2  C   UNL     1     259.918 260.434 246.751  1.00  0.00    -0.066 C 
ATOM      3  C   UNL     1     258.988 260.294 247.736  1.00  0.00     0.047 C 
ATOM      4  C   UNL     1     258.126 261.488 248.010  1.00  0.00     0.159 C 
ATOM      5  O   UNL     1     257.205 261.471 248.868  1.00  0.00    -0.295 OA
ATOM      6  C   UNL     1     258.441 262.729 247.173  1.00  0.00     0.067 C 
ATOM      7  C   UNL     1     259.981 262.840 247.228  1.00  0.00     0.021 C 
ATOM      8  C   UNL     1     260.009 261.817 246.070  1.00  0.00     0.022 C 
ATOM      9  C   UNL     1     258.580 262.300 245.685  1.00  0.00    -0.019 C 
ATOM     10  C   UNL     1     257.577 261.253 245.121  1.00  0.00     0.012 C 
ATOM     11  C   UNL     1     258.608 263.513 244.721  1.00  0.00     0.012 C 
ENDROOT
TORSDOF 0
ENDMDL
MODEL 7
REMARK VINA RESULT:    -4.819      0.967      3.015
REMARK INTER + INTRA:          -4.819
REMARK INTER:                  -4.819
REMARK INTRA:                   0.000
REMARK UNBOUND:                 0.000
REMARK SMILES CC1=CC(=O)[C@H]2C[C@@H]1C2(C)C
REMARK SMILES IDX 1 1 2 2 3 3 4 4 5 5 6 6 7 7 8 8 9 9 10 10 11 11
REMARK H PARENT
REMARK Flexibility Score: inf
ROOT
ATOM      1  C   UNL     1     252.405 257.415 246.822  1.00  0.00     0.040 C 
ATOM      2  C   UNL     1     253.252 258.645 246.737  1.00  0.00    -0.066 C 
ATOM      3  C   UNL     1     254.062 258.875 245.667  1.00  0.00     0.047 C 
ATOM      4  C   UNL     1     254.884 260.127 245.714  1.00  0.00     0.159 C 
ATOM      5  O   UNL     1     255.700 260.431 244.805  1.00  0.00    -0.295 OA
ATOM      6  C   UNL     1     254.664 261.008 246.944  1.00  0.00     0.067 C 
ATOM      7  C   UNL     1     253.128 261.068 247.096  1.00  0.00     0.021 C 
ATOM      8  C   UNL     1     253.236 259.720 247.845  1.00  0.00     0.022 C 
ATOM      9  C   UNL     1     254.699 260.107 248.211  1.00  0.00    -0.019 C 
ATOM     10  C   UNL     1     255.762 258.974 248.284  1.00  0.00     0.012 C 
ATOM     11  C   UNL     1     254.779 260.932 249.521  1.00  0.00     0.012 C 
ENDROOT
TORSDOF 0
ENDMDL
MODEL 8
REMARK VINA RESULT:    -4.774      4.104      5.966
REMARK INTER + INTRA:          -4.774
REMARK INTER:                  -4.774
REMARK INTRA:                   0.000
REMARK UNBOUND:                 0.000
REMARK SMILES CC1=CC(=O)[C@H]2C[C@@H]1C2(C)C
REMARK SMILES IDX 1 1 2 2 3 3 4 4 5 5 6 6 7 7 8 8 9 9 10 10 11 11
REMARK H PARENT
REMARK Flexibility Score: inf
ROOT
ATOM      1  C   UNL     1     257.893 262.964 245.010  1.00  0.00     0.040 C 
ATOM      2  C   UNL     1     258.571 262.273 246.148  1.00  0.00    -0.066 C 
ATOM      3  C   UNL     1     259.154 261.052 245.990  1.00  0.00     0.047 C 
ATOM      4  C   UNL     1     259.774 260.449 247.214  1.00  0.00     0.159 C 
ATOM      5  O   UNL     1     260.308 259.309 247.205  1.00  0.00    -0.295 OA
ATOM      6  C   UNL     1     259.710 261.313 248.474  1.00  0.00     0.067 C 
ATOM      7  C   UNL     1     260.131 262.718 247.989  1.00  0.00     0.021 C 
ATOM      8  C   UNL     1     258.661 262.912 247.551  1.00  0.00     0.022 C 
ATOM      9  C   UNL     1     258.262 261.859 248.626  1.00  0.00    -0.019 C 
ATOM     10  C   UNL     1     257.075 260.904 248.315  1.00  0.00     0.012 C 
ATOM     11  C   UNL     1     258.017 262.500 250.016  1.00  0.00     0.012 C 
ENDROOT
TORSDOF 0
ENDMDL
MODEL 9
REMARK VINA RESULT:    -4.767      4.139      5.668
REMARK INTER + INTRA:          -4.767
REMARK INTER:                  -4.767
REMARK INTRA:                   0.000
REMARK UNBOUND:                 0.000
REMARK SMILES CC1=CC(=O)[C@H]2C[C@@H]1C2(C)C
REMARK SMILES IDX 1 1 2 2 3 3 4 4 5 5 6 6 7 7 8 8 9 9 10 10 11 11
REMARK H PARENT
REMARK Flexibility Score: inf
ROOT
ATOM      1  C   UNL     1     260.859 259.412 246.460  1.00  0.00     0.040 C 
ATOM      2  C   UNL     1     260.023 260.647 246.563  1.00  0.00    -0.066 C 
ATOM      3  C   UNL     1     260.312 261.626 247.464  1.00  0.00     0.047 C 
ATOM      4  C   UNL     1     259.381 262.800 247.490  1.00  0.00     0.159 C 
ATOM      5  O   UNL     1     259.519 263.750 248.305  1.00  0.00    -0.295 OA
ATOM      6  C   UNL     1     258.250 262.762 246.462  1.00  0.00     0.067 C 
ATOM      7  C   UNL     1     258.948 262.340 245.149  1.00  0.00     0.021 C 
ATOM      8  C   UNL     1     258.804 260.883 245.644  1.00  0.00     0.022 C 
ATOM      9  C   UNL     1     257.593 261.353 246.500  1.00  0.00    -0.019 C 
ATOM     10  C   UNL     1     257.366 260.681 247.885  1.00  0.00     0.012 C 
ATOM     11  C   UNL     1     256.259 261.302 245.713  1.00  0.00     0.012 C 
ENDROOT
TORSDOF 0
ENDMDL
