MODEL 1
REMARK VINA RESULT:    -3.209      0.000      0.000
REMARK INTER + INTRA:          -4.913
REMARK INTER:                  -4.335
REMARK INTRA:                  -0.579
REMARK UNBOUND:                -0.579
REMARK SMILES CCCCCCCC(=O)[O-]
REMARK SMILES IDX 5 1 6 2 7 3 8 4 9 5 10 6 4 7 3 8 2 9 1 10
REMARK H PARENT
REMARK Flexibility Score: inf
ROOT
ATOM      1  C   UNL     1      -1.154   8.216  40.094  1.00  0.00     0.000 C 
ENDROOT
BRANCH   1   2
ATOM      2  C   UNL     1      -0.742   9.356  39.149  1.00  0.00     0.006 C 
BRANCH   2   3
ATOM      3  C   UNL     1      -1.757   9.585  38.022  1.00  0.00     0.053 C 
BRANCH   3   4
ATOM      4  C   UNL     1      -1.174   9.185  36.704  1.00  0.00     0.041 C 
ATOM      5  O   UNL     1      -1.552   9.752  35.644  1.00  0.00    -0.550 OA
ATOM      6  O   UNL     1      -0.177   8.220  36.650  1.00  0.00    -0.550 OA
ENDBRANCH   3   4
ENDBRANCH   2   3
ENDBRANCH   1   2
BRANCH   1   7
ATOM      7  C   UNL     1      -2.617   7.789  39.905  1.00  0.00     0.000 C 
BRANCH   7   8
ATOM      8  C   UNL     1      -2.722   6.271  39.692  1.00  0.00    -0.000 C 
BRANCH   8   9
ATOM      9  C   UNL     1      -1.535   5.702  38.900  1.00  0.00    -0.003 C 
ATOM     10  C   UNL     1      -1.914   5.293  37.477  1.00  0.00     0.004 C 
ENDBRANCH   8   9
ENDBRANCH   7   8
ENDBRANCH   1   7
TORSDOF 6
ENDMDL
MODEL 2
REMARK VINA RESULT:    -3.061      2.667      4.296
REMARK INTER + INTRA:          -4.714
REMARK INTER:                  -4.167
REMARK INTRA:                  -0.547
REMARK UNBOUND:                -0.579
REMARK SMILES CCCCCCCC(=O)[O-]
REMARK SMILES IDX 5 1 6 2 7 3 8 4 9 5 10 6 4 7 3 8 2 9 1 10
REMARK H PARENT
REMARK Flexibility Score: inf
ROOT
ATOM      1  C   UNL     1       0.349   8.724  37.968  1.00  0.00     0.000 C 
ENDROOT
BRANCH   1   2
ATOM      2  C   UNL     1      -1.118   8.294  37.812  1.00  0.00     0.006 C 
BRANCH   2   3
ATOM      3  C   UNL     1      -1.993   8.740  38.990  1.00  0.00     0.053 C 
BRANCH   3   4
ATOM      4  C   UNL     1      -2.393   7.561  39.819  1.00  0.00     0.041 C 
ATOM      5  O   UNL     1      -2.689   7.711  41.034  1.00  0.00    -0.550 OA
ATOM      6  O   UNL     1      -2.486   6.303  39.239  1.00  0.00    -0.550 OA
ENDBRANCH   3   4
ENDBRANCH   2   3
ENDBRANCH   1   2
BRANCH   1   7
ATOM      7  C   UNL     1       0.497  10.075  38.683  1.00  0.00     0.000 C 
BRANCH   7   8
ATOM      8  C   UNL     1       1.514   9.978  39.832  1.00  0.00    -0.000 C 
BRANCH   8   9
ATOM      9  C   UNL     1       1.384   8.670  40.626  1.00  0.00    -0.003 C 
ATOM     10  C   UNL     1       0.738   8.872  41.997  1.00  0.00     0.004 C 
ENDBRANCH   8   9
ENDBRANCH   7   8
ENDBRANCH   1   7
TORSDOF 6
ENDMDL
MODEL 3
REMARK VINA RESULT:    -3.038      1.492      2.774
REMARK INTER + INTRA:          -4.682
REMARK INTER:                  -4.372
REMARK INTRA:                  -0.310
REMARK UNBOUND:                -0.579
REMARK SMILES CCCCCCCC(=O)[O-]
REMARK SMILES IDX 5 1 6 2 7 3 8 4 9 5 10 6 4 7 3 8 2 9 1 10
REMARK H PARENT
REMARK Flexibility Score: inf
ROOT
ATOM      1  C   UNL     1      -2.325   7.887  39.454  1.00  0.00     0.000 C 
ENDROOT
BRANCH   1   2
ATOM      2  C   UNL     1      -1.359   9.036  39.124  1.00  0.00     0.006 C 
BRANCH   2   3
ATOM      3  C   UNL     1      -1.872   9.931  37.988  1.00  0.00     0.053 C 
BRANCH   3   4
ATOM      4  C   UNL     1      -1.327   9.469  36.674  1.00  0.00     0.041 C 
ATOM      5  O   UNL     1      -1.821   9.898  35.597  1.00  0.00    -0.550 OA
ATOM      6  O   UNL     1      -0.242   8.604  36.636  1.00  0.00    -0.550 OA
ENDBRANCH   3   4
ENDBRANCH   2   3
ENDBRANCH   1   2
BRANCH   1   7
ATOM      7  C   UNL     1      -2.393   7.583  40.959  1.00  0.00     0.000 C 
BRANCH   7   8
ATOM      8  C   UNL     1      -0.997   7.266  41.517  1.00  0.00    -0.000 C 
BRANCH   8   9
ATOM      9  C   UNL     1      -0.583   8.219  42.648  1.00  0.00    -0.003 C 
ATOM     10  C   UNL     1       0.768   8.887  42.395  1.00  0.00     0.004 C 
ENDBRANCH   8   9
ENDBRANCH   7   8
ENDBRANCH   1   7
TORSDOF 6
ENDMDL
MODEL 4
REMARK VINA RESULT:    -3.021      0.942      1.287
REMARK INTER + INTRA:          -4.659
REMARK INTER:                  -4.314
REMARK INTRA:                  -0.345
REMARK UNBOUND:                -0.579
REMARK SMILES CCCCCCCC(=O)[O-]
REMARK SMILES IDX 5 1 6 2 7 3 8 4 9 5 10 6 4 7 3 8 2 9 1 10
REMARK H PARENT
REMARK Flexibility Score: inf
ROOT
ATOM      1  C   UNL     1      -1.114   8.017  40.157  1.00  0.00     0.000 C 
ENDROOT
BRANCH   1   2
ATOM      2  C   UNL     1      -0.684   9.221  39.305  1.00  0.00     0.006 C 
BRANCH   2   3
ATOM      3  C   UNL     1      -1.724   9.592  38.239  1.00  0.00     0.053 C 
BRANCH   3   4
ATOM      4  C   UNL     1      -1.235   9.210  36.879  1.00  0.00     0.041 C 
ATOM      5  O   UNL     1      -1.610   9.857  35.864  1.00  0.00    -0.550 OA
ATOM      6  O   UNL     1      -0.327   8.169  36.733  1.00  0.00    -0.550 OA
ENDBRANCH   3   4
ENDBRANCH   2   3
ENDBRANCH   1   2
BRANCH   1   7
ATOM      7  C   UNL     1      -2.629   7.768  40.109  1.00  0.00     0.000 C 
BRANCH   7   8
ATOM      8  C   UNL     1      -2.936   6.352  39.599  1.00  0.00    -0.000 C 
BRANCH   8   9
ATOM      9  C   UNL     1      -1.943   5.306  40.127  1.00  0.00    -0.003 C 
ATOM     10  C   UNL     1      -2.595   4.293  41.068  1.00  0.00     0.004 C 
ENDBRANCH   8   9
ENDBRANCH   7   8
ENDBRANCH   1   7
TORSDOF 6
ENDMDL
MODEL 5
REMARK VINA RESULT:    -2.996      2.276      3.293
REMARK INTER + INTRA:          -4.625
REMARK INTER:                  -4.146
REMARK INTRA:                  -0.479
REMARK UNBOUND:                -0.579
REMARK SMILES CCCCCCCC(=O)[O-]
REMARK SMILES IDX 5 1 6 2 7 3 8 4 9 5 10 6 4 7 3 8 2 9 1 10
REMARK H PARENT
REMARK Flexibility Score: inf
ROOT
ATOM      1  C   UNL     1       0.254   9.046  40.143  1.00  0.00     0.000 C 
ENDROOT
BRANCH   1   2
ATOM      2  C   UNL     1       1.500   8.421  39.496  1.00  0.00     0.006 C 
BRANCH   2   3
ATOM      3  C   UNL     1       2.321   9.436  38.691  1.00  0.00     0.053 C 
BRANCH   3   4
ATOM      4  C   UNL     1       2.193   9.167  37.226  1.00  0.00     0.041 C 
ATOM      5  O   UNL     1       2.076  10.123  36.413  1.00  0.00    -0.550 OA
ATOM      6  O   UNL     1       2.252   7.864  36.750  1.00  0.00    -0.550 OA
ENDBRANCH   3   4
ENDBRANCH   2   3
ENDBRANCH   1   2
BRANCH   1   7
ATOM      7  C   UNL     1      -0.990   8.154  40.016  1.00  0.00     0.000 C 
BRANCH   7   8
ATOM      8  C   UNL     1      -1.841   8.569  38.806  1.00  0.00    -0.000 C 
BRANCH   8   9
ATOM      9  C   UNL     1      -1.451   9.949  38.255  1.00  0.00    -0.003 C 
ATOM     10  C   UNL     1      -1.501  10.013  36.729  1.00  0.00     0.004 C 
ENDBRANCH   8   9
ENDBRANCH   7   8
ENDBRANCH   1   7
TORSDOF 6
ENDMDL
MODEL 6
REMARK VINA RESULT:    -2.994      3.024      4.517
REMARK INTER + INTRA:          -4.623
REMARK INTER:                  -4.158
REMARK INTRA:                  -0.466
REMARK UNBOUND:                -0.579
REMARK SMILES CCCCCCCC(=O)[O-]
REMARK SMILES IDX 5 1 6 2 7 3 8 4 9 5 10 6 4 7 3 8 2 9 1 10
REMARK H PARENT
REMARK Flexibility Score: inf
ROOT
ATOM      1  C   UNL     1      -1.842   9.381  38.617  1.00  0.00     0.000 C 
ENDROOT
BRANCH   1   2
ATOM      2  C   UNL     1      -1.676   7.898  38.982  1.00  0.00     0.006 C 
BRANCH   2   3
ATOM      3  C   UNL     1      -2.649   7.447  40.079  1.00  0.00     0.053 C 
BRANCH   3   4
ATOM      4  C   UNL     1      -1.963   7.421  41.407  1.00  0.00     0.041 C 
ATOM      5  O   UNL     1      -2.575   7.788  42.445  1.00  0.00    -0.550 OA
ATOM      6  O   UNL     1      -0.662   6.945  41.508  1.00  0.00    -0.550 OA
ENDBRANCH   3   4
ENDBRANCH   2   3
ENDBRANCH   1   2
BRANCH   1   7
ATOM      7  C   UNL     1      -0.496  10.104  38.452  1.00  0.00     0.000 C 
BRANCH   7   8
ATOM      8  C   UNL     1       0.468   9.733  39.589  1.00  0.00    -0.000 C 
BRANCH   8   9
ATOM      9  C   UNL     1       1.881   9.404  39.082  1.00  0.00    -0.003 C 
ATOM     10  C   UNL     1       2.129   7.901  38.955  1.00  0.00     0.004 C 
ENDBRANCH   8   9
ENDBRANCH   7   8
ENDBRANCH   1   7
TORSDOF 6
ENDMDL
MODEL 7
REMARK VINA RESULT:    -2.986      2.083      3.792
REMARK INTER + INTRA:          -4.612
REMARK INTER:                  -4.061
REMARK INTRA:                  -0.551
REMARK UNBOUND:                -0.579
REMARK SMILES CCCCCCCC(=O)[O-]
REMARK SMILES IDX 5 1 6 2 7 3 8 4 9 5 10 6 4 7 3 8 2 9 1 10
REMARK H PARENT
REMARK Flexibility Score: inf
ROOT
ATOM      1  C   UNL     1      -0.371   8.424  41.350  1.00  0.00     0.000 C 
ENDROOT
BRANCH   1   2
ATOM      2  C   UNL     1      -1.132   7.329  40.585  1.00  0.00     0.006 C 
BRANCH   2   3
ATOM      3  C   UNL     1      -2.251   7.896  39.701  1.00  0.00     0.053 C 
BRANCH   3   4
ATOM      4  C   UNL     1      -1.676   8.538  38.480  1.00  0.00     0.041 C 
ATOM      5  O   UNL     1      -1.112   7.835  37.599  1.00  0.00    -0.550 OA
ATOM      6  O   UNL     1      -1.805   9.907  38.287  1.00  0.00    -0.550 OA
ENDBRANCH   3   4
ENDBRANCH   2   3
ENDBRANCH   1   2
BRANCH   1   7
ATOM      7  C   UNL     1       1.115   8.490  40.965  1.00  0.00     0.000 C 
BRANCH   7   8
ATOM      8  C   UNL     1       1.409   9.748  40.132  1.00  0.00    -0.000 C 
BRANCH   8   9
ATOM      9  C   UNL     1       2.246   9.445  38.880  1.00  0.00    -0.003 C 
ATOM     10  C   UNL     1       1.700  10.125  37.624  1.00  0.00     0.004 C 
ENDBRANCH   8   9
ENDBRANCH   7   8
ENDBRANCH   1   7
TORSDOF 6
ENDMDL
MODEL 8
REMARK VINA RESULT:    -2.941      2.192      3.257
REMARK INTER + INTRA:          -4.551
REMARK INTER:                  -4.202
REMARK INTRA:                  -0.350
REMARK UNBOUND:                -0.579
REMARK SMILES CCCCCCCC(=O)[O-]
REMARK SMILES IDX 5 1 6 2 7 3 8 4 9 5 10 6 4 7 3 8 2 9 1 10
REMARK H PARENT
REMARK Flexibility Score: inf
ROOT
ATOM      1  C   UNL     1       1.437   8.862  40.264  1.00  0.00     0.000 C 
ENDROOT
BRANCH   1   2
ATOM      2  C   UNL     1       1.725  10.050  39.332  1.00  0.00     0.006 C 
BRANCH   2   3
ATOM      3  C   UNL     1       2.675   9.683  38.184  1.00  0.00     0.053 C 
BRANCH   3   4
ATOM      4  C   UNL     1       1.900   9.208  36.997  1.00  0.00     0.041 C 
ATOM      5  O   UNL     1       1.813   7.976  36.748  1.00  0.00    -0.550 OA
ATOM      6  O   UNL     1       1.230  10.120  36.192  1.00  0.00    -0.550 OA
ENDBRANCH   3   4
ENDBRANCH   2   3
ENDBRANCH   1   2
BRANCH   1   7
ATOM      7  C   UNL     1      -0.061   8.689  40.558  1.00  0.00     0.000 C 
BRANCH   7   8
ATOM      8  C   UNL     1      -0.903   8.998  39.310  1.00  0.00    -0.000 C 
BRANCH   8   9
ATOM      9  C   UNL     1      -2.274   8.306  39.337  1.00  0.00    -0.003 C 
ATOM     10  C   UNL     1      -2.530   7.549  40.640  1.00  0.00     0.004 C 
ENDBRANCH   8   9
ENDBRANCH   7   8
ENDBRANCH   1   7
TORSDOF 6
ENDMDL
MODEL 9
REMARK VINA RESULT:    -2.940      1.470      2.283
REMARK INTER + INTRA:          -4.550
REMARK INTER:                  -4.131
REMARK INTRA:                  -0.419
REMARK UNBOUND:                -0.579
REMARK SMILES CCCCCCCC(=O)[O-]
REMARK SMILES IDX 5 1 6 2 7 3 8 4 9 5 10 6 4 7 3 8 2 9 1 10
REMARK H PARENT
REMARK Flexibility Score: inf
ROOT
ATOM      1  C   UNL     1      -1.842   9.640  38.250  1.00  0.00     0.000 C 
ENDROOT
BRANCH   1   2
ATOM      2  C   UNL     1      -1.102   9.500  36.910  1.00  0.00     0.006 C 
BRANCH   2   3
ATOM      3  C   UNL     1      -0.332   8.179  36.795  1.00  0.00     0.053 C 
BRANCH   3   4
ATOM      4  C   UNL     1       1.030   8.417  36.224  1.00  0.00     0.041 C 
ATOM      5  O   UNL     1       1.953   8.870  36.952  1.00  0.00    -0.550 OA
ATOM      6  O   UNL     1       1.296   8.092  34.901  1.00  0.00    -0.550 OA
ENDBRANCH   3   4
ENDBRANCH   2   3
ENDBRANCH   1   2
BRANCH   1   7
ATOM      7  C   UNL     1      -1.360   8.627  39.301  1.00  0.00     0.000 C 
BRANCH   7   8
ATOM      8  C   UNL     1      -2.547   7.871  39.917  1.00  0.00    -0.000 C 
BRANCH   8   9
ATOM      9  C   UNL     1      -2.252   6.379  40.127  1.00  0.00    -0.003 C 
ATOM     10  C   UNL     1      -2.321   5.573  38.831  1.00  0.00     0.004 C 
ENDBRANCH   8   9
ENDBRANCH   7   8
ENDBRANCH   1   7
TORSDOF 6
ENDMDL
