MODEL 1
REMARK VINA RESULT:    -6.914      0.000      0.000
REMARK INTER + INTRA:          -8.903
REMARK INTER:                  -8.531
REMARK INTRA:                  -0.372
REMARK UNBOUND:                -0.372
REMARK SMILES Oc1cc(O)c2cc(O)c(-c3cc(O)c(O)c(O)c3)[o+]c2c1.[Cl-]
REMARK SMILES IDX 10 1 20 2 21 3 22 4 2 5 3 6 4 7 6 8 7 9 8 10 11 11 12 12
REMARK SMILES IDX 13 13 19 14 15 15 17 16 14 17 16 19 18 21 9 23 1 25 5 27
REMARK H PARENT 14 18 16 20 18 22 9 24 1 26 5 28
REMARK Flexibility Score: inf
ROOT
ATOM      1  C   UNL     1     -36.612 -13.053 -10.525  1.00  0.00     0.402 A 
ATOM      2  O   UNL     1     -35.664 -13.981 -10.649  1.00  0.00    -0.202 OA
ATOM      3  C   UNL     1     -35.551 -14.767 -11.716  1.00  0.00     0.368 A 
ATOM      4  C   UNL     1     -34.525 -15.714 -11.772  1.00  0.00     0.162 A 
ATOM      5  C   UNL     1     -34.393 -16.545 -12.889  1.00  0.00     0.128 A 
ATOM      6  C   UNL     1     -35.293 -16.429 -13.958  1.00  0.00     0.093 A 
ATOM      7  C   UNL     1     -36.329 -15.483 -13.914  1.00  0.00     0.136 A 
ATOM      8  C   UNL     1     -36.460 -14.647 -12.789  1.00  0.00     0.125 A 
ATOM      9  C   UNL     1     -37.478 -13.693 -12.689  1.00  0.00     0.078 A 
ATOM     10  C   UNL     1     -37.569 -12.892 -11.546  1.00  0.00     0.223 A 
ENDROOT
BRANCH   1  11
ATOM     11  C   UNL     1     -36.629 -12.232  -9.293  1.00  0.00     0.091 A 
ATOM     12  C   UNL     1     -35.825 -11.088  -9.164  1.00  0.00     0.068 A 
ATOM     13  C   UNL     1     -35.830 -10.332  -7.987  1.00  0.00     0.162 A 
ATOM     14  C   UNL     1     -37.421 -12.632  -8.208  1.00  0.00     0.068 A 
ATOM     15  C   UNL     1     -36.654 -10.728  -6.905  1.00  0.00     0.200 A 
ATOM     16  C   UNL     1     -37.443 -11.887  -7.026  1.00  0.00     0.162 A 
BRANCH  13  17
ATOM     17  O   UNL     1     -35.004  -9.208  -7.934  1.00  0.00    -0.504 OA
ATOM     18  H   UNL     1     -35.059  -8.433  -8.580  1.00  0.00     0.293 HD
ENDBRANCH  13  17
BRANCH  15  19
ATOM     19  O   UNL     1     -36.712 -10.006  -5.710  1.00  0.00    -0.502 OA
ATOM     20  H   UNL     1     -37.254  -9.163  -5.582  1.00  0.00     0.293 HD
ENDBRANCH  15  19
BRANCH  16  21
ATOM     21  O   UNL     1     -38.259 -12.316  -5.979  1.00  0.00    -0.504 OA
ATOM     22  H   UNL     1     -38.136 -13.215  -5.530  1.00  0.00     0.293 HD
ENDBRANCH  16  21
ENDBRANCH   1  11
BRANCH  10  23
ATOM     23  O   UNL     1     -38.611 -11.973 -11.418  1.00  0.00    -0.500 OA
ATOM     24  H   UNL     1     -38.834 -11.316 -12.156  1.00  0.00     0.294 HD
ENDBRANCH  10  23
BRANCH   5  25
ATOM     25  O   UNL     1     -33.363 -17.483 -12.928  1.00  0.00    -0.507 OA
ATOM     26  H   UNL     1     -33.533 -18.465 -12.745  1.00  0.00     0.293 HD
ENDBRANCH   5  25
BRANCH   7  27
ATOM     27  O   UNL     1     -37.219 -15.377 -14.983  1.00  0.00    -0.507 OA
ATOM     28  H   UNL     1     -37.758 -16.172 -15.307  1.00  0.00     0.293 HD
ENDBRANCH   7  27
TORSDOF 7
ENDMDL
MODEL 2
REMARK VINA RESULT:    -6.867      1.513      2.842
REMARK INTER + INTRA:          -8.844
REMARK INTER:                  -8.479
REMARK INTRA:                  -0.365
REMARK UNBOUND:                -0.372
REMARK SMILES Oc1cc(O)c2cc(O)c(-c3cc(O)c(O)c(O)c3)[o+]c2c1.[Cl-]
REMARK SMILES IDX 10 1 20 2 21 3 22 4 2 5 3 6 4 7 6 8 7 9 8 10 11 11 12 12
REMARK SMILES IDX 13 13 19 14 15 15 17 16 14 17 16 19 18 21 9 23 1 25 5 27
REMARK H PARENT 14 18 16 20 18 22 9 24 1 26 5 28
REMARK Flexibility Score: inf
ROOT
ATOM      1  C   UNL     1     -36.131 -14.458 -10.608  1.00  0.00     0.402 A 
ATOM      2  O   UNL     1     -36.993 -14.681 -11.600  1.00  0.00    -0.202 OA
ATOM      3  C   UNL     1     -36.678 -15.362 -12.698  1.00  0.00     0.368 A 
ATOM      4  C   UNL     1     -37.642 -15.556 -13.692  1.00  0.00     0.162 A 
ATOM      5  C   UNL     1     -37.325 -16.273 -14.850  1.00  0.00     0.128 A 
ATOM      6  C   UNL     1     -36.036 -16.798 -15.017  1.00  0.00     0.093 A 
ATOM      7  C   UNL     1     -35.058 -16.609 -14.029  1.00  0.00     0.136 A 
ATOM      8  C   UNL     1     -35.379 -15.889 -12.862  1.00  0.00     0.125 A 
ATOM      9  C   UNL     1     -34.442 -15.663 -11.848  1.00  0.00     0.078 A 
ATOM     10  C   UNL     1     -34.809 -14.934 -10.713  1.00  0.00     0.223 A 
ENDROOT
BRANCH   1  11
ATOM     11  C   UNL     1     -36.602 -13.694  -9.431  1.00  0.00     0.091 A 
ATOM     12  C   UNL     1     -36.365 -12.316  -9.311  1.00  0.00     0.068 A 
ATOM     13  C   UNL     1     -36.794 -11.607  -8.183  1.00  0.00     0.162 A 
ATOM     14  C   UNL     1     -37.249 -14.367  -8.385  1.00  0.00     0.068 A 
ATOM     15  C   UNL     1     -37.471 -12.289  -7.143  1.00  0.00     0.200 A 
ATOM     16  C   UNL     1     -37.688 -13.675  -7.254  1.00  0.00     0.162 A 
BRANCH  13  17
ATOM     17  O   UNL     1     -36.523 -10.238  -8.136  1.00  0.00    -0.504 OA
ATOM     18  H   UNL     1     -35.633  -9.827  -8.382  1.00  0.00     0.293 HD
ENDBRANCH  13  17
BRANCH  15  19
ATOM     19  O   UNL     1     -37.935 -11.633  -5.999  1.00  0.00    -0.502 OA
ATOM     20  H   UNL     1     -37.342 -11.132  -5.353  1.00  0.00     0.293 HD
ENDBRANCH  15  19
BRANCH  16  21
ATOM     21  O   UNL     1     -38.342 -14.385  -6.246  1.00  0.00    -0.504 OA
ATOM     22  H   UNL     1     -39.351 -14.452  -6.199  1.00  0.00     0.293 HD
ENDBRANCH  16  21
ENDBRANCH   1  11
BRANCH  10  23
ATOM     23  O   UNL     1     -33.866 -14.663  -9.721  1.00  0.00    -0.500 OA
ATOM     24  H   UNL     1     -33.828 -15.200  -8.863  1.00  0.00     0.294 HD
ENDBRANCH  10  23
BRANCH   5  25
ATOM     25  O   UNL     1     -38.298 -16.458 -15.830  1.00  0.00    -0.507 OA
ATOM     26  H   UNL     1     -38.983 -15.741 -16.039  1.00  0.00     0.293 HD
ENDBRANCH   5  25
BRANCH   7  27
ATOM     27  O   UNL     1     -33.779 -17.136 -14.206  1.00  0.00    -0.507 OA
ATOM     28  H   UNL     1     -33.606 -17.915 -14.831  1.00  0.00     0.293 HD
ENDBRANCH   7  27
TORSDOF 7
ENDMDL
MODEL 3
REMARK VINA RESULT:    -6.764      1.140      2.143
REMARK INTER + INTRA:          -8.718
REMARK INTER:                  -8.361
REMARK INTRA:                  -0.357
REMARK UNBOUND:                -0.372
REMARK SMILES Oc1cc(O)c2cc(O)c(-c3cc(O)c(O)c(O)c3)[o+]c2c1.[Cl-]
REMARK SMILES IDX 10 1 20 2 21 3 22 4 2 5 3 6 4 7 6 8 7 9 8 10 11 11 12 12
REMARK SMILES IDX 13 13 19 14 15 15 17 16 14 17 16 19 18 21 9 23 1 25 5 27
REMARK H PARENT 14 18 16 20 18 22 9 24 1 26 5 28
REMARK Flexibility Score: inf
ROOT
ATOM      1  C   UNL     1     -36.448 -13.364 -10.839  1.00  0.00     0.402 A 
ATOM      2  O   UNL     1     -35.375 -14.138 -11.001  1.00  0.00    -0.202 OA
ATOM      3  C   UNL     1     -34.977 -14.589 -12.187  1.00  0.00     0.368 A 
ATOM      4  C   UNL     1     -33.837 -15.393 -12.273  1.00  0.00     0.162 A 
ATOM      5  C   UNL     1     -33.405 -15.872 -13.514  1.00  0.00     0.128 A 
ATOM      6  C   UNL     1     -34.118 -15.546 -14.677  1.00  0.00     0.093 A 
ATOM      7  C   UNL     1     -35.265 -14.741 -14.605  1.00  0.00     0.136 A 
ATOM      8  C   UNL     1     -35.698 -14.259 -13.355  1.00  0.00     0.125 A 
ATOM      9  C   UNL     1     -36.839 -13.459 -13.222  1.00  0.00     0.078 A 
ATOM     10  C   UNL     1     -37.231 -13.013 -11.957  1.00  0.00     0.223 A 
ENDROOT
BRANCH   1  11
ATOM     11  C   UNL     1     -36.786 -12.916  -9.469  1.00  0.00     0.091 A 
ATOM     12  C   UNL     1     -37.491 -13.745  -8.581  1.00  0.00     0.068 A 
ATOM     13  C   UNL     1     -37.826 -13.303  -7.296  1.00  0.00     0.162 A 
ATOM     14  C   UNL     1     -36.448 -11.617  -9.064  1.00  0.00     0.068 A 
ATOM     15  C   UNL     1     -37.457 -11.999  -6.886  1.00  0.00     0.200 A 
ATOM     16  C   UNL     1     -36.771 -11.162  -7.784  1.00  0.00     0.162 A 
BRANCH  13  17
ATOM     17  O   UNL     1     -38.526 -14.185  -6.470  1.00  0.00    -0.504 OA
ATOM     18  H   UNL     1     -38.270 -15.151  -6.325  1.00  0.00     0.293 HD
ENDBRANCH  13  17
BRANCH  15  19
ATOM     19  O   UNL     1     -37.752 -11.508  -5.610  1.00  0.00    -0.502 OA
ATOM     20  H   UNL     1     -38.474 -10.829  -5.417  1.00  0.00     0.293 HD
ENDBRANCH  15  19
BRANCH  16  21
ATOM     21  O   UNL     1     -36.399  -9.866  -7.420  1.00  0.00    -0.504 OA
ATOM     22  H   UNL     1     -35.599  -9.679  -6.828  1.00  0.00     0.293 HD
ENDBRANCH  16  21
ENDBRANCH   1  11
BRANCH  10  23
ATOM     23  O   UNL     1     -38.395 -12.256 -11.812  1.00  0.00    -0.500 OA
ATOM     24  H   UNL     1     -38.715 -11.945 -10.903  1.00  0.00     0.294 HD
ENDBRANCH  10  23
BRANCH   5  25
ATOM     25  O   UNL     1     -32.266 -16.672 -13.582  1.00  0.00    -0.507 OA
ATOM     26  H   UNL     1     -32.031 -17.189 -14.421  1.00  0.00     0.293 HD
ENDBRANCH   5  25
BRANCH   7  27
ATOM     27  O   UNL     1     -35.967 -14.424 -15.768  1.00  0.00    -0.507 OA
ATOM     28  H   UNL     1     -36.286 -13.481 -15.955  1.00  0.00     0.293 HD
ENDBRANCH   7  27
TORSDOF 7
ENDMDL
MODEL 4
REMARK VINA RESULT:    -6.717      1.251      3.155
REMARK INTER + INTRA:          -8.660
REMARK INTER:                  -8.366
REMARK INTRA:                  -0.294
REMARK UNBOUND:                -0.372
REMARK SMILES Oc1cc(O)c2cc(O)c(-c3cc(O)c(O)c(O)c3)[o+]c2c1.[Cl-]
REMARK SMILES IDX 10 1 20 2 21 3 22 4 2 5 3 6 4 7 6 8 7 9 8 10 11 11 12 12
REMARK SMILES IDX 13 13 19 14 15 15 17 16 14 17 16 19 18 21 9 23 1 25 5 27
REMARK H PARENT 14 18 16 20 18 22 9 24 1 26 5 28
REMARK Flexibility Score: inf
ROOT
ATOM      1  C   UNL     1     -36.392 -13.438 -10.331  1.00  0.00     0.402 A 
ATOM      2  O   UNL     1     -36.875 -13.038 -11.508  1.00  0.00    -0.202 OA
ATOM      3  C   UNL     1     -36.912 -13.820 -12.582  1.00  0.00     0.368 A 
ATOM      4  C   UNL     1     -37.440 -13.327 -13.779  1.00  0.00     0.162 A 
ATOM      5  C   UNL     1     -37.488 -14.140 -14.916  1.00  0.00     0.128 A 
ATOM      6  C   UNL     1     -37.006 -15.455 -14.856  1.00  0.00     0.093 A 
ATOM      7  C   UNL     1     -36.473 -15.963 -13.662  1.00  0.00     0.136 A 
ATOM      8  C   UNL     1     -36.425 -15.144 -12.518  1.00  0.00     0.125 A 
ATOM      9  C   UNL     1     -35.897 -15.595 -11.303  1.00  0.00     0.078 A 
ATOM     10  C   UNL     1     -35.866 -14.739 -10.199  1.00  0.00     0.223 A 
ENDROOT
BRANCH   1  11
ATOM     11  C   UNL     1     -36.412 -12.478  -9.205  1.00  0.00     0.091 A 
ATOM     12  C   UNL     1     -37.245 -12.674  -8.091  1.00  0.00     0.068 A 
ATOM     13  C   UNL     1     -37.274 -11.749  -7.042  1.00  0.00     0.162 A 
ATOM     14  C   UNL     1     -35.627 -11.318  -9.272  1.00  0.00     0.068 A 
ATOM     15  C   UNL     1     -36.457 -10.593  -7.105  1.00  0.00     0.200 A 
ATOM     16  C   UNL     1     -35.640 -10.387  -8.231  1.00  0.00     0.162 A 
BRANCH  13  17
ATOM     17  O   UNL     1     -38.127 -12.012  -5.968  1.00  0.00    -0.504 OA
ATOM     18  H   UNL     1     -38.072 -11.549  -5.073  1.00  0.00     0.293 HD
ENDBRANCH  13  17
BRANCH  15  19
ATOM     19  O   UNL     1     -36.433  -9.641  -6.081  1.00  0.00    -0.502 OA
ATOM     20  H   UNL     1     -36.903  -8.748  -6.126  1.00  0.00     0.293 HD
ENDBRANCH  15  19
BRANCH  16  21
ATOM     21  O   UNL     1     -34.829  -9.256  -8.335  1.00  0.00    -0.504 OA
ATOM     22  H   UNL     1     -35.112  -8.351  -7.976  1.00  0.00     0.293 HD
ENDBRANCH  16  21
ENDBRANCH   1  11
BRANCH  10  23
ATOM     23  O   UNL     1     -35.296 -15.165  -8.999  1.00  0.00    -0.500 OA
ATOM     24  H   UNL     1     -34.489 -14.701  -8.600  1.00  0.00     0.294 HD
ENDBRANCH  10  23
BRANCH   5  25
ATOM     25  O   UNL     1     -38.018 -13.632 -16.100  1.00  0.00    -0.507 OA
ATOM     26  H   UNL     1     -38.998 -13.387 -16.180  1.00  0.00     0.293 HD
ENDBRANCH   5  25
BRANCH   7  27
ATOM     27  O   UNL     1     -35.995 -17.273 -13.615  1.00  0.00    -0.507 OA
ATOM     28  H   UNL     1     -36.563 -18.034 -13.262  1.00  0.00     0.293 HD
ENDBRANCH   7  27
TORSDOF 7
ENDMDL
MODEL 5
REMARK VINA RESULT:    -6.620      0.934      2.071
REMARK INTER + INTRA:          -8.540
REMARK INTER:                  -8.191
REMARK INTRA:                  -0.349
REMARK UNBOUND:                -0.372
REMARK SMILES Oc1cc(O)c2cc(O)c(-c3cc(O)c(O)c(O)c3)[o+]c2c1.[Cl-]
REMARK SMILES IDX 10 1 20 2 21 3 22 4 2 5 3 6 4 7 6 8 7 9 8 10 11 11 12 12
REMARK SMILES IDX 13 13 19 14 15 15 17 16 14 17 16 19 18 21 9 23 1 25 5 27
REMARK H PARENT 14 18 16 20 18 22 9 24 1 26 5 28
REMARK Flexibility Score: inf
ROOT
ATOM      1  C   UNL     1     -36.230 -13.436 -10.130  1.00  0.00     0.402 A 
ATOM      2  O   UNL     1     -35.432 -14.486  -9.937  1.00  0.00    -0.202 OA
ATOM      3  C   UNL     1     -35.246 -15.434 -10.850  1.00  0.00     0.368 A 
ATOM      4  C   UNL     1     -34.388 -16.503 -10.571  1.00  0.00     0.162 A 
ATOM      5  C   UNL     1     -34.180 -17.506 -11.523  1.00  0.00     0.128 A 
ATOM      6  C   UNL     1     -34.834 -17.442 -12.761  1.00  0.00     0.093 A 
ATOM      7  C   UNL     1     -35.699 -16.377 -13.054  1.00  0.00     0.136 A 
ATOM      8  C   UNL     1     -35.907 -15.367 -12.095  1.00  0.00     0.125 A 
ATOM      9  C   UNL     1     -36.764 -14.286 -12.329  1.00  0.00     0.078 A 
ATOM     10  C   UNL     1     -36.942 -13.314 -11.341  1.00  0.00     0.223 A 
ENDROOT
BRANCH   1  11
ATOM     11  C   UNL     1     -36.350 -12.439  -9.042  1.00  0.00     0.091 A 
ATOM     12  C   UNL     1     -37.185 -12.661  -7.936  1.00  0.00     0.068 A 
ATOM     13  C   UNL     1     -37.309 -11.702  -6.924  1.00  0.00     0.162 A 
ATOM     14  C   UNL     1     -35.660 -11.222  -9.142  1.00  0.00     0.068 A 
ATOM     15  C   UNL     1     -36.589 -10.487  -7.019  1.00  0.00     0.200 A 
ATOM     16  C   UNL     1     -35.769 -10.256  -8.139  1.00  0.00     0.162 A 
BRANCH  13  17
ATOM     17  O   UNL     1     -38.159 -11.994  -5.855  1.00  0.00    -0.504 OA
ATOM     18  H   UNL     1     -38.439 -11.324  -5.153  1.00  0.00     0.293 HD
ENDBRANCH  13  17
BRANCH  15  19
ATOM     19  O   UNL     1     -36.662  -9.498  -6.033  1.00  0.00    -0.502 OA
ATOM     20  H   UNL     1     -37.488  -9.300  -5.489  1.00  0.00     0.293 HD
ENDBRANCH  15  19
BRANCH  16  21
ATOM     21  O   UNL     1     -35.051  -9.067  -8.274  1.00  0.00    -0.504 OA
ATOM     22  H   UNL     1     -35.379  -8.299  -8.847  1.00  0.00     0.293 HD
ENDBRANCH  16  21
ENDBRANCH   1  11
BRANCH  10  23
ATOM     23  O   UNL     1     -37.832 -12.260 -11.548  1.00  0.00    -0.500 OA
ATOM     24  H   UNL     1     -38.313 -12.137 -12.431  1.00  0.00     0.294 HD
ENDBRANCH  10  23
BRANCH   5  25
ATOM     25  O   UNL     1     -33.320 -18.563 -11.229  1.00  0.00    -0.507 OA
ATOM     26  H   UNL     1     -33.120 -19.287 -11.908  1.00  0.00     0.293 HD
ENDBRANCH   5  25
BRANCH   7  27
ATOM     27  O   UNL     1     -36.345 -16.324 -14.289  1.00  0.00    -0.507 OA
ATOM     28  H   UNL     1     -35.962 -15.802 -15.068  1.00  0.00     0.293 HD
ENDBRANCH   7  27
TORSDOF 7
ENDMDL
MODEL 6
REMARK VINA RESULT:    -6.387      1.455      7.302
REMARK INTER + INTRA:          -8.252
REMARK INTER:                  -7.881
REMARK INTRA:                  -0.371
REMARK UNBOUND:                -0.372
REMARK SMILES Oc1cc(O)c2cc(O)c(-c3cc(O)c(O)c(O)c3)[o+]c2c1.[Cl-]
REMARK SMILES IDX 10 1 20 2 21 3 22 4 2 5 3 6 4 7 6 8 7 9 8 10 11 11 12 12
REMARK SMILES IDX 13 13 19 14 15 15 17 16 14 17 16 19 18 21 9 23 1 25 5 27
REMARK H PARENT 14 18 16 20 18 22 9 24 1 26 5 28
REMARK Flexibility Score: inf
ROOT
ATOM      1  C   UNL     1     -36.025 -13.246 -11.673  1.00  0.00     0.402 A 
ATOM      2  O   UNL     1     -36.859 -13.229 -10.633  1.00  0.00    -0.202 OA
ATOM      3  C   UNL     1     -36.683 -12.447  -9.573  1.00  0.00     0.368 A 
ATOM      4  C   UNL     1     -37.606 -12.486  -8.524  1.00  0.00     0.162 A 
ATOM      5  C   UNL     1     -37.435 -11.666  -7.403  1.00  0.00     0.128 A 
ATOM      6  C   UNL     1     -36.333 -10.802  -7.331  1.00  0.00     0.093 A 
ATOM      7  C   UNL     1     -35.397 -10.754  -8.375  1.00  0.00     0.136 A 
ATOM      8  C   UNL     1     -35.571 -11.580  -9.503  1.00  0.00     0.125 A 
ATOM      9  C   UNL     1     -34.666 -11.579 -10.569  1.00  0.00     0.078 A 
ATOM     10  C   UNL     1     -34.880 -12.424 -11.662  1.00  0.00     0.223 A 
ENDROOT
BRANCH   1  11
ATOM     11  C   UNL     1     -36.332 -14.154 -12.801  1.00  0.00     0.091 A 
ATOM     12  C   UNL     1     -35.937 -15.502 -12.784  1.00  0.00     0.068 A 
ATOM     13  C   UNL     1     -36.212 -16.346 -13.865  1.00  0.00     0.162 A 
ATOM     14  C   UNL     1     -36.980 -13.649 -13.936  1.00  0.00     0.068 A 
ATOM     15  C   UNL     1     -36.891 -15.835 -14.997  1.00  0.00     0.200 A 
ATOM     16  C   UNL     1     -37.267 -14.479 -15.023  1.00  0.00     0.162 A 
BRANCH  13  17
ATOM     17  O   UNL     1     -35.789 -17.674 -13.775  1.00  0.00    -0.504 OA
ATOM     18  H   UNL     1     -36.315 -18.462 -14.124  1.00  0.00     0.293 HD
ENDBRANCH  13  17
BRANCH  15  19
ATOM     19  O   UNL     1     -37.206 -16.633 -16.101  1.00  0.00    -0.502 OA
ATOM     20  H   UNL     1     -36.696 -17.464 -16.364  1.00  0.00     0.293 HD
ENDBRANCH  15  19
BRANCH  16  21
ATOM     21  O   UNL     1     -37.928 -13.935 -16.125  1.00  0.00    -0.504 OA
ATOM     22  H   UNL     1     -37.586 -14.047 -17.072  1.00  0.00     0.293 HD
ENDBRANCH  16  21
ENDBRANCH   1  11
BRANCH  10  23
ATOM     23  O   UNL     1     -33.956 -12.465 -12.707  1.00  0.00    -0.500 OA
ATOM     24  H   UNL     1     -33.883 -13.268 -13.320  1.00  0.00     0.294 HD
ENDBRANCH  10  23
BRANCH   5  25
ATOM     25  O   UNL     1     -38.366 -11.717  -6.368  1.00  0.00    -0.507 OA
ATOM     26  H   UNL     1     -39.088 -11.013  -6.270  1.00  0.00     0.293 HD
ENDBRANCH   5  25
BRANCH   7  27
ATOM     27  O   UNL     1     -34.304  -9.892  -8.291  1.00  0.00    -0.507 OA
ATOM     28  H   UNL     1     -34.077  -9.404  -7.432  1.00  0.00     0.293 HD
ENDBRANCH   7  27
TORSDOF 7
ENDMDL
MODEL 7
REMARK VINA RESULT:    -6.385      2.617      4.500
REMARK INTER + INTRA:          -8.251
REMARK INTER:                  -7.867
REMARK INTRA:                  -0.383
REMARK UNBOUND:                -0.372
REMARK SMILES Oc1cc(O)c2cc(O)c(-c3cc(O)c(O)c(O)c3)[o+]c2c1.[Cl-]
REMARK SMILES IDX 10 1 20 2 21 3 22 4 2 5 3 6 4 7 6 8 7 9 8 10 11 11 12 12
REMARK SMILES IDX 13 13 19 14 15 15 17 16 14 17 16 19 18 21 9 23 1 25 5 27
REMARK H PARENT 14 18 16 20 18 22 9 24 1 26 5 28
REMARK Flexibility Score: inf
ROOT
ATOM      1  C   UNL     1     -36.298 -15.983  -9.681  1.00  0.00     0.402 A 
ATOM      2  O   UNL     1     -36.831 -15.678 -10.864  1.00  0.00    -0.202 OA
ATOM      3  C   UNL     1     -36.193 -15.854 -12.016  1.00  0.00     0.368 A 
ATOM      4  C   UNL     1     -36.825 -15.512 -13.216  1.00  0.00     0.162 A 
ATOM      5  C   UNL     1     -36.166 -15.694 -14.436  1.00  0.00     0.128 A 
ATOM      6  C   UNL     1     -34.867 -16.221 -14.458  1.00  0.00     0.093 A 
ATOM      7  C   UNL     1     -34.219 -16.566 -13.261  1.00  0.00     0.136 A 
ATOM      8  C   UNL     1     -34.885 -16.383 -12.034  1.00  0.00     0.125 A 
ATOM      9  C   UNL     1     -34.285 -16.702 -10.811  1.00  0.00     0.078 A 
ATOM     10  C   UNL     1     -34.986 -16.494  -9.619  1.00  0.00     0.223 A 
ENDROOT
BRANCH   1  11
ATOM     11  C   UNL     1     -37.111 -15.752  -8.466  1.00  0.00     0.091 A 
ATOM     12  C   UNL     1     -37.890 -16.774  -7.901  1.00  0.00     0.068 A 
ATOM     13  C   UNL     1     -38.674 -16.539  -6.766  1.00  0.00     0.162 A 
ATOM     14  C   UNL     1     -37.152 -14.472  -7.897  1.00  0.00     0.068 A 
ATOM     15  C   UNL     1     -38.689 -15.250  -6.181  1.00  0.00     0.200 A 
ATOM     16  C   UNL     1     -37.925 -14.220  -6.760  1.00  0.00     0.162 A 
BRANCH  13  17
ATOM     17  O   UNL     1     -39.421 -17.606  -6.262  1.00  0.00    -0.504 OA
ATOM     18  H   UNL     1     -39.425 -17.887  -5.292  1.00  0.00     0.293 HD
ENDBRANCH  13  17
BRANCH  15  19
ATOM     19  O   UNL     1     -39.441 -14.958  -5.039  1.00  0.00    -0.502 OA
ATOM     20  H   UNL     1     -40.087 -15.601  -4.606  1.00  0.00     0.293 HD
ENDBRANCH  15  19
BRANCH  16  21
ATOM     21  O   UNL     1     -37.922 -12.934  -6.220  1.00  0.00    -0.504 OA
ATOM     22  H   UNL     1     -37.150 -12.291  -6.356  1.00  0.00     0.293 HD
ENDBRANCH  16  21
ENDBRANCH   1  11
BRANCH  10  23
ATOM     23  O   UNL     1     -34.376 -16.764  -8.393  1.00  0.00    -0.500 OA
ATOM     24  H   UNL     1     -34.478 -17.662  -7.935  1.00  0.00     0.294 HD
ENDBRANCH  10  23
BRANCH   5  25
ATOM     25  O   UNL     1     -36.811 -15.350 -15.622  1.00  0.00    -0.507 OA
ATOM     26  H   UNL     1     -36.537 -14.534 -16.157  1.00  0.00     0.293 HD
ENDBRANCH   5  25
BRANCH   7  27
ATOM     27  O   UNL     1     -32.927 -17.088 -13.296  1.00  0.00    -0.507 OA
ATOM     28  H   UNL     1     -32.502 -17.511 -12.479  1.00  0.00     0.293 HD
ENDBRANCH   7  27
TORSDOF 7
ENDMDL
MODEL 8
REMARK VINA RESULT:    -6.382      3.509      6.420
REMARK INTER + INTRA:          -8.246
REMARK INTER:                  -8.553
REMARK INTRA:                   0.307
REMARK UNBOUND:                -0.372
REMARK SMILES Oc1cc(O)c2cc(O)c(-c3cc(O)c(O)c(O)c3)[o+]c2c1.[Cl-]
REMARK SMILES IDX 10 1 20 2 21 3 22 4 2 5 3 6 4 7 6 8 7 9 8 10 11 11 12 12
REMARK SMILES IDX 13 13 19 14 15 15 17 16 14 17 16 19 18 21 9 23 1 25 5 27
REMARK H PARENT 14 18 16 20 18 22 9 24 1 26 5 28
REMARK Flexibility Score: inf
ROOT
ATOM      1  C   UNL     1     -36.644 -12.610  -7.935  1.00  0.00     0.402 A 
ATOM      2  O   UNL     1     -35.794 -12.331  -8.923  1.00  0.00    -0.202 OA
ATOM      3  C   UNL     1     -35.214 -11.144  -9.070  1.00  0.00     0.368 A 
ATOM      4  C   UNL     1     -34.330 -10.933 -10.132  1.00  0.00     0.162 A 
ATOM      5  C   UNL     1     -33.710  -9.690 -10.297  1.00  0.00     0.128 A 
ATOM      6  C   UNL     1     -33.977  -8.651  -9.395  1.00  0.00     0.093 A 
ATOM      7  C   UNL     1     -34.865  -8.847  -8.326  1.00  0.00     0.136 A 
ATOM      8  C   UNL     1     -35.486 -10.100  -8.160  1.00  0.00     0.125 A 
ATOM      9  C   UNL     1     -36.385 -10.350  -7.118  1.00  0.00     0.078 A 
ATOM     10  C   UNL     1     -36.982 -11.609  -7.002  1.00  0.00     0.223 A 
ENDROOT
BRANCH   1  11
ATOM     11  C   UNL     1     -37.219 -13.973  -7.870  1.00  0.00     0.091 A 
ATOM     12  C   UNL     1     -38.397 -14.237  -7.154  1.00  0.00     0.068 A 
ATOM     13  C   UNL     1     -38.920 -15.533  -7.079  1.00  0.00     0.162 A 
ATOM     14  C   UNL     1     -36.545 -15.036  -8.488  1.00  0.00     0.068 A 
ATOM     15  C   UNL     1     -38.248 -16.597  -7.729  1.00  0.00     0.200 A 
ATOM     16  C   UNL     1     -37.055 -16.335  -8.428  1.00  0.00     0.162 A 
BRANCH  13  17
ATOM     17  O   UNL     1     -40.096 -15.717  -6.348  1.00  0.00    -0.504 OA
ATOM     18  H   UNL     1     -40.129 -15.823  -5.345  1.00  0.00     0.293 HD
ENDBRANCH  13  17
BRANCH  15  19
ATOM     19  O   UNL     1     -38.729 -17.909  -7.701  1.00  0.00    -0.502 OA
ATOM     20  H   UNL     1     -39.007 -18.429  -8.520  1.00  0.00     0.293 HD
ENDBRANCH  15  19
BRANCH  16  21
ATOM     21  O   UNL     1     -36.358 -17.358  -9.072  1.00  0.00    -0.504 OA
ATOM     22  H   UNL     1     -35.353 -17.458  -8.999  1.00  0.00     0.293 HD
ENDBRANCH  16  21
ENDBRANCH   1  11
BRANCH  10  23
ATOM     23  O   UNL     1     -37.916 -11.850  -5.994  1.00  0.00    -0.500 OA
ATOM     24  H   UNL     1     -37.688 -12.411  -5.182  1.00  0.00     0.294 HD
ENDBRANCH  10  23
BRANCH   5  25
ATOM     25  O   UNL     1     -32.831  -9.498 -11.360  1.00  0.00    -0.507 OA
ATOM     26  H   UNL     1     -33.038  -9.845 -12.289  1.00  0.00     0.293 HD
ENDBRANCH   5  25
BRANCH   7  27
ATOM     27  O   UNL     1     -35.123  -7.805  -7.436  1.00  0.00    -0.507 OA
ATOM     28  H   UNL     1     -35.887  -7.850  -6.772  1.00  0.00     0.293 HD
ENDBRANCH   7  27
TORSDOF 7
ENDMDL
MODEL 9
REMARK VINA RESULT:    -6.211      4.963      5.812
REMARK INTER + INTRA:          -8.036
REMARK INTER:                  -7.760
REMARK INTRA:                  -0.276
REMARK UNBOUND:                -0.372
REMARK SMILES Oc1cc(O)c2cc(O)c(-c3cc(O)c(O)c(O)c3)[o+]c2c1.[Cl-]
REMARK SMILES IDX 10 1 20 2 21 3 22 4 2 5 3 6 4 7 6 8 7 9 8 10 11 11 12 12
REMARK SMILES IDX 13 13 19 14 15 15 17 16 14 17 16 19 18 21 9 23 1 25 5 27
REMARK H PARENT 14 18 16 20 18 22 9 24 1 26 5 28
REMARK Flexibility Score: inf
ROOT
ATOM      1  C   UNL     1     -37.042 -16.730  -7.608  1.00  0.00     0.402 A 
ATOM      2  O   UNL     1     -35.830 -17.270  -7.477  1.00  0.00    -0.202 OA
ATOM      3  C   UNL     1     -35.631 -18.565  -7.252  1.00  0.00     0.368 A 
ATOM      4  C   UNL     1     -34.327 -19.053  -7.131  1.00  0.00     0.162 A 
ATOM      5  C   UNL     1     -34.102 -20.414  -6.898  1.00  0.00     0.128 A 
ATOM      6  C   UNL     1     -35.189 -21.292  -6.785  1.00  0.00     0.093 A 
ATOM      7  C   UNL     1     -36.504 -20.816  -6.902  1.00  0.00     0.136 A 
ATOM      8  C   UNL     1     -36.728 -19.446  -7.138  1.00  0.00     0.125 A 
ATOM      9  C   UNL     1     -38.017 -18.914  -7.256  1.00  0.00     0.078 A 
ATOM     10  C   UNL     1     -38.186 -17.545  -7.481  1.00  0.00     0.223 A 
ENDROOT
BRANCH   1  11
ATOM     11  C   UNL     1     -37.137 -15.276  -7.865  1.00  0.00     0.091 A 
ATOM     12  C   UNL     1     -36.728 -14.722  -9.089  1.00  0.00     0.068 A 
ATOM     13  C   UNL     1     -36.799 -13.342  -9.315  1.00  0.00     0.162 A 
ATOM     14  C   UNL     1     -37.589 -14.423  -6.849  1.00  0.00     0.068 A 
ATOM     15  C   UNL     1     -37.283 -12.490  -8.292  1.00  0.00     0.200 A 
ATOM     16  C   UNL     1     -37.671 -13.044  -7.058  1.00  0.00     0.162 A 
BRANCH  13  17
ATOM     17  O   UNL     1     -36.376 -12.866 -10.557  1.00  0.00    -0.504 OA
ATOM     18  H   UNL     1     -36.554 -13.333 -11.434  1.00  0.00     0.293 HD
ENDBRANCH  13  17
BRANCH  15  19
ATOM     19  O   UNL     1     -37.390 -11.107  -8.463  1.00  0.00    -0.502 OA
ATOM     20  H   UNL     1     -36.672 -10.446  -8.205  1.00  0.00     0.293 HD
ENDBRANCH  15  19
BRANCH  16  21
ATOM     21  O   UNL     1     -38.143 -12.237  -6.023  1.00  0.00    -0.504 OA
ATOM     22  H   UNL     1     -38.910 -11.587  -6.149  1.00  0.00     0.293 HD
ENDBRANCH  16  21
ENDBRANCH   1  11
BRANCH  10  23
ATOM     23  O   UNL     1     -39.468 -17.000  -7.551  1.00  0.00    -0.500 OA
ATOM     24  H   UNL     1     -40.145 -17.322  -8.232  1.00  0.00     0.294 HD
ENDBRANCH  10  23
BRANCH   5  25
ATOM     25  O   UNL     1     -32.796 -20.883  -6.782  1.00  0.00    -0.507 OA
ATOM     26  H   UNL     1     -32.380 -21.074  -5.878  1.00  0.00     0.293 HD
ENDBRANCH   5  25
BRANCH   7  27
ATOM     27  O   UNL     1     -37.577 -21.699  -6.786  1.00  0.00    -0.507 OA
ATOM     28  H   UNL     1     -38.537 -21.377  -6.815  1.00  0.00     0.293 HD
ENDBRANCH   7  27
TORSDOF 7
ENDMDL
