MODEL 1
REMARK VINA RESULT:    -3.646      0.000      0.000
REMARK INTER + INTRA:          -4.338
REMARK INTER:                  -4.179
REMARK INTRA:                  -0.158
REMARK UNBOUND:                -0.158
REMARK SMILES CC=Cc1ccc(O)c(OC)c1
REMARK SMILES IDX 4 1 12 2 9 3 7 4 6 5 5 6 3 7 1 8 2 9 10 10 11 11 8 12
REMARK H PARENT 8 13
REMARK Flexibility Score: inf
ROOT
ATOM      1  C   UNL     1     106.618  94.766  24.838  1.00  0.00    -0.022 A 
ATOM      2  C   UNL     1     107.761  93.945  24.929  1.00  0.00     0.058 A 
ATOM      3  C   UNL     1     109.049  94.512  25.015  1.00  0.00     0.161 A 
ATOM      4  C   UNL     1     109.187  95.911  25.000  1.00  0.00     0.157 A 
ATOM      5  C   UNL     1     108.055  96.724  24.893  1.00  0.00     0.051 A 
ATOM      6  C   UNL     1     106.784  96.158  24.808  1.00  0.00     0.012 A 
ENDROOT
BRANCH   1   7
ATOM      7  C   UNL     1     105.246  94.213  24.735  1.00  0.00     0.003 C 
ATOM      8  C   UNL     1     103.175  93.561  23.568  1.00  0.00     0.035 C 
ATOM      9  C   UNL     1     104.549  94.148  23.593  1.00  0.00    -0.030 C 
ENDBRANCH   1   7
BRANCH   3  10
ATOM     10  O   UNL     1     110.206  93.721  25.112  1.00  0.00    -0.493 OA
ATOM     11  C   UNL     1     110.396  92.480  24.440  1.00  0.00     0.278 C 
ENDBRANCH   3  10
BRANCH   4  12
ATOM     12  O   UNL     1     110.442  96.514  25.087  1.00  0.00    -0.504 OA
ATOM     13  H   UNL     1     110.693  97.132  25.848  1.00  0.00     0.293 HD
ENDBRANCH   4  12
TORSDOF 3
ENDMDL
MODEL 2
REMARK VINA RESULT:    -3.463     12.431     13.322
REMARK INTER + INTRA:          -4.127
REMARK INTER:                  -3.985
REMARK INTRA:                  -0.142
REMARK UNBOUND:                -0.158
REMARK SMILES CC=Cc1ccc(O)c(OC)c1
REMARK SMILES IDX 4 1 12 2 9 3 7 4 6 5 5 6 3 7 1 8 2 9 10 10 11 11 8 12
REMARK H PARENT 8 13
REMARK Flexibility Score: inf
ROOT
ATOM      1  C   UNL     1     103.523  82.238  24.491  1.00  0.00    -0.022 A 
ATOM      2  C   UNL     1     104.254  82.576  25.648  1.00  0.00     0.058 A 
ATOM      3  C   UNL     1     103.592  82.861  26.860  1.00  0.00     0.161 A 
ATOM      4  C   UNL     1     102.188  82.814  26.904  1.00  0.00     0.157 A 
ATOM      5  C   UNL     1     101.462  82.496  25.753  1.00  0.00     0.051 A 
ATOM      6  C   UNL     1     102.122  82.215  24.557  1.00  0.00     0.012 A 
ENDROOT
BRANCH   1   7
ATOM      7  C   UNL     1     104.176  81.941  23.193  1.00  0.00     0.003 C 
ATOM      8  C   UNL     1     105.673  82.383  21.286  1.00  0.00     0.035 C 
ATOM      9  C   UNL     1     105.043  82.762  22.588  1.00  0.00    -0.030 C 
ENDBRANCH   1   7
BRANCH   3  10
ATOM     10  O   UNL     1     104.294  83.194  28.031  1.00  0.00    -0.493 OA
ATOM     11  C   UNL     1     105.711  83.291  28.125  1.00  0.00     0.278 C 
ENDBRANCH   3  10
BRANCH   4  12
ATOM     12  O   UNL     1     101.493  83.085  28.083  1.00  0.00    -0.504 OA
ATOM     13  H   UNL     1     101.933  83.531  28.879  1.00  0.00     0.293 HD
ENDBRANCH   4  12
TORSDOF 3
ENDMDL
MODEL 3
REMARK VINA RESULT:    -3.446      5.614      8.156
REMARK INTER + INTRA:          -4.109
REMARK INTER:                  -3.944
REMARK INTRA:                  -0.164
REMARK UNBOUND:                -0.158
REMARK SMILES CC=Cc1ccc(O)c(OC)c1
REMARK SMILES IDX 4 1 12 2 9 3 7 4 6 5 5 6 3 7 1 8 2 9 10 10 11 11 8 12
REMARK H PARENT 8 13
REMARK Flexibility Score: inf
ROOT
ATOM      1  C   UNL     1     113.911  93.366  19.923  1.00  0.00    -0.022 A 
ATOM      2  C   UNL     1     112.733  93.826  20.547  1.00  0.00     0.058 A 
ATOM      3  C   UNL     1     112.776  94.892  21.468  1.00  0.00     0.161 A 
ATOM      4  C   UNL     1     114.012  95.492  21.768  1.00  0.00     0.157 A 
ATOM      5  C   UNL     1     115.182  95.026  21.162  1.00  0.00     0.051 A 
ATOM      6  C   UNL     1     115.133  93.970  20.252  1.00  0.00     0.012 A 
ENDROOT
BRANCH   1   7
ATOM      7  C   UNL     1     113.915  92.241  18.956  1.00  0.00     0.003 C 
ATOM      8  C   UNL     1     114.473  89.978  18.155  1.00  0.00     0.035 C 
ATOM      9  C   UNL     1     114.529  91.071  19.173  1.00  0.00    -0.030 C 
ENDBRANCH   1   7
BRANCH   3  10
ATOM     10  O   UNL     1     111.620  95.377  22.101  1.00  0.00    -0.493 OA
ATOM     11  C   UNL     1     110.562  94.558  22.589  1.00  0.00     0.278 C 
ENDBRANCH   3  10
BRANCH   4  12
ATOM     12  O   UNL     1     114.100  96.552  22.670  1.00  0.00    -0.504 OA
ATOM     13  H   UNL     1     114.988  96.911  22.998  1.00  0.00     0.293 HD
ENDBRANCH   4  12
TORSDOF 3
ENDMDL
MODEL 4
REMARK VINA RESULT:    -3.373      1.550      1.671
REMARK INTER + INTRA:          -4.024
REMARK INTER:                  -3.835
REMARK INTRA:                  -0.189
REMARK UNBOUND:                -0.158
REMARK SMILES CC=Cc1ccc(O)c(OC)c1
REMARK SMILES IDX 4 1 12 2 9 3 7 4 6 5 5 6 3 7 1 8 2 9 10 10 11 11 8 12
REMARK H PARENT 8 13
REMARK Flexibility Score: inf
ROOT
ATOM      1  C   UNL     1     106.747  95.133  23.796  1.00  0.00    -0.022 A 
ATOM      2  C   UNL     1     107.855  95.132  22.924  1.00  0.00     0.058 A 
ATOM      3  C   UNL     1     109.126  95.541  23.375  1.00  0.00     0.161 A 
ATOM      4  C   UNL     1     109.281  95.960  24.709  1.00  0.00     0.157 A 
ATOM      5  C   UNL     1     108.179  95.976  25.569  1.00  0.00     0.051 A 
ATOM      6  C   UNL     1     106.924  95.571  25.116  1.00  0.00     0.012 A 
ENDROOT
BRANCH   1   7
ATOM      7  C   UNL     1     105.390  94.721  23.362  1.00  0.00     0.003 C 
ATOM      8  C   UNL     1     103.203  93.609  23.601  1.00  0.00     0.035 C 
ATOM      9  C   UNL     1     104.565  93.969  24.101  1.00  0.00    -0.030 C 
ENDBRANCH   1   7
BRANCH   3  10
ATOM     10  O   UNL     1     110.250  95.546  22.532  1.00  0.00    -0.493 OA
ATOM     11  C   UNL     1     111.037  94.399  22.226  1.00  0.00     0.278 C 
ENDBRANCH   3  10
BRANCH   4  12
ATOM     12  O   UNL     1     110.522  96.368  25.198  1.00  0.00    -0.504 OA
ATOM     13  H   UNL     1     111.325  96.494  24.594  1.00  0.00     0.293 HD
ENDBRANCH   4  12
TORSDOF 3
ENDMDL
MODEL 5
REMARK VINA RESULT:    -3.346     13.436     15.303
REMARK INTER + INTRA:          -3.993
REMARK INTER:                  -3.803
REMARK INTRA:                  -0.190
REMARK UNBOUND:                -0.158
REMARK SMILES CC=Cc1ccc(O)c(OC)c1
REMARK SMILES IDX 4 1 12 2 9 3 7 4 6 5 5 6 3 7 1 8 2 9 10 10 11 11 8 12
REMARK H PARENT 8 13
REMARK Flexibility Score: inf
ROOT
ATOM      1  C   UNL     1     104.493  82.373  19.075  1.00  0.00    -0.022 A 
ATOM      2  C   UNL     1     104.631  82.860  17.758  1.00  0.00     0.058 A 
ATOM      3  C   UNL     1     104.176  82.103  16.660  1.00  0.00     0.161 A 
ATOM      4  C   UNL     1     103.587  80.846  16.887  1.00  0.00     0.157 A 
ATOM      5  C   UNL     1     103.465  80.356  18.190  1.00  0.00     0.051 A 
ATOM      6  C   UNL     1     103.917  81.109  19.273  1.00  0.00     0.012 A 
ENDROOT
BRANCH   1   7
ATOM      7  C   UNL     1     104.965  83.130  20.259  1.00  0.00     0.003 C 
ATOM      8  C   UNL     1     105.325  83.529  22.664  1.00  0.00     0.035 C 
ATOM      9  C   UNL     1     104.804  82.717  21.523  1.00  0.00    -0.030 C 
ENDBRANCH   1   7
BRANCH   3  10
ATOM     10  O   UNL     1     104.295  82.564  15.338  1.00  0.00    -0.493 OA
ATOM     11  C   UNL     1     103.638  83.716  14.821  1.00  0.00     0.278 C 
ENDBRANCH   3  10
BRANCH   4  12
ATOM     12  O   UNL     1     103.120  80.067  15.829  1.00  0.00    -0.504 OA
ATOM     13  H   UNL     1     102.307  79.470  15.916  1.00  0.00     0.293 HD
ENDBRANCH   4  12
TORSDOF 3
ENDMDL
MODEL 6
REMARK VINA RESULT:    -3.342     12.543     13.918
REMARK INTER + INTRA:          -3.989
REMARK INTER:                  -3.828
REMARK INTRA:                  -0.161
REMARK UNBOUND:                -0.158
REMARK SMILES CC=Cc1ccc(O)c(OC)c1
REMARK SMILES IDX 4 1 12 2 9 3 7 4 6 5 5 6 3 7 1 8 2 9 10 10 11 11 8 12
REMARK H PARENT 8 13
REMARK Flexibility Score: inf
ROOT
ATOM      1  C   UNL     1     104.908  83.811  19.121  1.00  0.00    -0.022 A 
ATOM      2  C   UNL     1     105.164  82.552  18.540  1.00  0.00     0.058 A 
ATOM      3  C   UNL     1     105.412  82.434  17.157  1.00  0.00     0.161 A 
ATOM      4  C   UNL     1     105.394  83.589  16.355  1.00  0.00     0.157 A 
ATOM      5  C   UNL     1     105.123  84.834  16.928  1.00  0.00     0.051 A 
ATOM      6  C   UNL     1     104.878  84.945  18.296  1.00  0.00     0.012 A 
ENDROOT
BRANCH   1   7
ATOM      7  C   UNL     1     104.632  83.980  20.568  1.00  0.00     0.003 C 
ATOM      8  C   UNL     1     104.941  83.541  22.973  1.00  0.00     0.035 C 
ATOM      9  C   UNL     1     105.264  83.302  21.534  1.00  0.00    -0.030 C 
ENDBRANCH   1   7
BRANCH   3  10
ATOM     10  O   UNL     1     105.676  81.195  16.551  1.00  0.00    -0.493 OA
ATOM     11  C   UNL     1     104.678  80.290  16.091  1.00  0.00     0.278 C 
ENDBRANCH   3  10
BRANCH   4  12
ATOM     12  O   UNL     1     105.638  83.518  14.983  1.00  0.00    -0.504 OA
ATOM     13  H   UNL     1     105.736  82.636  14.497  1.00  0.00     0.293 HD
ENDBRANCH   4  12
TORSDOF 3
ENDMDL
MODEL 7
REMARK VINA RESULT:    -3.330      3.042      3.910
REMARK INTER + INTRA:          -3.975
REMARK INTER:                  -3.802
REMARK INTRA:                  -0.173
REMARK UNBOUND:                -0.158
REMARK SMILES CC=Cc1ccc(O)c(OC)c1
REMARK SMILES IDX 4 1 12 2 9 3 7 4 6 5 5 6 3 7 1 8 2 9 10 10 11 11 8 12
REMARK H PARENT 8 13
REMARK Flexibility Score: inf
ROOT
ATOM      1  C   UNL     1     108.546  94.821  21.963  1.00  0.00    -0.022 A 
ATOM      2  C   UNL     1     107.951  95.277  23.158  1.00  0.00     0.058 A 
ATOM      3  C   UNL     1     108.550  95.015  24.406  1.00  0.00     0.161 A 
ATOM      4  C   UNL     1     109.750  94.283  24.453  1.00  0.00     0.157 A 
ATOM      5  C   UNL     1     110.331  93.817  23.271  1.00  0.00     0.051 A 
ATOM      6  C   UNL     1     109.733  94.078  22.038  1.00  0.00     0.012 A 
ENDROOT
BRANCH   1   7
ATOM      7  C   UNL     1     107.945  95.064  20.629  1.00  0.00     0.003 C 
ATOM      8  C   UNL     1     106.856  94.423  18.513  1.00  0.00     0.035 C 
ATOM      9  C   UNL     1     107.462  94.096  19.840  1.00  0.00    -0.030 C 
ENDBRANCH   1   7
BRANCH   3  10
ATOM     10  O   UNL     1     107.985  95.462  25.612  1.00  0.00    -0.493 OA
ATOM     11  C   UNL     1     106.689  95.100  26.080  1.00  0.00     0.278 C 
ENDBRANCH   3  10
BRANCH   4  12
ATOM     12  O   UNL     1     110.379  94.006  25.666  1.00  0.00    -0.504 OA
ATOM     13  H   UNL     1     111.368  93.796  25.726  1.00  0.00     0.293 HD
ENDBRANCH   4  12
TORSDOF 3
ENDMDL
MODEL 8
REMARK VINA RESULT:    -3.320      2.872      5.588
REMARK INTER + INTRA:          -3.964
REMARK INTER:                  -3.773
REMARK INTRA:                  -0.191
REMARK UNBOUND:                -0.158
REMARK SMILES CC=Cc1ccc(O)c(OC)c1
REMARK SMILES IDX 4 1 12 2 9 3 7 4 6 5 5 6 3 7 1 8 2 9 10 10 11 11 8 12
REMARK H PARENT 8 13
REMARK Flexibility Score: inf
ROOT
ATOM      1  C   UNL     1     110.413  94.366  22.726  1.00  0.00    -0.022 A 
ATOM      2  C   UNL     1     109.221  95.120  22.725  1.00  0.00     0.058 A 
ATOM      3  C   UNL     1     108.234  94.908  23.708  1.00  0.00     0.161 A 
ATOM      4  C   UNL     1     108.444  93.925  24.693  1.00  0.00     0.157 A 
ATOM      5  C   UNL     1     109.618  93.167  24.684  1.00  0.00     0.051 A 
ATOM      6  C   UNL     1     110.591  93.381  23.708  1.00  0.00     0.012 A 
ENDROOT
BRANCH   1   7
ATOM      7  C   UNL     1     111.473  94.548  21.705  1.00  0.00     0.003 C 
ATOM      8  C   UNL     1     113.748  94.345  20.778  1.00  0.00     0.035 C 
ATOM      9  C   UNL     1     112.739  94.140  21.862  1.00  0.00    -0.030 C 
ENDBRANCH   1   7
BRANCH   3  10
ATOM     10  O   UNL     1     107.040  95.646  23.737  1.00  0.00    -0.493 OA
ATOM     11  C   UNL     1     105.876  95.333  22.977  1.00  0.00     0.278 C 
ENDBRANCH   3  10
BRANCH   4  12
ATOM     12  O   UNL     1     107.496  93.685  25.687  1.00  0.00    -0.504 OA
ATOM     13  H   UNL     1     107.751  93.567  26.659  1.00  0.00     0.293 HD
ENDBRANCH   4  12
TORSDOF 3
ENDMDL
MODEL 9
REMARK VINA RESULT:    -3.249      2.532      3.951
REMARK INTER + INTRA:          -3.883
REMARK INTER:                  -3.693
REMARK INTRA:                  -0.190
REMARK UNBOUND:                -0.158
REMARK SMILES CC=Cc1ccc(O)c(OC)c1
REMARK SMILES IDX 4 1 12 2 9 3 7 4 6 5 5 6 3 7 1 8 2 9 10 10 11 11 8 12
REMARK H PARENT 8 13
REMARK Flexibility Score: inf
ROOT
ATOM      1  C   UNL     1     109.002  95.547  24.545  1.00  0.00    -0.022 A 
ATOM      2  C   UNL     1     109.756  96.463  23.784  1.00  0.00     0.058 A 
ATOM      3  C   UNL     1     110.672  96.009  22.813  1.00  0.00     0.161 A 
ATOM      4  C   UNL     1     110.836  94.627  22.615  1.00  0.00     0.157 A 
ATOM      5  C   UNL     1     110.100  93.719  23.382  1.00  0.00     0.051 A 
ATOM      6  C   UNL     1     109.195  94.174  24.341  1.00  0.00     0.012 A 
ENDROOT
BRANCH   1   7
ATOM      7  C   UNL     1     108.034  95.979  25.583  1.00  0.00     0.003 C 
ATOM      8  C   UNL     1     106.044  95.759  27.020  1.00  0.00     0.035 C 
ATOM      9  C   UNL     1     106.965  95.263  25.953  1.00  0.00    -0.030 C 
ENDBRANCH   1   7
BRANCH   3  10
ATOM     10  O   UNL     1     111.433  96.897  22.035  1.00  0.00    -0.493 OA
ATOM     11  C   UNL     1     112.591  97.588  22.495  1.00  0.00     0.278 C 
ENDBRANCH   3  10
BRANCH   4  12
ATOM     12  O   UNL     1     111.729  94.135  21.664  1.00  0.00    -0.504 OA
ATOM     13  H   UNL     1     111.891  94.604  20.781  1.00  0.00     0.293 HD
ENDBRANCH   4  12
TORSDOF 3
ENDMDL
