MODEL 1
REMARK VINA RESULT:    -4.341      0.000      0.000
REMARK INTER + INTRA:          -4.745
REMARK INTER:                  -4.722
REMARK INTRA:                  -0.023
REMARK UNBOUND:                -0.023
REMARK SMILES CC1(C)[C@@H]2CC=C(CO)[C@H]1C2
REMARK SMILES IDX 8 1 7 2 1 3 2 4 4 5 3 6 10 7 5 8 11 9 6 10 9 11
REMARK H PARENT 9 12
REMARK Flexibility Score: inf
ROOT
ATOM      1  C   UNL     1      -2.437  -2.514  -4.999  1.00  0.00     0.187 C 
ENDROOT
BRANCH   1   2
ATOM      2  C   UNL     1      -1.026  -2.000  -4.941  1.00  0.00    -0.045 C 
ATOM      3  C   UNL     1       2.327  -3.609  -6.121  1.00  0.00     0.012 C 
ATOM      4  C   UNL     1       1.331  -2.850  -5.208  1.00  0.00    -0.026 C 
ATOM      5  C   UNL     1       1.635  -1.328  -5.144  1.00  0.00    -0.000 C 
ATOM      6  C   UNL     1       1.195  -3.640  -3.875  1.00  0.00     0.012 C 
ATOM      7  C   UNL     1       0.035  -2.443  -5.958  1.00  0.00     0.023 C 
ATOM      8  C   UNL     1       0.852  -0.665  -3.958  1.00  0.00     0.031 C 
ATOM      9  C   UNL     1       0.742  -1.144  -6.388  1.00  0.00     0.013 C 
ATOM     10  C   UNL     1      -0.623  -1.116  -3.980  1.00  0.00    -0.025 C 
ENDBRANCH   1   2
BRANCH   1  11
ATOM     11  O   UNL     1      -3.343  -1.445  -4.996  1.00  0.00    -0.392 OA
ATOM     12  H   UNL     1      -4.254  -1.840  -5.024  1.00  0.00     0.211 HD
ENDBRANCH   1  11
TORSDOF 2
ENDMDL
MODEL 2
REMARK VINA RESULT:    -4.167      1.049      2.614
REMARK INTER + INTRA:          -4.556
REMARK INTER:                  -4.491
REMARK INTRA:                  -0.065
REMARK UNBOUND:                -0.023
REMARK SMILES CC1(C)[C@@H]2CC=C(CO)[C@H]1C2
REMARK SMILES IDX 8 1 7 2 1 3 2 4 4 5 3 6 10 7 5 8 11 9 6 10 9 11
REMARK H PARENT 9 12
REMARK Flexibility Score: inf
ROOT
ATOM      1  C   UNL     1      -2.796  -2.511  -4.701  1.00  0.00     0.187 C 
ENDROOT
BRANCH   1   2
ATOM      2  C   UNL     1      -1.394  -2.964  -5.000  1.00  0.00    -0.045 C 
ATOM      3  C   UNL     1       2.028  -1.150  -4.534  1.00  0.00     0.012 C 
ATOM      4  C   UNL     1       0.922  -1.997  -5.214  1.00  0.00    -0.026 C 
ATOM      5  C   UNL     1       1.290  -3.506  -5.270  1.00  0.00    -0.000 C 
ATOM      6  C   UNL     1       0.502  -1.282  -6.529  1.00  0.00     0.012 C 
ATOM      7  C   UNL     1      -0.189  -2.423  -4.218  1.00  0.00     0.023 C 
ATOM      8  C   UNL     1       0.338  -4.261  -6.261  1.00  0.00     0.031 C 
ATOM      9  C   UNL     1       0.654  -3.667  -3.875  1.00  0.00     0.013 C 
ATOM     10  C   UNL     1      -1.129  -3.876  -5.982  1.00  0.00    -0.025 C 
ENDBRANCH   1   2
BRANCH   1  11
ATOM     11  O   UNL     1      -2.948  -1.156  -5.027  1.00  0.00    -0.392 OA
ATOM     12  H   UNL     1      -3.477  -0.742  -4.296  1.00  0.00     0.211 HD
ENDBRANCH   1  11
TORSDOF 2
ENDMDL
MODEL 3
REMARK VINA RESULT:    -3.901      3.147      4.552
REMARK INTER + INTRA:          -4.266
REMARK INTER:                  -4.229
REMARK INTRA:                  -0.037
REMARK UNBOUND:                -0.023
REMARK SMILES CC1(C)[C@@H]2CC=C(CO)[C@H]1C2
REMARK SMILES IDX 8 1 7 2 1 3 2 4 4 5 3 6 10 7 5 8 11 9 6 10 9 11
REMARK H PARENT 9 12
REMARK Flexibility Score: inf
ROOT
ATOM      1  C   UNL     1       1.286  -5.993  -6.895  1.00  0.00     0.187 C 
ENDROOT
BRANCH   1   2
ATOM      2  C   UNL     1       0.074  -5.546  -6.125  1.00  0.00    -0.045 C 
ATOM      3  C   UNL     1      -1.306  -1.972  -5.387  1.00  0.00     0.012 C 
ATOM      4  C   UNL     1      -0.888  -3.442  -5.128  1.00  0.00    -0.026 C 
ATOM      5  C   UNL     1      -2.115  -4.377  -4.937  1.00  0.00    -0.000 C 
ATOM      6  C   UNL     1       0.228  -3.447  -4.045  1.00  0.00     0.012 C 
ATOM      7  C   UNL     1      -0.641  -4.226  -6.444  1.00  0.00     0.023 C 
ATOM      8  C   UNL     1      -1.664  -5.751  -4.333  1.00  0.00     0.031 C 
ATOM      9  C   UNL     1      -2.140  -4.580  -6.466  1.00  0.00     0.013 C 
ATOM     10  C   UNL     1      -0.445  -6.294  -5.106  1.00  0.00    -0.025 C 
ENDBRANCH   1   2
BRANCH   1  11
ATOM     11  O   UNL     1       0.923  -6.363  -8.197  1.00  0.00    -0.392 OA
ATOM     12  H   UNL     1      -0.054  -6.538  -8.184  1.00  0.00     0.211 HD
ENDBRANCH   1  11
TORSDOF 2
ENDMDL
MODEL 4
REMARK VINA RESULT:    -3.894      2.029      3.639
REMARK INTER + INTRA:          -4.259
REMARK INTER:                  -4.198
REMARK INTRA:                  -0.061
REMARK UNBOUND:                -0.023
REMARK SMILES CC1(C)[C@@H]2CC=C(CO)[C@H]1C2
REMARK SMILES IDX 8 1 7 2 1 3 2 4 4 5 3 6 10 7 5 8 11 9 6 10 9 11
REMARK H PARENT 9 12
REMARK Flexibility Score: inf
ROOT
ATOM      1  C   UNL     1       1.734  -4.300  -4.030  1.00  0.00     0.187 C 
ENDROOT
BRANCH   1   2
ATOM      2  C   UNL     1       1.021  -3.114  -4.616  1.00  0.00    -0.045 C 
ATOM      3  C   UNL     1      -2.625  -1.821  -4.109  1.00  0.00     0.012 C 
ATOM      4  C   UNL     1      -1.321  -2.214  -4.848  1.00  0.00    -0.026 C 
ATOM      5  C   UNL     1      -0.540  -0.973  -5.361  1.00  0.00    -0.000 C 
ATOM      6  C   UNL     1      -1.657  -3.351  -5.854  1.00  0.00     0.012 C 
ATOM      7  C   UNL     1      -0.130  -2.419  -3.875  1.00  0.00     0.023 C 
ATOM      8  C   UNL     1       0.558  -1.408  -6.392  1.00  0.00     0.031 C 
ATOM      9  C   UNL     1       0.171  -0.913  -3.994  1.00  0.00     0.013 C 
ATOM     10  C   UNL     1       1.363  -2.600  -5.835  1.00  0.00    -0.025 C 
ENDBRANCH   1   2
BRANCH   1  11
ATOM     11  O   UNL     1       0.997  -5.470  -4.259  1.00  0.00    -0.392 OA
ATOM     12  H   UNL     1       0.296  -5.243  -4.924  1.00  0.00     0.211 HD
ENDBRANCH   1  11
TORSDOF 2
ENDMDL
MODEL 5
REMARK VINA RESULT:    -3.867      2.619      3.621
REMARK INTER + INTRA:          -4.229
REMARK INTER:                  -4.163
REMARK INTRA:                  -0.065
REMARK UNBOUND:                -0.023
REMARK SMILES CC1(C)[C@@H]2CC=C(CO)[C@H]1C2
REMARK SMILES IDX 8 1 7 2 1 3 2 4 4 5 3 6 10 7 5 8 11 9 6 10 9 11
REMARK H PARENT 9 12
REMARK Flexibility Score: inf
ROOT
ATOM      1  C   UNL     1      -2.251  -4.543  -6.514  1.00  0.00     0.187 C 
ENDROOT
BRANCH   1   2
ATOM      2  C   UNL     1      -1.008  -4.894  -5.743  1.00  0.00    -0.045 C 
ATOM      3  C   UNL     1       2.745  -4.105  -6.456  1.00  0.00     0.012 C 
ATOM      4  C   UNL     1       1.491  -4.923  -6.057  1.00  0.00    -0.026 C 
ATOM      5  C   UNL     1       1.441  -5.214  -4.531  1.00  0.00    -0.000 C 
ATOM      6  C   UNL     1       1.352  -6.114  -7.047  1.00  0.00     0.012 C 
ATOM      7  C   UNL     1       0.253  -4.021  -5.809  1.00  0.00     0.023 C 
ATOM      8  C   UNL     1       0.377  -6.323  -4.222  1.00  0.00     0.031 C 
ATOM      9  C   UNL     1       0.709  -3.869  -4.345  1.00  0.00     0.013 C 
ATOM     10  C   UNL     1      -0.945  -6.004  -4.950  1.00  0.00    -0.025 C 
ENDBRANCH   1   2
BRANCH   1  11
ATOM     11  O   UNL     1      -1.993  -4.580  -7.891  1.00  0.00    -0.392 OA
ATOM     12  H   UNL     1      -2.857  -4.774  -8.340  1.00  0.00     0.211 HD
ENDBRANCH   1  11
TORSDOF 2
ENDMDL
MODEL 6
REMARK VINA RESULT:    -3.840      3.654      5.506
REMARK INTER + INTRA:          -4.200
REMARK INTER:                  -4.157
REMARK INTRA:                  -0.043
REMARK UNBOUND:                -0.023
REMARK SMILES CC1(C)[C@@H]2CC=C(CO)[C@H]1C2
REMARK SMILES IDX 8 1 7 2 1 3 2 4 4 5 3 6 10 7 5 8 11 9 6 10 9 11
REMARK H PARENT 9 12
REMARK Flexibility Score: inf
ROOT
ATOM      1  C   UNL     1       2.405  -6.668  -8.837  1.00  0.00     0.187 C 
ENDROOT
BRANCH   1   2
ATOM      2  C   UNL     1       2.223  -6.424  -7.365  1.00  0.00    -0.045 C 
ATOM      3  C   UNL     1       0.034  -3.817  -5.460  1.00  0.00     0.012 C 
ATOM      4  C   UNL     1       1.272  -4.676  -5.819  1.00  0.00    -0.026 C 
ATOM      5  C   UNL     1       1.530  -5.799  -4.776  1.00  0.00    -0.000 C 
ATOM      6  C   UNL     1       2.440  -3.718  -6.187  1.00  0.00     0.012 C 
ATOM      7  C   UNL     1       0.926  -5.827  -6.801  1.00  0.00     0.023 C 
ATOM      8  C   UNL     1       2.963  -6.405  -4.971  1.00  0.00     0.031 C 
ATOM      9  C   UNL     1       0.579  -6.705  -5.584  1.00  0.00     0.013 C 
ATOM     10  C   UNL     1       3.204  -6.722  -6.461  1.00  0.00    -0.025 C 
ENDBRANCH   1   2
BRANCH   1  11
ATOM     11  O   UNL     1       1.170  -6.949  -9.437  1.00  0.00    -0.392 OA
ATOM     12  H   UNL     1       0.842  -6.099  -9.831  1.00  0.00     0.211 HD
ENDBRANCH   1  11
TORSDOF 2
ENDMDL
MODEL 7
REMARK VINA RESULT:    -3.706      2.487      4.091
REMARK INTER + INTRA:          -4.054
REMARK INTER:                  -4.003
REMARK INTRA:                  -0.051
REMARK UNBOUND:                -0.023
REMARK SMILES CC1(C)[C@@H]2CC=C(CO)[C@H]1C2
REMARK SMILES IDX 8 1 7 2 1 3 2 4 4 5 3 6 10 7 5 8 11 9 6 10 9 11
REMARK H PARENT 9 12
REMARK Flexibility Score: inf
ROOT
ATOM      1  C   UNL     1       2.000  -2.444  -5.382  1.00  0.00     0.187 C 
ENDROOT
BRANCH   1   2
ATOM      2  C   UNL     1       1.235  -3.734  -5.270  1.00  0.00    -0.045 C 
ATOM      3  C   UNL     1      -2.426  -4.626  -6.279  1.00  0.00     0.012 C 
ATOM      4  C   UNL     1      -1.137  -4.569  -5.421  1.00  0.00    -0.026 C 
ATOM      5  C   UNL     1      -0.407  -5.940  -5.366  1.00  0.00    -0.000 C 
ATOM      6  C   UNL     1      -1.474  -3.851  -4.084  1.00  0.00     0.012 C 
ATOM      7  C   UNL     1       0.090  -4.078  -6.233  1.00  0.00     0.023 C 
ATOM      8  C   UNL     1       0.669  -5.939  -4.225  1.00  0.00     0.031 C 
ATOM      9  C   UNL     1       0.346  -5.539  -6.651  1.00  0.00     0.013 C 
ATOM     10  C   UNL     1       1.523  -4.658  -4.305  1.00  0.00    -0.025 C 
ENDBRANCH   1   2
BRANCH   1  11
ATOM     11  O   UNL     1       1.308  -1.541  -6.199  1.00  0.00    -0.392 OA
ATOM     12  H   UNL     1       1.885  -0.738  -6.293  1.00  0.00     0.211 HD
ENDBRANCH   1  11
TORSDOF 2
ENDMDL
MODEL 8
REMARK VINA RESULT:    -3.647      2.633      4.024
REMARK INTER + INTRA:          -3.990
REMARK INTER:                  -3.928
REMARK INTRA:                  -0.062
REMARK UNBOUND:                -0.023
REMARK SMILES CC1(C)[C@@H]2CC=C(CO)[C@H]1C2
REMARK SMILES IDX 8 1 7 2 1 3 2 4 4 5 3 6 10 7 5 8 11 9 6 10 9 11
REMARK H PARENT 9 12
REMARK Flexibility Score: inf
ROOT
ATOM      1  C   UNL     1      -4.786  -4.873  -6.088  1.00  0.00     0.187 C 
ENDROOT
BRANCH   1   2
ATOM      2  C   UNL     1      -3.438  -4.823  -5.424  1.00  0.00    -0.045 C 
ATOM      3  C   UNL     1      -0.385  -2.469  -6.022  1.00  0.00     0.012 C 
ATOM      4  C   UNL     1      -1.171  -3.782  -5.778  1.00  0.00    -0.026 C 
ATOM      5  C   UNL     1      -0.956  -4.337  -4.342  1.00  0.00    -0.000 C 
ATOM      6  C   UNL     1      -0.926  -4.728  -6.987  1.00  0.00     0.012 C 
ATOM      7  C   UNL     1      -2.634  -3.519  -5.332  1.00  0.00     0.023 C 
ATOM      8  C   UNL     1      -1.462  -5.817  -4.249  1.00  0.00     0.031 C 
ATOM      9  C   UNL     1      -2.136  -3.461  -3.875  1.00  0.00     0.013 C 
ATOM     10  C   UNL     1      -2.866  -5.936  -4.875  1.00  0.00    -0.025 C 
ENDBRANCH   1   2
BRANCH   1  11
ATOM     11  O   UNL     1      -4.780  -4.101  -7.257  1.00  0.00    -0.392 OA
ATOM     12  H   UNL     1      -5.659  -4.238  -7.697  1.00  0.00     0.211 HD
ENDBRANCH   1  11
TORSDOF 2
ENDMDL
MODEL 9
REMARK VINA RESULT:    -1.914      1.802      3.229
REMARK INTER + INTRA:          -2.105
REMARK INTER:                  -2.059
REMARK INTRA:                  -0.046
REMARK UNBOUND:                -0.023
REMARK SMILES CC1(C)[C@@H]2CC=C(CO)[C@H]1C2
REMARK SMILES IDX 8 1 7 2 1 3 2 4 4 5 3 6 10 7 5 8 11 9 6 10 9 11
REMARK H PARENT 9 12
REMARK Flexibility Score: inf
ROOT
ATOM      1  C   UNL     1      -1.200  -4.839  -6.289  1.00  0.00     0.187 C 
ENDROOT
BRANCH   1   2
ATOM      2  C   UNL     1       0.012  -4.054  -5.872  1.00  0.00    -0.045 C 
ATOM      3  C   UNL     1       0.348  -0.420  -4.492  1.00  0.00     0.012 C 
ATOM      4  C   UNL     1       0.661  -1.678  -5.341  1.00  0.00    -0.026 C 
ATOM      5  C   UNL     1       1.965  -2.387  -4.882  1.00  0.00    -0.000 C 
ATOM      6  C   UNL     1       0.506  -1.302  -6.842  1.00  0.00     0.012 C 
ATOM      7  C   UNL     1      -0.073  -2.941  -4.818  1.00  0.00     0.023 C 
ATOM      8  C   UNL     1       2.434  -3.420  -5.965  1.00  0.00     0.031 C 
ATOM      9  C   UNL     1       1.119  -3.192  -3.875  1.00  0.00     0.013 C 
ATOM     10  C   UNL     1       1.245  -4.294  -6.411  1.00  0.00    -0.025 C 
ENDBRANCH   1   2
BRANCH   1  11
ATOM     11  O   UNL     1      -1.554  -4.520  -7.607  1.00  0.00    -0.392 OA
ATOM     12  H   UNL     1      -1.932  -3.602  -7.588  1.00  0.00     0.211 HD
ENDBRANCH   1  11
TORSDOF 2
ENDMDL
