MODEL 1
REMARK VINA RESULT:    -2.243      0.000      0.000
REMARK INTER + INTRA:          -2.243
REMARK INTER:                  -2.243
REMARK INTRA:                   0.000
REMARK UNBOUND:                 0.000
REMARK SMILES CC(=O)[O-]
REMARK SMILES IDX 1 1 2 2 3 3 4 4
REMARK H PARENT
REMARK Flexibility Score: inf
ROOT
ATOM      1  C   UNL     1     -22.474  33.791  -1.538  1.00  0.00     0.063 C 
ATOM      2  C   UNL     1     -23.838  33.454  -1.038  1.00  0.00     0.038 C 
ATOM      3  O   UNL     1     -24.298  34.035  -0.021  1.00  0.00    -0.550 OA
ATOM      4  O   UNL     1     -24.582  32.460  -1.660  1.00  0.00    -0.550 OA
ENDROOT
TORSDOF 0
ENDMDL
MODEL 2
REMARK VINA RESULT:    -2.065      2.037      2.244
REMARK INTER + INTRA:          -2.065
REMARK INTER:                  -2.065
REMARK INTRA:                   0.000
REMARK UNBOUND:                 0.000
REMARK SMILES CC(=O)[O-]
REMARK SMILES IDX 1 1 2 2 3 3 4 4
REMARK H PARENT
REMARK Flexibility Score: inf
ROOT
ATOM      1  C   UNL     1     -23.766  33.721  -0.747  1.00  0.00     0.063 C 
ATOM      2  C   UNL     1     -22.774  32.920  -1.520  1.00  0.00     0.038 C 
ATOM      3  O   UNL     1     -22.190  33.426  -2.513  1.00  0.00    -0.550 OA
ATOM      4  O   UNL     1     -22.532  31.596  -1.180  1.00  0.00    -0.550 OA
ENDROOT
TORSDOF 0
ENDMDL
MODEL 3
REMARK VINA RESULT:    -2.062      1.998      2.244
REMARK INTER + INTRA:          -2.062
REMARK INTER:                  -2.062
REMARK INTRA:                   0.000
REMARK UNBOUND:                 0.000
REMARK SMILES CC(=O)[O-]
REMARK SMILES IDX 1 1 2 2 3 3 4 4
REMARK H PARENT
REMARK Flexibility Score: inf
ROOT
ATOM      1  C   UNL     1     -23.739  33.660  -0.884  1.00  0.00     0.063 C 
ATOM      2  C   UNL     1     -22.477  33.571  -1.672  1.00  0.00     0.038 C 
ATOM      3  O   UNL     1     -21.522  34.352  -1.425  1.00  0.00    -0.550 OA
ATOM      4  O   UNL     1     -22.371  32.664  -2.719  1.00  0.00    -0.550 OA
ENDROOT
TORSDOF 0
ENDMDL
MODEL 4
REMARK VINA RESULT:    -2.030     14.686     15.183
REMARK INTER + INTRA:          -2.030
REMARK INTER:                  -2.030
REMARK INTRA:                   0.000
REMARK UNBOUND:                 0.000
REMARK SMILES CC(=O)[O-]
REMARK SMILES IDX 1 1 2 2 3 3 4 4
REMARK H PARENT
REMARK Flexibility Score: inf
ROOT
ATOM      1  C   UNL     1     -13.844  21.013  -3.138  1.00  0.00     0.063 C 
ATOM      2  C   UNL     1     -14.156  22.223  -3.951  1.00  0.00     0.038 C 
ATOM      3  O   UNL     1     -13.309  22.673  -4.765  1.00  0.00    -0.550 OA
ATOM      4  O   UNL     1     -15.361  22.891  -3.771  1.00  0.00    -0.550 OA
ENDROOT
TORSDOF 0
ENDMDL
MODEL 5
REMARK VINA RESULT:    -2.027      1.622      1.885
REMARK INTER + INTRA:          -2.027
REMARK INTER:                  -2.027
REMARK INTRA:                   0.000
REMARK UNBOUND:                 0.000
REMARK SMILES CC(=O)[O-]
REMARK SMILES IDX 1 1 2 2 3 3 4 4
REMARK H PARENT
REMARK Flexibility Score: inf
ROOT
ATOM      1  C   UNL     1     -23.034  31.978  -1.606  1.00  0.00     0.063 C 
ATOM      2  C   UNL     1     -23.110  33.406  -1.182  1.00  0.00     0.038 C 
ATOM      3  O   UNL     1     -22.148  34.184  -1.407  1.00  0.00    -0.550 OA
ATOM      4  O   UNL     1     -24.221  33.867  -0.488  1.00  0.00    -0.550 OA
ENDROOT
TORSDOF 0
ENDMDL
MODEL 6
REMARK VINA RESULT:    -1.925      1.869      2.040
REMARK INTER + INTRA:          -1.925
REMARK INTER:                  -1.925
REMARK INTRA:                   0.000
REMARK UNBOUND:                 0.000
REMARK SMILES CC(=O)[O-]
REMARK SMILES IDX 1 1 2 2 3 3 4 4
REMARK H PARENT
REMARK Flexibility Score: inf
ROOT
ATOM      1  C   UNL     1     -21.589  33.086  -3.211  1.00  0.00     0.063 C 
ATOM      2  C   UNL     1     -22.269  33.123  -1.885  1.00  0.00     0.038 C 
ATOM      3  O   UNL     1     -22.474  34.224  -1.311  1.00  0.00    -0.550 OA
ATOM      4  O   UNL     1     -22.629  31.939  -1.254  1.00  0.00    -0.550 OA
ENDROOT
TORSDOF 0
ENDMDL
MODEL 7
REMARK VINA RESULT:    -1.848      5.629      6.049
REMARK INTER + INTRA:          -1.848
REMARK INTER:                  -1.848
REMARK INTRA:                   0.000
REMARK UNBOUND:                 0.000
REMARK SMILES CC(=O)[O-]
REMARK SMILES IDX 1 1 2 2 3 3 4 4
REMARK H PARENT
REMARK Flexibility Score: inf
ROOT
ATOM      1  C   UNL     1     -18.141  30.721  -1.346  1.00  0.00     0.063 C 
ATOM      2  C   UNL     1     -18.404  31.805  -2.336  1.00  0.00     0.038 C 
ATOM      3  O   UNL     1     -17.487  32.193  -3.105  1.00  0.00    -0.550 OA
ATOM      4  O   UNL     1     -19.645  32.427  -2.373  1.00  0.00    -0.550 OA
ENDROOT
TORSDOF 0
ENDMDL
MODEL 8
REMARK VINA RESULT:    -1.831     12.173     12.287
REMARK INTER + INTRA:          -1.831
REMARK INTER:                  -1.831
REMARK INTRA:                   0.000
REMARK UNBOUND:                 0.000
REMARK SMILES CC(=O)[O-]
REMARK SMILES IDX 1 1 2 2 3 3 4 4
REMARK H PARENT
REMARK Flexibility Score: inf
ROOT
ATOM      1  C   UNL     1     -22.259  25.740   7.009  1.00  0.00     0.063 C 
ATOM      2  C   UNL     1     -22.620  24.294   7.060  1.00  0.00     0.038 C 
ATOM      3  O   UNL     1     -22.400  23.625   8.102  1.00  0.00    -0.550 OA
ATOM      4  O   UNL     1     -23.151  23.669   5.939  1.00  0.00    -0.550 OA
ENDROOT
TORSDOF 0
ENDMDL
MODEL 9
REMARK VINA RESULT:    -1.817     12.198     12.614
REMARK INTER + INTRA:          -1.817
REMARK INTER:                  -1.817
REMARK INTRA:                   0.000
REMARK UNBOUND:                 0.000
REMARK SMILES CC(=O)[O-]
REMARK SMILES IDX 1 1 2 2 3 3 4 4
REMARK H PARENT
REMARK Flexibility Score: inf
ROOT
ATOM      1  C   UNL     1     -19.512  21.557  -4.021  1.00  0.00     0.063 C 
ATOM      2  C   UNL     1     -18.476  22.417  -3.380  1.00  0.00     0.038 C 
ATOM      3  O   UNL     1     -18.814  23.465  -2.772  1.00  0.00    -0.550 OA
ATOM      4  O   UNL     1     -17.131  22.092  -3.498  1.00  0.00    -0.550 OA
ENDROOT
TORSDOF 0
ENDMDL
