MODEL 1
REMARK VINA RESULT:    -3.658      0.000      0.000
REMARK INTER + INTRA:          -5.636
REMARK INTER:                  -5.582
REMARK INTRA:                  -0.053
REMARK UNBOUND:                -0.053
REMARK SMILES CC1=CCC[C@H](C)C(=O)C[C@H](C(C)C)C(=O)C1
REMARK SMILES IDX 8 1 9 2 6 3 7 4 5 5 4 6 3 7 2 8 1 9 10 11 11 12 15 13 16 14
REMARK SMILES IDX 17 15 12 17 13 18 14 19
REMARK H PARENT
REMARK Flexibility Score: 70.00
ROOT
ATOM      1  C   UNL     1      -8.061  72.430  24.552  1.00  0.00     0.136 C 
ATOM      2  O   UNL     1      -8.504  72.744  25.648  1.00  0.00    -0.299 OA
ENDROOT
BRANCH   1   3
ATOM      3  C   UNL     1      -8.906  72.650  23.313  1.00  0.00     0.053 C 
ATOM      4  C   UNL     1     -10.380  72.759  23.716  1.00  0.00     0.016 C 
BRANCH   3   5
ATOM      5  C   UNL     1      -8.474  73.912  22.527  1.00  0.00     0.015 C 
BRANCH   5   6
ATOM      6  C   UNL     1      -8.298  73.679  21.019  1.00  0.00     0.028 C 
BRANCH   6   7
ATOM      7  C   UNL     1      -6.961  74.187  20.531  1.00  0.00    -0.028 C 
ATOM      8  C   UNL     1      -5.842  73.438  20.413  1.00  0.00    -0.070 CG0
ATOM      9  C   UNL     1      -4.585  74.114  19.927  1.00  0.00     0.039 C 
ATOM     10  G   UNL     1      -5.799  71.959  20.754  1.00  0.00     0.000 G0
ENDBRANCH   6   7
ENDBRANCH   5   6
ENDBRANCH   3   5
ENDBRANCH   1   3
BRANCH   1  11
ATOM     11  C   UNL     1      -6.699  71.781  24.469  1.00  0.00     0.087 C 
BRANCH  11  12
ATOM     12  C   UNL     1      -6.475  70.983  23.160  1.00  0.00     0.066 C 
BRANCH  12  13
ATOM     13  C   UNL     1      -5.500  71.697  22.228  1.00  0.00     0.140 C 
ATOM     14  O   UNL     1      -4.405  72.032  22.658  1.00  0.00    -0.299 OA
BRANCH  13  15
ATOM     15  C   UNL     1      -5.803  71.972  20.769  1.00  0.00     0.106 CG0
ATOM     16  G   UNL     1      -5.816  73.445  20.402  1.00  0.00     0.000 G0
ENDBRANCH  13  15
ENDBRANCH  12  13
BRANCH  12  17
ATOM     17  C   UNL     1      -6.057  69.509  23.453  1.00  0.00    -0.006 C 
ATOM     18  C   UNL     1      -5.535  69.350  24.889  1.00  0.00     0.008 C 
ATOM     19  C   UNL     1      -7.164  68.472  23.185  1.00  0.00     0.008 C 
ENDBRANCH  12  17
ENDBRANCH  11  12
ENDBRANCH   1  11
TORSDOF 1
ENDMDL
MODEL 2
REMARK VINA RESULT:    -3.638      6.760      9.140
REMARK INTER + INTRA:          -5.605
REMARK INTER:                  -6.696
REMARK INTRA:                   1.091
REMARK UNBOUND:                -0.053
REMARK SMILES CC1=CCC[C@H](C)C(=O)C[C@H](C(C)C)C(=O)C1
REMARK SMILES IDX 8 1 9 2 6 3 7 4 5 5 4 6 3 7 2 8 1 9 10 11 11 12 15 13 16 14
REMARK SMILES IDX 17 15 12 17 13 18 14 19
REMARK H PARENT
REMARK Flexibility Score: 70.00
ROOT
ATOM      1  C   UNL     1      -9.588  74.920  30.863  1.00  0.00     0.136 C 
ATOM      2  O   UNL     1      -8.377  74.914  31.034  1.00  0.00    -0.299 OA
ENDROOT
BRANCH   1   3
ATOM      3  C   UNL     1     -10.514  74.778  32.054  1.00  0.00     0.053 C 
ATOM      4  C   UNL     1     -11.140  76.139  32.377  1.00  0.00     0.016 C 
BRANCH   3   5
ATOM      5  C   UNL     1     -11.623  73.726  31.810  1.00  0.00     0.015 C 
BRANCH   5   6
ATOM      6  C   UNL     1     -11.267  72.315  32.303  1.00  0.00     0.028 C 
BRANCH   6   7
ATOM      7  C   UNL     1      -9.936  71.855  31.757  1.00  0.00    -0.028 C 
ATOM      8  C   UNL     1      -9.712  71.467  30.482  1.00  0.00    -0.070 CG0
ATOM      9  C   UNL     1      -8.321  71.018  30.111  1.00  0.00     0.039 C 
ATOM     10  G   UNL     1     -10.797  71.458  29.420  1.00  0.00     0.000 G0
ENDBRANCH   6   7
ENDBRANCH   5   6
ENDBRANCH   3   5
ENDBRANCH   1   3
BRANCH   1  11
ATOM     11  C   UNL     1     -10.130  75.019  29.455  1.00  0.00     0.087 C 
BRANCH  11  12
ATOM     12  C   UNL     1      -9.796  73.785  28.579  1.00  0.00     0.066 C 
BRANCH  12  13
ATOM     13  C   UNL     1     -10.906  72.740  28.636  1.00  0.00     0.140 C 
ATOM     14  O   UNL     1     -11.930  72.926  27.993  1.00  0.00    -0.299 OA
BRANCH  13  15
ATOM     15  C   UNL     1     -10.785  71.449  29.419  1.00  0.00     0.106 CG0
ATOM     16  G   UNL     1      -9.712  71.467  30.493  1.00  0.00     0.000 G0
ENDBRANCH  13  15
ENDBRANCH  12  13
BRANCH  12  17
ATOM     17  C   UNL     1      -9.437  74.201  27.118  1.00  0.00    -0.006 C 
ATOM     18  C   UNL     1      -9.063  72.980  26.265  1.00  0.00     0.008 C 
ATOM     19  C   UNL     1     -10.532  75.017  26.406  1.00  0.00     0.008 C 
ENDBRANCH  12  17
ENDBRANCH  11  12
ENDBRANCH   1  11
TORSDOF 1
ENDMDL
MODEL 3
REMARK VINA RESULT:    -3.592      2.150      3.997
REMARK INTER + INTRA:          -5.535
REMARK INTER:                  -5.893
REMARK INTRA:                   0.359
REMARK UNBOUND:                -0.053
REMARK SMILES CC1=CCC[C@H](C)C(=O)C[C@H](C(C)C)C(=O)C1
REMARK SMILES IDX 8 1 9 2 6 3 7 4 5 5 4 6 3 7 2 8 1 9 10 11 11 12 15 13 16 14
REMARK SMILES IDX 17 15 12 17 13 18 14 19
REMARK H PARENT
REMARK Flexibility Score: 70.00
ROOT
ATOM      1  C   UNL     1      -9.936  73.676  22.687  1.00  0.00     0.136 C 
ATOM      2  O   UNL     1     -10.959  73.012  22.781  1.00  0.00    -0.299 OA
ENDROOT
BRANCH   1   3
ATOM      3  C   UNL     1      -9.372  73.992  21.317  1.00  0.00     0.053 C 
ATOM      4  C   UNL     1     -10.165  75.147  20.695  1.00  0.00     0.016 C 
BRANCH   3   5
ATOM      5  C   UNL     1      -7.867  74.349  21.372  1.00  0.00     0.015 C 
BRANCH   5   6
ATOM      6  C   UNL     1      -6.935  73.202  20.951  1.00  0.00     0.028 C 
BRANCH   6   7
ATOM      7  C   UNL     1      -5.834  72.982  21.961  1.00  0.00    -0.028 C 
ATOM      8  C   UNL     1      -5.976  72.324  23.135  1.00  0.00    -0.070 CG0
ATOM      9  C   UNL     1      -4.771  72.214  24.035  1.00  0.00     0.039 C 
ATOM     10  G   UNL     1      -7.288  71.704  23.579  1.00  0.00     0.000 G0
ENDBRANCH   6   7
ENDBRANCH   5   6
ENDBRANCH   3   5
ENDBRANCH   1   3
BRANCH   1  11
ATOM     11  C   UNL     1      -9.230  74.120  23.949  1.00  0.00     0.087 C 
BRANCH  11  12
ATOM     12  C   UNL     1      -9.131  73.008  25.023  1.00  0.00     0.066 C 
BRANCH  12  13
ATOM     13  C   UNL     1      -7.818  72.237  24.913  1.00  0.00     0.140 C 
ATOM     14  O   UNL     1      -7.180  72.004  25.929  1.00  0.00    -0.299 OA
BRANCH  13  15
ATOM     15  C   UNL     1      -7.284  71.701  23.600  1.00  0.00     0.106 CG0
ATOM     16  G   UNL     1      -5.971  72.324  23.159  1.00  0.00     0.000 G0
ENDBRANCH  13  15
ENDBRANCH  12  13
BRANCH  12  17
ATOM     17  C   UNL     1      -9.377  73.574  26.456  1.00  0.00    -0.006 C 
ATOM     18  C   UNL     1     -10.153  74.898  26.409  1.00  0.00     0.008 C 
ATOM     19  C   UNL     1     -10.082  72.592  27.411  1.00  0.00     0.008 C 
ENDBRANCH  12  17
ENDBRANCH  11  12
ENDBRANCH   1  11
TORSDOF 1
ENDMDL
MODEL 4
REMARK VINA RESULT:    -3.451      1.917      4.921
REMARK INTER + INTRA:          -5.320
REMARK INTER:                  -5.384
REMARK INTRA:                   0.064
REMARK UNBOUND:                -0.053
REMARK SMILES CC1=CCC[C@H](C)C(=O)C[C@H](C(C)C)C(=O)C1
REMARK SMILES IDX 8 1 9 2 6 3 7 4 5 5 4 6 3 7 2 8 1 9 10 11 11 12 15 13 16 14
REMARK SMILES IDX 17 15 12 17 13 18 14 19
REMARK H PARENT
REMARK Flexibility Score: 70.00
ROOT
ATOM      1  C   UNL     1      -6.267  73.111  20.803  1.00  0.00     0.136 C 
ATOM      2  O   UNL     1      -7.207  73.022  20.025  1.00  0.00    -0.299 OA
ENDROOT
BRANCH   1   3
ATOM      3  C   UNL     1      -4.858  72.857  20.308  1.00  0.00     0.053 C 
ATOM      4  C   UNL     1      -4.098  74.185  20.234  1.00  0.00     0.016 C 
BRANCH   3   5
ATOM      5  C   UNL     1      -4.094  71.855  21.208  1.00  0.00     0.015 C 
BRANCH   5   6
ATOM      6  C   UNL     1      -4.790  70.493  21.359  1.00  0.00     0.028 C 
BRANCH   6   7
ATOM      7  C   UNL     1      -4.516  69.878  22.710  1.00  0.00    -0.028 C 
ATOM      8  C   UNL     1      -5.431  69.721  23.693  1.00  0.00    -0.070 CG0
ATOM      9  C   UNL     1      -4.979  69.102  24.992  1.00  0.00     0.039 C 
ATOM     10  G   UNL     1      -6.881  70.146  23.544  1.00  0.00     0.000 G0
ENDBRANCH   6   7
ENDBRANCH   5   6
ENDBRANCH   3   5
ENDBRANCH   1   3
BRANCH   1  11
ATOM     11  C   UNL     1      -6.545  73.424  22.256  1.00  0.00     0.087 C 
BRANCH  11  12
ATOM     12  C   UNL     1      -7.703  72.588  22.855  1.00  0.00     0.066 C 
BRANCH  12  13
ATOM     13  C   UNL     1      -7.196  71.585  23.887  1.00  0.00     0.140 C 
ATOM     14  O   UNL     1      -7.057  71.945  25.048  1.00  0.00    -0.299 OA
BRANCH  13  15
ATOM     15  C   UNL     1      -6.895  70.137  23.553  1.00  0.00     0.106 CG0
ATOM     16  G   UNL     1      -5.434  69.752  23.703  1.00  0.00     0.000 G0
ENDBRANCH  13  15
ENDBRANCH  12  13
BRANCH  12  17
ATOM     17  C   UNL     1      -8.839  73.501  23.414  1.00  0.00    -0.006 C 
ATOM     18  C   UNL     1      -9.458  74.365  22.305  1.00  0.00     0.008 C 
ATOM     19  C   UNL     1      -9.950  72.742  24.163  1.00  0.00     0.008 C 
ENDBRANCH  12  17
ENDBRANCH  11  12
ENDBRANCH   1  11
TORSDOF 1
ENDMDL
MODEL 5
REMARK VINA RESULT:    -3.383      1.603      3.869
REMARK INTER + INTRA:          -5.216
REMARK INTER:                  -5.178
REMARK INTRA:                  -0.038
REMARK UNBOUND:                -0.053
REMARK SMILES CC1=CCC[C@H](C)C(=O)C[C@H](C(C)C)C(=O)C1
REMARK SMILES IDX 8 1 9 2 6 3 7 4 5 5 4 6 3 7 2 8 1 9 10 11 11 12 15 13 16 14
REMARK SMILES IDX 17 15 12 17 13 18 14 19
REMARK H PARENT
REMARK Flexibility Score: 70.00
ROOT
ATOM      1  C   UNL     1      -6.906  71.669  24.534  1.00  0.00     0.136 C 
ATOM      2  O   UNL     1      -7.137  71.941  25.704  1.00  0.00    -0.299 OA
ENDROOT
BRANCH   1   3
ATOM      3  C   UNL     1      -5.543  71.137  24.144  1.00  0.00     0.053 C 
ATOM      4  C   UNL     1      -4.736  70.829  25.410  1.00  0.00     0.016 C 
BRANCH   3   5
ATOM      5  C   UNL     1      -5.641  69.873  23.255  1.00  0.00     0.015 C 
BRANCH   5   6
ATOM      6  C   UNL     1      -5.411  70.141  21.759  1.00  0.00     0.028 C 
BRANCH   6   7
ATOM      7  C   UNL     1      -4.768  71.488  21.529  1.00  0.00    -0.028 C 
ATOM      8  C   UNL     1      -5.418  72.599  21.113  1.00  0.00    -0.070 CG0
ATOM      9  C   UNL     1      -4.614  73.859  20.916  1.00  0.00     0.039 C 
ATOM     10  G   UNL     1      -6.910  72.625  20.835  1.00  0.00     0.000 G0
ENDBRANCH   6   7
ENDBRANCH   5   6
ENDBRANCH   3   5
ENDBRANCH   1   3
BRANCH   1  11
ATOM     11  C   UNL     1      -7.977  71.924  23.497  1.00  0.00     0.087 C 
BRANCH  11  12
ATOM     12  C   UNL     1      -8.112  73.417  23.105  1.00  0.00     0.066 C 
BRANCH  12  13
ATOM     13  C   UNL     1      -7.670  73.661  21.665  1.00  0.00     0.140 C 
ATOM     14  O   UNL     1      -7.899  74.746  21.150  1.00  0.00    -0.299 OA
BRANCH  13  15
ATOM     15  C   UNL     1      -6.911  72.634  20.849  1.00  0.00     0.106 CG0
ATOM     16  G   UNL     1      -5.417  72.603  21.116  1.00  0.00     0.000 G0
ENDBRANCH  13  15
ENDBRANCH  12  13
BRANCH  12  17
ATOM     17  C   UNL     1      -9.549  73.955  23.391  1.00  0.00    -0.006 C 
ATOM     18  C   UNL     1     -10.622  72.978  22.888  1.00  0.00     0.008 C 
ATOM     19  C   UNL     1      -9.812  74.299  24.869  1.00  0.00     0.008 C 
ENDBRANCH  12  17
ENDBRANCH  11  12
ENDBRANCH   1  11
TORSDOF 1
ENDMDL
MODEL 6
REMARK VINA RESULT:    -3.250      2.187      4.312
REMARK INTER + INTRA:          -5.013
REMARK INTER:                  -5.095
REMARK INTRA:                   0.083
REMARK UNBOUND:                -0.053
REMARK SMILES CC1=CCC[C@H](C)C(=O)C[C@H](C(C)C)C(=O)C1
REMARK SMILES IDX 8 1 9 2 6 3 7 4 5 5 4 6 3 7 2 8 1 9 10 11 11 12 15 13 16 14
REMARK SMILES IDX 17 15 12 17 13 18 14 19
REMARK H PARENT
REMARK Flexibility Score: 70.00
ROOT
ATOM      1  C   UNL     1      -6.374  73.085  21.631  1.00  0.00     0.136 C 
ATOM      2  O   UNL     1      -5.180  73.044  21.370  1.00  0.00    -0.299 OA
ENDROOT
BRANCH   1   3
ATOM      3  C   UNL     1      -7.201  74.268  21.168  1.00  0.00     0.053 C 
ATOM      4  C   UNL     1      -8.106  73.832  20.011  1.00  0.00     0.016 C 
BRANCH   3   5
ATOM      5  C   UNL     1      -8.051  74.871  22.312  1.00  0.00     0.015 C 
BRANCH   5   6
ATOM      6  C   UNL     1      -9.512  74.395  22.323  1.00  0.00     0.028 C 
BRANCH   6   7
ATOM      7  C   UNL     1     -10.092  74.417  23.718  1.00  0.00    -0.028 C 
ATOM      8  C   UNL     1      -9.969  73.424  24.627  1.00  0.00    -0.070 CG0
ATOM      9  C   UNL     1     -10.630  73.605  25.970  1.00  0.00     0.039 C 
ATOM     10  G   UNL     1      -9.203  72.142  24.349  1.00  0.00     0.000 G0
ENDBRANCH   6   7
ENDBRANCH   5   6
ENDBRANCH   3   5
ENDBRANCH   1   3
BRANCH   1  11
ATOM     11  C   UNL     1      -6.984  71.976  22.458  1.00  0.00     0.087 C 
BRANCH  11  12
ATOM     12  C   UNL     1      -6.560  72.014  23.948  1.00  0.00     0.066 C 
BRANCH  12  13
ATOM     13  C   UNL     1      -7.768  72.150  24.871  1.00  0.00     0.140 C 
ATOM     14  O   UNL     1      -7.584  72.315  26.069  1.00  0.00    -0.299 OA
BRANCH  13  15
ATOM     15  C   UNL     1      -9.197  72.137  24.368  1.00  0.00     0.106 CG0
ATOM     16  G   UNL     1      -9.959  73.427  24.616  1.00  0.00     0.000 G0
ENDBRANCH  13  15
ENDBRANCH  12  13
BRANCH  12  17
ATOM     17  C   UNL     1      -5.656  70.797  24.316  1.00  0.00    -0.006 C 
ATOM     18  C   UNL     1      -5.333  69.946  23.079  1.00  0.00     0.008 C 
ATOM     19  C   UNL     1      -4.352  71.175  25.042  1.00  0.00     0.008 C 
ENDBRANCH  12  17
ENDBRANCH  11  12
ENDBRANCH   1  11
TORSDOF 1
ENDMDL
MODEL 7
REMARK VINA RESULT:    -3.131      4.093      6.341
REMARK INTER + INTRA:          -4.832
REMARK INTER:                  -4.370
REMARK INTRA:                  -0.462
REMARK UNBOUND:                -0.053
REMARK SMILES CC1=CCC[C@H](C)C(=O)C[C@H](C(C)C)C(=O)C1
REMARK SMILES IDX 8 1 9 2 6 3 7 4 5 5 4 6 3 7 2 8 1 9 10 11 11 12 15 13 16 14
REMARK SMILES IDX 17 15 12 17 13 18 14 19
REMARK H PARENT
REMARK Flexibility Score: 70.00
ROOT
ATOM      1  C   UNL     1      -4.178  70.502  25.301  1.00  0.00     0.136 C 
ATOM      2  O   UNL     1      -3.565  71.492  24.927  1.00  0.00    -0.299 OA
ENDROOT
BRANCH   1   3
ATOM      3  C   UNL     1      -5.626  70.321  24.895  1.00  0.00     0.053 C 
ATOM      4  C   UNL     1      -6.386  71.632  25.125  1.00  0.00     0.016 C 
BRANCH   3   5
ATOM      5  C   UNL     1      -5.769  69.875  23.420  1.00  0.00     0.015 C 
BRANCH   5   6
ATOM      6  C   UNL     1      -4.849  68.708  23.027  1.00  0.00     0.028 C 
BRANCH   6   7
ATOM      7  C   UNL     1      -5.513  67.373  23.268  1.00  0.00    -0.028 C 
ATOM      8  C   UNL     1      -5.123  66.466  24.192  1.00  0.00    -0.070 CG0
ATOM      9  C   UNL     1      -5.891  65.172  24.283  1.00  0.00     0.039 C 
ATOM     10  G   UNL     1      -3.950  66.696  25.128  1.00  0.00     0.000 G0
ENDBRANCH   6   7
ENDBRANCH   5   6
ENDBRANCH   3   5
ENDBRANCH   1   3
BRANCH   1  11
ATOM     11  C   UNL     1      -3.485  69.508  26.205  1.00  0.00     0.087 C 
BRANCH  11  12
ATOM     12  C   UNL     1      -4.465  68.580  26.966  1.00  0.00     0.066 C 
BRANCH  12  13
ATOM     13  C   UNL     1      -4.303  67.124  26.540  1.00  0.00     0.140 C 
ATOM     14  O   UNL     1      -4.520  66.239  27.356  1.00  0.00    -0.299 OA
BRANCH  13  15
ATOM     15  C   UNL     1      -3.929  66.712  25.131  1.00  0.00     0.106 CG0
ATOM     16  G   UNL     1      -5.115  66.476  24.213  1.00  0.00     0.000 G0
ENDBRANCH  13  15
ENDBRANCH  12  13
BRANCH  12  17
ATOM     17  C   UNL     1      -4.350  68.771  28.511  1.00  0.00    -0.006 C 
ATOM     18  C   UNL     1      -2.942  69.234  28.914  1.00  0.00     0.008 C 
ATOM     19  C   UNL     1      -5.401  69.724  29.110  1.00  0.00     0.008 C 
ENDBRANCH  12  17
ENDBRANCH  11  12
ENDBRANCH   1  11
TORSDOF 1
ENDMDL
MODEL 8
REMARK VINA RESULT:    -3.057     12.315     14.234
REMARK INTER + INTRA:          -4.719
REMARK INTER:                  -4.530
REMARK INTRA:                  -0.189
REMARK UNBOUND:                -0.053
REMARK SMILES CC1=CCC[C@H](C)C(=O)C[C@H](C(C)C)C(=O)C1
REMARK SMILES IDX 8 1 9 2 6 3 7 4 5 5 4 6 3 7 2 8 1 9 10 11 11 12 15 13 16 14
REMARK SMILES IDX 17 15 12 17 13 18 14 19
REMARK H PARENT
REMARK Flexibility Score: 70.00
ROOT
ATOM      1  C   UNL     1      -7.146  69.576  36.584  1.00  0.00     0.136 C 
ATOM      2  O   UNL     1      -8.005  70.447  36.593  1.00  0.00    -0.299 OA
ENDROOT
BRANCH   1   3
ATOM      3  C   UNL     1      -7.476  68.203  36.035  1.00  0.00     0.053 C 
ATOM      4  C   UNL     1      -8.965  67.914  36.252  1.00  0.00     0.016 C 
BRANCH   3   5
ATOM      5  C   UNL     1      -7.123  68.074  34.533  1.00  0.00     0.015 C 
BRANCH   5   6
ATOM      6  C   UNL     1      -6.130  66.943  34.219  1.00  0.00     0.028 C 
BRANCH   6   7
ATOM      7  C   UNL     1      -4.994  67.428  33.351  1.00  0.00    -0.028 C 
ATOM      8  C   UNL     1      -3.754  67.738  33.794  1.00  0.00    -0.070 CG0
ATOM      9  C   UNL     1      -2.743  68.227  32.789  1.00  0.00     0.039 C 
ATOM     10  G   UNL     1      -3.347  67.621  35.252  1.00  0.00     0.000 G0
ENDBRANCH   6   7
ENDBRANCH   5   6
ENDBRANCH   3   5
ENDBRANCH   1   3
BRANCH   1  11
ATOM     11  C   UNL     1      -5.787  69.881  37.173  1.00  0.00     0.087 C 
BRANCH  11  12
ATOM     12  C   UNL     1      -4.839  68.656  37.201  1.00  0.00     0.066 C 
BRANCH  12  13
ATOM     13  C   UNL     1      -3.743  68.771  36.145  1.00  0.00     0.140 C 
ATOM     14  O   UNL     1      -3.140  69.828  36.028  1.00  0.00    -0.299 OA
BRANCH  13  15
ATOM     15  C   UNL     1      -3.328  67.616  35.257  1.00  0.00     0.106 CG0
ATOM     16  G   UNL     1      -3.751  67.759  33.806  1.00  0.00     0.000 G0
ENDBRANCH  13  15
ENDBRANCH  12  13
BRANCH  12  17
ATOM     17  C   UNL     1      -4.270  68.405  38.632  1.00  0.00    -0.006 C 
ATOM     18  C   UNL     1      -4.018  69.727  39.373  1.00  0.00     0.008 C 
ATOM     19  C   UNL     1      -5.138  67.479  39.504  1.00  0.00     0.008 C 
ENDBRANCH  12  17
ENDBRANCH  11  12
ENDBRANCH   1  11
TORSDOF 1
ENDMDL
MODEL 9
REMARK VINA RESULT:    -2.947      2.727      5.553
REMARK INTER + INTRA:          -4.551
REMARK INTER:                  -4.288
REMARK INTRA:                  -0.263
REMARK UNBOUND:                -0.053
REMARK SMILES CC1=CCC[C@H](C)C(=O)C[C@H](C(C)C)C(=O)C1
REMARK SMILES IDX 8 1 9 2 6 3 7 4 5 5 4 6 3 7 2 8 1 9 10 11 11 12 15 13 16 14
REMARK SMILES IDX 17 15 12 17 13 18 14 19
REMARK H PARENT
REMARK Flexibility Score: 70.00
ROOT
ATOM      1  C   UNL     1      -5.786  69.433  22.408  1.00  0.00     0.136 C 
ATOM      2  O   UNL     1      -4.699  69.344  21.855  1.00  0.00    -0.299 OA
ENDROOT
BRANCH   1   3
ATOM      3  C   UNL     1      -6.451  68.186  22.956  1.00  0.00     0.053 C 
ATOM      4  C   UNL     1      -7.099  67.409  21.805  1.00  0.00     0.016 C 
BRANCH   3   5
ATOM      5  C   UNL     1      -5.454  67.278  23.716  1.00  0.00     0.015 C 
BRANCH   5   6
ATOM      6  C   UNL     1      -5.239  67.677  25.185  1.00  0.00     0.028 C 
BRANCH   6   7
ATOM      7  C   UNL     1      -3.936  68.417  25.374  1.00  0.00    -0.028 C 
ATOM      8  C   UNL     1      -3.824  69.726  25.691  1.00  0.00    -0.070 CG0
ATOM      9  C   UNL     1      -2.439  70.308  25.822  1.00  0.00     0.039 C 
ATOM     10  G   UNL     1      -5.027  70.627  25.911  1.00  0.00     0.000 G0
ENDBRANCH   6   7
ENDBRANCH   5   6
ENDBRANCH   3   5
ENDBRANCH   1   3
BRANCH   1  11
ATOM     11  C   UNL     1      -6.464  70.782  22.482  1.00  0.00     0.087 C 
BRANCH  11  12
ATOM     12  C   UNL     1      -6.722  71.262  23.932  1.00  0.00     0.066 C 
BRANCH  12  13
ATOM     13  C   UNL     1      -5.416  71.465  24.696  1.00  0.00     0.140 C 
ATOM     14  O   UNL     1      -4.660  72.363  24.352  1.00  0.00    -0.299 OA
BRANCH  13  15
ATOM     15  C   UNL     1      -5.027  70.633  25.901  1.00  0.00     0.106 CG0
ATOM     16  G   UNL     1      -3.831  69.725  25.673  1.00  0.00     0.000 G0
ENDBRANCH  13  15
ENDBRANCH  12  13
BRANCH  12  17
ATOM     17  C   UNL     1      -7.637  72.526  23.962  1.00  0.00    -0.006 C 
ATOM     18  C   UNL     1      -7.769  73.154  22.566  1.00  0.00     0.008 C 
ATOM     19  C   UNL     1      -9.037  72.279  24.554  1.00  0.00     0.008 C 
ENDBRANCH  12  17
ENDBRANCH  11  12
ENDBRANCH   1  11
TORSDOF 1
ENDMDL
