MODEL 1
REMARK VINA RESULT:    -4.173      0.000      0.000
REMARK INTER + INTRA:          -4.295
REMARK INTER:                  -4.295
REMARK INTRA:                   0.000
REMARK UNBOUND:                 0.000
REMARK SMILES Cc1cccc(O)c1C
REMARK SMILES IDX 1 1 2 2 8 3 6 4 5 5 4 6 3 7 9 8 7 9
REMARK H PARENT 7 10
REMARK Flexibility Score: inf
ROOT
ATOM      1  C   UNL     1       9.850 -27.686  14.661  1.00  0.00     0.045 C 
ATOM      2  C   UNL     1       8.952 -26.483  14.804  1.00  0.00    -0.045 A 
ATOM      3  C   UNL     1       8.843 -25.764  16.027  1.00  0.00    -0.006 A 
ATOM      4  C   UNL     1       7.978 -24.641  16.089  1.00  0.00     0.118 A 
ATOM      5  C   UNL     1       7.250 -24.254  14.961  1.00  0.00     0.046 A 
ATOM      6  C   UNL     1       7.363 -24.961  13.768  1.00  0.00     0.004 A 
ATOM      7  C   UNL     1       8.206 -26.068  13.688  1.00  0.00     0.004 A 
ATOM      8  C   UNL     1       9.621 -26.165  17.260  1.00  0.00     0.048 C 
ENDROOT
BRANCH   4   9
ATOM      9  O   UNL     1       7.820 -23.888  17.256  1.00  0.00    -0.508 OA
ATOM     10  H   UNL     1       8.128 -22.929  17.348  1.00  0.00     0.293 HD
ENDBRANCH   4   9
TORSDOF 1
ENDMDL
MODEL 2
REMARK VINA RESULT:    -4.040     13.186     14.450
REMARK INTER + INTRA:          -4.158
REMARK INTER:                  -4.158
REMARK INTRA:                   0.000
REMARK UNBOUND:                 0.000
REMARK SMILES Cc1cccc(O)c1C
REMARK SMILES IDX 1 1 2 2 8 3 6 4 5 5 4 6 3 7 9 8 7 9
REMARK H PARENT 7 10
REMARK Flexibility Score: inf
ROOT
ATOM      1  C   UNL     1      23.298 -21.680  18.026  1.00  0.00     0.045 C 
ATOM      2  C   UNL     1      22.420 -22.853  18.383  1.00  0.00    -0.045 A 
ATOM      3  C   UNL     1      22.807 -23.818  19.354  1.00  0.00    -0.006 A 
ATOM      4  C   UNL     1      21.930 -24.897  19.640  1.00  0.00     0.118 A 
ATOM      5  C   UNL     1      20.707 -25.000  18.971  1.00  0.00     0.046 A 
ATOM      6  C   UNL     1      20.335 -24.053  18.023  1.00  0.00     0.004 A 
ATOM      7  C   UNL     1      21.183 -22.987  17.729  1.00  0.00     0.004 A 
ATOM      8  C   UNL     1      24.125 -23.725  20.089  1.00  0.00     0.048 C 
ENDROOT
BRANCH   4   9
ATOM      9  O   UNL     1      22.244 -25.881  20.580  1.00  0.00    -0.508 OA
ATOM     10  H   UNL     1      22.617 -25.678  21.498  1.00  0.00     0.293 HD
ENDBRANCH   4   9
TORSDOF 1
ENDMDL
MODEL 3
REMARK VINA RESULT:    -4.023      1.552      2.651
REMARK INTER + INTRA:          -4.141
REMARK INTER:                  -4.141
REMARK INTRA:                   0.000
REMARK UNBOUND:                 0.000
REMARK SMILES Cc1cccc(O)c1C
REMARK SMILES IDX 1 1 2 2 8 3 6 4 5 5 4 6 3 7 9 8 7 9
REMARK H PARENT 7 10
REMARK Flexibility Score: inf
ROOT
ATOM      1  C   UNL     1      10.262 -27.120  16.014  1.00  0.00     0.045 C 
ATOM      2  C   UNL     1       9.160 -26.091  15.988  1.00  0.00    -0.045 A 
ATOM      3  C   UNL     1       8.447 -25.778  14.797  1.00  0.00    -0.006 A 
ATOM      4  C   UNL     1       7.422 -24.798  14.847  1.00  0.00     0.118 A 
ATOM      5  C   UNL     1       7.124 -24.157  16.053  1.00  0.00     0.046 A 
ATOM      6  C   UNL     1       7.826 -24.468  17.213  1.00  0.00     0.004 A 
ATOM      7  C   UNL     1       8.836 -25.427  17.183  1.00  0.00     0.004 A 
ATOM      8  C   UNL     1       8.752 -26.460  13.483  1.00  0.00     0.048 C 
ENDROOT
BRANCH   4   9
ATOM      9  O   UNL     1       6.681 -24.440  13.718  1.00  0.00    -0.508 OA
ATOM     10  H   UNL     1       6.979 -23.738  13.054  1.00  0.00     0.293 HD
ENDBRANCH   4   9
TORSDOF 1
ENDMDL
MODEL 4
REMARK VINA RESULT:    -3.981      1.462      2.837
REMARK INTER + INTRA:          -4.098
REMARK INTER:                  -4.098
REMARK INTRA:                   0.000
REMARK UNBOUND:                 0.000
REMARK SMILES Cc1cccc(O)c1C
REMARK SMILES IDX 1 1 2 2 8 3 6 4 5 5 4 6 3 7 9 8 7 9
REMARK H PARENT 7 10
REMARK Flexibility Score: inf
ROOT
ATOM      1  C   UNL     1       7.221 -24.257  14.246  1.00  0.00     0.045 C 
ATOM      2  C   UNL     1       8.285 -25.190  14.768  1.00  0.00    -0.045 A 
ATOM      3  C   UNL     1       8.508 -25.375  16.161  1.00  0.00    -0.006 A 
ATOM      4  C   UNL     1       9.526 -26.270  16.581  1.00  0.00     0.118 A 
ATOM      5  C   UNL     1      10.293 -26.953  15.633  1.00  0.00     0.046 A 
ATOM      6  C   UNL     1      10.069 -26.767  14.273  1.00  0.00     0.004 A 
ATOM      7  C   UNL     1       9.073 -25.892  13.842  1.00  0.00     0.004 A 
ATOM      8  C   UNL     1       7.691 -24.647  17.203  1.00  0.00     0.048 C 
ENDROOT
BRANCH   4   9
ATOM      9  O   UNL     1       9.802 -26.501  17.931  1.00  0.00    -0.508 OA
ATOM     10  H   UNL     1       9.245 -26.126  18.687  1.00  0.00     0.293 HD
ENDBRANCH   4   9
TORSDOF 1
ENDMDL
MODEL 5
REMARK VINA RESULT:    -3.963      6.926      7.513
REMARK INTER + INTRA:          -4.079
REMARK INTER:                  -4.079
REMARK INTRA:                   0.000
REMARK UNBOUND:                 0.000
REMARK SMILES Cc1cccc(O)c1C
REMARK SMILES IDX 1 1 2 2 8 3 6 4 5 5 4 6 3 7 9 8 7 9
REMARK H PARENT 7 10
REMARK Flexibility Score: inf
ROOT
ATOM      1  C   UNL     1      15.869 -26.808  13.119  1.00  0.00     0.045 C 
ATOM      2  C   UNL     1      15.103 -25.757  12.356  1.00  0.00    -0.045 A 
ATOM      3  C   UNL     1      15.497 -24.390  12.350  1.00  0.00    -0.006 A 
ATOM      4  C   UNL     1      14.728 -23.456  11.609  1.00  0.00     0.118 A 
ATOM      5  C   UNL     1      13.603 -23.883  10.898  1.00  0.00     0.046 A 
ATOM      6  C   UNL     1      13.224 -25.221  10.908  1.00  0.00     0.004 A 
ATOM      7  C   UNL     1      13.966 -26.153  11.631  1.00  0.00     0.004 A 
ATOM      8  C   UNL     1      16.710 -23.908  13.111  1.00  0.00     0.048 C 
ENDROOT
BRANCH   4   9
ATOM      9  O   UNL     1      15.054 -22.099  11.558  1.00  0.00    -0.508 OA
ATOM     10  H   UNL     1      14.444 -21.364  11.891  1.00  0.00     0.293 HD
ENDBRANCH   4   9
TORSDOF 1
ENDMDL
MODEL 6
REMARK VINA RESULT:    -3.940      1.417      2.580
REMARK INTER + INTRA:          -4.055
REMARK INTER:                  -4.055
REMARK INTRA:                   0.000
REMARK UNBOUND:                 0.000
REMARK SMILES Cc1cccc(O)c1C
REMARK SMILES IDX 1 1 2 2 8 3 6 4 5 5 4 6 3 7 9 8 7 9
REMARK H PARENT 7 10
REMARK Flexibility Score: inf
ROOT
ATOM      1  C   UNL     1       9.632 -25.958  17.459  1.00  0.00     0.045 C 
ATOM      2  C   UNL     1       9.101 -25.978  16.048  1.00  0.00    -0.045 A 
ATOM      3  C   UNL     1       8.039 -25.129  15.629  1.00  0.00    -0.006 A 
ATOM      4  C   UNL     1       7.590 -25.202  14.285  1.00  0.00     0.118 A 
ATOM      5  C   UNL     1       8.189 -26.096  13.394  1.00  0.00     0.046 A 
ATOM      6  C   UNL     1       9.228 -26.923  13.810  1.00  0.00     0.004 A 
ATOM      7  C   UNL     1       9.682 -26.866  15.126  1.00  0.00     0.004 A 
ATOM      8  C   UNL     1       7.377 -24.154  16.576  1.00  0.00     0.048 C 
ENDROOT
BRANCH   4   9
ATOM      9  O   UNL     1       6.552 -24.400  13.803  1.00  0.00    -0.508 OA
ATOM     10  H   UNL     1       6.506 -23.400  13.947  1.00  0.00     0.293 HD
ENDBRANCH   4   9
TORSDOF 1
ENDMDL
MODEL 7
REMARK VINA RESULT:    -3.928      0.895      2.561
REMARK INTER + INTRA:          -4.043
REMARK INTER:                  -4.043
REMARK INTRA:                   0.000
REMARK UNBOUND:                 0.000
REMARK SMILES Cc1cccc(O)c1C
REMARK SMILES IDX 1 1 2 2 8 3 6 4 5 5 4 6 3 7 9 8 7 9
REMARK H PARENT 7 10
REMARK Flexibility Score: inf
ROOT
ATOM      1  C   UNL     1       8.811 -26.835  13.222  1.00  0.00     0.045 C 
ATOM      2  C   UNL     1       8.765 -26.264  14.617  1.00  0.00    -0.045 A 
ATOM      3  C   UNL     1       7.996 -25.110  14.935  1.00  0.00    -0.006 A 
ATOM      4  C   UNL     1       7.999 -24.628  16.270  1.00  0.00     0.118 A 
ATOM      5  C   UNL     1       8.748 -25.286  17.250  1.00  0.00     0.046 A 
ATOM      6  C   UNL     1       9.497 -26.414  16.932  1.00  0.00     0.004 A 
ATOM      7  C   UNL     1       9.507 -26.901  15.626  1.00  0.00     0.004 A 
ATOM      8  C   UNL     1       7.179 -24.384  13.892  1.00  0.00     0.048 C 
ENDROOT
BRANCH   4   9
ATOM      9  O   UNL     1       7.269 -23.501  16.656  1.00  0.00    -0.508 OA
ATOM     10  H   UNL     1       7.691 -22.601  16.844  1.00  0.00     0.293 HD
ENDBRANCH   4   9
TORSDOF 1
ENDMDL
MODEL 8
REMARK VINA RESULT:    -3.894      9.289     10.761
REMARK INTER + INTRA:          -4.008
REMARK INTER:                  -4.008
REMARK INTRA:                   0.000
REMARK UNBOUND:                 0.000
REMARK SMILES Cc1cccc(O)c1C
REMARK SMILES IDX 1 1 2 2 8 3 6 4 5 5 4 6 3 7 9 8 7 9
REMARK H PARENT 7 10
REMARK Flexibility Score: inf
ROOT
ATOM      1  C   UNL     1      10.199 -17.109  24.691  1.00  0.00     0.045 C 
ATOM      2  C   UNL     1       9.496 -17.896  23.614  1.00  0.00    -0.045 A 
ATOM      3  C   UNL     1       9.456 -17.457  22.261  1.00  0.00    -0.006 A 
ATOM      4  C   UNL     1       8.776 -18.250  21.300  1.00  0.00     0.118 A 
ATOM      5  C   UNL     1       8.160 -19.443  21.687  1.00  0.00     0.046 A 
ATOM      6  C   UNL     1       8.203 -19.867  23.011  1.00  0.00     0.004 A 
ATOM      7  C   UNL     1       8.865 -19.101  23.969  1.00  0.00     0.004 A 
ATOM      8  C   UNL     1      10.116 -16.170  21.821  1.00  0.00     0.048 C 
ENDROOT
BRANCH   4   9
ATOM      9  O   UNL     1       8.695 -17.881  19.955  1.00  0.00    -0.508 OA
ATOM     10  H   UNL     1       9.056 -18.447  19.198  1.00  0.00     0.293 HD
ENDBRANCH   4   9
TORSDOF 1
ENDMDL
MODEL 9
REMARK VINA RESULT:    -3.854      6.133      6.853
REMARK INTER + INTRA:          -3.967
REMARK INTER:                  -3.967
REMARK INTRA:                   0.000
REMARK UNBOUND:                 0.000
REMARK SMILES Cc1cccc(O)c1C
REMARK SMILES IDX 1 1 2 2 8 3 6 4 5 5 4 6 3 7 9 8 7 9
REMARK H PARENT 7 10
REMARK Flexibility Score: inf
ROOT
ATOM      1  C   UNL     1      14.150 -26.608   9.301  1.00  0.00     0.045 C 
ATOM      2  C   UNL     1      14.060 -25.579  10.400  1.00  0.00    -0.045 A 
ATOM      3  C   UNL     1      13.413 -25.851  11.637  1.00  0.00    -0.006 A 
ATOM      4  C   UNL     1      13.365 -24.835  12.627  1.00  0.00     0.118 A 
ATOM      5  C   UNL     1      13.950 -23.589  12.379  1.00  0.00     0.046 A 
ATOM      6  C   UNL     1      14.581 -23.331  11.167  1.00  0.00     0.004 A 
ATOM      7  C   UNL     1      14.637 -24.316  10.183  1.00  0.00     0.004 A 
ATOM      8  C   UNL     1      12.775 -27.191  11.926  1.00  0.00     0.048 C 
ENDROOT
BRANCH   4   9
ATOM      9  O   UNL     1      12.747 -25.030  13.864  1.00  0.00    -0.508 OA
ATOM     10  H   UNL     1      13.106 -24.656  14.733  1.00  0.00     0.293 HD
ENDBRANCH   4   9
TORSDOF 1
ENDMDL
