MODEL 1
REMARK VINA RESULT:    -5.281      0.000      0.000
REMARK INTER + INTRA:         -10.567
REMARK INTER:                  -9.603
REMARK INTRA:                  -0.964
REMARK UNBOUND:                -0.964
REMARK SMILES CCCCCC=CCC=CCCCCCCCC(=O)[O-]
REMARK SMILES IDX 11 1 12 2 13 3 14 4 15 5 16 6 17 7 18 8 19 9 20 10 10 11
REMARK SMILES IDX 9 12 8 13 7 14 6 15 5 16 4 17 3 18 2 19 1 20
REMARK H PARENT
REMARK Flexibility Score: inf
ROOT
ATOM      1  C   UNL     1      40.316   7.910   3.757  1.00  0.00     0.027 C 
ENDROOT
BRANCH   1   2
ATOM      2  C   UNL     1      38.926   7.927   4.424  1.00  0.00     0.004 C 
BRANCH   2   3
ATOM      3  C   UNL     1      37.904   6.980   3.767  1.00  0.00     0.000 C 
BRANCH   3   4
ATOM      4  C   UNL     1      36.433   7.425   3.867  1.00  0.00     0.000 C 
BRANCH   4   5
ATOM      5  C   UNL     1      36.174   8.651   4.762  1.00  0.00     0.000 C 
BRANCH   5   6
ATOM      6  C   UNL     1      34.855   9.367   4.430  1.00  0.00     0.006 C 
BRANCH   6   7
ATOM      7  C   UNL     1      34.979  10.268   3.195  1.00  0.00     0.053 C 
BRANCH   7   8
ATOM      8  C   UNL     1      33.816  10.103   2.264  1.00  0.00     0.041 C 
ATOM      9  O   UNL     1      33.922   9.374   1.243  1.00  0.00    -0.550 OA
ATOM     10  O   UNL     1      32.624  10.771   2.512  1.00  0.00    -0.550 OA
ENDBRANCH   7   8
ENDBRANCH   6   7
ENDBRANCH   5   6
ENDBRANCH   4   5
ENDBRANCH   3   4
ENDBRANCH   2   3
ENDBRANCH   1   2
BRANCH   1  11
ATOM     11  C   UNL     1      40.405   6.930   2.613  1.00  0.00    -0.031 C 
ATOM     12  C   UNL     1      40.773   7.244   1.356  1.00  0.00    -0.027 C 
BRANCH  12  13
ATOM     13  C   UNL     1      41.174   8.620   0.886  1.00  0.00     0.054 C 
BRANCH  13  14
ATOM     14  C   UNL     1      42.002   8.515  -0.361  1.00  0.00    -0.027 C 
ATOM     15  C   UNL     1      41.492   8.812  -1.566  1.00  0.00    -0.031 C 
BRANCH  15  16
ATOM     16  C   UNL     1      42.315   8.699  -2.818  1.00  0.00     0.027 C 
BRANCH  16  17
ATOM     17  C   UNL     1      41.427   8.763  -4.070  1.00  0.00     0.004 C 
BRANCH  17  18
ATOM     18  C   UNL     1      39.954   9.062  -3.743  1.00  0.00     0.000 C 
BRANCH  18  19
ATOM     19  C   UNL     1      38.943   8.556  -4.787  1.00  0.00    -0.003 C 
ATOM     20  C   UNL     1      39.592   8.207  -6.127  1.00  0.00     0.004 C 
ENDBRANCH  18  19
ENDBRANCH  17  18
ENDBRANCH  16  17
ENDBRANCH  15  16
ENDBRANCH  13  14
ENDBRANCH  12  13
ENDBRANCH   1  11
TORSDOF 14
ENDMDL
MODEL 2
REMARK VINA RESULT:    -5.270      2.097      4.925
REMARK INTER + INTRA:         -10.547
REMARK INTER:                  -8.508
REMARK INTRA:                  -2.039
REMARK UNBOUND:                -0.964
REMARK SMILES CCCCCC=CCC=CCCCCCCCC(=O)[O-]
REMARK SMILES IDX 11 1 12 2 13 3 14 4 15 5 16 6 17 7 18 8 19 9 20 10 10 11
REMARK SMILES IDX 9 12 8 13 7 14 6 15 5 16 4 17 3 18 2 19 1 20
REMARK H PARENT
REMARK Flexibility Score: inf
ROOT
ATOM      1  C   UNL     1      34.840   7.058   6.609  1.00  0.00     0.027 C 
ENDROOT
BRANCH   1   2
ATOM      2  C   UNL     1      35.607   8.126   7.412  1.00  0.00     0.004 C 
BRANCH   2   3
ATOM      3  C   UNL     1      35.430   9.560   6.875  1.00  0.00     0.000 C 
BRANCH   3   4
ATOM      4  C   UNL     1      36.635  10.128   6.101  1.00  0.00     0.000 C 
BRANCH   4   5
ATOM      5  C   UNL     1      36.354  10.518   4.638  1.00  0.00     0.000 C 
BRANCH   5   6
ATOM      6  C   UNL     1      34.905  10.234   4.210  1.00  0.00     0.006 C 
BRANCH   6   7
ATOM      7  C   UNL     1      34.418  11.210   3.130  1.00  0.00     0.053 C 
BRANCH   7   8
ATOM      8  C   UNL     1      33.459  10.558   2.181  1.00  0.00     0.041 C 
ATOM      9  O   UNL     1      33.860   9.662   1.393  1.00  0.00    -0.550 OA
ATOM     10  O   UNL     1      32.129  10.956   2.151  1.00  0.00    -0.550 OA
ENDBRANCH   7   8
ENDBRANCH   6   7
ENDBRANCH   5   6
ENDBRANCH   4   5
ENDBRANCH   3   4
ENDBRANCH   2   3
ENDBRANCH   1   2
BRANCH   1  11
ATOM     11  C   UNL     1      35.701   5.880   6.226  1.00  0.00    -0.031 C 
ATOM     12  C   UNL     1      36.355   5.750   5.056  1.00  0.00    -0.027 C 
BRANCH  12  13
ATOM     13  C   UNL     1      36.352   6.767   3.942  1.00  0.00     0.054 C 
BRANCH  13  14
ATOM     14  C   UNL     1      37.760   7.100   3.548  1.00  0.00    -0.027 C 
ATOM     15  C   UNL     1      38.642   7.575   4.440  1.00  0.00    -0.031 C 
BRANCH  15  16
ATOM     16  C   UNL     1      40.052   7.919   4.048  1.00  0.00     0.027 C 
BRANCH  16  17
ATOM     17  C   UNL     1      40.456   7.198   2.754  1.00  0.00     0.004 C 
BRANCH  17  18
ATOM     18  C   UNL     1      40.800   8.169   1.611  1.00  0.00     0.000 C 
BRANCH  18  19
ATOM     19  C   UNL     1      41.270   7.498   0.309  1.00  0.00    -0.003 C 
ATOM     20  C   UNL     1      41.349   8.469  -0.869  1.00  0.00     0.004 C 
ENDBRANCH  18  19
ENDBRANCH  17  18
ENDBRANCH  16  17
ENDBRANCH  15  16
ENDBRANCH  13  14
ENDBRANCH  12  13
ENDBRANCH   1  11
TORSDOF 14
ENDMDL
MODEL 3
REMARK VINA RESULT:    -5.242      6.290     11.582
REMARK INTER + INTRA:         -10.497
REMARK INTER:                  -9.331
REMARK INTRA:                  -1.166
REMARK UNBOUND:                -0.964
REMARK SMILES CCCCCC=CCC=CCCCCCCCC(=O)[O-]
REMARK SMILES IDX 11 1 12 2 13 3 14 4 15 5 16 6 17 7 18 8 19 9 20 10 10 11
REMARK SMILES IDX 9 12 8 13 7 14 6 15 5 16 4 17 3 18 2 19 1 20
REMARK H PARENT
REMARK Flexibility Score: inf
ROOT
ATOM      1  C   UNL     1      38.962   3.282  -7.941  1.00  0.00     0.027 C 
ENDROOT
BRANCH   1   2
ATOM      2  C   UNL     1      39.849   2.114  -8.417  1.00  0.00     0.004 C 
BRANCH   2   3
ATOM      3  C   UNL     1      40.686   2.435  -9.671  1.00  0.00     0.000 C 
BRANCH   3   4
ATOM      4  C   UNL     1      42.088   3.012  -9.399  1.00  0.00     0.000 C 
BRANCH   4   5
ATOM      5  C   UNL     1      42.394   3.332  -7.924  1.00  0.00     0.000 C 
BRANCH   5   6
ATOM      6  C   UNL     1      43.551   2.493  -7.357  1.00  0.00     0.006 C 
BRANCH   6   7
ATOM      7  C   UNL     1      43.456   2.329  -5.835  1.00  0.00     0.053 C 
BRANCH   7   8
ATOM      8  C   UNL     1      42.529   1.217  -5.450  1.00  0.00     0.041 C 
ATOM      9  O   UNL     1      41.532   1.450  -4.717  1.00  0.00    -0.550 OA
ATOM     10  O   UNL     1      42.777  -0.079  -5.882  1.00  0.00    -0.550 OA
ENDBRANCH   7   8
ENDBRANCH   6   7
ENDBRANCH   5   6
ENDBRANCH   4   5
ENDBRANCH   3   4
ENDBRANCH   2   3
ENDBRANCH   1   2
BRANCH   1  11
ATOM     11  C   UNL     1      38.440   4.124  -9.078  1.00  0.00    -0.031 C 
ATOM     12  C   UNL     1      38.837   5.381  -9.353  1.00  0.00    -0.027 C 
BRANCH  12  13
ATOM     13  C   UNL     1      39.882   6.149  -8.584  1.00  0.00     0.054 C 
BRANCH  13  14
ATOM     14  C   UNL     1      39.307   6.639  -7.287  1.00  0.00    -0.027 C 
ATOM     15  C   UNL     1      39.679   7.815  -6.758  1.00  0.00    -0.031 C 
BRANCH  15  16
ATOM     16  C   UNL     1      39.113   8.306  -5.455  1.00  0.00     0.027 C 
BRANCH  16  17
ATOM     17  C   UNL     1      40.176   9.056  -4.639  1.00  0.00     0.004 C 
BRANCH  17  18
ATOM     18  C   UNL     1      39.952   8.946  -3.121  1.00  0.00     0.000 C 
BRANCH  18  19
ATOM     19  C   UNL     1      41.239   8.858  -2.282  1.00  0.00    -0.003 C 
ATOM     20  C   UNL     1      40.990   8.358  -0.859  1.00  0.00     0.004 C 
ENDBRANCH  18  19
ENDBRANCH  17  18
ENDBRANCH  16  17
ENDBRANCH  15  16
ENDBRANCH  13  14
ENDBRANCH  12  13
ENDBRANCH   1  11
TORSDOF 14
ENDMDL
MODEL 4
REMARK VINA RESULT:    -5.165      6.080      7.567
REMARK INTER + INTRA:         -10.357
REMARK INTER:                  -7.798
REMARK INTRA:                  -2.559
REMARK UNBOUND:                -0.964
REMARK SMILES CCCCCC=CCC=CCCCCCCCC(=O)[O-]
REMARK SMILES IDX 11 1 12 2 13 3 14 4 15 5 16 6 17 7 18 8 19 9 20 10 10 11
REMARK SMILES IDX 9 12 8 13 7 14 6 15 5 16 4 17 3 18 2 19 1 20
REMARK H PARENT
REMARK Flexibility Score: inf
ROOT
ATOM      1  C   UNL     1      37.879   7.402   5.127  1.00  0.00     0.027 C 
ENDROOT
BRANCH   1   2
ATOM      2  C   UNL     1      36.768   7.356   4.060  1.00  0.00     0.004 C 
BRANCH   2   3
ATOM      3  C   UNL     1      35.525   6.551   4.485  1.00  0.00     0.000 C 
BRANCH   3   4
ATOM      4  C   UNL     1      34.314   7.394   4.928  1.00  0.00     0.000 C 
BRANCH   4   5
ATOM      5  C   UNL     1      33.690   6.994   6.278  1.00  0.00     0.000 C 
BRANCH   5   6
ATOM      6  C   UNL     1      34.742   6.712   7.364  1.00  0.00     0.006 C 
BRANCH   6   7
ATOM      7  C   UNL     1      34.576   5.319   7.984  1.00  0.00     0.053 C 
BRANCH   7   8
ATOM      8  C   UNL     1      35.689   4.397   7.592  1.00  0.00     0.041 C 
ATOM      9  O   UNL     1      35.455   3.398   6.863  1.00  0.00    -0.550 OA
ATOM     10  O   UNL     1      36.980   4.627   8.049  1.00  0.00    -0.550 OA
ENDBRANCH   7   8
ENDBRANCH   6   7
ENDBRANCH   5   6
ENDBRANCH   4   5
ENDBRANCH   3   4
ENDBRANCH   2   3
ENDBRANCH   1   2
BRANCH   1  11
ATOM     11  C   UNL     1      38.455   8.784   5.317  1.00  0.00    -0.031 C 
ATOM     12  C   UNL     1      38.034   9.675   6.234  1.00  0.00    -0.027 C 
BRANCH  12  13
ATOM     13  C   UNL     1      36.933   9.436   7.237  1.00  0.00     0.054 C 
BRANCH  13  14
ATOM     14  C   UNL     1      35.735  10.269   6.891  1.00  0.00    -0.027 C 
ATOM     15  C   UNL     1      35.603  10.835   5.681  1.00  0.00    -0.031 C 
BRANCH  15  16
ATOM     16  C   UNL     1      34.409  11.679   5.333  1.00  0.00     0.027 C 
BRANCH  16  17
ATOM     17  C   UNL     1      34.268  11.837   3.813  1.00  0.00     0.004 C 
BRANCH  17  18
ATOM     18  C   UNL     1      34.795  10.619   3.034  1.00  0.00     0.000 C 
BRANCH  18  19
ATOM     19  C   UNL     1      33.947  10.213   1.816  1.00  0.00    -0.003 C 
ATOM     20  C   UNL     1      32.529  10.782   1.858  1.00  0.00     0.004 C 
ENDBRANCH  18  19
ENDBRANCH  17  18
ENDBRANCH  16  17
ENDBRANCH  15  16
ENDBRANCH  13  14
ENDBRANCH  12  13
ENDBRANCH   1  11
TORSDOF 14
ENDMDL
MODEL 5
REMARK VINA RESULT:    -5.130      3.713      7.860
REMARK INTER + INTRA:         -10.293
REMARK INTER:                  -8.825
REMARK INTRA:                  -1.468
REMARK UNBOUND:                -0.964
REMARK SMILES CCCCCC=CCC=CCCCCCCCC(=O)[O-]
REMARK SMILES IDX 11 1 12 2 13 3 14 4 15 5 16 6 17 7 18 8 19 9 20 10 10 11
REMARK SMILES IDX 9 12 8 13 7 14 6 15 5 16 4 17 3 18 2 19 1 20
REMARK H PARENT
REMARK Flexibility Score: inf
ROOT
ATOM      1  C   UNL     1      36.954   6.373   4.512  1.00  0.00     0.027 C 
ENDROOT
BRANCH   1   2
ATOM      2  C   UNL     1      37.850   7.238   3.603  1.00  0.00     0.004 C 
BRANCH   2   3
ATOM      3  C   UNL     1      39.108   7.786   4.304  1.00  0.00     0.000 C 
BRANCH   3   4
ATOM      4  C   UNL     1      40.355   7.922   3.410  1.00  0.00     0.000 C 
BRANCH   4   5
ATOM      5  C   UNL     1      40.501   6.849   2.315  1.00  0.00     0.000 C 
BRANCH   5   6
ATOM      6  C   UNL     1      41.105   7.400   1.013  1.00  0.00     0.006 C 
BRANCH   6   7
ATOM      7  C   UNL     1      40.843   8.902   0.843  1.00  0.00     0.053 C 
BRANCH   7   8
ATOM      8  C   UNL     1      41.541   9.458  -0.361  1.00  0.00     0.041 C 
ATOM      9  O   UNL     1      41.830  10.682  -0.416  1.00  0.00    -0.550 OA
ATOM     10  O   UNL     1      41.850   8.630  -1.432  1.00  0.00    -0.550 OA
ENDBRANCH   7   8
ENDBRANCH   6   7
ENDBRANCH   5   6
ENDBRANCH   4   5
ENDBRANCH   3   4
ENDBRANCH   2   3
ENDBRANCH   1   2
BRANCH   1  11
ATOM     11  C   UNL     1      35.486   6.692   4.364  1.00  0.00    -0.031 C 
ATOM     12  C   UNL     1      34.795   7.530   5.160  1.00  0.00    -0.027 C 
BRANCH  12  13
ATOM     13  C   UNL     1      35.374   8.302   6.319  1.00  0.00     0.054 C 
BRANCH  13  14
ATOM     14  C   UNL     1      35.062   9.762   6.169  1.00  0.00    -0.027 C 
ATOM     15  C   UNL     1      35.028  10.349   4.963  1.00  0.00    -0.031 C 
BRANCH  15  16
ATOM     16  C   UNL     1      34.725  11.813   4.809  1.00  0.00     0.027 C 
BRANCH  16  17
ATOM     17  C   UNL     1      33.516  12.033   3.887  1.00  0.00     0.004 C 
BRANCH  17  18
ATOM     18  C   UNL     1      33.848  11.806   2.402  1.00  0.00     0.000 C 
BRANCH  18  19
ATOM     19  C   UNL     1      33.115  10.621   1.748  1.00  0.00    -0.003 C 
ATOM     20  C   UNL     1      34.013   9.399   1.552  1.00  0.00     0.004 C 
ENDBRANCH  18  19
ENDBRANCH  17  18
ENDBRANCH  16  17
ENDBRANCH  15  16
ENDBRANCH  13  14
ENDBRANCH  12  13
ENDBRANCH   1  11
TORSDOF 14
ENDMDL
MODEL 6
REMARK VINA RESULT:    -5.049      6.079     11.190
REMARK INTER + INTRA:         -10.146
REMARK INTER:                  -9.000
REMARK INTRA:                  -1.146
REMARK UNBOUND:                -0.964
REMARK SMILES CCCCCC=CCC=CCCCCCCCC(=O)[O-]
REMARK SMILES IDX 11 1 12 2 13 3 14 4 15 5 16 6 17 7 18 8 19 9 20 10 10 11
REMARK SMILES IDX 9 12 8 13 7 14 6 15 5 16 4 17 3 18 2 19 1 20
REMARK H PARENT
REMARK Flexibility Score: inf
ROOT
ATOM      1  C   UNL     1      38.650   5.373  -7.960  1.00  0.00     0.027 C 
ENDROOT
BRANCH   1   2
ATOM      2  C   UNL     1      38.682   3.889  -8.376  1.00  0.00     0.004 C 
BRANCH   2   3
ATOM      3  C   UNL     1      39.702   3.041  -7.591  1.00  0.00     0.000 C 
BRANCH   3   4
ATOM      4  C   UNL     1      40.805   2.382  -8.441  1.00  0.00     0.000 C 
BRANCH   4   5
ATOM      5  C   UNL     1      42.126   3.169  -8.531  1.00  0.00     0.000 C 
BRANCH   5   6
ATOM      6  C   UNL     1      42.945   3.114  -7.230  1.00  0.00     0.006 C 
BRANCH   6   7
ATOM      7  C   UNL     1      43.621   1.752  -7.029  1.00  0.00     0.053 C 
BRANCH   7   8
ATOM      8  C   UNL     1      42.855   0.884  -6.077  1.00  0.00     0.041 C 
ATOM      9  O   UNL     1      42.902  -0.369  -6.187  1.00  0.00    -0.550 OA
ATOM     10  O   UNL     1      42.074   1.459  -5.083  1.00  0.00    -0.550 OA
ENDBRANCH   7   8
ENDBRANCH   6   7
ENDBRANCH   5   6
ENDBRANCH   4   5
ENDBRANCH   3   4
ENDBRANCH   2   3
ENDBRANCH   1   2
BRANCH   1  11
ATOM     11  C   UNL     1      39.905   6.117  -8.343  1.00  0.00    -0.031 C 
ATOM     12  C   UNL     1      40.219   7.361  -7.935  1.00  0.00    -0.027 C 
BRANCH  12  13
ATOM     13  C   UNL     1      39.380   8.210  -7.013  1.00  0.00     0.054 C 
BRANCH  13  14
ATOM     14  C   UNL     1      39.941   8.166  -5.622  1.00  0.00    -0.027 C 
ATOM     15  C   UNL     1      39.389   8.871  -4.623  1.00  0.00    -0.031 C 
BRANCH  15  16
ATOM     16  C   UNL     1      39.954   8.837  -3.230  1.00  0.00     0.027 C 
BRANCH  16  17
ATOM     17  C   UNL     1      41.489   8.832  -3.256  1.00  0.00     0.004 C 
BRANCH  17  18
ATOM     18  C   UNL     1      42.111   8.905  -1.851  1.00  0.00     0.000 C 
BRANCH  18  19
ATOM     19  C   UNL     1      41.098   8.919  -0.694  1.00  0.00    -0.003 C 
ATOM     20  C   UNL     1      41.242   7.717   0.240  1.00  0.00     0.004 C 
ENDBRANCH  18  19
ENDBRANCH  17  18
ENDBRANCH  16  17
ENDBRANCH  15  16
ENDBRANCH  13  14
ENDBRANCH  12  13
ENDBRANCH   1  11
TORSDOF 14
ENDMDL
MODEL 7
REMARK VINA RESULT:    -5.037      2.384      3.947
REMARK INTER + INTRA:         -10.124
REMARK INTER:                  -8.564
REMARK INTRA:                  -1.560
REMARK UNBOUND:                -0.964
REMARK SMILES CCCCCC=CCC=CCCCCCCCC(=O)[O-]
REMARK SMILES IDX 11 1 12 2 13 3 14 4 15 5 16 6 17 7 18 8 19 9 20 10 10 11
REMARK SMILES IDX 9 12 8 13 7 14 6 15 5 16 4 17 3 18 2 19 1 20
REMARK H PARENT
REMARK Flexibility Score: inf
ROOT
ATOM      1  C   UNL     1      38.670  10.811   4.626  1.00  0.00     0.027 C 
ENDROOT
BRANCH   1   2
ATOM      2  C   UNL     1      38.200  10.914   6.090  1.00  0.00     0.004 C 
BRANCH   2   3
ATOM      3  C   UNL     1      36.668  10.908   6.258  1.00  0.00     0.000 C 
BRANCH   3   4
ATOM      4  C   UNL     1      35.903   9.976   5.299  1.00  0.00     0.000 C 
BRANCH   4   5
ATOM      5  C   UNL     1      34.827  10.658   4.434  1.00  0.00     0.000 C 
BRANCH   5   6
ATOM      6  C   UNL     1      35.363  11.126   3.071  1.00  0.00     0.006 C 
BRANCH   6   7
ATOM      7  C   UNL     1      34.243  11.632   2.152  1.00  0.00     0.053 C 
BRANCH   7   8
ATOM      8  C   UNL     1      33.230  10.566   1.867  1.00  0.00     0.041 C 
ATOM      9  O   UNL     1      32.076  10.643   2.364  1.00  0.00    -0.550 OA
ATOM     10  O   UNL     1      33.566   9.478   1.074  1.00  0.00    -0.550 OA
ENDBRANCH   7   8
ENDBRANCH   6   7
ENDBRANCH   5   6
ENDBRANCH   4   5
ENDBRANCH   3   4
ENDBRANCH   2   3
ENDBRANCH   1   2
BRANCH   1  11
ATOM     11  C   UNL     1      40.043  10.200   4.491  1.00  0.00    -0.031 C 
ATOM     12  C   UNL     1      41.050  10.719   3.765  1.00  0.00    -0.027 C 
BRANCH  12  13
ATOM     13  C   UNL     1      40.983  12.006   2.982  1.00  0.00     0.054 C 
BRANCH  13  14
ATOM     14  C   UNL     1      40.764  11.710   1.527  1.00  0.00    -0.027 C 
ATOM     15  C   UNL     1      41.308  10.631   0.944  1.00  0.00    -0.031 C 
BRANCH  15  16
ATOM     16  C   UNL     1      41.099  10.335  -0.515  1.00  0.00     0.027 C 
BRANCH  16  17
ATOM     17  C   UNL     1      41.156   8.825  -0.786  1.00  0.00     0.004 C 
BRANCH  17  18
ATOM     18  C   UNL     1      41.759   8.029   0.385  1.00  0.00     0.000 C 
BRANCH  18  19
ATOM     19  C   UNL     1      40.841   6.942   0.971  1.00  0.00    -0.003 C 
ATOM     20  C   UNL     1      40.462   7.202   2.428  1.00  0.00     0.004 C 
ENDBRANCH  18  19
ENDBRANCH  17  18
ENDBRANCH  16  17
ENDBRANCH  15  16
ENDBRANCH  13  14
ENDBRANCH  12  13
ENDBRANCH   1  11
TORSDOF 14
ENDMDL
MODEL 8
REMARK VINA RESULT:    -5.023      3.614      5.325
REMARK INTER + INTRA:         -10.097
REMARK INTER:                  -7.901
REMARK INTRA:                  -2.196
REMARK UNBOUND:                -0.964
REMARK SMILES CCCCCC=CCC=CCCCCCCCC(=O)[O-]
REMARK SMILES IDX 11 1 12 2 13 3 14 4 15 5 16 6 17 7 18 8 19 9 20 10 10 11
REMARK SMILES IDX 9 12 8 13 7 14 6 15 5 16 4 17 3 18 2 19 1 20
REMARK H PARENT
REMARK Flexibility Score: inf
ROOT
ATOM      1  C   UNL     1      35.994   6.028   4.826  1.00  0.00     0.027 C 
ENDROOT
BRANCH   1   2
ATOM      2  C   UNL     1      34.710   6.880   4.820  1.00  0.00     0.004 C 
BRANCH   2   3
ATOM      3  C   UNL     1      34.635   7.908   5.965  1.00  0.00     0.000 C 
BRANCH   3   4
ATOM      4  C   UNL     1      34.792   9.381   5.540  1.00  0.00     0.000 C 
BRANCH   4   5
ATOM      5  C   UNL     1      35.163   9.605   4.063  1.00  0.00     0.000 C 
BRANCH   5   6
ATOM      6  C   UNL     1      35.064  11.079   3.637  1.00  0.00     0.006 C 
BRANCH   6   7
ATOM      7  C   UNL     1      34.701  11.230   2.154  1.00  0.00     0.053 C 
BRANCH   7   8
ATOM      8  C   UNL     1      33.506  10.405   1.784  1.00  0.00     0.041 C 
ATOM      9  O   UNL     1      32.363  10.728   2.199  1.00  0.00    -0.550 OA
ATOM     10  O   UNL     1      33.658   9.269   1.001  1.00  0.00    -0.550 OA
ENDBRANCH   7   8
ENDBRANCH   6   7
ENDBRANCH   5   6
ENDBRANCH   4   5
ENDBRANCH   3   4
ENDBRANCH   2   3
ENDBRANCH   1   2
BRANCH   1  11
ATOM     11  C   UNL     1      37.067   6.577   3.920  1.00  0.00    -0.031 C 
ATOM     12  C   UNL     1      38.107   7.330   4.324  1.00  0.00    -0.027 C 
BRANCH  12  13
ATOM     13  C   UNL     1      38.384   7.734   5.751  1.00  0.00     0.054 C 
BRANCH  13  14
ATOM     14  C   UNL     1      38.637   9.211   5.825  1.00  0.00    -0.027 C 
ATOM     15  C   UNL     1      38.751   9.958   4.716  1.00  0.00    -0.031 C 
BRANCH  15  16
ATOM     16  C   UNL     1      39.014  11.436   4.786  1.00  0.00     0.027 C 
BRANCH  16  17
ATOM     17  C   UNL     1      39.716  11.932   3.513  1.00  0.00     0.004 C 
BRANCH  17  18
ATOM     18  C   UNL     1      40.965  11.107   3.159  1.00  0.00     0.000 C 
BRANCH  18  19
ATOM     19  C   UNL     1      41.670  11.526   1.857  1.00  0.00    -0.003 C 
ATOM     20  C   UNL     1      40.700  11.741   0.695  1.00  0.00     0.004 C 
ENDBRANCH  18  19
ENDBRANCH  17  18
ENDBRANCH  16  17
ENDBRANCH  15  16
ENDBRANCH  13  14
ENDBRANCH  12  13
ENDBRANCH   1  11
TORSDOF 14
ENDMDL
MODEL 9
REMARK VINA RESULT:    -4.971      5.102      7.438
REMARK INTER + INTRA:         -10.003
REMARK INTER:                  -7.064
REMARK INTRA:                  -2.939
REMARK UNBOUND:                -0.964
REMARK SMILES CCCCCC=CCC=CCCCCCCCC(=O)[O-]
REMARK SMILES IDX 11 1 12 2 13 3 14 4 15 5 16 6 17 7 18 8 19 9 20 10 10 11
REMARK SMILES IDX 9 12 8 13 7 14 6 15 5 16 4 17 3 18 2 19 1 20
REMARK H PARENT
REMARK Flexibility Score: inf
ROOT
ATOM      1  C   UNL     1      38.947   7.581   6.837  1.00  0.00     0.027 C 
ENDROOT
BRANCH   1   2
ATOM      2  C   UNL     1      37.652   7.959   7.583  1.00  0.00     0.004 C 
BRANCH   2   3
ATOM      3  C   UNL     1      37.303   9.458   7.511  1.00  0.00     0.000 C 
BRANCH   3   4
ATOM      4  C   UNL     1      36.097   9.812   6.620  1.00  0.00     0.000 C 
BRANCH   4   5
ATOM      5  C   UNL     1      36.241  11.108   5.800  1.00  0.00     0.000 C 
BRANCH   5   6
ATOM      6  C   UNL     1      36.076  10.881   4.289  1.00  0.00     0.006 C 
BRANCH   6   7
ATOM      7  C   UNL     1      34.687  10.334   3.933  1.00  0.00     0.053 C 
BRANCH   7   8
ATOM      8  C   UNL     1      34.401  10.449   2.467  1.00  0.00     0.041 C 
ATOM      9  O   UNL     1      34.081   9.428   1.804  1.00  0.00    -0.550 OA
ATOM     10  O   UNL     1      34.510  11.677   1.828  1.00  0.00    -0.550 OA
ENDBRANCH   7   8
ENDBRANCH   6   7
ENDBRANCH   5   6
ENDBRANCH   4   5
ENDBRANCH   3   4
ENDBRANCH   2   3
ENDBRANCH   1   2
BRANCH   1  11
ATOM     11  C   UNL     1      39.198   8.442   5.624  1.00  0.00    -0.031 C 
ATOM     12  C   UNL     1      38.807   8.143   4.371  1.00  0.00    -0.027 C 
BRANCH  12  13
ATOM     13  C   UNL     1      38.037   6.909   3.973  1.00  0.00     0.054 C 
BRANCH  13  14
ATOM     14  C   UNL     1      36.569   7.216   3.921  1.00  0.00    -0.027 C 
ATOM     15  C   UNL     1      35.696   6.591   4.726  1.00  0.00    -0.031 C 
BRANCH  15  16
ATOM     16  C   UNL     1      34.224   6.888   4.672  1.00  0.00     0.027 C 
BRANCH  16  17
ATOM     17  C   UNL     1      33.566   6.673   6.043  1.00  0.00     0.004 C 
BRANCH  17  18
ATOM     18  C   UNL     1      34.590   6.549   7.184  1.00  0.00     0.000 C 
BRANCH  18  19
ATOM     19  C   UNL     1      34.642   5.169   7.862  1.00  0.00    -0.003 C 
ATOM     20  C   UNL     1      35.995   4.475   7.700  1.00  0.00     0.004 C 
ENDBRANCH  18  19
ENDBRANCH  17  18
ENDBRANCH  16  17
ENDBRANCH  15  16
ENDBRANCH  13  14
ENDBRANCH  12  13
ENDBRANCH   1  11
TORSDOF 14
ENDMDL
