MODEL 1
REMARK VINA RESULT:    -5.479      0.000      0.000
REMARK INTER + INTRA:          -5.959
REMARK INTER:                  -5.959
REMARK INTRA:                   0.000
REMARK UNBOUND:                 0.000
REMARK SMILES Cc1cc(O)c2c(c1)C(=O)c1cc(O)cc(O)c1C2=O
REMARK SMILES IDX 1 1 2 2 8 3 7 4 6 5 4 6 3 7 19 8 20 9 18 10 11 11 9 12 10 13
REMARK SMILES IDX 12 14 13 15 15 16 16 17 5 18 17 20 14 22
REMARK H PARENT 5 19 17 21 14 23
REMARK Flexibility Score: inf
ROOT
ATOM      1  C   UNL     1      34.958  -1.199  28.355  1.00  0.00     0.044 C 
ATOM      2  C   UNL     1      33.849  -0.509  29.091  1.00  0.00    -0.047 A 
ATOM      3  C   UNL     1      33.629  -0.776  30.447  1.00  0.00     0.016 A 
ATOM      4  C   UNL     1      32.619  -0.104  31.156  1.00  0.00     0.038 A 
ATOM      5  C   UNL     1      31.834   0.874  30.505  1.00  0.00     0.076 A 
ATOM      6  C   UNL     1      32.030   1.108  29.119  1.00  0.00     0.127 A 
ATOM      7  C   UNL     1      33.053   0.440  28.439  1.00  0.00     0.050 A 
ATOM      8  C   UNL     1      30.879   1.666  31.323  1.00  0.00     0.201 C 
ATOM      9  O   UNL     1      30.601   2.849  30.991  1.00  0.00    -0.288 OA
ATOM     10  C   UNL     1      30.407   1.134  32.627  1.00  0.00     0.076 A 
ATOM     11  C   UNL     1      31.196   0.157  33.275  1.00  0.00     0.041 A 
ATOM     12  C   UNL     1      32.375  -0.417  32.584  1.00  0.00     0.194 C 
ATOM     13  O   UNL     1      33.154  -1.192  33.204  1.00  0.00    -0.289 OA
ATOM     14  C   UNL     1      30.856  -0.270  34.570  1.00  0.00     0.059 A 
ATOM     15  C   UNL     1      29.736   0.252  35.217  1.00  0.00     0.120 A 
ATOM     16  C   UNL     1      28.930   1.187  34.566  1.00  0.00     0.093 A 
ATOM     17  C   UNL     1      29.235   1.614  33.268  1.00  0.00     0.131 A 
ENDROOT
BRANCH   6  18
ATOM     18  O   UNL     1      31.215   1.965  28.376  1.00  0.00    -0.507 OA
ATOM     19  H   UNL     1      31.543   2.501  27.585  1.00  0.00     0.293 HD
ENDBRANCH   6  18
BRANCH  17  20
ATOM     20  O   UNL     1      28.334   2.481  32.646  1.00  0.00    -0.507 OA
ATOM     21  H   UNL     1      27.639   3.017  33.145  1.00  0.00     0.293 HD
ENDBRANCH  17  20
BRANCH  15  22
ATOM     22  O   UNL     1      29.426  -0.177  36.507  1.00  0.00    -0.508 OA
ATOM     23  H   UNL     1      28.473  -0.380  36.782  1.00  0.00     0.293 HD
ENDBRANCH  15  22
TORSDOF 3
ENDMDL
MODEL 2
REMARK VINA RESULT:    -5.298      9.434     11.843
REMARK INTER + INTRA:          -5.762
REMARK INTER:                  -5.762
REMARK INTRA:                   0.000
REMARK UNBOUND:                 0.000
REMARK SMILES Cc1cc(O)c2c(c1)C(=O)c1cc(O)cc(O)c1C2=O
REMARK SMILES IDX 1 1 2 2 8 3 7 4 6 5 4 6 3 7 19 8 20 9 18 10 11 11 9 12 10 13
REMARK SMILES IDX 12 14 13 15 15 16 16 17 5 18 17 20 14 22
REMARK H PARENT 5 19 17 21 14 23
REMARK Flexibility Score: inf
ROOT
ATOM      1  C   UNL     1      35.246  -3.984  40.776  1.00  0.00     0.044 C 
ATOM      2  C   UNL     1      35.082  -4.902  39.602  1.00  0.00    -0.047 A 
ATOM      3  C   UNL     1      35.204  -6.286  39.767  1.00  0.00     0.016 A 
ATOM      4  C   UNL     1      35.010  -7.157  38.682  1.00  0.00     0.038 A 
ATOM      5  C   UNL     1      34.660  -6.637  37.415  1.00  0.00     0.076 A 
ATOM      6  C   UNL     1      34.582  -5.231  37.243  1.00  0.00     0.127 A 
ATOM      7  C   UNL     1      34.761  -4.385  38.342  1.00  0.00     0.050 A 
ATOM      8  C   UNL     1      34.318  -7.597  36.333  1.00  0.00     0.201 C 
ATOM      9  O   UNL     1      33.493  -7.266  35.440  1.00  0.00    -0.288 OA
ATOM     10  C   UNL     1      34.799  -9.000  36.411  1.00  0.00     0.076 A 
ATOM     11  C   UNL     1      35.148  -9.516  37.680  1.00  0.00     0.041 A 
ATOM     12  C   UNL     1      35.172  -8.620  38.860  1.00  0.00     0.194 C 
ATOM     13  O   UNL     1      35.356  -9.100  40.013  1.00  0.00    -0.289 OA
ATOM     14  C   UNL     1      35.475 -10.876  37.815  1.00  0.00     0.059 A 
ATOM     15  C   UNL     1      35.474 -11.719  36.704  1.00  0.00     0.120 A 
ATOM     16  C   UNL     1      35.170 -11.205  35.442  1.00  0.00     0.093 A 
ATOM     17  C   UNL     1      34.860  -9.851  35.277  1.00  0.00     0.131 A 
ENDROOT
BRANCH   6  18
ATOM     18  O   UNL     1      34.364  -4.634  35.999  1.00  0.00    -0.507 OA
ATOM     19  H   UNL     1      33.897  -5.095  35.232  1.00  0.00     0.293 HD
ENDBRANCH   6  18
BRANCH  17  20
ATOM     20  O   UNL     1      34.657  -9.390  33.974  1.00  0.00    -0.507 OA
ATOM     21  H   UNL     1      34.231  -9.944  33.246  1.00  0.00     0.293 HD
ENDBRANCH  17  20
BRANCH  15  22
ATOM     22  O   UNL     1      35.789 -13.067  36.866  1.00  0.00    -0.508 OA
ATOM     23  H   UNL     1      35.478 -13.766  36.202  1.00  0.00     0.293 HD
ENDBRANCH  15  22
TORSDOF 3
ENDMDL
MODEL 3
REMARK VINA RESULT:    -5.198      2.137      3.893
REMARK INTER + INTRA:          -5.654
REMARK INTER:                  -5.654
REMARK INTRA:                   0.000
REMARK UNBOUND:                 0.000
REMARK SMILES Cc1cc(O)c2c(c1)C(=O)c1cc(O)cc(O)c1C2=O
REMARK SMILES IDX 1 1 2 2 8 3 7 4 6 5 4 6 3 7 19 8 20 9 18 10 11 11 9 12 10 13
REMARK SMILES IDX 12 14 13 15 15 16 16 17 5 18 17 20 14 22
REMARK H PARENT 5 19 17 21 14 23
REMARK Flexibility Score: inf
ROOT
ATOM      1  C   UNL     1      35.436  -2.461  35.650  1.00  0.00     0.044 C 
ATOM      2  C   UNL     1      34.650  -1.608  34.699  1.00  0.00    -0.047 A 
ATOM      3  C   UNL     1      33.368  -1.166  35.042  1.00  0.00     0.016 A 
ATOM      4  C   UNL     1      32.642  -0.331  34.176  1.00  0.00     0.038 A 
ATOM      5  C   UNL     1      33.219   0.092  32.957  1.00  0.00     0.076 A 
ATOM      6  C   UNL     1      34.501  -0.396  32.594  1.00  0.00     0.127 A 
ATOM      7  C   UNL     1      35.212  -1.211  33.480  1.00  0.00     0.050 A 
ATOM      8  C   UNL     1      32.481   1.090  32.140  1.00  0.00     0.201 C 
ATOM      9  O   UNL     1      33.118   1.902  31.418  1.00  0.00    -0.288 OA
ATOM     10  C   UNL     1      31.015   1.254  32.322  1.00  0.00     0.076 A 
ATOM     11  C   UNL     1      30.443   0.830  33.542  1.00  0.00     0.041 A 
ATOM     12  C   UNL     1      31.271   0.105  34.535  1.00  0.00     0.194 C 
ATOM     13  O   UNL     1      30.801  -0.161  35.675  1.00  0.00    -0.289 OA
ATOM     14  C   UNL     1      29.087   1.093  33.806  1.00  0.00     0.059 A 
ATOM     15  C   UNL     1      28.297   1.755  32.867  1.00  0.00     0.120 A 
ATOM     16  C   UNL     1      28.849   2.140  31.644  1.00  0.00     0.093 A 
ATOM     17  C   UNL     1      30.190   1.873  31.348  1.00  0.00     0.131 A 
ENDROOT
BRANCH   6  18
ATOM     18  O   UNL     1      35.088  -0.126  31.355  1.00  0.00    -0.507 OA
ATOM     19  H   UNL     1      34.768   0.602  30.732  1.00  0.00     0.293 HD
ENDBRANCH   6  18
BRANCH  17  20
ATOM     20  O   UNL     1      30.647   2.205  30.070  1.00  0.00    -0.507 OA
ATOM     21  H   UNL     1      30.858   1.521  29.358  1.00  0.00     0.293 HD
ENDBRANCH  17  20
BRANCH  15  22
ATOM     22  O   UNL     1      26.959   2.016  33.158  1.00  0.00    -0.508 OA
ATOM     23  H   UNL     1      26.630   2.958  33.331  1.00  0.00     0.293 HD
ENDBRANCH  15  22
TORSDOF 3
ENDMDL
MODEL 4
REMARK VINA RESULT:    -5.147      9.723     11.492
REMARK INTER + INTRA:          -5.598
REMARK INTER:                  -5.598
REMARK INTRA:                   0.000
REMARK UNBOUND:                 0.000
REMARK SMILES Cc1cc(O)c2c(c1)C(=O)c1cc(O)cc(O)c1C2=O
REMARK SMILES IDX 1 1 2 2 8 3 7 4 6 5 4 6 3 7 19 8 20 9 18 10 11 11 9 12 10 13
REMARK SMILES IDX 12 14 13 15 15 16 16 17 5 18 17 20 14 22
REMARK H PARENT 5 19 17 21 14 23
REMARK Flexibility Score: inf
ROOT
ATOM      1  C   UNL     1      35.101 -13.461  36.645  1.00  0.00     0.044 C 
ATOM      2  C   UNL     1      35.028 -11.965  36.561  1.00  0.00    -0.047 A 
ATOM      3  C   UNL     1      35.213 -11.185  37.707  1.00  0.00     0.016 A 
ATOM      4  C   UNL     1      35.189  -9.782  37.631  1.00  0.00     0.038 A 
ATOM      5  C   UNL     1      35.005  -9.148  36.381  1.00  0.00     0.076 A 
ATOM      6  C   UNL     1      34.773  -9.944  35.230  1.00  0.00     0.127 A 
ATOM      7  C   UNL     1      34.820 -11.338  35.328  1.00  0.00     0.050 A 
ATOM      8  C   UNL     1      35.134  -7.669  36.320  1.00  0.00     0.201 C 
ATOM      9  O   UNL     1      35.548  -7.120  35.264  1.00  0.00    -0.288 OA
ATOM     10  C   UNL     1      34.961  -6.861  37.554  1.00  0.00     0.076 A 
ATOM     11  C   UNL     1      35.146  -7.499  38.801  1.00  0.00     0.041 A 
ATOM     12  C   UNL     1      35.354  -8.965  38.857  1.00  0.00     0.194 C 
ATOM     13  O   UNL     1      35.647  -9.519  39.952  1.00  0.00    -0.289 OA
ATOM     14  C   UNL     1      35.126  -6.740  39.984  1.00  0.00     0.059 A 
ATOM     15  C   UNL     1      34.909  -5.363  39.940  1.00  0.00     0.120 A 
ATOM     16  C   UNL     1      34.686  -4.734  38.713  1.00  0.00     0.093 A 
ATOM     17  C   UNL     1      34.680  -5.470  37.523  1.00  0.00     0.131 A 
ENDROOT
BRANCH   6  18
ATOM     18  O   UNL     1      34.461  -9.396  33.984  1.00  0.00    -0.507 OA
ATOM     19  H   UNL     1      33.815  -9.820  33.333  1.00  0.00     0.293 HD
ENDBRANCH   6  18
BRANCH  17  20
ATOM     20  O   UNL     1      34.359  -4.789  36.345  1.00  0.00    -0.507 OA
ATOM     21  H   UNL     1      34.785  -4.989  35.452  1.00  0.00     0.293 HD
ENDBRANCH  17  20
BRANCH  15  22
ATOM     22  O   UNL     1      34.907  -4.630  41.125  1.00  0.00    -0.508 OA
ATOM     23  H   UNL     1      35.580  -3.892  41.291  1.00  0.00     0.293 HD
ENDBRANCH  15  22
TORSDOF 3
ENDMDL
MODEL 5
REMARK VINA RESULT:    -5.095      2.095      5.032
REMARK INTER + INTRA:          -5.541
REMARK INTER:                  -5.541
REMARK INTRA:                   0.000
REMARK UNBOUND:                 0.000
REMARK SMILES Cc1cc(O)c2c(c1)C(=O)c1cc(O)cc(O)c1C2=O
REMARK SMILES IDX 1 1 2 2 8 3 7 4 6 5 4 6 3 7 19 8 20 9 18 10 11 11 9 12 10 13
REMARK SMILES IDX 12 14 13 15 15 16 16 17 5 18 17 20 14 22
REMARK H PARENT 5 19 17 21 14 23
REMARK Flexibility Score: inf
ROOT
ATOM      1  C   UNL     1      27.456   2.270  33.268  1.00  0.00     0.044 C 
ATOM      2  C   UNL     1      28.806   1.841  32.776  1.00  0.00    -0.047 A 
ATOM      3  C   UNL     1      29.619   1.024  33.568  1.00  0.00     0.016 A 
ATOM      4  C   UNL     1      30.867   0.582  33.098  1.00  0.00     0.038 A 
ATOM      5  C   UNL     1      31.299   0.942  31.801  1.00  0.00     0.076 A 
ATOM      6  C   UNL     1      30.491   1.809  31.020  1.00  0.00     0.127 A 
ATOM      7  C   UNL     1      29.244   2.220  31.502  1.00  0.00     0.050 A 
ATOM      8  C   UNL     1      32.553   0.336  31.285  1.00  0.00     0.201 C 
ATOM      9  O   UNL     1      32.691   0.138  30.049  1.00  0.00    -0.288 OA
ATOM     10  C   UNL     1      33.556  -0.208  32.237  1.00  0.00     0.076 A 
ATOM     11  C   UNL     1      33.120  -0.567  33.533  1.00  0.00     0.041 A 
ATOM     12  C   UNL     1      31.735  -0.258  33.958  1.00  0.00     0.194 C 
ATOM     13  O   UNL     1      31.303  -0.690  35.062  1.00  0.00    -0.289 OA
ATOM     14  C   UNL     1      34.006  -1.211  34.414  1.00  0.00     0.059 A 
ATOM     15  C   UNL     1      35.317  -1.485  34.027  1.00  0.00     0.120 A 
ATOM     16  C   UNL     1      35.764  -1.095  32.763  1.00  0.00     0.093 A 
ATOM     17  C   UNL     1      34.909  -0.435  31.874  1.00  0.00     0.131 A 
ENDROOT
BRANCH   6  18
ATOM     18  O   UNL     1      30.900   2.310  29.782  1.00  0.00    -0.507 OA
ATOM     19  H   UNL     1      31.030   1.736  28.962  1.00  0.00     0.293 HD
ENDBRANCH   6  18
BRANCH  17  20
ATOM     20  O   UNL     1      35.451   0.005  30.663  1.00  0.00    -0.507 OA
ATOM     21  H   UNL     1      35.051   0.749  30.111  1.00  0.00     0.293 HD
ENDBRANCH  17  20
BRANCH  15  22
ATOM     22  O   UNL     1      36.173  -2.136  34.914  1.00  0.00    -0.508 OA
ATOM     23  H   UNL     1      35.849  -2.466  35.815  1.00  0.00     0.293 HD
ENDBRANCH  15  22
TORSDOF 3
ENDMDL
MODEL 6
REMARK VINA RESULT:    -5.092      1.387      3.401
REMARK INTER + INTRA:          -5.539
REMARK INTER:                  -5.539
REMARK INTRA:                   0.000
REMARK UNBOUND:                 0.000
REMARK SMILES Cc1cc(O)c2c(c1)C(=O)c1cc(O)cc(O)c1C2=O
REMARK SMILES IDX 1 1 2 2 8 3 7 4 6 5 4 6 3 7 19 8 20 9 18 10 11 11 9 12 10 13
REMARK SMILES IDX 12 14 13 15 15 16 16 17 5 18 17 20 14 22
REMARK H PARENT 5 19 17 21 14 23
REMARK Flexibility Score: inf
ROOT
ATOM      1  C   UNL     1      35.619   1.612  28.521  1.00  0.00     0.044 C 
ATOM      2  C   UNL     1      34.684   1.181  29.612  1.00  0.00    -0.047 A 
ATOM      3  C   UNL     1      33.383   1.692  29.668  1.00  0.00     0.016 A 
ATOM      4  C   UNL     1      32.486   1.262  30.660  1.00  0.00     0.038 A 
ATOM      5  C   UNL     1      32.888   0.283  31.597  1.00  0.00     0.076 A 
ATOM      6  C   UNL     1      34.222  -0.198  31.563  1.00  0.00     0.127 A 
ATOM      7  C   UNL     1      35.091   0.231  30.555  1.00  0.00     0.050 A 
ATOM      8  C   UNL     1      31.867  -0.253  32.534  1.00  0.00     0.201 C 
ATOM      9  O   UNL     1      31.963  -1.436  32.956  1.00  0.00    -0.288 OA
ATOM     10  C   UNL     1      30.642   0.537  32.821  1.00  0.00     0.076 A 
ATOM     11  C   UNL     1      30.243   1.515  31.882  1.00  0.00     0.041 A 
ATOM     12  C   UNL     1      31.119   1.833  30.730  1.00  0.00     0.194 C 
ATOM     13  O   UNL     1      30.711   2.609  29.822  1.00  0.00    -0.289 OA
ATOM     14  C   UNL     1      29.019   2.185  32.049  1.00  0.00     0.059 A 
ATOM     15  C   UNL     1      28.200   1.905  33.142  1.00  0.00     0.120 A 
ATOM     16  C   UNL     1      28.609   0.969  34.095  1.00  0.00     0.093 A 
ATOM     17  C   UNL     1      29.832   0.302  33.963  1.00  0.00     0.131 A 
ENDROOT
BRANCH   6  18
ATOM     18  O   UNL     1      34.734  -1.071  32.526  1.00  0.00    -0.507 OA
ATOM     19  H   UNL     1      35.449  -0.812  33.191  1.00  0.00     0.293 HD
ENDBRANCH   6  18
BRANCH  17  20
ATOM     20  O   UNL     1      30.217  -0.552  35.000  1.00  0.00    -0.507 OA
ATOM     21  H   UNL     1      30.232  -0.277  35.972  1.00  0.00     0.293 HD
ENDBRANCH  17  20
BRANCH  15  22
ATOM     22  O   UNL     1      26.985   2.573  33.279  1.00  0.00    -0.508 OA
ATOM     23  H   UNL     1      26.167   2.295  32.751  1.00  0.00     0.293 HD
ENDBRANCH  15  22
TORSDOF 3
ENDMDL
MODEL 7
REMARK VINA RESULT:    -5.078      1.375      5.507
REMARK INTER + INTRA:          -5.524
REMARK INTER:                  -5.524
REMARK INTRA:                   0.000
REMARK UNBOUND:                 0.000
REMARK SMILES Cc1cc(O)c2c(c1)C(=O)c1cc(O)cc(O)c1C2=O
REMARK SMILES IDX 1 1 2 2 8 3 7 4 6 5 4 6 3 7 19 8 20 9 18 10 11 11 9 12 10 13
REMARK SMILES IDX 12 14 13 15 15 16 16 17 5 18 17 20 14 22
REMARK H PARENT 5 19 17 21 14 23
REMARK Flexibility Score: inf
ROOT
ATOM      1  C   UNL     1      29.609   0.000  36.550  1.00  0.00     0.044 C 
ATOM      2  C   UNL     1      29.943   0.515  35.182  1.00  0.00    -0.047 A 
ATOM      3  C   UNL     1      30.746  -0.241  34.322  1.00  0.00     0.016 A 
ATOM      4  C   UNL     1      31.030   0.213  33.022  1.00  0.00     0.038 A 
ATOM      5  C   UNL     1      30.477   1.431  32.566  1.00  0.00     0.076 A 
ATOM      6  C   UNL     1      29.700   2.215  33.457  1.00  0.00     0.127 A 
ATOM      7  C   UNL     1      29.417   1.733  34.740  1.00  0.00     0.050 A 
ATOM      8  C   UNL     1      30.678   1.802  31.141  1.00  0.00     0.201 C 
ATOM      9  O   UNL     1      29.808   2.490  30.544  1.00  0.00    -0.288 OA
ATOM     10  C   UNL     1      31.802   1.206  30.374  1.00  0.00     0.076 A 
ATOM     11  C   UNL     1      32.351  -0.012  30.834  1.00  0.00     0.041 A 
ATOM     12  C   UNL     1      31.908  -0.580  32.129  1.00  0.00     0.194 C 
ATOM     13  O   UNL     1      32.299  -1.727  32.482  1.00  0.00    -0.289 OA
ATOM     14  C   UNL     1      33.320  -0.677  30.063  1.00  0.00     0.059 A 
ATOM     15  C   UNL     1      33.757  -0.137  28.853  1.00  0.00     0.120 A 
ATOM     16  C   UNL     1      33.247   1.087  28.415  1.00  0.00     0.093 A 
ATOM     17  C   UNL     1      32.296   1.778  29.173  1.00  0.00     0.131 A 
ENDROOT
BRANCH   6  18
ATOM     18  O   UNL     1      29.222   3.485  33.126  1.00  0.00    -0.507 OA
ATOM     19  H   UNL     1      29.432   4.317  33.658  1.00  0.00     0.293 HD
ENDBRANCH   6  18
BRANCH  17  20
ATOM     20  O   UNL     1      31.899   3.038  28.717  1.00  0.00    -0.507 OA
ATOM     21  H   UNL     1      32.214   3.441  27.846  1.00  0.00     0.293 HD
ENDBRANCH  17  20
BRANCH  15  22
ATOM     22  O   UNL     1      34.709  -0.821  28.100  1.00  0.00    -0.508 OA
ATOM     23  H   UNL     1      34.539  -1.760  27.760  1.00  0.00     0.293 HD
ENDBRANCH  15  22
TORSDOF 3
ENDMDL
MODEL 8
REMARK VINA RESULT:    -5.063      8.874     11.177
REMARK INTER + INTRA:          -5.507
REMARK INTER:                  -5.507
REMARK INTRA:                   0.000
REMARK UNBOUND:                 0.000
REMARK SMILES Cc1cc(O)c2c(c1)C(=O)c1cc(O)cc(O)c1C2=O
REMARK SMILES IDX 1 1 2 2 8 3 7 4 6 5 4 6 3 7 19 8 20 9 18 10 11 11 9 12 10 13
REMARK SMILES IDX 12 14 13 15 15 16 16 17 5 18 17 20 14 22
REMARK H PARENT 5 19 17 21 14 23
REMARK Flexibility Score: inf
ROOT
ATOM      1  C   UNL     1      34.174 -11.896  35.462  1.00  0.00     0.044 C 
ATOM      2  C   UNL     1      34.557 -10.697  36.277  1.00  0.00    -0.047 A 
ATOM      3  C   UNL     1      34.214  -9.412  35.843  1.00  0.00     0.016 A 
ATOM      4  C   UNL     1      34.531  -8.284  36.620  1.00  0.00     0.038 A 
ATOM      5  C   UNL     1      35.177  -8.447  37.866  1.00  0.00     0.076 A 
ATOM      6  C   UNL     1      35.562  -9.749  38.280  1.00  0.00     0.127 A 
ATOM      7  C   UNL     1      35.220 -10.857  37.498  1.00  0.00     0.050 A 
ATOM      8  C   UNL     1      35.361  -7.248  38.723  1.00  0.00     0.201 C 
ATOM      9  O   UNL     1      35.374  -7.370  39.977  1.00  0.00    -0.288 OA
ATOM     10  C   UNL     1      35.336  -5.893  38.113  1.00  0.00     0.076 A 
ATOM     11  C   UNL     1      34.689  -5.735  36.866  1.00  0.00     0.041 A 
ATOM     12  C   UNL     1      34.192  -6.925  36.136  1.00  0.00     0.194 C 
ATOM     13  O   UNL     1      33.502  -6.780  35.089  1.00  0.00    -0.289 OA
ATOM     14  C   UNL     1      34.524  -4.449  36.323  1.00  0.00     0.059 A 
ATOM     15  C   UNL     1      35.008  -3.328  36.996  1.00  0.00     0.120 A 
ATOM     16  C   UNL     1      35.684  -3.483  38.208  1.00  0.00     0.093 A 
ATOM     17  C   UNL     1      35.879  -4.753  38.761  1.00  0.00     0.131 A 
ENDROOT
BRANCH   6  18
ATOM     18  O   UNL     1      36.311  -9.983  39.435  1.00  0.00    -0.507 OA
ATOM     19  H   UNL     1      36.225  -9.432  40.278  1.00  0.00     0.293 HD
ENDBRANCH   6  18
BRANCH  17  20
ATOM     20  O   UNL     1      36.643  -4.840  39.928  1.00  0.00    -0.507 OA
ATOM     21  H   UNL     1      36.356  -4.447  40.813  1.00  0.00     0.293 HD
ENDBRANCH  17  20
BRANCH  15  22
ATOM     22  O   UNL     1      34.821  -2.062  36.444  1.00  0.00    -0.508 OA
ATOM     23  H   UNL     1      35.520  -1.638  35.845  1.00  0.00     0.293 HD
ENDBRANCH  15  22
TORSDOF 3
ENDMDL
MODEL 9
REMARK VINA RESULT:    -5.057      1.746      6.142
REMARK INTER + INTRA:          -5.500
REMARK INTER:                  -5.500
REMARK INTRA:                   0.000
REMARK UNBOUND:                 0.000
REMARK SMILES Cc1cc(O)c2c(c1)C(=O)c1cc(O)cc(O)c1C2=O
REMARK SMILES IDX 1 1 2 2 8 3 7 4 6 5 4 6 3 7 19 8 20 9 18 10 11 11 9 12 10 13
REMARK SMILES IDX 12 14 13 15 15 16 16 17 5 18 17 20 14 22
REMARK H PARENT 5 19 17 21 14 23
REMARK Flexibility Score: inf
ROOT
ATOM      1  C   UNL     1      27.057   1.876  33.229  1.00  0.00     0.044 C 
ATOM      2  C   UNL     1      28.446   1.333  33.381  1.00  0.00    -0.047 A 
ATOM      3  C   UNL     1      29.357   1.422  32.323  1.00  0.00     0.016 A 
ATOM      4  C   UNL     1      30.675   0.955  32.470  1.00  0.00     0.038 A 
ATOM      5  C   UNL     1      31.096   0.415  33.706  1.00  0.00     0.076 A 
ATOM      6  C   UNL     1      30.156   0.285  34.760  1.00  0.00     0.127 A 
ATOM      7  C   UNL     1      28.856   0.774  34.596  1.00  0.00     0.050 A 
ATOM      8  C   UNL     1      32.532   0.070  33.867  1.00  0.00     0.201 C 
ATOM      9  O   UNL     1      33.071   0.144  35.004  1.00  0.00    -0.288 OA
ATOM     10  C   UNL     1      33.372  -0.175  32.667  1.00  0.00     0.076 A 
ATOM     11  C   UNL     1      32.947   0.368  31.433  1.00  0.00     0.041 A 
ATOM     12  C   UNL     1      31.623   1.025  31.333  1.00  0.00     0.194 C 
ATOM     13  O   UNL     1      31.294   1.622  30.271  1.00  0.00    -0.289 OA
ATOM     14  C   UNL     1      33.781   0.276  30.305  1.00  0.00     0.059 A 
ATOM     15  C   UNL     1      35.019  -0.361  30.388  1.00  0.00     0.120 A 
ATOM     16  C   UNL     1      35.426  -0.934  31.595  1.00  0.00     0.093 A 
ATOM     17  C   UNL     1      34.606  -0.874  32.727  1.00  0.00     0.131 A 
ENDROOT
BRANCH   6  18
ATOM     18  O   UNL     1      30.458  -0.349  35.967  1.00  0.00    -0.507 OA
ATOM     19  H   UNL     1      30.536   0.137  36.850  1.00  0.00     0.293 HD
ENDBRANCH   6  18
BRANCH  17  20
ATOM     20  O   UNL     1      35.038  -1.548  33.873  1.00  0.00    -0.507 OA
ATOM     21  H   UNL     1      34.475  -1.652  34.705  1.00  0.00     0.293 HD
ENDBRANCH  17  20
BRANCH  15  22
ATOM     22  O   UNL     1      35.834  -0.427  29.260  1.00  0.00    -0.508 OA
ATOM     23  H   UNL     1      36.212   0.408  28.831  1.00  0.00     0.293 HD
ENDBRANCH  15  22
TORSDOF 3
ENDMDL
