MODEL 1
REMARK VINA RESULT:    -3.623      0.000      0.000
REMARK INTER + INTRA:          -5.072
REMARK INTER:                  -4.894
REMARK INTRA:                  -0.178
REMARK UNBOUND:                -0.178
REMARK SMILES [NH3+]CCCC[C@H]([NH3+])C(=O)[O-]
REMARK SMILES IDX 4 1 3 2 2 3 1 4 5 8 6 9 7 10 8 14 9 15 10 16
REMARK H PARENT 1 5 1 6 1 7 7 11 7 12 7 13
REMARK Flexibility Score: inf
ROOT
ATOM      1  C   UNL     1      35.303  38.140  28.927  1.00  0.00     0.012 C 
ENDROOT
BRANCH   1   2
ATOM      2  C   UNL     1      35.402  39.617  28.505  1.00  0.00     0.061 C 
BRANCH   2   3
ATOM      3  C   UNL     1      36.262  39.872  27.253  1.00  0.00     0.258 C 
BRANCH   3   4
ATOM      4  N   UNL     1      35.473  40.381  26.130  1.00  0.00    -0.358 N 
ATOM      5  H   UNL     1      36.078  40.938  25.485  1.00  0.00     0.344 HD
ATOM      6  H   UNL     1      34.723  41.009  26.498  1.00  0.00     0.344 HD
ATOM      7  H   UNL     1      35.025  39.592  25.609  1.00  0.00     0.344 HD
ENDBRANCH   3   4
ENDBRANCH   2   3
ENDBRANCH   1   2
BRANCH   1   8
ATOM      8  C   UNL     1      34.539  37.277  27.907  1.00  0.00     0.072 C 
BRANCH   8   9
ATOM      9  C   UNL     1      35.342  36.028  27.484  1.00  0.00     0.227 C 
BRANCH   9  10
ATOM     10  N   UNL     1      36.357  36.383  26.486  1.00  0.00    -0.350 N 
ATOM     11  H   UNL     1      36.785  35.515  26.090  1.00  0.00     0.345 HD
ATOM     12  H   UNL     1      35.913  36.915  25.700  1.00  0.00     0.345 HD
ATOM     13  H   UNL     1      37.110  36.970  26.915  1.00  0.00     0.345 HD
ENDBRANCH   9  10
BRANCH   9  14
ATOM     14  C   UNL     1      34.433  34.955  26.941  1.00  0.00     0.099 C 
ATOM     15  O   UNL     1      33.938  34.087  27.709  1.00  0.00    -0.544 OA
ATOM     16  O   UNL     1      34.143  34.913  25.583  1.00  0.00    -0.544 OA
ENDBRANCH   9  14
ENDBRANCH   8   9
ENDBRANCH   1   8
TORSDOF 7
ENDMDL
MODEL 2
REMARK VINA RESULT:    -3.411     10.604     11.049
REMARK INTER + INTRA:          -4.785
REMARK INTER:                  -4.596
REMARK INTRA:                  -0.189
REMARK UNBOUND:                -0.178
REMARK SMILES [NH3+]CCCC[C@H]([NH3+])C(=O)[O-]
REMARK SMILES IDX 4 1 3 2 2 3 1 4 5 8 6 9 7 10 8 14 9 15 10 16
REMARK H PARENT 1 5 1 6 1 7 7 11 7 12 7 13
REMARK Flexibility Score: inf
ROOT
ATOM      1  C   UNL     1      43.503  35.136  31.451  1.00  0.00     0.012 C 
ENDROOT
BRANCH   1   2
ATOM      2  C   UNL     1      42.716  36.253  32.158  1.00  0.00     0.061 C 
BRANCH   2   3
ATOM      3  C   UNL     1      43.271  37.672  31.932  1.00  0.00     0.258 C 
BRANCH   3   4
ATOM      4  N   UNL     1      42.494  38.693  32.637  1.00  0.00    -0.358 N 
ATOM      5  H   UNL     1      43.120  39.467  32.958  1.00  0.00     0.344 HD
ATOM      6  H   UNL     1      42.051  38.261  33.479  1.00  0.00     0.344 HD
ATOM      7  H   UNL     1      41.741  39.073  32.019  1.00  0.00     0.344 HD
ENDBRANCH   3   4
ENDBRANCH   2   3
ENDBRANCH   1   2
BRANCH   1   8
ATOM      8  C   UNL     1      44.700  34.632  32.277  1.00  0.00     0.072 C 
BRANCH   8   9
ATOM      9  C   UNL     1      44.339  34.436  33.766  1.00  0.00     0.227 C 
BRANCH   9  10
ATOM     10  N   UNL     1      45.291  35.151  34.623  1.00  0.00    -0.350 N 
ATOM     11  H   UNL     1      45.301  36.167  34.374  1.00  0.00     0.345 HD
ATOM     12  H   UNL     1      45.002  35.065  35.626  1.00  0.00     0.345 HD
ATOM     13  H   UNL     1      46.257  34.762  34.510  1.00  0.00     0.345 HD
ENDBRANCH   9  10
BRANCH   9  14
ATOM     14  C   UNL     1      44.308  32.974  34.130  1.00  0.00     0.099 C 
ATOM     15  O   UNL     1      45.120  32.508  34.975  1.00  0.00    -0.544 OA
ATOM     16  O   UNL     1      43.386  32.128  33.527  1.00  0.00    -0.544 OA
ENDBRANCH   9  14
ENDBRANCH   8   9
ENDBRANCH   1   8
TORSDOF 7
ENDMDL
MODEL 3
REMARK VINA RESULT:    -3.406      1.717      2.223
REMARK INTER + INTRA:          -4.779
REMARK INTER:                  -4.714
REMARK INTRA:                  -0.064
REMARK UNBOUND:                -0.178
REMARK SMILES [NH3+]CCCC[C@H]([NH3+])C(=O)[O-]
REMARK SMILES IDX 4 1 3 2 2 3 1 4 5 8 6 9 7 10 8 14 9 15 10 16
REMARK H PARENT 1 5 1 6 1 7 7 11 7 12 7 13
REMARK Flexibility Score: inf
ROOT
ATOM      1  C   UNL     1      35.382  36.985  27.700  1.00  0.00     0.012 C 
ENDROOT
BRANCH   1   2
ATOM      2  C   UNL     1      36.198  38.095  27.015  1.00  0.00     0.061 C 
BRANCH   2   3
ATOM      3  C   UNL     1      35.760  39.529  27.370  1.00  0.00     0.258 C 
BRANCH   3   4
ATOM      4  N   UNL     1      35.512  40.346  26.180  1.00  0.00    -0.358 N 
ATOM      5  H   UNL     1      35.277  39.735  25.365  1.00  0.00     0.344 HD
ATOM      6  H   UNL     1      36.379  40.881  25.948  1.00  0.00     0.344 HD
ATOM      7  H   UNL     1      34.736  41.024  26.357  1.00  0.00     0.344 HD
ENDBRANCH   3   4
ENDBRANCH   2   3
ENDBRANCH   1   2
BRANCH   1   8
ATOM      8  C   UNL     1      35.652  35.591  27.108  1.00  0.00     0.072 C 
BRANCH   8   9
ATOM      9  C   UNL     1      34.352  34.877  26.683  1.00  0.00     0.227 C 
BRANCH   9  10
ATOM     10  N   UNL     1      33.763  34.160  27.820  1.00  0.00    -0.350 N 
ATOM     11  H   UNL     1      33.386  34.845  28.514  1.00  0.00     0.345 HD
ATOM     12  H   UNL     1      32.971  33.560  27.491  1.00  0.00     0.345 HD
ATOM     13  H   UNL     1      34.479  33.557  28.289  1.00  0.00     0.345 HD
ENDBRANCH   9  10
BRANCH   9  14
ATOM     14  C   UNL     1      34.602  33.924  25.542  1.00  0.00     0.099 C 
ATOM     15  O   UNL     1      34.055  34.110  24.421  1.00  0.00    -0.544 OA
ATOM     16  O   UNL     1      35.432  32.825  25.724  1.00  0.00    -0.544 OA
ENDBRANCH   9  14
ENDBRANCH   8   9
ENDBRANCH   1   8
TORSDOF 7
ENDMDL
MODEL 4
REMARK VINA RESULT:    -3.405      2.913      4.356
REMARK INTER + INTRA:          -4.777
REMARK INTER:                  -4.220
REMARK INTRA:                  -0.557
REMARK UNBOUND:                -0.178
REMARK SMILES [NH3+]CCCC[C@H]([NH3+])C(=O)[O-]
REMARK SMILES IDX 4 1 3 2 2 3 1 4 5 8 6 9 7 10 8 14 9 15 10 16
REMARK H PARENT 1 5 1 6 1 7 7 11 7 12 7 13
REMARK Flexibility Score: inf
ROOT
ATOM      1  C   UNL     1      36.665  37.247  28.013  1.00  0.00     0.012 C 
ENDROOT
BRANCH   1   2
ATOM      2  C   UNL     1      36.021  36.282  27.002  1.00  0.00     0.061 C 
BRANCH   2   3
ATOM      3  C   UNL     1      34.741  35.586  27.503  1.00  0.00     0.258 C 
BRANCH   3   4
ATOM      4  N   UNL     1      34.366  36.013  28.852  1.00  0.00    -0.358 N 
ATOM      5  H   UNL     1      33.565  35.442  29.203  1.00  0.00     0.344 HD
ATOM      6  H   UNL     1      34.065  37.014  28.821  1.00  0.00     0.344 HD
ATOM      7  H   UNL     1      35.180  35.928  29.503  1.00  0.00     0.344 HD
ENDBRANCH   3   4
ENDBRANCH   2   3
ENDBRANCH   1   2
BRANCH   1   8
ATOM      8  C   UNL     1      36.763  38.689  27.484  1.00  0.00     0.072 C 
BRANCH   8   9
ATOM      9  C   UNL     1      35.397  39.231  27.010  1.00  0.00     0.227 C 
BRANCH   9  10
ATOM     10  N   UNL     1      35.579  40.420  26.170  1.00  0.00    -0.350 N 
ATOM     11  H   UNL     1      34.658  40.891  26.018  1.00  0.00     0.345 HD
ATOM     12  H   UNL     1      36.217  41.099  26.648  1.00  0.00     0.345 HD
ATOM     13  H   UNL     1      35.987  40.159  25.242  1.00  0.00     0.345 HD
ENDBRANCH   9  10
BRANCH   9  14
ATOM     14  C   UNL     1      34.505  39.553  28.181  1.00  0.00     0.099 C 
ATOM     15  O   UNL     1      34.847  40.423  29.026  1.00  0.00    -0.544 OA
ATOM     16  O   UNL     1      33.298  38.883  28.339  1.00  0.00    -0.544 OA
ENDBRANCH   9  14
ENDBRANCH   8   9
ENDBRANCH   1   8
TORSDOF 7
ENDMDL
MODEL 5
REMARK VINA RESULT:    -3.387      3.248      4.882
REMARK INTER + INTRA:          -4.752
REMARK INTER:                  -4.651
REMARK INTRA:                  -0.101
REMARK UNBOUND:                -0.178
REMARK SMILES [NH3+]CCCC[C@H]([NH3+])C(=O)[O-]
REMARK SMILES IDX 4 1 3 2 2 3 1 4 5 8 6 9 7 10 8 14 9 15 10 16
REMARK H PARENT 1 5 1 6 1 7 7 11 7 12 7 13
REMARK Flexibility Score: inf
ROOT
ATOM      1  C   UNL     1      35.290  36.848  27.346  1.00  0.00     0.012 C 
ENDROOT
BRANCH   1   2
ATOM      2  C   UNL     1      35.763  35.598  26.584  1.00  0.00     0.061 C 
BRANCH   2   3
ATOM      3  C   UNL     1      34.631  34.669  26.106  1.00  0.00     0.258 C 
BRANCH   3   4
ATOM      4  N   UNL     1      34.178  34.993  24.752  1.00  0.00    -0.358 N 
ATOM      5  H   UNL     1      34.840  35.665  24.301  1.00  0.00     0.344 HD
ATOM      6  H   UNL     1      33.239  35.448  24.808  1.00  0.00     0.344 HD
ATOM      7  H   UNL     1      34.098  34.126  24.175  1.00  0.00     0.344 HD
ENDBRANCH   3   4
ENDBRANCH   2   3
ENDBRANCH   1   2
BRANCH   1   8
ATOM      8  C   UNL     1      36.124  38.100  27.018  1.00  0.00     0.072 C 
BRANCH   8   9
ATOM      9  C   UNL     1      35.355  39.406  27.314  1.00  0.00     0.227 C 
BRANCH   9  10
ATOM     10  N   UNL     1      35.600  40.396  26.259  1.00  0.00    -0.350 N 
ATOM     11  H   UNL     1      35.335  41.349  26.599  1.00  0.00     0.345 HD
ATOM     12  H   UNL     1      36.618  40.410  26.013  1.00  0.00     0.345 HD
ATOM     13  H   UNL     1      35.042  40.172  25.403  1.00  0.00     0.345 HD
ENDBRANCH   9  10
BRANCH   9  14
ATOM     14  C   UNL     1      35.739  39.971  28.657  1.00  0.00     0.099 C 
ATOM     15  O   UNL     1      35.222  39.519  29.713  1.00  0.00    -0.544 OA
ATOM     16  O   UNL     1      36.662  41.006  28.736  1.00  0.00    -0.544 OA
ENDBRANCH   9  14
ENDBRANCH   8   9
ENDBRANCH   1   8
TORSDOF 7
ENDMDL
MODEL 6
REMARK VINA RESULT:    -3.317      9.609     10.353
REMARK INTER + INTRA:          -4.658
REMARK INTER:                  -4.543
REMARK INTRA:                  -0.115
REMARK UNBOUND:                -0.178
REMARK SMILES [NH3+]CCCC[C@H]([NH3+])C(=O)[O-]
REMARK SMILES IDX 4 1 3 2 2 3 1 4 5 8 6 9 7 10 8 14 9 15 10 16
REMARK H PARENT 1 5 1 6 1 7 7 11 7 12 7 13
REMARK Flexibility Score: inf
ROOT
ATOM      1  C   UNL     1      44.465  35.922  32.231  1.00  0.00     0.012 C 
ENDROOT
BRANCH   1   2
ATOM      2  C   UNL     1      44.537  34.427  32.588  1.00  0.00     0.061 C 
BRANCH   2   3
ATOM      3  C   UNL     1      44.564  34.127  34.098  1.00  0.00     0.258 C 
BRANCH   3   4
ATOM      4  N   UNL     1      45.301  35.141  34.855  1.00  0.00    -0.358 N 
ATOM      5  H   UNL     1      46.293  34.840  34.991  1.00  0.00     0.344 HD
ATOM      6  H   UNL     1      44.860  35.250  35.796  1.00  0.00     0.344 HD
ATOM      7  H   UNL     1      45.269  36.061  34.360  1.00  0.00     0.344 HD
ENDBRANCH   3   4
ENDBRANCH   2   3
ENDBRANCH   1   2
BRANCH   1   8
ATOM      8  C   UNL     1      43.026  36.469  32.235  1.00  0.00     0.072 C 
BRANCH   8   9
ATOM      9  C   UNL     1      42.946  37.901  31.662  1.00  0.00     0.227 C 
BRANCH   9  10
ATOM     10  N   UNL     1      42.520  38.846  32.700  1.00  0.00    -0.350 N 
ATOM     11  H   UNL     1      42.780  38.478  33.644  1.00  0.00     0.345 HD
ATOM     12  H   UNL     1      43.002  39.765  32.565  1.00  0.00     0.345 HD
ATOM     13  H   UNL     1      41.484  38.993  32.665  1.00  0.00     0.345 HD
ENDBRANCH   9  10
BRANCH   9  14
ATOM     14  C   UNL     1      42.008  37.964  30.485  1.00  0.00     0.099 C 
ATOM     15  O   UNL     1      41.345  36.949  30.139  1.00  0.00    -0.544 OA
ATOM     16  O   UNL     1      41.875  39.145  29.765  1.00  0.00    -0.544 OA
ENDBRANCH   9  14
ENDBRANCH   8   9
ENDBRANCH   1   8
TORSDOF 7
ENDMDL
MODEL 7
REMARK VINA RESULT:    -3.262      9.783     10.563
REMARK INTER + INTRA:          -4.584
REMARK INTER:                  -4.500
REMARK INTRA:                  -0.084
REMARK UNBOUND:                -0.178
REMARK SMILES [NH3+]CCCC[C@H]([NH3+])C(=O)[O-]
REMARK SMILES IDX 4 1 3 2 2 3 1 4 5 8 6 9 7 10 8 14 9 15 10 16
REMARK H PARENT 1 5 1 6 1 7 7 11 7 12 7 13
REMARK Flexibility Score: inf
ROOT
ATOM      1  C   UNL     1      42.926  36.053  32.214  1.00  0.00     0.012 C 
ENDROOT
BRANCH   1   2
ATOM      2  C   UNL     1      44.376  35.782  32.652  1.00  0.00     0.061 C 
BRANCH   2   3
ATOM      3  C   UNL     1      44.525  34.732  33.769  1.00  0.00     0.258 C 
BRANCH   3   4
ATOM      4  N   UNL     1      45.396  35.190  34.852  1.00  0.00    -0.358 N 
ATOM      5  H   UNL     1      44.858  35.256  35.746  1.00  0.00     0.344 HD
ATOM      6  H   UNL     1      45.759  36.142  34.618  1.00  0.00     0.344 HD
ATOM      7  H   UNL     1      46.208  34.542  34.969  1.00  0.00     0.344 HD
ENDBRANCH   3   4
ENDBRANCH   2   3
ENDBRANCH   1   2
BRANCH   1   8
ATOM      8  C   UNL     1      42.829  37.066  31.059  1.00  0.00     0.072 C 
BRANCH   8   9
ATOM      9  C   UNL     1      43.228  38.491  31.499  1.00  0.00     0.227 C 
BRANCH   9  10
ATOM     10  N   UNL     1      42.539  38.857  32.742  1.00  0.00    -0.350 N 
ATOM     11  H   UNL     1      42.067  38.015  33.146  1.00  0.00     0.345 HD
ATOM     12  H   UNL     1      43.233  39.208  33.443  1.00  0.00     0.345 HD
ATOM     13  H   UNL     1      41.823  39.599  32.564  1.00  0.00     0.345 HD
ENDBRANCH   9  10
BRANCH   9  14
ATOM     14  C   UNL     1      42.922  39.499  30.420  1.00  0.00     0.099 C 
ATOM     15  O   UNL     1      41.732  39.720  30.070  1.00  0.00    -0.544 OA
ATOM     16  O   UNL     1      43.958  40.184  29.798  1.00  0.00    -0.544 OA
ENDBRANCH   9  14
ENDBRANCH   8   9
ENDBRANCH   1   8
TORSDOF 7
ENDMDL
MODEL 8
REMARK VINA RESULT:    -3.252      3.147      4.594
REMARK INTER + INTRA:          -4.570
REMARK INTER:                  -4.034
REMARK INTRA:                  -0.536
REMARK UNBOUND:                -0.178
REMARK SMILES [NH3+]CCCC[C@H]([NH3+])C(=O)[O-]
REMARK SMILES IDX 4 1 3 2 2 3 1 4 5 8 6 9 7 10 8 14 9 15 10 16
REMARK H PARENT 1 5 1 6 1 7 7 11 7 12 7 13
REMARK Flexibility Score: inf
ROOT
ATOM      1  C   UNL     1      34.250  38.580  28.114  1.00  0.00     0.012 C 
ENDROOT
BRANCH   1   2
ATOM      2  C   UNL     1      34.779  37.175  28.450  1.00  0.00     0.061 C 
BRANCH   2   3
ATOM      3  C   UNL     1      35.121  36.306  27.225  1.00  0.00     0.258 C 
BRANCH   3   4
ATOM      4  N   UNL     1      36.379  36.706  26.592  1.00  0.00    -0.358 N 
ATOM      5  H   UNL     1      36.968  35.866  26.396  1.00  0.00     0.344 HD
ATOM      6  H   UNL     1      36.905  37.329  27.245  1.00  0.00     0.344 HD
ATOM      7  H   UNL     1      36.193  37.229  25.706  1.00  0.00     0.344 HD
ENDBRANCH   3   4
ENDBRANCH   2   3
ENDBRANCH   1   2
BRANCH   1   8
ATOM      8  C   UNL     1      34.918  39.687  28.948  1.00  0.00     0.072 C 
BRANCH   8   9
ATOM      9  C   UNL     1      36.120  40.323  28.217  1.00  0.00     0.227 C 
BRANCH   9  10
ATOM     10  N   UNL     1      35.954  40.212  26.763  1.00  0.00    -0.350 N 
ATOM     11  H   UNL     1      34.979  39.904  26.540  1.00  0.00     0.345 HD
ATOM     12  H   UNL     1      36.112  41.144  26.314  1.00  0.00     0.345 HD
ATOM     13  H   UNL     1      36.630  39.519  26.365  1.00  0.00     0.345 HD
ENDBRANCH   9  10
BRANCH   9  14
ATOM     14  C   UNL     1      37.417  39.684  28.642  1.00  0.00     0.099 C 
ATOM     15  O   UNL     1      38.068  38.963  27.839  1.00  0.00    -0.544 OA
ATOM     16  O   UNL     1      37.897  39.880  29.931  1.00  0.00    -0.544 OA
ENDBRANCH   9  14
ENDBRANCH   8   9
ENDBRANCH   1   8
TORSDOF 7
ENDMDL
MODEL 9
REMARK VINA RESULT:    -3.228      3.014      4.662
REMARK INTER + INTRA:          -4.538
REMARK INTER:                  -4.426
REMARK INTRA:                  -0.112
REMARK UNBOUND:                -0.178
REMARK SMILES [NH3+]CCCC[C@H]([NH3+])C(=O)[O-]
REMARK SMILES IDX 4 1 3 2 2 3 1 4 5 8 6 9 7 10 8 14 9 15 10 16
REMARK H PARENT 1 5 1 6 1 7 7 11 7 12 7 13
REMARK Flexibility Score: inf
ROOT
ATOM      1  C   UNL     1      34.595  35.560  27.169  1.00  0.00     0.012 C 
ENDROOT
BRANCH   1   2
ATOM      2  C   UNL     1      34.501  34.068  26.807  1.00  0.00     0.061 C 
BRANCH   2   3
ATOM      3  C   UNL     1      34.563  33.767  25.297  1.00  0.00     0.258 C 
BRANCH   3   4
ATOM      4  N   UNL     1      33.781  34.719  24.507  1.00  0.00    -0.358 N 
ATOM      5  H   UNL     1      33.689  34.382  23.522  1.00  0.00     0.344 HD
ATOM      6  H   UNL     1      34.277  35.639  24.492  1.00  0.00     0.344 HD
ATOM      7  H   UNL     1      32.834  34.856  24.929  1.00  0.00     0.344 HD
ENDBRANCH   3   4
ENDBRANCH   2   3
ENDBRANCH   1   2
BRANCH   1   8
ATOM      8  C   UNL     1      36.002  36.143  26.946  1.00  0.00     0.072 C 
BRANCH   8   9
ATOM      9  C   UNL     1      36.125  37.588  27.476  1.00  0.00     0.227 C 
BRANCH   9  10
ATOM     10  N   UNL     1      36.473  38.507  26.386  1.00  0.00    -0.350 N 
ATOM     11  H   UNL     1      37.424  38.276  26.017  1.00  0.00     0.345 HD
ATOM     12  H   UNL     1      35.787  38.405  25.602  1.00  0.00     0.345 HD
ATOM     13  H   UNL     1      36.467  39.499  26.721  1.00  0.00     0.345 HD
ENDBRANCH   9  10
BRANCH   9  14
ATOM     14  C   UNL     1      37.149  37.678  28.578  1.00  0.00     0.099 C 
ATOM     15  O   UNL     1      37.608  36.633  29.112  1.00  0.00    -0.544 OA
ATOM     16  O   UNL     1      37.587  38.921  29.018  1.00  0.00    -0.544 OA
ENDBRANCH   9  14
ENDBRANCH   8   9
ENDBRANCH   1   8
TORSDOF 7
ENDMDL
