MODEL 1
REMARK VINA RESULT:    -2.872      0.000      0.000
REMARK INTER + INTRA:         -10.322
REMARK INTER:                  -6.566
REMARK INTRA:                  -3.757
REMARK UNBOUND:                -3.757
REMARK SMILES CCCCCCCCCCCCCCCCCCCCCCCC(=O)[O-]
REMARK SMILES IDX 13 1 14 2 15 3 16 4 17 5 18 6 19 7 20 8 21 9 22 10 23 11
REMARK SMILES IDX 24 12 25 13 26 14 12 15 11 16 10 17 9 18 8 19 7 20 6 21 5 22
REMARK SMILES IDX 4 23 3 24 2 25 1 26
REMARK H PARENT
REMARK Flexibility Score: inf
ROOT
ATOM      1  C   UNL     1       3.127  19.171   7.684  1.00  0.00     0.000 C 
ENDROOT
BRANCH   1   2
ATOM      2  C   UNL     1       3.799  20.467   8.158  1.00  0.00     0.000 C 
BRANCH   2   3
ATOM      3  C   UNL     1       3.133  21.001   9.433  1.00  0.00     0.000 C 
BRANCH   3   4
ATOM      4  C   UNL     1       2.003  20.090   9.945  1.00  0.00     0.000 C 
BRANCH   4   5
ATOM      5  C   UNL     1       2.009  19.903  11.478  1.00  0.00     0.000 C 
BRANCH   5   6
ATOM      6  C   UNL     1       2.356  18.458  11.883  1.00  0.00     0.000 C 
BRANCH   6   7
ATOM      7  C   UNL     1       3.851  18.125  11.691  1.00  0.00     0.000 C 
BRANCH   7   8
ATOM      8  C   UNL     1       4.128  17.107  10.569  1.00  0.00     0.000 C 
BRANCH   8   9
ATOM      9  C   UNL     1       5.491  17.256   9.875  1.00  0.00     0.000 C 
BRANCH   9  10
ATOM     10  C   UNL     1       5.598  16.429   8.585  1.00  0.00     0.006 C 
BRANCH  10  11
ATOM     11  C   UNL     1       4.329  15.603   8.352  1.00  0.00     0.053 C 
BRANCH  11  12
ATOM     12  C   UNL     1       4.619  14.428   7.471  1.00  0.00     0.041 C 
ATOM     13  O   UNL     1       5.805  14.040   7.302  1.00  0.00    -0.550 OA
ATOM     14  O   UNL     1       3.574  13.737   6.868  1.00  0.00    -0.550 OA
ENDBRANCH  11  12
ENDBRANCH  10  11
ENDBRANCH   9  10
ENDBRANCH   8   9
ENDBRANCH   7   8
ENDBRANCH   6   7
ENDBRANCH   5   6
ENDBRANCH   4   5
ENDBRANCH   3   4
ENDBRANCH   2   3
ENDBRANCH   1   2
BRANCH   1  15
ATOM     15  C   UNL     1       2.466  19.370   6.313  1.00  0.00     0.000 C 
BRANCH  15  16
ATOM     16  C   UNL     1       1.208  20.250   6.382  1.00  0.00     0.000 C 
BRANCH  16  17
ATOM     17  C   UNL     1       1.109  21.237   5.205  1.00  0.00     0.000 C 
BRANCH  17  18
ATOM     18  C   UNL     1       2.489  21.792   4.790  1.00  0.00    -0.000 C 
BRANCH  18  19
ATOM     19  C   UNL     1       2.757  21.709   3.275  1.00  0.00    -0.000 C 
BRANCH  19  20
ATOM     20  C   UNL     1       4.198  21.326   2.893  1.00  0.00    -0.000 C 
BRANCH  20  21
ATOM     21  C   UNL     1       5.039  20.736   4.043  1.00  0.00    -0.000 C 
BRANCH  21  22
ATOM     22  C   UNL     1       5.530  19.296   3.781  1.00  0.00    -0.000 C 
BRANCH  22  23
ATOM     23  C   UNL     1       5.772  18.515   5.085  1.00  0.00    -0.000 C 
BRANCH  23  24
ATOM     24  C   UNL     1       5.081  17.142   5.089  1.00  0.00    -0.000 C 
BRANCH  24  25
ATOM     25  C   UNL     1       5.623  16.206   3.998  1.00  0.00    -0.003 C 
ATOM     26  C   UNL     1       7.065  15.800   4.288  1.00  0.00     0.004 C 
ENDBRANCH  24  25
ENDBRANCH  23  24
ENDBRANCH  22  23
ENDBRANCH  21  22
ENDBRANCH  20  21
ENDBRANCH  19  20
ENDBRANCH  18  19
ENDBRANCH  17  18
ENDBRANCH  16  17
ENDBRANCH  15  16
ENDBRANCH   1  15
TORSDOF 22
ENDMDL
MODEL 2
REMARK VINA RESULT:    -2.793      3.067      5.618
REMARK INTER + INTRA:         -10.141
REMARK INTER:                  -5.482
REMARK INTRA:                  -4.659
REMARK UNBOUND:                -3.757
REMARK SMILES CCCCCCCCCCCCCCCCCCCCCCCC(=O)[O-]
REMARK SMILES IDX 13 1 14 2 15 3 16 4 17 5 18 6 19 7 20 8 21 9 22 10 23 11
REMARK SMILES IDX 24 12 25 13 26 14 12 15 11 16 10 17 9 18 8 19 7 20 6 21 5 22
REMARK SMILES IDX 4 23 3 24 2 25 1 26
REMARK H PARENT
REMARK Flexibility Score: inf
ROOT
ATOM      1  C   UNL     1       4.652  17.402   6.142  1.00  0.00     0.000 C 
ENDROOT
BRANCH   1   2
ATOM      2  C   UNL     1       3.936  17.008   7.440  1.00  0.00     0.000 C 
BRANCH   2   3
ATOM      3  C   UNL     1       3.978  15.489   7.656  1.00  0.00     0.000 C 
BRANCH   3   4
ATOM      4  C   UNL     1       4.484  15.097   9.055  1.00  0.00     0.000 C 
BRANCH   4   5
ATOM      5  C   UNL     1       5.987  15.382   9.269  1.00  0.00     0.000 C 
BRANCH   5   6
ATOM      6  C   UNL     1       6.236  16.264  10.507  1.00  0.00     0.000 C 
BRANCH   6   7
ATOM      7  C   UNL     1       4.932  16.676  11.222  1.00  0.00     0.000 C 
BRANCH   7   8
ATOM      8  C   UNL     1       4.668  18.194  11.220  1.00  0.00     0.000 C 
BRANCH   8   9
ATOM      9  C   UNL     1       3.293  18.617  10.677  1.00  0.00     0.000 C 
BRANCH   9  10
ATOM     10  C   UNL     1       2.265  18.869  11.789  1.00  0.00     0.006 C 
BRANCH  10  11
ATOM     11  C   UNL     1       1.322  20.019  11.419  1.00  0.00     0.053 C 
BRANCH  11  12
ATOM     12  C   UNL     1       1.669  21.254  12.190  1.00  0.00     0.041 C 
ATOM     13  O   UNL     1       1.123  21.481  13.302  1.00  0.00    -0.550 OA
ATOM     14  O   UNL     1       2.625  22.134  11.699  1.00  0.00    -0.550 OA
ENDBRANCH  11  12
ENDBRANCH  10  11
ENDBRANCH   9  10
ENDBRANCH   8   9
ENDBRANCH   7   8
ENDBRANCH   6   7
ENDBRANCH   5   6
ENDBRANCH   4   5
ENDBRANCH   3   4
ENDBRANCH   2   3
ENDBRANCH   1   2
BRANCH   1  15
ATOM     15  C   UNL     1       5.471  18.686   6.339  1.00  0.00     0.000 C 
BRANCH  15  16
ATOM     16  C   UNL     1       6.128  18.765   7.725  1.00  0.00     0.000 C 
BRANCH  16  17
ATOM     17  C   UNL     1       6.001  20.160   8.363  1.00  0.00     0.000 C 
BRANCH  17  18
ATOM     18  C   UNL     1       5.023  21.070   7.589  1.00  0.00    -0.000 C 
BRANCH  18  19
ATOM     19  C   UNL     1       3.988  21.771   8.489  1.00  0.00    -0.000 C 
BRANCH  19  20
ATOM     20  C   UNL     1       2.524  21.599   8.046  1.00  0.00    -0.000 C 
BRANCH  20  21
ATOM     21  C   UNL     1       2.108  20.149   7.730  1.00  0.00    -0.000 C 
BRANCH  21  22
ATOM     22  C   UNL     1       1.946  19.863   6.222  1.00  0.00    -0.000 C 
BRANCH  22  23
ATOM     23  C   UNL     1       1.312  21.045   5.467  1.00  0.00    -0.000 C 
BRANCH  23  24
ATOM     24  C   UNL     1       2.196  21.556   4.318  1.00  0.00    -0.000 C 
BRANCH  24  25
ATOM     25  C   UNL     1       3.505  20.764   4.184  1.00  0.00    -0.003 C 
ATOM     26  C   UNL     1       4.716  21.688   4.267  1.00  0.00     0.004 C 
ENDBRANCH  24  25
ENDBRANCH  23  24
ENDBRANCH  22  23
ENDBRANCH  21  22
ENDBRANCH  20  21
ENDBRANCH  19  20
ENDBRANCH  18  19
ENDBRANCH  17  18
ENDBRANCH  16  17
ENDBRANCH  15  16
ENDBRANCH   1  15
TORSDOF 22
ENDMDL
MODEL 3
REMARK VINA RESULT:    -2.781      3.509      7.389
REMARK INTER + INTRA:         -10.114
REMARK INTER:                  -7.451
REMARK INTRA:                  -2.662
REMARK UNBOUND:                -3.757
REMARK SMILES CCCCCCCCCCCCCCCCCCCCCCCC(=O)[O-]
REMARK SMILES IDX 13 1 14 2 15 3 16 4 17 5 18 6 19 7 20 8 21 9 22 10 23 11
REMARK SMILES IDX 24 12 25 13 26 14 12 15 11 16 10 17 9 18 8 19 7 20 6 21 5 22
REMARK SMILES IDX 4 23 3 24 2 25 1 26
REMARK H PARENT
REMARK Flexibility Score: inf
ROOT
ATOM      1  C   UNL     1       4.117  20.087   6.284  1.00  0.00     0.000 C 
ENDROOT
BRANCH   1   2
ATOM      2  C   UNL     1       3.411  20.440   4.969  1.00  0.00     0.000 C 
BRANCH   2   3
ATOM      3  C   UNL     1       1.939  20.801   5.211  1.00  0.00     0.000 C 
BRANCH   3   4
ATOM      4  C   UNL     1       1.347  20.105   6.448  1.00  0.00     0.000 C 
BRANCH   4   5
ATOM      5  C   UNL     1       0.182  20.884   7.097  1.00  0.00     0.000 C 
BRANCH   5   6
ATOM      6  C   UNL     1      -0.844  21.362   6.053  1.00  0.00     0.000 C 
BRANCH   6   7
ATOM      7  C   UNL     1      -1.962  20.329   5.796  1.00  0.00     0.000 C 
BRANCH   7   8
ATOM      8  C   UNL     1      -2.898  20.104   6.998  1.00  0.00     0.000 C 
BRANCH   8   9
ATOM      9  C   UNL     1      -3.827  18.885   6.883  1.00  0.00     0.000 C 
BRANCH   9  10
ATOM     10  C   UNL     1      -3.494  17.992   5.679  1.00  0.00     0.006 C 
BRANCH  10  11
ATOM     11  C   UNL     1      -2.834  16.684   6.127  1.00  0.00     0.053 C 
BRANCH  11  12
ATOM     12  C   UNL     1      -3.771  15.887   6.980  1.00  0.00     0.041 C 
ATOM     13  O   UNL     1      -3.437  15.554   8.148  1.00  0.00    -0.550 OA
ATOM     14  O   UNL     1      -5.029  15.546   6.498  1.00  0.00    -0.550 OA
ENDBRANCH  11  12
ENDBRANCH  10  11
ENDBRANCH   9  10
ENDBRANCH   8   9
ENDBRANCH   7   8
ENDBRANCH   6   7
ENDBRANCH   5   6
ENDBRANCH   4   5
ENDBRANCH   3   4
ENDBRANCH   2   3
ENDBRANCH   1   2
BRANCH   1  15
ATOM     15  C   UNL     1       4.844  18.740   6.169  1.00  0.00     0.000 C 
BRANCH  15  16
ATOM     16  C   UNL     1       3.996  17.562   6.674  1.00  0.00     0.000 C 
BRANCH  16  17
ATOM     17  C   UNL     1       4.851  16.356   7.101  1.00  0.00     0.000 C 
BRANCH  17  18
ATOM     18  C   UNL     1       4.062  15.362   7.981  1.00  0.00    -0.000 C 
BRANCH  18  19
ATOM     19  C   UNL     1       4.444  15.420   9.472  1.00  0.00    -0.000 C 
BRANCH  19  20
ATOM     20  C   UNL     1       5.554  16.429   9.818  1.00  0.00    -0.000 C 
BRANCH  20  21
ATOM     21  C   UNL     1       5.130  17.555  10.781  1.00  0.00    -0.000 C 
BRANCH  21  22
ATOM     22  C   UNL     1       3.630  17.911  10.703  1.00  0.00    -0.000 C 
BRANCH  22  23
ATOM     23  C   UNL     1       3.378  19.202   9.902  1.00  0.00    -0.000 C 
BRANCH  23  24
ATOM     24  C   UNL     1       1.977  19.785  10.148  1.00  0.00    -0.000 C 
BRANCH  24  25
ATOM     25  C   UNL     1       1.627  19.869  11.642  1.00  0.00    -0.003 C 
ATOM     26  C   UNL     1       0.197  20.360  11.844  1.00  0.00     0.004 C 
ENDBRANCH  24  25
ENDBRANCH  23  24
ENDBRANCH  22  23
ENDBRANCH  21  22
ENDBRANCH  20  21
ENDBRANCH  19  20
ENDBRANCH  18  19
ENDBRANCH  17  18
ENDBRANCH  16  17
ENDBRANCH  15  16
ENDBRANCH   1  15
TORSDOF 22
ENDMDL
MODEL 4
REMARK VINA RESULT:    -2.756      1.776      3.659
REMARK INTER + INTRA:         -10.056
REMARK INTER:                  -6.127
REMARK INTRA:                  -3.930
REMARK UNBOUND:                -3.757
REMARK SMILES CCCCCCCCCCCCCCCCCCCCCCCC(=O)[O-]
REMARK SMILES IDX 13 1 14 2 15 3 16 4 17 5 18 6 19 7 20 8 21 9 22 10 23 11
REMARK SMILES IDX 24 12 25 13 26 14 12 15 11 16 10 17 9 18 8 19 7 20 6 21 5 22
REMARK SMILES IDX 4 23 3 24 2 25 1 26
REMARK H PARENT
REMARK Flexibility Score: inf
ROOT
ATOM      1  C   UNL     1       1.464  20.307  10.685  1.00  0.00     0.000 C 
ENDROOT
BRANCH   1   2
ATOM      2  C   UNL     1       2.244  19.079  11.172  1.00  0.00     0.000 C 
BRANCH   2   3
ATOM      3  C   UNL     1       3.363  18.708  10.189  1.00  0.00     0.000 C 
BRANCH   3   4
ATOM      4  C   UNL     1       3.917  17.291  10.421  1.00  0.00     0.000 C 
BRANCH   4   5
ATOM      5  C   UNL     1       5.083  17.243  11.432  1.00  0.00     0.000 C 
BRANCH   5   6
ATOM      6  C   UNL     1       6.213  16.305  10.966  1.00  0.00     0.000 C 
BRANCH   6   7
ATOM      7  C   UNL     1       6.569  16.490   9.476  1.00  0.00     0.000 C 
BRANCH   7   8
ATOM      8  C   UNL     1       6.687  15.170   8.690  1.00  0.00     0.000 C 
BRANCH   8   9
ATOM      9  C   UNL     1       5.368  14.403   8.502  1.00  0.00     0.000 C 
BRANCH   9  10
ATOM     10  C   UNL     1       4.384  15.126   7.571  1.00  0.00     0.006 C 
BRANCH  10  11
ATOM     11  C   UNL     1       4.756  14.911   6.101  1.00  0.00     0.053 C 
BRANCH  11  12
ATOM     12  C   UNL     1       4.707  13.456   5.752  1.00  0.00     0.041 C 
ATOM     13  O   UNL     1       5.732  12.876   5.304  1.00  0.00    -0.550 OA
ATOM     14  O   UNL     1       3.539  12.731   5.958  1.00  0.00    -0.550 OA
ENDBRANCH  11  12
ENDBRANCH  10  11
ENDBRANCH   9  10
ENDBRANCH   8   9
ENDBRANCH   7   8
ENDBRANCH   6   7
ENDBRANCH   5   6
ENDBRANCH   4   5
ENDBRANCH   3   4
ENDBRANCH   2   3
ENDBRANCH   1   2
BRANCH   1  15
ATOM     15  C   UNL     1       2.408  21.331  10.039  1.00  0.00     0.000 C 
BRANCH  15  16
ATOM     16  C   UNL     1       1.849  21.912   8.731  1.00  0.00     0.000 C 
BRANCH  16  17
ATOM     17  C   UNL     1       0.469  21.336   8.368  1.00  0.00     0.000 C 
BRANCH  17  18
ATOM     18  C   UNL     1       0.405  20.852   6.903  1.00  0.00    -0.000 C 
BRANCH  18  19
ATOM     19  C   UNL     1       1.550  19.897   6.517  1.00  0.00    -0.000 C 
BRANCH  19  20
ATOM     20  C   UNL     1       2.463  20.405   5.387  1.00  0.00    -0.000 C 
BRANCH  20  21
ATOM     21  C   UNL     1       3.910  19.873   5.433  1.00  0.00    -0.000 C 
BRANCH  21  22
ATOM     22  C   UNL     1       4.100  18.667   6.377  1.00  0.00    -0.000 C 
BRANCH  22  23
ATOM     23  C   UNL     1       5.466  18.691   7.086  1.00  0.00    -0.000 C 
BRANCH  23  24
ATOM     24  C   UNL     1       5.862  20.099   7.559  1.00  0.00    -0.000 C 
BRANCH  24  25
ATOM     25  C   UNL     1       6.417  20.106   8.992  1.00  0.00    -0.003 C 
ATOM     26  C   UNL     1       6.038  21.390   9.722  1.00  0.00     0.004 C 
ENDBRANCH  24  25
ENDBRANCH  23  24
ENDBRANCH  22  23
ENDBRANCH  21  22
ENDBRANCH  20  21
ENDBRANCH  19  20
ENDBRANCH  18  19
ENDBRANCH  17  18
ENDBRANCH  16  17
ENDBRANCH  15  16
ENDBRANCH   1  15
TORSDOF 22
ENDMDL
MODEL 5
REMARK VINA RESULT:    -2.697      1.785      5.307
REMARK INTER + INTRA:          -9.923
REMARK INTER:                  -5.462
REMARK INTRA:                  -4.461
REMARK UNBOUND:                -3.757
REMARK SMILES CCCCCCCCCCCCCCCCCCCCCCCC(=O)[O-]
REMARK SMILES IDX 13 1 14 2 15 3 16 4 17 5 18 6 19 7 20 8 21 9 22 10 23 11
REMARK SMILES IDX 24 12 25 13 26 14 12 15 11 16 10 17 9 18 8 19 7 20 6 21 5 22
REMARK SMILES IDX 4 23 3 24 2 25 1 26
REMARK H PARENT
REMARK Flexibility Score: inf
ROOT
ATOM      1  C   UNL     1       1.712  20.668   7.592  1.00  0.00     0.000 C 
ENDROOT
BRANCH   1   2
ATOM      2  C   UNL     1       1.781  19.841   6.303  1.00  0.00     0.000 C 
BRANCH   2   3
ATOM      3  C   UNL     1       2.509  20.608   5.190  1.00  0.00     0.000 C 
BRANCH   3   4
ATOM      4  C   UNL     1       3.941  20.099   4.951  1.00  0.00     0.000 C 
BRANCH   4   5
ATOM      5  C   UNL     1       5.024  20.958   5.639  1.00  0.00     0.000 C 
BRANCH   5   6
ATOM      6  C   UNL     1       5.956  20.111   6.525  1.00  0.00     0.000 C 
BRANCH   6   7
ATOM      7  C   UNL     1       5.190  19.271   7.569  1.00  0.00     0.000 C 
BRANCH   7   8
ATOM      8  C   UNL     1       5.320  17.749   7.368  1.00  0.00     0.000 C 
BRANCH   8   9
ATOM      9  C   UNL     1       4.026  16.948   7.590  1.00  0.00     0.000 C 
BRANCH   9  10
ATOM     10  C   UNL     1       4.283  15.546   8.161  1.00  0.00     0.006 C 
BRANCH  10  11
ATOM     11  C   UNL     1       5.301  14.781   7.310  1.00  0.00     0.053 C 
BRANCH  11  12
ATOM     12  C   UNL     1       4.625  14.115   6.152  1.00  0.00     0.041 C 
ATOM     13  O   UNL     1       3.577  13.440   6.333  1.00  0.00    -0.550 OA
ATOM     14  O   UNL     1       5.130  14.273   4.868  1.00  0.00    -0.550 OA
ENDBRANCH  11  12
ENDBRANCH  10  11
ENDBRANCH   9  10
ENDBRANCH   8   9
ENDBRANCH   7   8
ENDBRANCH   6   7
ENDBRANCH   5   6
ENDBRANCH   4   5
ENDBRANCH   3   4
ENDBRANCH   2   3
ENDBRANCH   1   2
BRANCH   1  15
ATOM     15  C   UNL     1       1.608  22.167   7.274  1.00  0.00     0.000 C 
BRANCH  15  16
ATOM     16  C   UNL     1       2.762  22.984   7.876  1.00  0.00     0.000 C 
BRANCH  16  17
ATOM     17  C   UNL     1       3.542  22.206   8.950  1.00  0.00     0.000 C 
BRANCH  17  18
ATOM     18  C   UNL     1       3.193  22.672  10.380  1.00  0.00    -0.000 C 
BRANCH  18  19
ATOM     19  C   UNL     1       3.323  21.562  11.440  1.00  0.00    -0.000 C 
BRANCH  19  20
ATOM     20  C   UNL     1       1.996  20.895  11.844  1.00  0.00    -0.000 C 
BRANCH  20  21
ATOM     21  C   UNL     1       1.691  19.567  11.123  1.00  0.00    -0.000 C 
BRANCH  21  22
ATOM     22  C   UNL     1       2.935  18.896  10.502  1.00  0.00    -0.000 C 
BRANCH  22  23
ATOM     23  C   UNL     1       3.517  17.794  11.406  1.00  0.00    -0.000 C 
BRANCH  23  24
ATOM     24  C   UNL     1       5.014  17.994  11.693  1.00  0.00    -0.000 C 
BRANCH  24  25
ATOM     25  C   UNL     1       5.882  16.872  11.105  1.00  0.00    -0.003 C 
ATOM     26  C   UNL     1       7.174  17.428  10.514  1.00  0.00     0.004 C 
ENDBRANCH  24  25
ENDBRANCH  23  24
ENDBRANCH  22  23
ENDBRANCH  21  22
ENDBRANCH  20  21
ENDBRANCH  19  20
ENDBRANCH  18  19
ENDBRANCH  17  18
ENDBRANCH  16  17
ENDBRANCH  15  16
ENDBRANCH   1  15
TORSDOF 22
ENDMDL
MODEL 6
REMARK VINA RESULT:    -2.696      2.079      5.339
REMARK INTER + INTRA:          -9.920
REMARK INTER:                  -6.029
REMARK INTRA:                  -3.891
REMARK UNBOUND:                -3.757
REMARK SMILES CCCCCCCCCCCCCCCCCCCCCCCC(=O)[O-]
REMARK SMILES IDX 13 1 14 2 15 3 16 4 17 5 18 6 19 7 20 8 21 9 22 10 23 11
REMARK SMILES IDX 24 12 25 13 26 14 12 15 11 16 10 17 9 18 8 19 7 20 6 21 5 22
REMARK SMILES IDX 4 23 3 24 2 25 1 26
REMARK H PARENT
REMARK Flexibility Score: inf
ROOT
ATOM      1  C   UNL     1       0.442  20.561   6.265  1.00  0.00     0.000 C 
ENDROOT
BRANCH   1   2
ATOM      2  C   UNL     1       1.664  21.184   5.578  1.00  0.00     0.000 C 
BRANCH   2   3
ATOM      3  C   UNL     1       2.766  20.139   5.354  1.00  0.00     0.000 C 
BRANCH   3   4
ATOM      4  C   UNL     1       2.922  19.171   6.540  1.00  0.00     0.000 C 
BRANCH   4   5
ATOM      5  C   UNL     1       4.304  19.253   7.225  1.00  0.00     0.000 C 
BRANCH   5   6
ATOM      6  C   UNL     1       4.922  17.860   7.446  1.00  0.00     0.000 C 
BRANCH   6   7
ATOM      7  C   UNL     1       3.863  16.741   7.533  1.00  0.00     0.000 C 
BRANCH   7   8
ATOM      8  C   UNL     1       4.430  15.323   7.333  1.00  0.00     0.000 C 
BRANCH   8   9
ATOM      9  C   UNL     1       4.868  14.607   8.621  1.00  0.00     0.000 C 
BRANCH   9  10
ATOM     10  C   UNL     1       6.300  14.056   8.540  1.00  0.00     0.006 C 
BRANCH  10  11
ATOM     11  C   UNL     1       6.350  12.772   7.706  1.00  0.00     0.053 C 
BRANCH  11  12
ATOM     12  C   UNL     1       5.428  11.738   8.274  1.00  0.00     0.041 C 
ATOM     13  O   UNL     1       5.634  11.268   9.424  1.00  0.00    -0.550 OA
ATOM     14  O   UNL     1       4.319  11.323   7.548  1.00  0.00    -0.550 OA
ENDBRANCH  11  12
ENDBRANCH  10  11
ENDBRANCH   9  10
ENDBRANCH   8   9
ENDBRANCH   7   8
ENDBRANCH   6   7
ENDBRANCH   5   6
ENDBRANCH   4   5
ENDBRANCH   3   4
ENDBRANCH   2   3
ENDBRANCH   1   2
BRANCH   1  15
ATOM     15  C   UNL     1       0.154  21.257   7.603  1.00  0.00     0.000 C 
BRANCH  15  16
ATOM     16  C   UNL     1       1.280  22.210   8.031  1.00  0.00     0.000 C 
BRANCH  16  17
ATOM     17  C   UNL     1       2.051  21.703   9.263  1.00  0.00     0.000 C 
BRANCH  17  18
ATOM     18  C   UNL     1       1.362  20.489   9.924  1.00  0.00    -0.000 C 
BRANCH  18  19
ATOM     19  C   UNL     1       2.341  19.376  10.343  1.00  0.00    -0.000 C 
BRANCH  19  20
ATOM     20  C   UNL     1       2.241  18.947  11.818  1.00  0.00    -0.000 C 
BRANCH  20  21
ATOM     21  C   UNL     1       3.301  17.922  12.269  1.00  0.00    -0.000 C 
BRANCH  21  22
ATOM     22  C   UNL     1       3.972  17.166  11.103  1.00  0.00    -0.000 C 
BRANCH  22  23
ATOM     23  C   UNL     1       5.502  17.334  11.103  1.00  0.00    -0.000 C 
BRANCH  23  24
ATOM     24  C   UNL     1       5.943  18.738  11.546  1.00  0.00    -0.000 C 
BRANCH  24  25
ATOM     25  C   UNL     1       6.380  19.620  10.366  1.00  0.00    -0.003 C 
ATOM     26  C   UNL     1       5.621  20.943  10.359  1.00  0.00     0.004 C 
ENDBRANCH  24  25
ENDBRANCH  23  24
ENDBRANCH  22  23
ENDBRANCH  21  22
ENDBRANCH  20  21
ENDBRANCH  19  20
ENDBRANCH  18  19
ENDBRANCH  17  18
ENDBRANCH  16  17
ENDBRANCH  15  16
ENDBRANCH   1  15
TORSDOF 22
ENDMDL
MODEL 7
REMARK VINA RESULT:    -2.690      2.513      3.728
REMARK INTER + INTRA:          -9.906
REMARK INTER:                  -5.859
REMARK INTRA:                  -4.047
REMARK UNBOUND:                -3.757
REMARK SMILES CCCCCCCCCCCCCCCCCCCCCCCC(=O)[O-]
REMARK SMILES IDX 13 1 14 2 15 3 16 4 17 5 18 6 19 7 20 8 21 9 22 10 23 11
REMARK SMILES IDX 24 12 25 13 26 14 12 15 11 16 10 17 9 18 8 19 7 20 6 21 5 22
REMARK SMILES IDX 4 23 3 24 2 25 1 26
REMARK H PARENT
REMARK Flexibility Score: inf
ROOT
ATOM      1  C   UNL     1       1.942  22.222   9.058  1.00  0.00     0.000 C 
ENDROOT
BRANCH   1   2
ATOM      2  C   UNL     1       2.749  21.345  10.023  1.00  0.00     0.000 C 
BRANCH   2   3
ATOM      3  C   UNL     1       1.921  20.148  10.510  1.00  0.00     0.000 C 
BRANCH   3   4
ATOM      4  C   UNL     1       2.724  18.836  10.536  1.00  0.00     0.000 C 
BRANCH   4   5
ATOM      5  C   UNL     1       2.938  18.271  11.957  1.00  0.00     0.000 C 
BRANCH   5   6
ATOM      6  C   UNL     1       4.000  17.156  11.981  1.00  0.00     0.000 C 
BRANCH   6   7
ATOM      7  C   UNL     1       4.539  16.811  10.576  1.00  0.00     0.000 C 
BRANCH   7   8
ATOM      8  C   UNL     1       6.045  17.083  10.398  1.00  0.00     0.000 C 
BRANCH   8   9
ATOM      9  C   UNL     1       6.405  18.028   9.240  1.00  0.00     0.000 C 
BRANCH   9  10
ATOM     10  C   UNL     1       6.130  19.503   9.565  1.00  0.00     0.006 C 
BRANCH  10  11
ATOM     11  C   UNL     1       6.354  20.391   8.337  1.00  0.00     0.053 C 
BRANCH  11  12
ATOM     12  C   UNL     1       7.801  20.399   7.951  1.00  0.00     0.041 C 
ATOM     13  O   UNL     1       8.677  20.752   8.784  1.00  0.00    -0.550 OA
ATOM     14  O   UNL     1       8.183  19.980   6.683  1.00  0.00    -0.550 OA
ENDBRANCH  11  12
ENDBRANCH  10  11
ENDBRANCH   9  10
ENDBRANCH   8   9
ENDBRANCH   7   8
ENDBRANCH   6   7
ENDBRANCH   5   6
ENDBRANCH   4   5
ENDBRANCH   3   4
ENDBRANCH   2   3
ENDBRANCH   1   2
BRANCH   1  15
ATOM     15  C   UNL     1       0.543  21.632   8.827  1.00  0.00     0.000 C 
BRANCH  15  16
ATOM     16  C   UNL     1       0.111  21.685   7.354  1.00  0.00     0.000 C 
BRANCH  16  17
ATOM     17  C   UNL     1       0.561  20.445   6.560  1.00  0.00     0.000 C 
BRANCH  17  18
ATOM     18  C   UNL     1       1.554  20.802   5.432  1.00  0.00    -0.000 C 
BRANCH  18  19
ATOM     19  C   UNL     1       2.914  20.088   5.559  1.00  0.00    -0.000 C 
BRANCH  19  20
ATOM     20  C   UNL     1       3.174  19.429   6.925  1.00  0.00    -0.000 C 
BRANCH  20  21
ATOM     21  C   UNL     1       3.608  17.951   6.861  1.00  0.00    -0.000 C 
BRANCH  21  22
ATOM     22  C   UNL     1       4.766  17.685   5.877  1.00  0.00    -0.000 C 
BRANCH  22  23
ATOM     23  C   UNL     1       5.151  16.195   5.818  1.00  0.00    -0.000 C 
BRANCH  23  24
ATOM     24  C   UNL     1       4.916  15.471   7.153  1.00  0.00    -0.000 C 
BRANCH  24  25
ATOM     25  C   UNL     1       4.153  14.149   6.980  1.00  0.00    -0.003 C 
ATOM     26  C   UNL     1       4.484  13.493   5.643  1.00  0.00     0.004 C 
ENDBRANCH  24  25
ENDBRANCH  23  24
ENDBRANCH  22  23
ENDBRANCH  21  22
ENDBRANCH  20  21
ENDBRANCH  19  20
ENDBRANCH  18  19
ENDBRANCH  17  18
ENDBRANCH  16  17
ENDBRANCH  15  16
ENDBRANCH   1  15
TORSDOF 22
ENDMDL
MODEL 8
REMARK VINA RESULT:    -2.673      1.737      3.355
REMARK INTER + INTRA:          -9.867
REMARK INTER:                  -6.176
REMARK INTRA:                  -3.691
REMARK UNBOUND:                -3.757
REMARK SMILES CCCCCCCCCCCCCCCCCCCCCCCC(=O)[O-]
REMARK SMILES IDX 13 1 14 2 15 3 16 4 17 5 18 6 19 7 20 8 21 9 22 10 23 11
REMARK SMILES IDX 24 12 25 13 26 14 12 15 11 16 10 17 9 18 8 19 7 20 6 21 5 22
REMARK SMILES IDX 4 23 3 24 2 25 1 26
REMARK H PARENT
REMARK Flexibility Score: inf
ROOT
ATOM      1  C   UNL     1       2.020  21.094   8.520  1.00  0.00     0.000 C 
ENDROOT
BRANCH   1   2
ATOM      2  C   UNL     1       2.364  19.783   9.237  1.00  0.00     0.000 C 
BRANCH   2   3
ATOM      3  C   UNL     1       1.877  19.802  10.693  1.00  0.00     0.000 C 
BRANCH   3   4
ATOM      4  C   UNL     1       2.506  18.688  11.549  1.00  0.00     0.000 C 
BRANCH   4   5
ATOM      5  C   UNL     1       4.019  18.502  11.303  1.00  0.00     0.000 C 
BRANCH   5   6
ATOM      6  C   UNL     1       4.365  17.056  10.901  1.00  0.00     0.000 C 
BRANCH   6   7
ATOM      7  C   UNL     1       4.408  16.854   9.371  1.00  0.00     0.000 C 
BRANCH   7   8
ATOM      8  C   UNL     1       4.375  15.378   8.932  1.00  0.00     0.000 C 
BRANCH   8   9
ATOM      9  C   UNL     1       5.649  14.875   8.235  1.00  0.00     0.000 C 
BRANCH   9  10
ATOM     10  C   UNL     1       5.735  13.343   8.181  1.00  0.00     0.006 C 
BRANCH  10  11
ATOM     11  C   UNL     1       5.953  12.853   6.746  1.00  0.00     0.053 C 
BRANCH  11  12
ATOM     12  C   UNL     1       4.865  13.353   5.847  1.00  0.00     0.041 C 
ATOM     13  O   UNL     1       5.151  14.004   4.807  1.00  0.00    -0.550 OA
ATOM     14  O   UNL     1       3.537  13.066   6.137  1.00  0.00    -0.550 OA
ENDBRANCH  11  12
ENDBRANCH  10  11
ENDBRANCH   9  10
ENDBRANCH   8   9
ENDBRANCH   7   8
ENDBRANCH   6   7
ENDBRANCH   5   6
ENDBRANCH   4   5
ENDBRANCH   3   4
ENDBRANCH   2   3
ENDBRANCH   1   2
BRANCH   1  15
ATOM     15  C   UNL     1       1.114  20.832   7.309  1.00  0.00     0.000 C 
BRANCH  15  16
ATOM     16  C   UNL     1       1.727  19.835   6.313  1.00  0.00     0.000 C 
BRANCH  16  17
ATOM     17  C   UNL     1       2.681  20.509   5.311  1.00  0.00     0.000 C 
BRANCH  17  18
ATOM     18  C   UNL     1       4.075  19.845   5.293  1.00  0.00    -0.000 C 
BRANCH  18  19
ATOM     19  C   UNL     1       4.191  18.626   6.228  1.00  0.00    -0.000 C 
BRANCH  19  20
ATOM     20  C   UNL     1       4.809  17.373   5.584  1.00  0.00    -0.000 C 
BRANCH  20  21
ATOM     21  C   UNL     1       6.351  17.338   5.582  1.00  0.00    -0.000 C 
BRANCH  21  22
ATOM     22  C   UNL     1       6.991  18.029   6.804  1.00  0.00    -0.000 C 
BRANCH  22  23
ATOM     23  C   UNL     1       7.758  19.307   6.417  1.00  0.00    -0.000 C 
BRANCH  23  24
ATOM     24  C   UNL     1       7.888  20.296   7.586  1.00  0.00    -0.000 C 
BRANCH  24  25
ATOM     25  C   UNL     1       6.679  21.237   7.701  1.00  0.00    -0.003 C 
ATOM     26  C   UNL     1       5.784  20.841   8.871  1.00  0.00     0.004 C 
ENDBRANCH  24  25
ENDBRANCH  23  24
ENDBRANCH  22  23
ENDBRANCH  21  22
ENDBRANCH  20  21
ENDBRANCH  19  20
ENDBRANCH  18  19
ENDBRANCH  17  18
ENDBRANCH  16  17
ENDBRANCH  15  16
ENDBRANCH   1  15
TORSDOF 22
ENDMDL
MODEL 9
REMARK VINA RESULT:    -2.666      1.504      3.170
REMARK INTER + INTRA:          -9.851
REMARK INTER:                  -6.795
REMARK INTRA:                  -3.056
REMARK UNBOUND:                -3.757
REMARK SMILES CCCCCCCCCCCCCCCCCCCCCCCC(=O)[O-]
REMARK SMILES IDX 13 1 14 2 15 3 16 4 17 5 18 6 19 7 20 8 21 9 22 10 23 11
REMARK SMILES IDX 24 12 25 13 26 14 12 15 11 16 10 17 9 18 8 19 7 20 6 21 5 22
REMARK SMILES IDX 4 23 3 24 2 25 1 26
REMARK H PARENT
REMARK Flexibility Score: inf
ROOT
ATOM      1  C   UNL     1       1.034  20.950   9.622  1.00  0.00     0.000 C 
ENDROOT
BRANCH   1   2
ATOM      2  C   UNL     1       2.134  19.976  10.064  1.00  0.00     0.000 C 
BRANCH   2   3
ATOM      3  C   UNL     1       1.811  19.358  11.431  1.00  0.00     0.000 C 
BRANCH   3   4
ATOM      4  C   UNL     1       2.796  18.246  11.833  1.00  0.00     0.000 C 
BRANCH   4   5
ATOM      5  C   UNL     1       3.939  18.038  10.816  1.00  0.00     0.000 C 
BRANCH   5   6
ATOM      6  C   UNL     1       4.612  16.662  10.976  1.00  0.00     0.000 C 
BRANCH   6   7
ATOM      7  C   UNL     1       4.339  15.719   9.785  1.00  0.00     0.000 C 
BRANCH   7   8
ATOM      8  C   UNL     1       5.257  14.482   9.740  1.00  0.00     0.000 C 
BRANCH   8   9
ATOM      9  C   UNL     1       6.391  14.548   8.706  1.00  0.00     0.000 C 
BRANCH   9  10
ATOM     10  C   UNL     1       6.635  13.206   8.001  1.00  0.00     0.006 C 
BRANCH  10  11
ATOM     11  C   UNL     1       5.949  13.169   6.631  1.00  0.00     0.053 C 
BRANCH  11  12
ATOM     12  C   UNL     1       4.504  12.805   6.775  1.00  0.00     0.041 C 
ATOM     13  O   UNL     1       3.608  13.657   6.536  1.00  0.00    -0.550 OA
ATOM     14  O   UNL     1       4.147  11.511   7.135  1.00  0.00    -0.550 OA
ENDBRANCH  11  12
ENDBRANCH  10  11
ENDBRANCH   9  10
ENDBRANCH   8   9
ENDBRANCH   7   8
ENDBRANCH   6   7
ENDBRANCH   5   6
ENDBRANCH   4   5
ENDBRANCH   3   4
ENDBRANCH   2   3
ENDBRANCH   1   2
BRANCH   1  15
ATOM     15  C   UNL     1       1.409  21.632   8.298  1.00  0.00     0.000 C 
BRANCH  15  16
ATOM     16  C   UNL     1       0.451  21.270   7.152  1.00  0.00     0.000 C 
BRANCH  16  17
ATOM     17  C   UNL     1       0.990  20.134   6.265  1.00  0.00     0.000 C 
BRANCH  17  18
ATOM     18  C   UNL     1       2.517  19.951   6.412  1.00  0.00    -0.000 C 
BRANCH  18  19
ATOM     19  C   UNL     1       2.920  18.597   7.026  1.00  0.00    -0.000 C 
BRANCH  19  20
ATOM     20  C   UNL     1       4.432  18.309   7.019  1.00  0.00    -0.000 C 
BRANCH  20  21
ATOM     21  C   UNL     1       4.841  17.006   6.303  1.00  0.00    -0.000 C 
BRANCH  21  22
ATOM     22  C   UNL     1       6.138  17.132   5.475  1.00  0.00    -0.000 C 
BRANCH  22  23
ATOM     23  C   UNL     1       5.864  17.148   3.960  1.00  0.00    -0.000 C 
BRANCH  23  24
ATOM     24  C   UNL     1       6.156  18.515   3.321  1.00  0.00    -0.000 C 
BRANCH  24  25
ATOM     25  C   UNL     1       5.062  19.551   3.619  1.00  0.00    -0.003 C 
ATOM     26  C   UNL     1       5.627  20.741   4.389  1.00  0.00     0.004 C 
ENDBRANCH  24  25
ENDBRANCH  23  24
ENDBRANCH  22  23
ENDBRANCH  21  22
ENDBRANCH  20  21
ENDBRANCH  19  20
ENDBRANCH  18  19
ENDBRANCH  17  18
ENDBRANCH  16  17
ENDBRANCH  15  16
ENDBRANCH   1  15
TORSDOF 22
ENDMDL
