MODEL 1
REMARK VINA RESULT:    -4.194      0.000      0.000
REMARK INTER + INTRA:          -5.315
REMARK INTER:                  -5.174
REMARK INTRA:                  -0.140
REMARK UNBOUND:                -0.140
REMARK SMILES CCCCCC(=O)[O-]
REMARK SMILES IDX 4 1 5 2 6 3 7 4 8 5 3 6 2 7 1 8
REMARK H PARENT
REMARK Flexibility Score: inf
ROOT
ATOM      1  C   UNL     1       8.278 -12.959  25.973  1.00  0.00     0.006 C 
ENDROOT
BRANCH   1   2
ATOM      2  C   UNL     1       9.050 -11.655  25.730  1.00  0.00     0.053 C 
BRANCH   2   3
ATOM      3  C   UNL     1      10.093 -11.816  24.667  1.00  0.00     0.041 C 
ATOM      4  O   UNL     1      11.313 -11.852  24.978  1.00  0.00    -0.550 OA
ATOM      5  O   UNL     1       9.717 -11.963  23.338  1.00  0.00    -0.550 OA
ENDBRANCH   2   3
ENDBRANCH   1   2
BRANCH   1   6
ATOM      6  C   UNL     1       8.289 -13.372  27.455  1.00  0.00     0.000 C 
BRANCH   6   7
ATOM      7  C   UNL     1       8.998 -12.344  28.349  1.00  0.00    -0.003 C 
ATOM      8  C   UNL     1       8.264 -12.103  29.668  1.00  0.00     0.004 C 
ENDBRANCH   6   7
ENDBRANCH   1   6
TORSDOF 4
ENDMDL
MODEL 2
REMARK VINA RESULT:    -4.192      1.164      1.303
REMARK INTER + INTRA:          -5.312
REMARK INTER:                  -5.256
REMARK INTRA:                  -0.056
REMARK UNBOUND:                -0.140
REMARK SMILES CCCCCC(=O)[O-]
REMARK SMILES IDX 4 1 5 2 6 3 7 4 8 5 3 6 2 7 1 8
REMARK H PARENT
REMARK Flexibility Score: inf
ROOT
ATOM      1  C   UNL     1       9.372 -12.296  26.990  1.00  0.00     0.006 C 
ENDROOT
BRANCH   1   2
ATOM      2  C   UNL     1       8.883 -12.677  25.587  1.00  0.00     0.053 C 
BRANCH   2   3
ATOM      3  C   UNL     1       9.180 -11.605  24.584  1.00  0.00     0.041 C 
ATOM      4  O   UNL     1       9.278 -10.404  24.952  1.00  0.00    -0.550 OA
ATOM      5  O   UNL     1       9.384 -11.935  23.250  1.00  0.00    -0.550 OA
ENDBRANCH   2   3
ENDBRANCH   1   2
BRANCH   1   6
ATOM      6  C   UNL     1       8.574 -13.009  28.096  1.00  0.00     0.000 C 
BRANCH   6   7
ATOM      7  C   UNL     1       9.028 -12.602  29.507  1.00  0.00    -0.003 C 
ATOM      8  C   UNL     1       7.950 -11.837  30.275  1.00  0.00     0.004 C 
ENDBRANCH   6   7
ENDBRANCH   1   6
TORSDOF 4
ENDMDL
MODEL 3
REMARK VINA RESULT:    -4.164      0.304      1.183
REMARK INTER + INTRA:          -5.278
REMARK INTER:                  -5.129
REMARK INTRA:                  -0.150
REMARK UNBOUND:                -0.140
REMARK SMILES CCCCCC(=O)[O-]
REMARK SMILES IDX 4 1 5 2 6 3 7 4 8 5 3 6 2 7 1 8
REMARK H PARENT
REMARK Flexibility Score: inf
ROOT
ATOM      1  C   UNL     1       8.265 -13.012  26.039  1.00  0.00     0.006 C 
ENDROOT
BRANCH   1   2
ATOM      2  C   UNL     1       9.125 -11.770  25.771  1.00  0.00     0.053 C 
BRANCH   2   3
ATOM      3  C   UNL     1      10.268 -12.072  24.851  1.00  0.00     0.041 C 
ATOM      4  O   UNL     1      10.070 -12.188  23.612  1.00  0.00    -0.550 OA
ATOM      5  O   UNL     1      11.557 -12.189  25.355  1.00  0.00    -0.550 OA
ENDBRANCH   2   3
ENDBRANCH   1   2
BRANCH   1   6
ATOM      6  C   UNL     1       8.248 -13.396  27.528  1.00  0.00     0.000 C 
BRANCH   6   7
ATOM      7  C   UNL     1       8.980 -12.373  28.410  1.00  0.00    -0.003 C 
ATOM      8  C   UNL     1       8.224 -12.058  29.700  1.00  0.00     0.004 C 
ENDBRANCH   6   7
ENDBRANCH   1   6
TORSDOF 4
ENDMDL
MODEL 4
REMARK VINA RESULT:    -4.024      3.018      4.640
REMARK INTER + INTRA:          -5.105
REMARK INTER:                  -5.063
REMARK INTRA:                  -0.042
REMARK UNBOUND:                -0.140
REMARK SMILES CCCCCC(=O)[O-]
REMARK SMILES IDX 4 1 5 2 6 3 7 4 8 5 3 6 2 7 1 8
REMARK H PARENT
REMARK Flexibility Score: inf
ROOT
ATOM      1  C   UNL     1       9.388 -12.459  26.973  1.00  0.00     0.006 C 
ENDROOT
BRANCH   1   2
ATOM      2  C   UNL     1       8.448 -12.934  28.088  1.00  0.00     0.053 C 
BRANCH   2   3
ATOM      3  C   UNL     1       8.969 -12.577  29.446  1.00  0.00     0.041 C 
ATOM      4  O   UNL     1      10.141 -12.895  29.777  1.00  0.00    -0.550 OA
ATOM      5  O   UNL     1       8.174 -11.861  30.332  1.00  0.00    -0.550 OA
ENDBRANCH   2   3
ENDBRANCH   1   2
BRANCH   1   6
ATOM      6  C   UNL     1       8.702 -12.458  25.596  1.00  0.00     0.000 C 
BRANCH   6   7
ATOM      7  C   UNL     1       9.071 -11.226  24.755  1.00  0.00    -0.003 C 
ATOM      8  C   UNL     1       9.405 -11.579  23.306  1.00  0.00     0.004 C 
ENDBRANCH   6   7
ENDBRANCH   1   6
TORSDOF 4
ENDMDL
MODEL 5
REMARK VINA RESULT:    -3.783      2.815      4.316
REMARK INTER + INTRA:          -4.808
REMARK INTER:                  -4.716
REMARK INTRA:                  -0.092
REMARK UNBOUND:                -0.140
REMARK SMILES CCCCCC(=O)[O-]
REMARK SMILES IDX 4 1 5 2 6 3 7 4 8 5 3 6 2 7 1 8
REMARK H PARENT
REMARK Flexibility Score: inf
ROOT
ATOM      1  C   UNL     1       9.376 -12.042  26.383  1.00  0.00     0.006 C 
ENDROOT
BRANCH   1   2
ATOM      2  C   UNL     1       8.666 -12.934  27.410  1.00  0.00     0.053 C 
BRANCH   2   3
ATOM      3  C   UNL     1       9.045 -12.577  28.815  1.00  0.00     0.041 C 
ATOM      4  O   UNL     1      10.176 -12.898  29.265  1.00  0.00    -0.550 OA
ATOM      5  O   UNL     1       8.165 -11.858  29.613  1.00  0.00    -0.550 OA
ENDBRANCH   2   3
ENDBRANCH   1   2
BRANCH   1   6
ATOM      6  C   UNL     1       9.299 -12.621  24.960  1.00  0.00     0.000 C 
BRANCH   6   7
ATOM      7  C   UNL     1      10.686 -12.898  24.360  1.00  0.00    -0.003 C 
ATOM      8  C   UNL     1      11.795 -12.096  25.040  1.00  0.00     0.004 C 
ENDBRANCH   6   7
ENDBRANCH   1   6
TORSDOF 4
ENDMDL
MODEL 6
REMARK VINA RESULT:    -3.725      1.906      2.701
REMARK INTER + INTRA:          -4.737
REMARK INTER:                  -4.635
REMARK INTRA:                  -0.102
REMARK UNBOUND:                -0.140
REMARK SMILES CCCCCC(=O)[O-]
REMARK SMILES IDX 4 1 5 2 6 3 7 4 8 5 3 6 2 7 1 8
REMARK H PARENT
REMARK Flexibility Score: inf
ROOT
ATOM      1  C   UNL     1       9.284 -11.216  23.986  1.00  0.00     0.006 C 
ENDROOT
BRANCH   1   2
ATOM      2  C   UNL     1      10.183 -12.392  23.584  1.00  0.00     0.053 C 
BRANCH   2   3
ATOM      3  C   UNL     1      10.247 -12.561  22.097  1.00  0.00     0.041 C 
ATOM      4  O   UNL     1      11.157 -13.261  21.578  1.00  0.00    -0.550 OA
ATOM      5  O   UNL     1       9.282 -11.977  21.287  1.00  0.00    -0.550 OA
ENDBRANCH   2   3
ENDBRANCH   1   2
BRANCH   1   6
ATOM      6  C   UNL     1       8.984 -11.204  25.494  1.00  0.00     0.000 C 
BRANCH   6   7
ATOM      7  C   UNL     1       9.631 -12.385  26.234  1.00  0.00    -0.003 C 
ATOM      8  C   UNL     1       9.216 -12.461  27.703  1.00  0.00     0.004 C 
ENDBRANCH   6   7
ENDBRANCH   1   6
TORSDOF 4
ENDMDL
MODEL 7
REMARK VINA RESULT:    -3.692      2.796      4.731
REMARK INTER + INTRA:          -4.696
REMARK INTER:                  -4.649
REMARK INTRA:                  -0.047
REMARK UNBOUND:                -0.140
REMARK SMILES CCCCCC(=O)[O-]
REMARK SMILES IDX 4 1 5 2 6 3 7 4 8 5 3 6 2 7 1 8
REMARK H PARENT
REMARK Flexibility Score: inf
ROOT
ATOM      1  C   UNL     1       8.914 -12.574  25.414  1.00  0.00     0.006 C 
ENDROOT
BRANCH   1   2
ATOM      2  C   UNL     1       9.506 -12.263  26.795  1.00  0.00     0.053 C 
BRANCH   2   3
ATOM      3  C   UNL     1       8.603 -12.712  27.902  1.00  0.00     0.041 C 
ATOM      4  O   UNL     1       7.876 -13.730  27.752  1.00  0.00    -0.550 OA
ATOM      5  O   UNL     1       8.591 -12.030  29.112  1.00  0.00    -0.550 OA
ENDBRANCH   2   3
ENDBRANCH   1   2
BRANCH   1   6
ATOM      6  C   UNL     1       9.371 -11.567  24.346  1.00  0.00     0.000 C 
BRANCH   6   7
ATOM      7  C   UNL     1      10.023 -12.248  23.133  1.00  0.00    -0.003 C 
ATOM      8  C   UNL     1       9.361 -11.860  21.811  1.00  0.00     0.004 C 
ENDBRANCH   6   7
ENDBRANCH   1   6
TORSDOF 4
ENDMDL
MODEL 8
REMARK VINA RESULT:    -3.630     10.693     11.390
REMARK INTER + INTRA:          -4.620
REMARK INTER:                  -4.499
REMARK INTRA:                  -0.120
REMARK UNBOUND:                -0.140
REMARK SMILES CCCCCC(=O)[O-]
REMARK SMILES IDX 4 1 5 2 6 3 7 4 8 5 3 6 2 7 1 8
REMARK H PARENT
REMARK Flexibility Score: inf
ROOT
ATOM      1  C   UNL     1      19.218 -16.911  21.791  1.00  0.00     0.006 C 
ENDROOT
BRANCH   1   2
ATOM      2  C   UNL     1      18.617 -17.865  20.751  1.00  0.00     0.053 C 
BRANCH   2   3
ATOM      3  C   UNL     1      17.290 -17.381  20.252  1.00  0.00     0.041 C 
ATOM      4  O   UNL     1      16.810 -17.842  19.183  1.00  0.00    -0.550 OA
ATOM      5  O   UNL     1      16.569 -16.447  20.984  1.00  0.00    -0.550 OA
ENDBRANCH   2   3
ENDBRANCH   1   2
BRANCH   1   6
ATOM      6  C   UNL     1      19.245 -17.530  23.199  1.00  0.00     0.000 C 
BRANCH   6   7
ATOM      7  C   UNL     1      18.910 -16.510  24.299  1.00  0.00    -0.003 C 
ATOM      8  C   UNL     1      19.547 -15.144  24.050  1.00  0.00     0.004 C 
ENDBRANCH   6   7
ENDBRANCH   1   6
TORSDOF 4
ENDMDL
MODEL 9
REMARK VINA RESULT:    -3.582     11.796     12.879
REMARK INTER + INTRA:          -4.560
REMARK INTER:                  -4.413
REMARK INTRA:                  -0.147
REMARK UNBOUND:                -0.140
REMARK SMILES CCCCCC(=O)[O-]
REMARK SMILES IDX 4 1 5 2 6 3 7 4 8 5 3 6 2 7 1 8
REMARK H PARENT
REMARK Flexibility Score: inf
ROOT
ATOM      1  C   UNL     1      13.323  -4.185  34.486  1.00  0.00     0.006 C 
ENDROOT
BRANCH   1   2
ATOM      2  C   UNL     1      13.342  -5.714  34.612  1.00  0.00     0.053 C 
BRANCH   2   3
ATOM      3  C   UNL     1      12.964  -6.164  35.990  1.00  0.00     0.041 C 
ATOM      4  O   UNL     1      12.476  -5.344  36.811  1.00  0.00    -0.550 OA
ATOM      5  O   UNL     1      13.116  -7.495  36.354  1.00  0.00    -0.550 OA
ENDBRANCH   2   3
ENDBRANCH   1   2
BRANCH   1   6
ATOM      6  C   UNL     1      14.644  -3.631  33.926  1.00  0.00     0.000 C 
BRANCH   6   7
ATOM      7  C   UNL     1      15.875  -4.350  34.498  1.00  0.00    -0.003 C 
ATOM      8  C   UNL     1      16.834  -4.835  33.412  1.00  0.00     0.004 C 
ENDBRANCH   6   7
ENDBRANCH   1   6
TORSDOF 4
ENDMDL
