MODEL 1
REMARK VINA RESULT:     7.701      0.000      0.000
REMARK INTER + INTRA:           8.757
REMARK INTER:                   9.052
REMARK INTRA:                  -0.295
REMARK UNBOUND:                -0.295
REMARK SMILES O=c1cc(-c2ccc(O)c(O)c2)oc2cc(O)cc(O)c12
REMARK SMILES IDX 4 1 3 2 2 3 1 4 21 5 19 6 18 7 16 8 15 9 14 10 13 11 5 12
REMARK SMILES IDX 6 13 7 14 8 15 12 16 10 17 9 18 11 20 20 22 17 24
REMARK H PARENT 9 19 11 21 20 23 17 25
REMARK Flexibility Score: inf
ROOT
ATOM      1  C   UNL     1     -27.734 141.317  53.905  1.00  0.00     0.138 A 
ATOM      2  C   UNL     1     -28.569 140.192  53.876  1.00  0.00     0.100 A 
ATOM      3  C   UNL     1     -28.255 139.078  54.655  1.00  0.00     0.197 A 
ATOM      4  O   UNL     1     -29.055 138.106  54.649  1.00  0.00    -0.289 OA
ATOM      5  C   UNL     1     -27.078 139.078  55.441  1.00  0.00     0.107 A 
ATOM      6  C   UNL     1     -26.638 137.986  56.249  1.00  0.00     0.134 A 
ATOM      7  C   UNL     1     -25.507 138.140  57.061  1.00  0.00     0.093 A 
ATOM      8  C   UNL     1     -24.767 139.326  57.049  1.00  0.00     0.123 A 
ATOM      9  C   UNL     1     -25.159 140.379  56.226  1.00  0.00     0.094 A 
ATOM     10  C   UNL     1     -26.303 140.269  55.432  1.00  0.00     0.146 A 
ATOM     11  O   UNL     1     -26.651 141.304  54.675  1.00  0.00    -0.456 OA
ENDROOT
BRANCH   1  12
ATOM     12  C   UNL     1     -28.019 142.528  53.093  1.00  0.00     0.021 A 
ATOM     13  C   UNL     1     -28.458 142.438  51.758  1.00  0.00     0.016 A 
ATOM     14  C   UNL     1     -28.729 143.595  51.023  1.00  0.00     0.051 A 
ATOM     15  C   UNL     1     -28.573 144.858  51.608  1.00  0.00     0.157 A 
ATOM     16  C   UNL     1     -27.878 143.799  53.677  1.00  0.00     0.062 A 
ATOM     17  C   UNL     1     -28.149 144.960  52.937  1.00  0.00     0.158 A 
BRANCH  15  18
ATOM     18  O   UNL     1     -28.840 146.013  50.875  1.00  0.00    -0.504 OA
ATOM     19  H   UNL     1     -29.605 146.056  50.212  1.00  0.00     0.293 HD
ENDBRANCH  15  18
BRANCH  17  20
ATOM     20  O   UNL     1     -27.999 146.218  53.518  1.00  0.00    -0.504 OA
ATOM     21  H   UNL     1     -27.163 146.468  54.034  1.00  0.00     0.293 HD
ENDBRANCH  17  20
ENDBRANCH   1  12
BRANCH   6  22
ATOM     22  O   UNL     1     -27.255 136.733  56.276  1.00  0.00    -0.507 OA
ATOM     23  H   UNL     1     -27.951 136.443  56.945  1.00  0.00     0.293 HD
ENDBRANCH   6  22
BRANCH   8  24
ATOM     24  O   UNL     1     -23.634 139.464  57.848  1.00  0.00    -0.508 OA
ATOM     25  H   UNL     1     -22.733 139.707  57.453  1.00  0.00     0.293 HD
ENDBRANCH   8  24
TORSDOF 5
ENDMDL
MODEL 2
REMARK VINA RESULT:     9.633      0.881      1.006
REMARK INTER + INTRA:          11.027
REMARK INTER:                  11.325
REMARK INTRA:                  -0.298
REMARK UNBOUND:                -0.295
REMARK SMILES O=c1cc(-c2ccc(O)c(O)c2)oc2cc(O)cc(O)c12
REMARK SMILES IDX 4 1 3 2 2 3 1 4 21 5 19 6 18 7 16 8 15 9 14 10 13 11 5 12
REMARK SMILES IDX 6 13 7 14 8 15 12 16 10 17 9 18 11 20 20 22 17 24
REMARK H PARENT 9 19 11 21 20 23 17 25
REMARK Flexibility Score: inf
ROOT
ATOM      1  C   UNL     1     -27.136 141.264  54.282  1.00  0.00     0.138 A 
ATOM      2  C   UNL     1     -27.698 139.980  54.288  1.00  0.00     0.100 A 
ATOM      3  C   UNL     1     -27.188 139.006  55.147  1.00  0.00     0.197 A 
ATOM      4  O   UNL     1     -27.751 137.881  55.169  1.00  0.00    -0.289 OA
ATOM      5  C   UNL     1     -26.085 139.310  55.981  1.00  0.00     0.107 A 
ATOM      6  C   UNL     1     -25.459 138.388  56.873  1.00  0.00     0.134 A 
ATOM      7  C   UNL     1     -24.436 138.834  57.720  1.00  0.00     0.093 A 
ATOM      8  C   UNL     1     -23.979 140.153  57.666  1.00  0.00     0.123 A 
ATOM      9  C   UNL     1     -24.549 141.048  56.764  1.00  0.00     0.094 A 
ATOM     10  C   UNL     1     -25.594 140.643  55.930  1.00  0.00     0.146 A 
ATOM     11  O   UNL     1     -26.122 141.533  55.096  1.00  0.00    -0.456 OA
ENDROOT
BRANCH   1  12
ATOM     12  C   UNL     1     -27.637 142.336  53.385  1.00  0.00     0.021 A 
ATOM     13  C   UNL     1     -28.037 142.069  52.062  1.00  0.00     0.016 A 
ATOM     14  C   UNL     1     -28.515 143.097  51.245  1.00  0.00     0.051 A 
ATOM     15  C   UNL     1     -28.609 144.405  51.736  1.00  0.00     0.157 A 
ATOM     16  C   UNL     1     -27.748 143.649  53.874  1.00  0.00     0.062 A 
ATOM     17  C   UNL     1     -28.227 144.682  53.053  1.00  0.00     0.158 A 
BRANCH  15  18
ATOM     18  O   UNL     1     -29.083 145.432  50.922  1.00  0.00    -0.504 OA
ATOM     19  H   UNL     1     -28.453 146.063  50.442  1.00  0.00     0.293 HD
ENDBRANCH  15  18
BRANCH  17  20
ATOM     20  O   UNL     1     -28.326 145.983  53.541  1.00  0.00    -0.504 OA
ATOM     21  H   UNL     1     -28.182 146.195  54.522  1.00  0.00     0.293 HD
ENDBRANCH  17  20
ENDBRANCH   1  12
BRANCH   6  22
ATOM     22  O   UNL     1     -25.783 137.031  56.951  1.00  0.00    -0.507 OA
ATOM     23  H   UNL     1     -26.376 136.538  56.302  1.00  0.00     0.293 HD
ENDBRANCH   6  22
BRANCH   8  24
ATOM     24  O   UNL     1     -22.950 140.583  58.502  1.00  0.00    -0.508 OA
ATOM     25  H   UNL     1     -23.122 141.222  59.270  1.00  0.00     0.293 HD
ENDBRANCH   8  24
TORSDOF 5
ENDMDL
MODEL 3
REMARK VINA RESULT:    10.488      3.963      5.676
REMARK INTER + INTRA:          12.033
REMARK INTER:                  12.297
REMARK INTRA:                  -0.264
REMARK UNBOUND:                -0.295
REMARK SMILES O=c1cc(-c2ccc(O)c(O)c2)oc2cc(O)cc(O)c12
REMARK SMILES IDX 4 1 3 2 2 3 1 4 21 5 19 6 18 7 16 8 15 9 14 10 13 11 5 12
REMARK SMILES IDX 6 13 7 14 8 15 12 16 10 17 9 18 11 20 20 22 17 24
REMARK H PARENT 9 19 11 21 20 23 17 25
REMARK Flexibility Score: inf
ROOT
ATOM      1  C   UNL     1     -26.662 138.854  55.037  1.00  0.00     0.138 A 
ATOM      2  C   UNL     1     -27.580 139.691  55.684  1.00  0.00     0.100 A 
ATOM      3  C   UNL     1     -27.147 140.523  56.718  1.00  0.00     0.197 A 
ATOM      4  O   UNL     1     -27.984 141.304  57.241  1.00  0.00    -0.289 OA
ATOM      5  C   UNL     1     -25.792 140.490  57.128  1.00  0.00     0.107 A 
ATOM      6  C   UNL     1     -25.243 141.268  58.192  1.00  0.00     0.134 A 
ATOM      7  C   UNL     1     -23.866 141.222  58.441  1.00  0.00     0.093 A 
ATOM      8  C   UNL     1     -23.028 140.383  57.703  1.00  0.00     0.123 A 
ATOM      9  C   UNL     1     -23.561 139.582  56.696  1.00  0.00     0.094 A 
ATOM     10  C   UNL     1     -24.925 139.631  56.400  1.00  0.00     0.146 A 
ATOM     11  O   UNL     1     -25.389 138.864  55.420  1.00  0.00    -0.456 OA
ENDROOT
BRANCH   1  12
ATOM     12  C   UNL     1     -27.069 137.946  53.934  1.00  0.00     0.021 A 
ATOM     13  C   UNL     1     -26.620 138.137  52.614  1.00  0.00     0.016 A 
ATOM     14  C   UNL     1     -27.012 137.259  51.599  1.00  0.00     0.051 A 
ATOM     15  C   UNL     1     -27.850 136.175  51.886  1.00  0.00     0.157 A 
ATOM     16  C   UNL     1     -27.900 136.847  54.216  1.00  0.00     0.062 A 
ATOM     17  C   UNL     1     -28.294 135.968  53.196  1.00  0.00     0.158 A 
BRANCH  15  18
ATOM     18  O   UNL     1     -28.244 135.301  50.875  1.00  0.00    -0.504 OA
ATOM     19  H   UNL     1     -28.591 134.372  51.082  1.00  0.00     0.293 HD
ENDBRANCH  15  18
BRANCH  17  20
ATOM     20  O   UNL     1     -29.125 134.886  53.481  1.00  0.00    -0.504 OA
ATOM     21  H   UNL     1     -29.905 134.643  52.880  1.00  0.00     0.293 HD
ENDBRANCH  17  20
ENDBRANCH   1  12
BRANCH   6  22
ATOM     22  O   UNL     1     -26.002 142.079  59.041  1.00  0.00    -0.507 OA
ATOM     23  H   UNL     1     -25.660 142.897  59.520  1.00  0.00     0.293 HD
ENDBRANCH   6  22
BRANCH   8  24
ATOM     24  O   UNL     1     -21.660 140.333  57.969  1.00  0.00    -0.508 OA
ATOM     25  H   UNL     1     -21.240 139.536  58.434  1.00  0.00     0.293 HD
ENDBRANCH   8  24
TORSDOF 5
ENDMDL
