MODEL 1
REMARK VINA RESULT:    -4.613      0.000      0.000
REMARK INTER + INTRA:         -11.017
REMARK INTER:                  -8.929
REMARK INTRA:                  -2.088
REMARK UNBOUND:                -2.088
REMARK SMILES CCCCCCCCCCCCCCCCCC(=O)[O-]
REMARK SMILES IDX 10 1 11 2 12 3 13 4 14 5 15 6 16 7 17 8 18 9 19 10 20 11
REMARK SMILES IDX 9 12 8 13 7 14 6 15 5 16 4 17 3 18 2 19 1 20
REMARK H PARENT
REMARK Flexibility Score: inf
ROOT
ATOM      1  C   UNL     1      36.567  -9.617  26.257  1.00  0.00     0.000 C 
ENDROOT
BRANCH   1   2
ATOM      2  C   UNL     1      36.910  -9.213  24.811  1.00  0.00     0.000 C 
BRANCH   2   3
ATOM      3  C   UNL     1      38.417  -9.051  24.531  1.00  0.00     0.000 C 
BRANCH   3   4
ATOM      4  C   UNL     1      39.248  -8.917  25.819  1.00  0.00     0.000 C 
BRANCH   4   5
ATOM      5  C   UNL     1      40.346  -9.988  25.930  1.00  0.00     0.000 C 
BRANCH   5   6
ATOM      6  C   UNL     1      40.102 -10.973  27.083  1.00  0.00     0.000 C 
BRANCH   6   7
ATOM      7  C   UNL     1      40.963 -12.235  26.917  1.00  0.00     0.006 C 
BRANCH   7   8
ATOM      8  C   UNL     1      42.423 -11.904  26.580  1.00  0.00     0.053 C 
BRANCH   8   9
ATOM      9  C   UNL     1      43.285 -13.128  26.582  1.00  0.00     0.041 C 
ATOM     10  O   UNL     1      43.356 -13.855  25.555  1.00  0.00    -0.550 OA
ATOM     11  O   UNL     1      43.981 -13.488  27.729  1.00  0.00    -0.550 OA
ENDBRANCH   8   9
ENDBRANCH   7   8
ENDBRANCH   6   7
ENDBRANCH   5   6
ENDBRANCH   4   5
ENDBRANCH   3   4
ENDBRANCH   2   3
ENDBRANCH   1   2
BRANCH   1  12
ATOM     12  C   UNL     1      36.226 -11.112  26.390  1.00  0.00     0.000 C 
BRANCH  12  13
ATOM     13  C   UNL     1      37.023 -11.801  27.510  1.00  0.00    -0.000 C 
BRANCH  13  14
ATOM     14  C   UNL     1      36.628 -11.305  28.913  1.00  0.00    -0.000 C 
BRANCH  14  15
ATOM     15  C   UNL     1      37.357 -12.062  30.034  1.00  0.00    -0.000 C 
BRANCH  15  16
ATOM     16  C   UNL     1      38.347 -13.106  29.495  1.00  0.00    -0.000 C 
BRANCH  16  17
ATOM     17  C   UNL     1      39.341 -13.533  30.585  1.00  0.00    -0.000 C 
BRANCH  17  18
ATOM     18  C   UNL     1      40.728 -13.878  30.021  1.00  0.00    -0.000 C 
BRANCH  18  19
ATOM     19  C   UNL     1      41.816 -12.899  30.487  1.00  0.00    -0.003 C 
ATOM     20  C   UNL     1      41.202 -11.594  30.988  1.00  0.00     0.004 C 
ENDBRANCH  18  19
ENDBRANCH  17  18
ENDBRANCH  16  17
ENDBRANCH  15  16
ENDBRANCH  14  15
ENDBRANCH  13  14
ENDBRANCH  12  13
ENDBRANCH   1  12
TORSDOF 16
ENDMDL
MODEL 2
REMARK VINA RESULT:    -4.476     13.568     16.316
REMARK INTER + INTRA:         -10.751
REMARK INTER:                  -8.709
REMARK INTRA:                  -2.042
REMARK UNBOUND:                -2.088
REMARK SMILES CCCCCCCCCCCCCCCCCC(=O)[O-]
REMARK SMILES IDX 10 1 11 2 12 3 13 4 14 5 15 6 16 7 17 8 18 9 19 10 20 11
REMARK SMILES IDX 9 12 8 13 7 14 6 15 5 16 4 17 3 18 2 19 1 20
REMARK H PARENT
REMARK Flexibility Score: inf
ROOT
ATOM      1  C   UNL     1      45.231   2.813  21.790  1.00  0.00     0.000 C 
ENDROOT
BRANCH   1   2
ATOM      2  C   UNL     1      45.747   2.938  23.236  1.00  0.00     0.000 C 
BRANCH   2   3
ATOM      3  C   UNL     1      44.659   3.256  24.280  1.00  0.00     0.000 C 
BRANCH   3   4
ATOM      4  C   UNL     1      44.009   1.988  24.864  1.00  0.00     0.000 C 
BRANCH   4   5
ATOM      5  C   UNL     1      45.002   0.822  24.997  1.00  0.00     0.000 C 
BRANCH   5   6
ATOM      6  C   UNL     1      44.439  -0.504  24.462  1.00  0.00     0.000 C 
BRANCH   6   7
ATOM      7  C   UNL     1      43.184  -0.262  23.609  1.00  0.00     0.006 C 
BRANCH   7   8
ATOM      8  C   UNL     1      43.411  -0.601  22.131  1.00  0.00     0.053 C 
BRANCH   8   9
ATOM      9  C   UNL     1      42.320  -0.055  21.261  1.00  0.00     0.041 C 
ATOM     10  O   UNL     1      42.123   1.188  21.198  1.00  0.00    -0.550 OA
ATOM     11  O   UNL     1      41.497  -0.920  20.551  1.00  0.00    -0.550 OA
ENDBRANCH   8   9
ENDBRANCH   7   8
ENDBRANCH   6   7
ENDBRANCH   5   6
ENDBRANCH   4   5
ENDBRANCH   3   4
ENDBRANCH   2   3
ENDBRANCH   1   2
BRANCH   1  12
ATOM     12  C   UNL     1      46.111   1.893  20.924  1.00  0.00     0.000 C 
BRANCH  12  13
ATOM     13  C   UNL     1      46.730   0.739  21.730  1.00  0.00    -0.000 C 
BRANCH  13  14
ATOM     14  C   UNL     1      47.956   0.119  21.034  1.00  0.00    -0.000 C 
BRANCH  14  15
ATOM     15  C   UNL     1      48.792   1.160  20.274  1.00  0.00    -0.000 C 
BRANCH  15  16
ATOM     16  C   UNL     1      50.304   0.934  20.433  1.00  0.00    -0.000 C 
BRANCH  16  17
ATOM     17  C   UNL     1      50.589  -0.423  21.095  1.00  0.00    -0.000 C 
BRANCH  17  18
ATOM     18  C   UNL     1      51.445  -1.344  20.212  1.00  0.00    -0.000 C 
BRANCH  18  19
ATOM     19  C   UNL     1      52.171  -0.583  19.092  1.00  0.00    -0.003 C 
ATOM     20  C   UNL     1      51.703  -1.053  17.717  1.00  0.00     0.004 C 
ENDBRANCH  18  19
ENDBRANCH  17  18
ENDBRANCH  16  17
ENDBRANCH  15  16
ENDBRANCH  14  15
ENDBRANCH  13  14
ENDBRANCH  12  13
ENDBRANCH   1  12
TORSDOF 16
ENDMDL
MODEL 3
REMARK VINA RESULT:    -4.436     13.594     15.955
REMARK INTER + INTRA:         -10.673
REMARK INTER:                  -8.810
REMARK INTRA:                  -1.863
REMARK UNBOUND:                -2.088
REMARK SMILES CCCCCCCCCCCCCCCCCC(=O)[O-]
REMARK SMILES IDX 10 1 11 2 12 3 13 4 14 5 15 6 16 7 17 8 18 9 19 10 20 11
REMARK SMILES IDX 9 12 8 13 7 14 6 15 5 16 4 17 3 18 2 19 1 20
REMARK H PARENT
REMARK Flexibility Score: inf
ROOT
ATOM      1  C   UNL     1      45.185   2.784  21.762  1.00  0.00     0.000 C 
ENDROOT
BRANCH   1   2
ATOM      2  C   UNL     1      46.014   1.884  20.828  1.00  0.00     0.000 C 
BRANCH   2   3
ATOM      3  C   UNL     1      46.951   0.898  21.552  1.00  0.00     0.000 C 
BRANCH   3   4
ATOM      4  C   UNL     1      48.423   1.062  21.133  1.00  0.00     0.000 C 
BRANCH   4   5
ATOM      5  C   UNL     1      49.060  -0.263  20.679  1.00  0.00     0.000 C 
BRANCH   5   6
ATOM      6  C   UNL     1      50.403  -0.544  21.370  1.00  0.00     0.000 C 
BRANCH   6   7
ATOM      7  C   UNL     1      51.432  -1.088  20.368  1.00  0.00     0.006 C 
BRANCH   7   8
ATOM      8  C   UNL     1      51.948  -0.002  19.415  1.00  0.00     0.053 C 
BRANCH   8   9
ATOM      9  C   UNL     1      51.629  -0.317  17.987  1.00  0.00     0.041 C 
ATOM     10  O   UNL     1      52.007  -1.405  17.478  1.00  0.00    -0.550 OA
ATOM     11  O   UNL     1      50.945   0.607  17.206  1.00  0.00    -0.550 OA
ENDBRANCH   8   9
ENDBRANCH   7   8
ENDBRANCH   6   7
ENDBRANCH   5   6
ENDBRANCH   4   5
ENDBRANCH   3   4
ENDBRANCH   2   3
ENDBRANCH   1   2
BRANCH   1  12
ATOM     12  C   UNL     1      45.655   2.711  23.226  1.00  0.00     0.000 C 
BRANCH  12  13
ATOM     13  C   UNL     1      44.482   2.662  24.220  1.00  0.00    -0.000 C 
BRANCH  13  14
ATOM     14  C   UNL     1      44.590   1.486  25.208  1.00  0.00    -0.000 C 
BRANCH  14  15
ATOM     15  C   UNL     1      45.074   0.192  24.535  1.00  0.00    -0.000 C 
BRANCH  15  16
ATOM     16  C   UNL     1      43.913  -0.703  24.071  1.00  0.00    -0.000 C 
BRANCH  16  17
ATOM     17  C   UNL     1      43.750  -0.641  22.545  1.00  0.00    -0.000 C 
BRANCH  17  18
ATOM     18  C   UNL     1      42.504   0.148  22.115  1.00  0.00    -0.000 C 
BRANCH  18  19
ATOM     19  C   UNL     1      42.279   0.115  20.595  1.00  0.00    -0.003 C 
ATOM     20  C   UNL     1      41.414  -1.076  20.194  1.00  0.00     0.004 C 
ENDBRANCH  18  19
ENDBRANCH  17  18
ENDBRANCH  16  17
ENDBRANCH  15  16
ENDBRANCH  14  15
ENDBRANCH  13  14
ENDBRANCH  12  13
ENDBRANCH   1  12
TORSDOF 16
ENDMDL
MODEL 4
REMARK VINA RESULT:    -4.365     13.363     16.057
REMARK INTER + INTRA:         -10.535
REMARK INTER:                  -9.027
REMARK INTRA:                  -1.508
REMARK UNBOUND:                -2.088
REMARK SMILES CCCCCCCCCCCCCCCCCC(=O)[O-]
REMARK SMILES IDX 10 1 11 2 12 3 13 4 14 5 15 6 16 7 17 8 18 9 19 10 20 11
REMARK SMILES IDX 9 12 8 13 7 14 6 15 5 16 4 17 3 18 2 19 1 20
REMARK H PARENT
REMARK Flexibility Score: inf
ROOT
ATOM      1  C   UNL     1      44.001   2.381  19.478  1.00  0.00     0.000 C 
ENDROOT
BRANCH   1   2
ATOM      2  C   UNL     1      43.087   2.011  18.295  1.00  0.00     0.000 C 
BRANCH   2   3
ATOM      3  C   UNL     1      41.755   1.348  18.698  1.00  0.00     0.000 C 
BRANCH   3   4
ATOM      4  C   UNL     1      41.859  -0.185  18.783  1.00  0.00     0.000 C 
BRANCH   4   5
ATOM      5  C   UNL     1      41.357  -0.739  20.127  1.00  0.00     0.000 C 
BRANCH   5   6
ATOM      6  C   UNL     1      42.048  -0.087  21.334  1.00  0.00     0.000 C 
BRANCH   6   7
ATOM      7  C   UNL     1      43.367  -0.801  21.663  1.00  0.00     0.006 C 
BRANCH   7   8
ATOM      8  C   UNL     1      44.347   0.104  22.421  1.00  0.00     0.053 C 
BRANCH   8   9
ATOM      9  C   UNL     1      44.392  -0.225  23.881  1.00  0.00     0.041 C 
ATOM     10  O   UNL     1      43.711  -1.182  24.336  1.00  0.00    -0.550 OA
ATOM     11  O   UNL     1      45.155   0.549  24.746  1.00  0.00    -0.550 OA
ENDBRANCH   8   9
ENDBRANCH   7   8
ENDBRANCH   6   7
ENDBRANCH   5   6
ENDBRANCH   4   5
ENDBRANCH   3   4
ENDBRANCH   2   3
ENDBRANCH   1   2
BRANCH   1  12
ATOM     12  C   UNL     1      45.490   2.413  19.089  1.00  0.00     0.000 C 
BRANCH  12  13
ATOM     13  C   UNL     1      46.420   2.393  20.313  1.00  0.00    -0.000 C 
BRANCH  13  14
ATOM     14  C   UNL     1      47.660   1.504  20.103  1.00  0.00    -0.000 C 
BRANCH  14  15
ATOM     15  C   UNL     1      47.832   0.457  21.215  1.00  0.00    -0.000 C 
BRANCH  15  16
ATOM     16  C   UNL     1      49.292   0.007  21.383  1.00  0.00    -0.000 C 
BRANCH  16  17
ATOM     17  C   UNL     1      50.028   0.022  20.035  1.00  0.00    -0.000 C 
BRANCH  17  18
ATOM     18  C   UNL     1      50.864  -1.247  19.803  1.00  0.00    -0.000 C 
BRANCH  18  19
ATOM     19  C   UNL     1      52.360  -1.027  20.074  1.00  0.00    -0.003 C 
ATOM     20  C   UNL     1      52.774   0.404  19.738  1.00  0.00     0.004 C 
ENDBRANCH  18  19
ENDBRANCH  17  18
ENDBRANCH  16  17
ENDBRANCH  15  16
ENDBRANCH  14  15
ENDBRANCH  13  14
ENDBRANCH  12  13
ENDBRANCH   1  12
TORSDOF 16
ENDMDL
MODEL 5
REMARK VINA RESULT:    -4.360     12.571     15.337
REMARK INTER + INTRA:         -10.526
REMARK INTER:                  -7.987
REMARK INTRA:                  -2.539
REMARK UNBOUND:                -2.088
REMARK SMILES CCCCCCCCCCCCCCCCCC(=O)[O-]
REMARK SMILES IDX 10 1 11 2 12 3 13 4 14 5 15 6 16 7 17 8 18 9 19 10 20 11
REMARK SMILES IDX 9 12 8 13 7 14 6 15 5 16 4 17 3 18 2 19 1 20
REMARK H PARENT
REMARK Flexibility Score: inf
ROOT
ATOM      1  C   UNL     1      41.575  -0.526  18.869  1.00  0.00     0.000 C 
ENDROOT
BRANCH   1   2
ATOM      2  C   UNL     1      41.448  -0.242  20.377  1.00  0.00     0.000 C 
BRANCH   2   3
ATOM      3  C   UNL     1      42.619  -0.770  21.229  1.00  0.00     0.000 C 
BRANCH   3   4
ATOM      4  C   UNL     1      43.423   0.360  21.896  1.00  0.00     0.000 C 
BRANCH   4   5
ATOM      5  C   UNL     1      42.523   1.468  22.469  1.00  0.00     0.000 C 
BRANCH   5   6
ATOM      6  C   UNL     1      43.249   2.357  23.490  1.00  0.00     0.000 C 
BRANCH   6   7
ATOM      7  C   UNL     1      44.437   1.612  24.118  1.00  0.00     0.006 C 
BRANCH   7   8
ATOM      8  C   UNL     1      44.017   0.747  25.314  1.00  0.00     0.053 C 
BRANCH   8   9
ATOM      9  C   UNL     1      44.446  -0.678  25.147  1.00  0.00     0.041 C 
ATOM     10  O   UNL     1      45.670  -0.976  25.163  1.00  0.00    -0.550 OA
ATOM     11  O   UNL     1      43.498  -1.671  24.937  1.00  0.00    -0.550 OA
ENDBRANCH   8   9
ENDBRANCH   7   8
ENDBRANCH   6   7
ENDBRANCH   5   6
ENDBRANCH   4   5
ENDBRANCH   3   4
ENDBRANCH   2   3
ENDBRANCH   1   2
BRANCH   1  12
ATOM     12  C   UNL     1      41.523   0.756  18.018  1.00  0.00     0.000 C 
BRANCH  12  13
ATOM     13  C   UNL     1      42.028   1.991  18.781  1.00  0.00    -0.000 C 
BRANCH  13  14
ATOM     14  C   UNL     1      43.479   2.361  18.421  1.00  0.00    -0.000 C 
BRANCH  14  15
ATOM     15  C   UNL     1      44.205   3.084  19.567  1.00  0.00    -0.000 C 
BRANCH  15  16
ATOM     16  C   UNL     1      45.502   2.372  19.986  1.00  0.00    -0.000 C 
BRANCH  16  17
ATOM     17  C   UNL     1      46.178   3.108  21.152  1.00  0.00    -0.000 C 
BRANCH  17  18
ATOM     18  C   UNL     1      47.263   2.263  21.837  1.00  0.00    -0.000 C 
BRANCH  18  19
ATOM     19  C   UNL     1      47.084   0.757  21.589  1.00  0.00    -0.003 C 
ATOM     20  C   UNL     1      48.391   0.116  21.132  1.00  0.00     0.004 C 
ENDBRANCH  18  19
ENDBRANCH  17  18
ENDBRANCH  16  17
ENDBRANCH  15  16
ENDBRANCH  14  15
ENDBRANCH  13  14
ENDBRANCH  12  13
ENDBRANCH   1  12
TORSDOF 16
ENDMDL
MODEL 6
REMARK VINA RESULT:    -4.329     13.293     15.213
REMARK INTER + INTRA:         -10.467
REMARK INTER:                  -8.362
REMARK INTRA:                  -2.105
REMARK UNBOUND:                -2.088
REMARK SMILES CCCCCCCCCCCCCCCCCC(=O)[O-]
REMARK SMILES IDX 10 1 11 2 12 3 13 4 14 5 15 6 16 7 17 8 18 9 19 10 20 11
REMARK SMILES IDX 9 12 8 13 7 14 6 15 5 16 4 17 3 18 2 19 1 20
REMARK H PARENT
REMARK Flexibility Score: inf
ROOT
ATOM      1  C   UNL     1      43.172   2.048  19.076  1.00  0.00     0.000 C 
ENDROOT
BRANCH   1   2
ATOM      2  C   UNL     1      43.244   3.179  20.119  1.00  0.00     0.000 C 
BRANCH   2   3
ATOM      3  C   UNL     1      44.574   3.255  20.892  1.00  0.00     0.000 C 
BRANCH   3   4
ATOM      4  C   UNL     1      45.329   1.914  20.906  1.00  0.00     0.000 C 
BRANCH   4   5
ATOM      5  C   UNL     1      46.559   1.936  21.829  1.00  0.00     0.000 C 
BRANCH   5   6
ATOM      6  C   UNL     1      47.252   0.569  21.931  1.00  0.00     0.000 C 
BRANCH   6   7
ATOM      7  C   UNL     1      48.337   0.423  20.853  1.00  0.00     0.006 C 
BRANCH   7   8
ATOM      8  C   UNL     1      49.625  -0.203  21.404  1.00  0.00     0.053 C 
BRANCH   8   9
ATOM      9  C   UNL     1      50.708  -0.247  20.371  1.00  0.00     0.041 C 
ATOM     10  O   UNL     1      51.280   0.814  20.008  1.00  0.00    -0.550 OA
ATOM     11  O   UNL     1      51.059  -1.456  19.782  1.00  0.00    -0.550 OA
ENDBRANCH   8   9
ENDBRANCH   7   8
ENDBRANCH   6   7
ENDBRANCH   5   6
ENDBRANCH   4   5
ENDBRANCH   3   4
ENDBRANCH   2   3
ENDBRANCH   1   2
BRANCH   1  12
ATOM     12  C   UNL     1      41.768   1.428  18.969  1.00  0.00     0.000 C 
BRANCH  12  13
ATOM     13  C   UNL     1      41.801  -0.109  18.958  1.00  0.00    -0.000 C 
BRANCH  13  14
ATOM     14  C   UNL     1      41.456  -0.720  20.329  1.00  0.00    -0.000 C 
BRANCH  14  15
ATOM     15  C   UNL     1      42.599  -0.569  21.347  1.00  0.00    -0.000 C 
BRANCH  15  16
ATOM     16  C   UNL     1      42.278   0.454  22.447  1.00  0.00    -0.000 C 
BRANCH  16  17
ATOM     17  C   UNL     1      43.048   0.131  23.737  1.00  0.00    -0.000 C 
BRANCH  17  18
ATOM     18  C   UNL     1      43.736   1.365  24.341  1.00  0.00    -0.000 C 
BRANCH  18  19
ATOM     19  C   UNL     1      45.005   1.007  25.131  1.00  0.00    -0.003 C 
ATOM     20  C   UNL     1      45.356  -0.469  24.964  1.00  0.00     0.004 C 
ENDBRANCH  18  19
ENDBRANCH  17  18
ENDBRANCH  16  17
ENDBRANCH  15  16
ENDBRANCH  14  15
ENDBRANCH  13  14
ENDBRANCH  12  13
ENDBRANCH   1  12
TORSDOF 16
ENDMDL
MODEL 7
REMARK VINA RESULT:    -4.308     12.750     15.200
REMARK INTER + INTRA:         -10.425
REMARK INTER:                  -8.340
REMARK INTRA:                  -2.085
REMARK UNBOUND:                -2.088
REMARK SMILES CCCCCCCCCCCCCCCCCC(=O)[O-]
REMARK SMILES IDX 10 1 11 2 12 3 13 4 14 5 15 6 16 7 17 8 18 9 19 10 20 11
REMARK SMILES IDX 9 12 8 13 7 14 6 15 5 16 4 17 3 18 2 19 1 20
REMARK H PARENT
REMARK Flexibility Score: inf
ROOT
ATOM      1  C   UNL     1      44.016   2.849  25.148  1.00  0.00     0.000 C 
ENDROOT
BRANCH   1   2
ATOM      2  C   UNL     1      43.122   2.930  23.896  1.00  0.00     0.000 C 
BRANCH   2   3
ATOM      3  C   UNL     1      43.872   3.275  22.595  1.00  0.00     0.000 C 
BRANCH   3   4
ATOM      4  C   UNL     1      45.380   3.488  22.818  1.00  0.00     0.000 C 
BRANCH   4   5
ATOM      5  C   UNL     1      46.233   2.931  21.667  1.00  0.00     0.000 C 
BRANCH   5   6
ATOM      6  C   UNL     1      46.273   1.396  21.645  1.00  0.00     0.000 C 
BRANCH   6   7
ATOM      7  C   UNL     1      47.693   0.880  21.924  1.00  0.00     0.006 C 
BRANCH   7   8
ATOM      8  C   UNL     1      48.516   0.715  20.641  1.00  0.00     0.053 C 
BRANCH   8   9
ATOM      9  C   UNL     1      49.658  -0.236  20.830  1.00  0.00     0.041 C 
ATOM     10  O   UNL     1      50.246  -0.727  19.830  1.00  0.00    -0.550 OA
ATOM     11  O   UNL     1      50.048  -0.609  22.110  1.00  0.00    -0.550 OA
ENDBRANCH   8   9
ENDBRANCH   7   8
ENDBRANCH   6   7
ENDBRANCH   5   6
ENDBRANCH   4   5
ENDBRANCH   3   4
ENDBRANCH   2   3
ENDBRANCH   1   2
BRANCH   1  12
ATOM     12  C   UNL     1      44.055   1.437  25.759  1.00  0.00     0.000 C 
BRANCH  12  13
ATOM     13  C   UNL     1      44.925   0.465  24.943  1.00  0.00    -0.000 C 
BRANCH  13  14
ATOM     14  C   UNL     1      44.199  -0.854  24.621  1.00  0.00    -0.000 C 
BRANCH  14  15
ATOM     15  C   UNL     1      43.028  -0.660  23.644  1.00  0.00    -0.000 C 
BRANCH  15  16
ATOM     16  C   UNL     1      43.478  -0.662  22.175  1.00  0.00    -0.000 C 
BRANCH  16  17
ATOM     17  C   UNL     1      42.509   0.151  21.304  1.00  0.00    -0.000 C 
BRANCH  17  18
ATOM     18  C   UNL     1      41.504  -0.733  20.550  1.00  0.00    -0.000 C 
BRANCH  18  19
ATOM     19  C   UNL     1      41.730  -0.724  19.031  1.00  0.00    -0.003 C 
ATOM     20  C   UNL     1      41.480   0.664  18.447  1.00  0.00     0.004 C 
ENDBRANCH  18  19
ENDBRANCH  17  18
ENDBRANCH  16  17
ENDBRANCH  15  16
ENDBRANCH  14  15
ENDBRANCH  13  14
ENDBRANCH  12  13
ENDBRANCH   1  12
TORSDOF 16
ENDMDL
MODEL 8
REMARK VINA RESULT:    -4.301     13.841     16.528
REMARK INTER + INTRA:         -10.411
REMARK INTER:                  -9.090
REMARK INTRA:                  -1.321
REMARK UNBOUND:                -2.088
REMARK SMILES CCCCCCCCCCCCCCCCCC(=O)[O-]
REMARK SMILES IDX 10 1 11 2 12 3 13 4 14 5 15 6 16 7 17 8 18 9 19 10 20 11
REMARK SMILES IDX 9 12 8 13 7 14 6 15 5 16 4 17 3 18 2 19 1 20
REMARK H PARENT
REMARK Flexibility Score: inf
ROOT
ATOM      1  C   UNL     1      44.738   1.370  21.536  1.00  0.00     0.000 C 
ENDROOT
BRANCH   1   2
ATOM      2  C   UNL     1      46.194   1.872  21.570  1.00  0.00     0.000 C 
BRANCH   2   3
ATOM      3  C   UNL     1      47.223   0.822  22.032  1.00  0.00     0.000 C 
BRANCH   3   4
ATOM      4  C   UNL     1      47.938   0.135  20.855  1.00  0.00     0.000 C 
BRANCH   4   5
ATOM      5  C   UNL     1      48.902   1.079  20.117  1.00  0.00     0.000 C 
BRANCH   5   6
ATOM      6  C   UNL     1      50.373   0.838  20.488  1.00  0.00     0.000 C 
BRANCH   6   7
ATOM      7  C   UNL     1      50.698  -0.663  20.498  1.00  0.00     0.006 C 
BRANCH   7   8
ATOM      8  C   UNL     1      52.132  -0.952  20.038  1.00  0.00     0.053 C 
BRANCH   8   9
ATOM      9  C   UNL     1      52.348  -0.559  18.609  1.00  0.00     0.041 C 
ATOM     10  O   UNL     1      51.935  -1.301  17.679  1.00  0.00    -0.550 OA
ATOM     11  O   UNL     1      53.038   0.607  18.304  1.00  0.00    -0.550 OA
ENDBRANCH   8   9
ENDBRANCH   7   8
ENDBRANCH   6   7
ENDBRANCH   5   6
ENDBRANCH   4   5
ENDBRANCH   3   4
ENDBRANCH   2   3
ENDBRANCH   1   2
BRANCH   1  12
ATOM     12  C   UNL     1      44.463   0.276  22.583  1.00  0.00     0.000 C 
BRANCH  12  13
ATOM     13  C   UNL     1      43.059  -0.335  22.442  1.00  0.00    -0.000 C 
BRANCH  13  14
ATOM     14  C   UNL     1      42.304   0.187  21.205  1.00  0.00    -0.000 C 
BRANCH  14  15
ATOM     15  C   UNL     1      41.618  -0.937  20.413  1.00  0.00    -0.000 C 
BRANCH  15  16
ATOM     16  C   UNL     1      41.511  -0.622  18.912  1.00  0.00    -0.000 C 
BRANCH  16  17
ATOM     17  C   UNL     1      41.580   0.893  18.664  1.00  0.00    -0.000 C 
BRANCH  17  18
ATOM     18  C   UNL     1      41.827   1.240  17.188  1.00  0.00    -0.000 C 
BRANCH  18  19
ATOM     19  C   UNL     1      43.254   1.748  16.931  1.00  0.00    -0.003 C 
ATOM     20  C   UNL     1      43.829   2.422  18.174  1.00  0.00     0.004 C 
ENDBRANCH  18  19
ENDBRANCH  17  18
ENDBRANCH  16  17
ENDBRANCH  15  16
ENDBRANCH  14  15
ENDBRANCH  13  14
ENDBRANCH  12  13
ENDBRANCH   1  12
TORSDOF 16
ENDMDL
MODEL 9
REMARK VINA RESULT:    -4.218     13.941     16.830
REMARK INTER + INTRA:         -10.251
REMARK INTER:                  -8.890
REMARK INTRA:                  -1.361
REMARK UNBOUND:                -2.088
REMARK SMILES CCCCCCCCCCCCCCCCCC(=O)[O-]
REMARK SMILES IDX 10 1 11 2 12 3 13 4 14 5 15 6 16 7 17 8 18 9 19 10 20 11
REMARK SMILES IDX 9 12 8 13 7 14 6 15 5 16 4 17 3 18 2 19 1 20
REMARK H PARENT
REMARK Flexibility Score: inf
ROOT
ATOM      1  C   UNL     1      45.037   1.623  21.632  1.00  0.00     0.000 C 
ENDROOT
BRANCH   1   2
ATOM      2  C   UNL     1      44.386   0.644  22.627  1.00  0.00     0.000 C 
BRANCH   2   3
ATOM      3  C   UNL     1      43.598  -0.506  21.971  1.00  0.00     0.000 C 
BRANCH   3   4
ATOM      4  C   UNL     1      42.278  -0.034  21.337  1.00  0.00     0.000 C 
BRANCH   4   5
ATOM      5  C   UNL     1      41.713  -1.046  20.326  1.00  0.00     0.000 C 
BRANCH   5   6
ATOM      6  C   UNL     1      41.545  -0.452  18.919  1.00  0.00     0.000 C 
BRANCH   6   7
ATOM      7  C   UNL     1      41.638   1.081  18.956  1.00  0.00     0.006 C 
BRANCH   7   8
ATOM      8  C   UNL     1      41.796   1.689  17.557  1.00  0.00     0.053 C 
BRANCH   8   9
ATOM      9  C   UNL     1      43.188   2.188  17.322  1.00  0.00     0.041 C 
ATOM     10  O   UNL     1      43.938   2.457  18.298  1.00  0.00    -0.550 OA
ATOM     11  O   UNL     1      43.645   2.392  16.026  1.00  0.00    -0.550 OA
ENDBRANCH   8   9
ENDBRANCH   7   8
ENDBRANCH   6   7
ENDBRANCH   5   6
ENDBRANCH   4   5
ENDBRANCH   3   4
ENDBRANCH   2   3
ENDBRANCH   1   2
BRANCH   1  12
ATOM     12  C   UNL     1      45.993   2.617  22.317  1.00  0.00     0.000 C 
BRANCH  12  13
ATOM     13  C   UNL     1      47.090   3.128  21.369  1.00  0.00    -0.000 C 
BRANCH  13  14
ATOM     14  C   UNL     1      47.319   2.195  20.166  1.00  0.00    -0.000 C 
BRANCH  14  15
ATOM     15  C   UNL     1      48.625   1.393  20.280  1.00  0.00    -0.000 C 
BRANCH  15  16
ATOM     16  C   UNL     1      48.459   0.109  21.109  1.00  0.00    -0.000 C 
BRANCH  16  17
ATOM     17  C   UNL     1      49.813  -0.373  21.650  1.00  0.00    -0.000 C 
BRANCH  17  18
ATOM     18  C   UNL     1      50.961  -0.155  20.652  1.00  0.00    -0.000 C 
BRANCH  18  19
ATOM     19  C   UNL     1      51.257  -1.405  19.809  1.00  0.00    -0.003 C 
ATOM     20  C   UNL     1      51.623  -1.026  18.377  1.00  0.00     0.004 C 
ENDBRANCH  18  19
ENDBRANCH  17  18
ENDBRANCH  16  17
ENDBRANCH  15  16
ENDBRANCH  14  15
ENDBRANCH  13  14
ENDBRANCH  12  13
ENDBRANCH   1  12
TORSDOF 16
ENDMDL
