MODEL 1
REMARK VINA RESULT:    -3.131      0.000      0.000
REMARK INTER + INTRA:          -4.495
REMARK INTER:                  -4.138
REMARK INTRA:                  -0.358
REMARK UNBOUND:                -0.358
REMARK SMILES CCCCCCCO
REMARK SMILES IDX 5 1 4 2 3 3 2 4 1 5 6 6 7 7 8 8
REMARK H PARENT 8 9
REMARK Flexibility Score: inf
ROOT
ATOM      1  C   UNL     1     170.667 170.533 164.743  1.00  0.00     0.002 C 
ENDROOT
BRANCH   1   2
ATOM      2  C   UNL     1     170.261 169.355 163.849  1.00  0.00     0.000 C 
BRANCH   2   3
ATOM      3  C   UNL     1     169.150 169.766 162.870  1.00  0.00    -0.000 C 
BRANCH   3   4
ATOM      4  C   UNL     1     168.045 170.592 163.545  1.00  0.00    -0.003 C 
ATOM      5  C   UNL     1     167.764 171.908 162.821  1.00  0.00     0.004 C 
ENDBRANCH   3   4
ENDBRANCH   2   3
ENDBRANCH   1   2
BRANCH   1   6
ATOM      6  C   UNL     1     171.968 171.177 164.249  1.00  0.00     0.028 C 
BRANCH   6   7
ATOM      7  C   UNL     1     171.713 172.572 163.681  1.00  0.00     0.156 C 
BRANCH   7   8
ATOM      8  O   UNL     1     170.685 173.190 164.404  1.00  0.00    -0.396 OA
ATOM      9  H   UNL     1     171.130 173.724 165.113  1.00  0.00     0.210 HD
ENDBRANCH   7   8
ENDBRANCH   6   7
ENDBRANCH   1   6
TORSDOF 6
ENDMDL
MODEL 2
REMARK VINA RESULT:    -3.103      2.400      4.370
REMARK INTER + INTRA:          -4.458
REMARK INTER:                  -4.284
REMARK INTRA:                  -0.174
REMARK UNBOUND:                -0.358
REMARK SMILES CCCCCCCO
REMARK SMILES IDX 5 1 4 2 3 3 2 4 1 5 6 6 7 7 8 8
REMARK H PARENT 8 9
REMARK Flexibility Score: inf
ROOT
ATOM      1  C   UNL     1     170.757 170.598 164.622  1.00  0.00     0.002 C 
ENDROOT
BRANCH   1   2
ATOM      2  C   UNL     1     172.099 171.241 164.249  1.00  0.00     0.000 C 
BRANCH   2   3
ATOM      3  C   UNL     1     172.055 171.814 162.824  1.00  0.00    -0.000 C 
BRANCH   3   4
ATOM      4  C   UNL     1     173.305 172.639 162.482  1.00  0.00    -0.003 C 
ATOM      5  C   UNL     1     174.503 171.770 162.103  1.00  0.00     0.004 C 
ENDBRANCH   3   4
ENDBRANCH   2   3
ENDBRANCH   1   2
BRANCH   1   6
ATOM      6  C   UNL     1     170.073 169.996 163.389  1.00  0.00     0.028 C 
BRANCH   6   7
ATOM      7  C   UNL     1     169.751 168.517 163.603  1.00  0.00     0.156 C 
BRANCH   7   8
ATOM      8  O   UNL     1     170.820 167.897 164.263  1.00  0.00    -0.396 OA
ATOM      9  H   UNL     1     171.549 167.823 163.594  1.00  0.00     0.210 HD
ENDBRANCH   7   8
ENDBRANCH   6   7
ENDBRANCH   1   6
TORSDOF 6
ENDMDL
MODEL 3
REMARK VINA RESULT:    -3.059      1.398      3.386
REMARK INTER + INTRA:          -4.400
REMARK INTER:                  -4.143
REMARK INTRA:                  -0.257
REMARK UNBOUND:                -0.358
REMARK SMILES CCCCCCCO
REMARK SMILES IDX 5 1 4 2 3 3 2 4 1 5 6 6 7 7 8 8
REMARK H PARENT 8 9
REMARK Flexibility Score: inf
ROOT
ATOM      1  C   UNL     1     169.708 170.887 164.852  1.00  0.00     0.002 C 
ENDROOT
BRANCH   1   2
ATOM      2  C   UNL     1     170.898 170.199 164.172  1.00  0.00     0.000 C 
BRANCH   2   3
ATOM      3  C   UNL     1     172.127 171.120 164.151  1.00  0.00    -0.000 C 
BRANCH   3   4
ATOM      4  C   UNL     1     172.322 171.813 162.794  1.00  0.00    -0.003 C 
ATOM      5  C   UNL     1     173.794 171.977 162.419  1.00  0.00     0.004 C 
ENDBRANCH   3   4
ENDBRANCH   2   3
ENDBRANCH   1   2
BRANCH   1   6
ATOM      6  C   UNL     1     168.741 171.467 163.814  1.00  0.00     0.028 C 
BRANCH   6   7
ATOM      7  C   UNL     1     168.905 172.981 163.690  1.00  0.00     0.156 C 
BRANCH   7   8
ATOM      8  O   UNL     1     169.564 173.473 164.825  1.00  0.00    -0.396 OA
ATOM      9  H   UNL     1     169.014 173.198 165.603  1.00  0.00     0.210 HD
ENDBRANCH   7   8
ENDBRANCH   6   7
ENDBRANCH   1   6
TORSDOF 6
ENDMDL
MODEL 4
REMARK VINA RESULT:    -3.025      1.223      3.120
REMARK INTER + INTRA:          -4.355
REMARK INTER:                  -4.012
REMARK INTRA:                  -0.343
REMARK UNBOUND:                -0.358
REMARK SMILES CCCCCCCO
REMARK SMILES IDX 5 1 4 2 3 3 2 4 1 5 6 6 7 7 8 8
REMARK H PARENT 8 9
REMARK Flexibility Score: inf
ROOT
ATOM      1  C   UNL     1     168.181 171.781 162.564  1.00  0.00     0.002 C 
ENDROOT
BRANCH   1   2
ATOM      2  C   UNL     1     168.040 170.588 163.517  1.00  0.00     0.000 C 
BRANCH   2   3
ATOM      3  C   UNL     1     169.389 169.881 163.716  1.00  0.00    -0.000 C 
BRANCH   3   4
ATOM      4  C   UNL     1     170.226 170.514 164.838  1.00  0.00    -0.003 C 
ATOM      5  C   UNL     1     171.644 170.867 164.391  1.00  0.00     0.004 C 
ENDBRANCH   3   4
ENDBRANCH   2   3
ENDBRANCH   1   2
BRANCH   1   6
ATOM      6  C   UNL     1     167.827 173.095 163.271  1.00  0.00     0.028 C 
BRANCH   6   7
ATOM      7  C   UNL     1     169.083 173.896 163.609  1.00  0.00     0.156 C 
BRANCH   7   8
ATOM      8  O   UNL     1     169.330 173.817 164.986  1.00  0.00    -0.396 OA
ATOM      9  H   UNL     1     169.140 174.720 165.351  1.00  0.00     0.210 HD
ENDBRANCH   7   8
ENDBRANCH   6   7
ENDBRANCH   1   6
TORSDOF 6
ENDMDL
MODEL 5
REMARK VINA RESULT:    -3.000      1.591      2.840
REMARK INTER + INTRA:          -4.322
REMARK INTER:                  -3.993
REMARK INTRA:                  -0.329
REMARK UNBOUND:                -0.358
REMARK SMILES CCCCCCCO
REMARK SMILES IDX 5 1 4 2 3 3 2 4 1 5 6 6 7 7 8 8
REMARK H PARENT 8 9
REMARK Flexibility Score: inf
ROOT
ATOM      1  C   UNL     1     171.113 172.196 162.590  1.00  0.00     0.002 C 
ENDROOT
BRANCH   1   2
ATOM      2  C   UNL     1     172.145 171.467 163.461  1.00  0.00     0.000 C 
BRANCH   2   3
ATOM      3  C   UNL     1     171.459 170.723 164.616  1.00  0.00    -0.000 C 
BRANCH   3   4
ATOM      4  C   UNL     1     170.094 170.143 164.216  1.00  0.00    -0.003 C 
ATOM      5  C   UNL     1     170.168 168.668 163.827  1.00  0.00     0.004 C 
ENDBRANCH   3   4
ENDBRANCH   2   3
ENDBRANCH   1   2
BRANCH   1   6
ATOM      6  C   UNL     1     170.896 173.632 163.081  1.00  0.00     0.028 C 
BRANCH   6   7
ATOM      7  C   UNL     1     169.467 173.833 163.585  1.00  0.00     0.156 C 
BRANCH   7   8
ATOM      8  O   UNL     1     169.444 173.719 164.981  1.00  0.00    -0.396 OA
ATOM      9  H   UNL     1     168.900 172.915 165.182  1.00  0.00     0.210 HD
ENDBRANCH   7   8
ENDBRANCH   6   7
ENDBRANCH   1   6
TORSDOF 6
ENDMDL
MODEL 6
REMARK VINA RESULT:    -2.983      1.390      2.209
REMARK INTER + INTRA:          -4.300
REMARK INTER:                  -4.092
REMARK INTRA:                  -0.208
REMARK UNBOUND:                -0.358
REMARK SMILES CCCCCCCO
REMARK SMILES IDX 5 1 4 2 3 3 2 4 1 5 6 6 7 7 8 8
REMARK H PARENT 8 9
REMARK Flexibility Score: inf
ROOT
ATOM      1  C   UNL     1     171.556 170.907 164.424  1.00  0.00     0.002 C 
ENDROOT
BRANCH   1   2
ATOM      2  C   UNL     1     170.086 170.700 164.810  1.00  0.00     0.000 C 
BRANCH   2   3
ATOM      3  C   UNL     1     169.359 169.843 163.764  1.00  0.00    -0.000 C 
BRANCH   3   4
ATOM      4  C   UNL     1     169.842 168.384 163.759  1.00  0.00    -0.003 C 
ATOM      5  C   UNL     1     169.811 167.755 162.366  1.00  0.00     0.004 C 
ENDBRANCH   3   4
ENDBRANCH   2   3
ENDBRANCH   1   2
BRANCH   1   6
ATOM      6  C   UNL     1     171.678 171.462 163.000  1.00  0.00     0.028 C 
BRANCH   6   7
ATOM      7  C   UNL     1     172.194 172.900 163.010  1.00  0.00     0.156 C 
BRANCH   7   8
ATOM      8  O   UNL     1     172.108 173.418 164.308  1.00  0.00    -0.396 OA
ATOM      9  H   UNL     1     172.460 172.713 164.910  1.00  0.00     0.210 HD
ENDBRANCH   7   8
ENDBRANCH   6   7
ENDBRANCH   1   6
TORSDOF 6
ENDMDL
MODEL 7
REMARK VINA RESULT:    -2.983      2.302      3.472
REMARK INTER + INTRA:          -4.299
REMARK INTER:                  -4.049
REMARK INTRA:                  -0.250
REMARK UNBOUND:                -0.358
REMARK SMILES CCCCCCCO
REMARK SMILES IDX 5 1 4 2 3 3 2 4 1 5 6 6 7 7 8 8
REMARK H PARENT 8 9
REMARK Flexibility Score: inf
ROOT
ATOM      1  C   UNL     1     171.733 170.786 164.546  1.00  0.00     0.002 C 
ENDROOT
BRANCH   1   2
ATOM      2  C   UNL     1     172.065 171.591 163.284  1.00  0.00     0.000 C 
BRANCH   2   3
ATOM      3  C   UNL     1     171.779 173.085 163.495  1.00  0.00    -0.000 C 
BRANCH   3   4
ATOM      4  C   UNL     1     170.582 173.579 162.668  1.00  0.00    -0.003 C 
ATOM      5  C   UNL     1     169.419 174.056 163.537  1.00  0.00     0.004 C 
ENDBRANCH   3   4
ENDBRANCH   2   3
ENDBRANCH   1   2
BRANCH   1   6
ATOM      6  C   UNL     1     170.241 170.433 164.598  1.00  0.00     0.028 C 
BRANCH   6   7
ATOM      7  C   UNL     1     169.953 169.140 163.837  1.00  0.00     0.156 C 
BRANCH   7   8
ATOM      8  O   UNL     1     170.774 168.116 164.328  1.00  0.00    -0.396 OA
ATOM      9  H   UNL     1     171.560 168.565 164.733  1.00  0.00     0.210 HD
ENDBRANCH   7   8
ENDBRANCH   6   7
ENDBRANCH   1   6
TORSDOF 6
ENDMDL
MODEL 8
REMARK VINA RESULT:    -2.873      1.649      3.031
REMARK INTER + INTRA:          -4.154
REMARK INTER:                  -3.779
REMARK INTRA:                  -0.375
REMARK UNBOUND:                -0.358
REMARK SMILES CCCCCCCO
REMARK SMILES IDX 5 1 4 2 3 3 2 4 1 5 6 6 7 7 8 8
REMARK H PARENT 8 9
REMARK Flexibility Score: inf
ROOT
ATOM      1  C   UNL     1     168.194 170.417 163.480  1.00  0.00     0.002 C 
ENDROOT
BRANCH   1   2
ATOM      2  C   UNL     1     168.408 171.690 162.652  1.00  0.00     0.000 C 
BRANCH   2   3
ATOM      3  C   UNL     1     167.672 172.883 163.281  1.00  0.00    -0.000 C 
BRANCH   3   4
ATOM      4  C   UNL     1     168.628 173.869 163.969  1.00  0.00    -0.003 C 
ATOM      5  C   UNL     1     169.954 174.024 163.226  1.00  0.00     0.004 C 
ENDBRANCH   3   4
ENDBRANCH   2   3
ENDBRANCH   1   2
BRANCH   1   6
ATOM      6  C   UNL     1     169.526 169.709 163.753  1.00  0.00     0.028 C 
BRANCH   6   7
ATOM      7  C   UNL     1     170.458 170.588 164.586  1.00  0.00     0.156 C 
BRANCH   7   8
ATOM      8  O   UNL     1     169.846 170.889 165.810  1.00  0.00    -0.396 OA
ATOM      9  H   UNL     1     169.612 170.017 166.222  1.00  0.00     0.210 HD
ENDBRANCH   7   8
ENDBRANCH   6   7
ENDBRANCH   1   6
TORSDOF 6
ENDMDL
MODEL 9
REMARK VINA RESULT:    -2.839      1.461      2.467
REMARK INTER + INTRA:          -4.109
REMARK INTER:                  -3.760
REMARK INTRA:                  -0.349
REMARK UNBOUND:                -0.358
REMARK SMILES CCCCCCCO
REMARK SMILES IDX 5 1 4 2 3 3 2 4 1 5 6 6 7 7 8 8
REMARK H PARENT 8 9
REMARK Flexibility Score: inf
ROOT
ATOM      1  C   UNL     1     170.004 172.199 162.887  1.00  0.00     0.002 C 
ENDROOT
BRANCH   1   2
ATOM      2  C   UNL     1     168.787 171.834 163.745  1.00  0.00     0.000 C 
BRANCH   2   3
ATOM      3  C   UNL     1     168.097 170.570 163.209  1.00  0.00    -0.000 C 
BRANCH   3   4
ATOM      4  C   UNL     1     169.077 169.612 162.516  1.00  0.00    -0.003 C 
ATOM      5  C   UNL     1     169.442 168.409 163.383  1.00  0.00     0.004 C 
ENDBRANCH   3   4
ENDBRANCH   2   3
ENDBRANCH   1   2
BRANCH   1   6
ATOM      6  C   UNL     1     171.233 172.473 163.763  1.00  0.00     0.028 C 
BRANCH   6   7
ATOM      7  C   UNL     1     172.144 171.248 163.835  1.00  0.00     0.156 C 
BRANCH   7   8
ATOM      8  O   UNL     1     171.753 170.438 164.909  1.00  0.00    -0.396 OA
ATOM      9  H   UNL     1     171.323 169.639 164.508  1.00  0.00     0.210 HD
ENDBRANCH   7   8
ENDBRANCH   6   7
ENDBRANCH   1   6
TORSDOF 6
ENDMDL
