MODEL 1
REMARK VINA RESULT:    -5.583      0.000      0.000
REMARK INTER + INTRA:          -6.151
REMARK INTER:                  -5.909
REMARK INTRA:                  -0.242
REMARK UNBOUND:                -0.242
REMARK SMILES O=c1cc(-c2ccccc2)oc2ccccc12
REMARK SMILES IDX 4 1 3 2 2 3 1 4 17 5 16 6 15 7 14 8 13 9 12 10 11 11 5 12
REMARK SMILES IDX 8 13 7 14 9 15 6 16 10 17
REMARK H PARENT
REMARK Flexibility Score: inf
ROOT
ATOM      1  C   UNL     1       5.865 -17.092  14.250  1.00  0.00     0.138 A 
ATOM      2  C   UNL     1       6.711 -15.969  14.362  1.00  0.00     0.100 A 
ATOM      3  C   UNL     1       6.160 -14.720  14.655  1.00  0.00     0.193 A 
ATOM      4  O   UNL     1       6.916 -13.715  14.756  1.00  0.00    -0.289 OA
ATOM      5  C   UNL     1       4.774 -14.600  14.832  1.00  0.00     0.065 A 
ATOM      6  C   UNL     1       4.156 -13.372  15.128  1.00  0.00     0.016 A 
ATOM      7  C   UNL     1       2.769 -13.309  15.295  1.00  0.00     0.001 A 
ATOM      8  C   UNL     1       1.992 -14.464  15.169  1.00  0.00     0.004 A 
ATOM      9  C   UNL     1       2.599 -15.688  14.874  1.00  0.00     0.048 A 
ATOM     10  C   UNL     1       3.985 -15.763  14.705  1.00  0.00     0.138 A 
ATOM     11  O   UNL     1       4.553 -16.932  14.426  1.00  0.00    -0.456 OA
ENDROOT
BRANCH   1  12
ATOM     12  C   UNL     1       6.373 -18.464  13.939  1.00  0.00     0.017 A 
ATOM     13  C   UNL     1       7.385 -21.016  13.279  1.00  0.00     0.000 A 
ATOM     14  C   UNL     1       6.496 -20.871  14.344  1.00  0.00     0.001 A 
ATOM     15  C   UNL     1       7.773 -19.898  12.541  1.00  0.00     0.001 A 
ATOM     16  C   UNL     1       5.992 -19.609  14.675  1.00  0.00     0.012 A 
ATOM     17  C   UNL     1       7.274 -18.634  12.866  1.00  0.00     0.012 A 
ENDBRANCH   1  12
TORSDOF 1
ENDMDL
MODEL 2
REMARK VINA RESULT:    -5.259      2.391      6.740
REMARK INTER + INTRA:          -5.808
REMARK INTER:                  -5.559
REMARK INTRA:                  -0.249
REMARK UNBOUND:                -0.242
REMARK SMILES O=c1cc(-c2ccccc2)oc2ccccc12
REMARK SMILES IDX 4 1 3 2 2 3 1 4 17 5 16 6 15 7 14 8 13 9 12 10 11 11 5 12
REMARK SMILES IDX 8 13 7 14 9 15 6 16 10 17
REMARK H PARENT
REMARK Flexibility Score: inf
ROOT
ATOM      1  C   UNL     1       4.462 -13.200  14.509  1.00  0.00     0.138 A 
ATOM      2  C   UNL     1       3.157 -13.712  14.664  1.00  0.00     0.100 A 
ATOM      3  C   UNL     1       2.973 -15.082  14.855  1.00  0.00     0.193 A 
ATOM      4  O   UNL     1       1.806 -15.540  14.994  1.00  0.00    -0.289 OA
ATOM      5  C   UNL     1       4.089 -15.931  14.890  1.00  0.00     0.065 A 
ATOM      6  C   UNL     1       3.973 -17.320  15.077  1.00  0.00     0.016 A 
ATOM      7  C   UNL     1       5.120 -18.120  15.104  1.00  0.00     0.001 A 
ATOM      8  C   UNL     1       6.384 -17.544  14.943  1.00  0.00     0.004 A 
ATOM      9  C   UNL     1       6.507 -16.165  14.755  1.00  0.00     0.048 A 
ATOM     10  C   UNL     1       5.366 -15.355  14.727  1.00  0.00     0.138 A 
ATOM     11  O   UNL     1       5.494 -14.044  14.548  1.00  0.00    -0.456 OA
ENDROOT
BRANCH   1  12
ATOM     12  C   UNL     1       4.746 -11.746  14.301  1.00  0.00     0.017 A 
ATOM     13  C   UNL     1       5.212  -8.982  13.974  1.00  0.00     0.000 A 
ATOM     14  C   UNL     1       5.966  -9.907  13.253  1.00  0.00     0.001 A 
ATOM     15  C   UNL     1       4.228  -9.424  14.857  1.00  0.00     0.001 A 
ATOM     16  C   UNL     1       5.739 -11.278  13.411  1.00  0.00     0.012 A 
ATOM     17  C   UNL     1       3.996 -10.792  15.022  1.00  0.00     0.012 A 
ENDBRANCH   1  12
TORSDOF 1
ENDMDL
MODEL 3
REMARK VINA RESULT:    -5.111      1.373      2.511
REMARK INTER + INTRA:          -5.651
REMARK INTER:                  -5.407
REMARK INTRA:                  -0.244
REMARK UNBOUND:                -0.242
REMARK SMILES O=c1cc(-c2ccccc2)oc2ccccc12
REMARK SMILES IDX 4 1 3 2 2 3 1 4 17 5 16 6 15 7 14 8 13 9 12 10 11 11 5 12
REMARK SMILES IDX 8 13 7 14 9 15 6 16 10 17
REMARK H PARENT
REMARK Flexibility Score: inf
ROOT
ATOM      1  C   UNL     1       4.998 -16.547  14.490  1.00  0.00     0.138 A 
ATOM      2  C   UNL     1       3.610 -16.472  14.730  1.00  0.00     0.100 A 
ATOM      3  C   UNL     1       3.025 -15.235  15.005  1.00  0.00     0.193 A 
ATOM      4  O   UNL     1       1.784 -15.167  15.219  1.00  0.00    -0.289 OA
ATOM      5  C   UNL     1       3.827 -14.084  15.040  1.00  0.00     0.065 A 
ATOM      6  C   UNL     1       3.301 -12.808  15.313  1.00  0.00     0.016 A 
ATOM      7  C   UNL     1       4.146 -11.694  15.335  1.00  0.00     0.001 A 
ATOM      8  C   UNL     1       5.514 -11.843  15.089  1.00  0.00     0.004 A 
ATOM      9  C   UNL     1       6.044 -13.108  14.819  1.00  0.00     0.048 A 
ATOM     10  C   UNL     1       5.208 -14.230  14.793  1.00  0.00     0.138 A 
ATOM     11  O   UNL     1       5.722 -15.428  14.535  1.00  0.00    -0.456 OA
ENDROOT
BRANCH   1  12
ATOM     12  C   UNL     1       5.703 -17.832  14.188  1.00  0.00     0.017 A 
ATOM     13  C   UNL     1       7.079 -20.210  13.543  1.00  0.00     0.000 A 
ATOM     14  C   UNL     1       6.185 -20.189  14.612  1.00  0.00     0.001 A 
ATOM     15  C   UNL     1       7.293 -19.054  12.793  1.00  0.00     0.001 A 
ATOM     16  C   UNL     1       5.500 -19.014  14.936  1.00  0.00     0.012 A 
ATOM     17  C   UNL     1       6.613 -17.875  13.111  1.00  0.00     0.012 A 
ENDBRANCH   1  12
TORSDOF 1
ENDMDL
MODEL 4
REMARK VINA RESULT:    -5.056      2.006      2.484
REMARK INTER + INTRA:          -5.593
REMARK INTER:                  -5.341
REMARK INTRA:                  -0.252
REMARK UNBOUND:                -0.242
REMARK SMILES O=c1cc(-c2ccccc2)oc2ccccc12
REMARK SMILES IDX 4 1 3 2 2 3 1 4 17 5 16 6 15 7 14 8 13 9 12 10 11 11 5 12
REMARK SMILES IDX 8 13 7 14 9 15 6 16 10 17
REMARK H PARENT
REMARK Flexibility Score: inf
ROOT
ATOM      1  C   UNL     1       4.772 -17.132  15.119  1.00  0.00     0.138 A 
ATOM      2  C   UNL     1       3.945 -16.364  14.273  1.00  0.00     0.100 A 
ATOM      3  C   UNL     1       3.187 -15.324  14.812  1.00  0.00     0.193 A 
ATOM      4  O   UNL     1       2.447 -14.636  14.056  1.00  0.00    -0.289 OA
ATOM      5  C   UNL     1       3.257 -15.057  16.187  1.00  0.00     0.065 A 
ATOM      6  C   UNL     1       2.519 -14.025  16.793  1.00  0.00     0.016 A 
ATOM      7  C   UNL     1       2.627 -13.803  18.170  1.00  0.00     0.001 A 
ATOM      8  C   UNL     1       3.467 -14.605  18.948  1.00  0.00     0.004 A 
ATOM      9  C   UNL     1       4.203 -15.633  18.353  1.00  0.00     0.048 A 
ATOM     10  C   UNL     1       4.103 -15.864  16.977  1.00  0.00     0.138 A 
ATOM     11  O   UNL     1       4.809 -16.844  16.421  1.00  0.00    -0.456 OA
ENDROOT
BRANCH   1  12
ATOM     12  C   UNL     1       5.617 -18.263  14.623  1.00  0.00     0.017 A 
ATOM     13  C   UNL     1       7.225 -20.346  13.604  1.00  0.00     0.000 A 
ATOM     14  C   UNL     1       6.658 -20.459  14.872  1.00  0.00     0.001 A 
ATOM     15  C   UNL     1       6.997 -19.202  12.839  1.00  0.00     0.001 A 
ATOM     16  C   UNL     1       5.860 -19.430  15.382  1.00  0.00     0.012 A 
ATOM     17  C   UNL     1       6.202 -18.169  13.342  1.00  0.00     0.012 A 
ENDBRANCH   1  12
TORSDOF 1
ENDMDL
MODEL 5
REMARK VINA RESULT:    -5.023      3.607      5.939
REMARK INTER + INTRA:          -5.559
REMARK INTER:                  -5.319
REMARK INTRA:                  -0.239
REMARK UNBOUND:                -0.242
REMARK SMILES O=c1cc(-c2ccccc2)oc2ccccc12
REMARK SMILES IDX 4 1 3 2 2 3 1 4 17 5 16 6 15 7 14 8 13 9 12 10 11 11 5 12
REMARK SMILES IDX 8 13 7 14 9 15 6 16 10 17
REMARK H PARENT
REMARK Flexibility Score: inf
ROOT
ATOM      1  C   UNL     1       4.687 -12.250  14.567  1.00  0.00     0.138 A 
ATOM      2  C   UNL     1       4.209 -11.215  15.397  1.00  0.00     0.100 A 
ATOM      3  C   UNL     1       4.655  -9.908  15.193  1.00  0.00     0.193 A 
ATOM      4  O   UNL     1       4.227  -8.982  15.935  1.00  0.00    -0.289 OA
ATOM      5  C   UNL     1       5.572  -9.643  14.166  1.00  0.00     0.065 A 
ATOM      6  C   UNL     1       6.062  -8.350  13.908  1.00  0.00     0.016 A 
ATOM      7  C   UNL     1       6.975  -8.142  12.870  1.00  0.00     0.001 A 
ATOM      8  C   UNL     1       7.407  -9.217  12.086  1.00  0.00     0.004 A 
ATOM      9  C   UNL     1       6.926 -10.505  12.337  1.00  0.00     0.048 A 
ATOM     10  C   UNL     1       6.011 -10.725  13.372  1.00  0.00     0.138 A 
ATOM     11  O   UNL     1       5.559 -11.953  13.602  1.00  0.00    -0.456 OA
ENDROOT
BRANCH   1  12
ATOM     12  C   UNL     1       4.260 -13.676  14.717  1.00  0.00     0.017 A 
ATOM     13  C   UNL     1       3.551 -16.393  15.006  1.00  0.00     0.000 A 
ATOM     14  C   UNL     1       2.559 -15.422  14.879  1.00  0.00     0.001 A 
ATOM     15  C   UNL     1       4.894 -16.020  14.991  1.00  0.00     0.001 A 
ATOM     16  C   UNL     1       2.904 -14.074  14.735  1.00  0.00     0.012 A 
ATOM     17  C   UNL     1       5.248 -14.676  14.849  1.00  0.00     0.012 A 
ENDBRANCH   1  12
TORSDOF 1
ENDMDL
MODEL 6
REMARK VINA RESULT:    -4.901      3.063      5.100
REMARK INTER + INTRA:          -5.429
REMARK INTER:                  -5.178
REMARK INTRA:                  -0.251
REMARK UNBOUND:                -0.242
REMARK SMILES O=c1cc(-c2ccccc2)oc2ccccc12
REMARK SMILES IDX 4 1 3 2 2 3 1 4 17 5 16 6 15 7 14 8 13 9 12 10 11 11 5 12
REMARK SMILES IDX 8 13 7 14 9 15 6 16 10 17
REMARK H PARENT
REMARK Flexibility Score: inf
ROOT
ATOM      1  C   UNL     1       4.297 -12.691  14.798  1.00  0.00     0.138 A 
ATOM      2  C   UNL     1       5.076 -11.900  13.928  1.00  0.00     0.100 A 
ATOM      3  C   UNL     1       4.900 -10.515  13.915  1.00  0.00     0.193 A 
ATOM      4  O   UNL     1       5.597  -9.807  13.137  1.00  0.00    -0.289 OA
ATOM      5  C   UNL     1       3.951  -9.930  14.766  1.00  0.00     0.065 A 
ATOM      6  C   UNL     1       3.724  -8.543  14.801  1.00  0.00     0.016 A 
ATOM      7  C   UNL     1       2.765  -8.012  15.670  1.00  0.00     0.001 A 
ATOM      8  C   UNL     1       2.028  -8.858  16.505  1.00  0.00     0.004 A 
ATOM      9  C   UNL     1       2.247 -10.237  16.475  1.00  0.00     0.048 A 
ATOM     10  C   UNL     1       3.204 -10.779  15.610  1.00  0.00     0.138 A 
ATOM     11  O   UNL     1       3.405 -12.093  15.590  1.00  0.00    -0.456 OA
ENDROOT
BRANCH   1  12
ATOM     12  C   UNL     1       4.422 -14.180  14.875  1.00  0.00     0.017 A 
ATOM     13  C   UNL     1       4.560 -16.995  15.033  1.00  0.00     0.000 A 
ATOM     14  C   UNL     1       5.722 -16.248  14.841  1.00  0.00     0.001 A 
ATOM     15  C   UNL     1       3.330 -16.348  15.147  1.00  0.00     0.001 A 
ATOM     16  C   UNL     1       5.659 -14.853  14.762  1.00  0.00     0.012 A 
ATOM     17  C   UNL     1       3.258 -14.955  15.068  1.00  0.00     0.012 A 
ENDBRANCH   1  12
TORSDOF 1
ENDMDL
MODEL 7
REMARK VINA RESULT:    -4.825      1.392      6.236
REMARK INTER + INTRA:          -5.349
REMARK INTER:                  -5.121
REMARK INTRA:                  -0.228
REMARK UNBOUND:                -0.242
REMARK SMILES O=c1cc(-c2ccccc2)oc2ccccc12
REMARK SMILES IDX 4 1 3 2 2 3 1 4 17 5 16 6 15 7 14 8 13 9 12 10 11 11 5 12
REMARK SMILES IDX 8 13 7 14 9 15 6 16 10 17
REMARK H PARENT
REMARK Flexibility Score: inf
ROOT
ATOM      1  C   UNL     1       4.986 -17.201  15.086  1.00  0.00     0.138 A 
ATOM      2  C   UNL     1       5.051 -17.990  16.253  1.00  0.00     0.100 A 
ATOM      3  C   UNL     1       5.772 -19.186  16.236  1.00  0.00     0.193 A 
ATOM      4  O   UNL     1       5.830 -19.892  17.279  1.00  0.00    -0.289 OA
ATOM      5  C   UNL     1       6.420 -19.585  15.058  1.00  0.00     0.065 A 
ATOM      6  C   UNL     1       7.160 -20.778  14.973  1.00  0.00     0.016 A 
ATOM      7  C   UNL     1       7.787 -21.128  13.773  1.00  0.00     0.001 A 
ATOM      8  C   UNL     1       7.680 -20.297  12.654  1.00  0.00     0.004 A 
ATOM      9  C   UNL     1       6.944 -19.111  12.730  1.00  0.00     0.048 A 
ATOM     10  C   UNL     1       6.313 -18.750  13.926  1.00  0.00     0.138 A 
ATOM     11  O   UNL     1       5.617 -17.620  13.988  1.00  0.00    -0.456 OA
ENDROOT
BRANCH   1  12
ATOM     12  C   UNL     1       4.237 -15.908  15.019  1.00  0.00     0.017 A 
ATOM     13  C   UNL     1       2.739 -13.518  14.901  1.00  0.00     0.000 A 
ATOM     14  C   UNL     1       4.131 -13.473  14.847  1.00  0.00     0.001 A 
ATOM     15  C   UNL     1       2.088 -14.746  15.014  1.00  0.00     0.001 A 
ATOM     16  C   UNL     1       4.879 -14.654  14.905  1.00  0.00     0.012 A 
ATOM     17  C   UNL     1       2.827 -15.930  15.073  1.00  0.00     0.012 A 
ENDBRANCH   1  12
TORSDOF 1
ENDMDL
MODEL 8
REMARK VINA RESULT:    -4.793      3.422      7.934
REMARK INTER + INTRA:          -5.315
REMARK INTER:                  -5.062
REMARK INTRA:                  -0.253
REMARK UNBOUND:                -0.242
REMARK SMILES O=c1cc(-c2ccccc2)oc2ccccc12
REMARK SMILES IDX 4 1 3 2 2 3 1 4 17 5 16 6 15 7 14 8 13 9 12 10 11 11 5 12
REMARK SMILES IDX 8 13 7 14 9 15 6 16 10 17
REMARK H PARENT
REMARK Flexibility Score: inf
ROOT
ATOM      1  C   UNL     1       3.681 -11.003  15.065  1.00  0.00     0.138 A 
ATOM      2  C   UNL     1       5.026 -11.302  14.763  1.00  0.00     0.100 A 
ATOM      3  C   UNL     1       5.427 -12.634  14.651  1.00  0.00     0.193 A 
ATOM      4  O   UNL     1       6.630 -12.901  14.381  1.00  0.00    -0.289 OA
ATOM      5  C   UNL     1       4.487 -13.657  14.842  1.00  0.00     0.065 A 
ATOM      6  C   UNL     1       4.825 -15.019  14.745  1.00  0.00     0.016 A 
ATOM      7  C   UNL     1       3.847 -15.998  14.945  1.00  0.00     0.001 A 
ATOM      8  C   UNL     1       2.532 -15.630  15.242  1.00  0.00     0.004 A 
ATOM      9  C   UNL     1       2.188 -14.279  15.342  1.00  0.00     0.048 A 
ATOM     10  C   UNL     1       3.158 -13.290  15.143  1.00  0.00     0.138 A 
ATOM     11  O   UNL     1       2.820 -12.008  15.239  1.00  0.00    -0.456 OA
ENDROOT
BRANCH   1  12
ATOM     12  C   UNL     1       3.169  -9.605  15.201  1.00  0.00     0.017 A 
ATOM     13  C   UNL     1       2.290  -6.938  15.496  1.00  0.00     0.000 A 
ATOM     14  C   UNL     1       1.432  -7.902  14.969  1.00  0.00     0.001 A 
ATOM     15  C   UNL     1       3.584  -7.294  15.877  1.00  0.00     0.001 A 
ATOM     16  C   UNL     1       1.861  -9.225  14.821  1.00  0.00     0.012 A 
ATOM     17  C   UNL     1       4.021  -8.613  15.731  1.00  0.00     0.012 A 
ENDBRANCH   1  12
TORSDOF 1
ENDMDL
MODEL 9
REMARK VINA RESULT:    -4.680     10.231     13.344
REMARK INTER + INTRA:          -5.196
REMARK INTER:                  -4.931
REMARK INTRA:                  -0.265
REMARK UNBOUND:                -0.242
REMARK SMILES O=c1cc(-c2ccccc2)oc2ccccc12
REMARK SMILES IDX 4 1 3 2 2 3 1 4 17 5 16 6 15 7 14 8 13 9 12 10 11 11 5 12
REMARK SMILES IDX 8 13 7 14 9 15 6 16 10 17
REMARK H PARENT
REMARK Flexibility Score: inf
ROOT
ATOM      1  C   UNL     1      -3.436  -8.138  15.134  1.00  0.00     0.138 A 
ATOM      2  C   UNL     1      -3.954  -9.219  15.878  1.00  0.00     0.100 A 
ATOM      3  C   UNL     1      -5.292  -9.200  16.278  1.00  0.00     0.193 A 
ATOM      4  O   UNL     1      -5.756 -10.166  16.943  1.00  0.00    -0.289 OA
ATOM      5  C   UNL     1      -6.100  -8.107  15.935  1.00  0.00     0.065 A 
ATOM      6  C   UNL     1      -7.454  -8.025  16.307  1.00  0.00     0.016 A 
ATOM      7  C   UNL     1      -8.215  -6.911  15.938  1.00  0.00     0.001 A 
ATOM      8  C   UNL     1      -7.634  -5.875  15.200  1.00  0.00     0.004 A 
ATOM      9  C   UNL     1      -6.289  -5.949  14.828  1.00  0.00     0.048 A 
ATOM     10  C   UNL     1      -5.519  -7.059  15.191  1.00  0.00     0.138 A 
ATOM     11  O   UNL     1      -4.241  -7.119  14.831  1.00  0.00    -0.456 OA
ENDROOT
BRANCH   1  12
ATOM     12  C   UNL     1      -2.016  -8.080  14.667  1.00  0.00     0.017 A 
ATOM     13  C   UNL     1       0.675  -8.063  13.814  1.00  0.00     0.000 A 
ATOM     14  C   UNL     1      -0.113  -6.922  13.662  1.00  0.00     0.001 A 
ATOM     15  C   UNL     1       0.131  -9.212  14.387  1.00  0.00     0.001 A 
ATOM     16  C   UNL     1      -1.447  -6.925  14.084  1.00  0.00     0.012 A 
ATOM     17  C   UNL     1      -1.201  -9.223  14.809  1.00  0.00     0.012 A 
ENDBRANCH   1  12
TORSDOF 1
ENDMDL
