MODEL 1
REMARK VINA RESULT:    -5.134      0.000      0.000
REMARK INTER + INTRA:          -6.023
REMARK INTER:                  -5.884
REMARK INTRA:                  -0.139
REMARK UNBOUND:                -0.139
REMARK SMILES O=C([O-])C=Cc1ccc(O)cc1
REMARK SMILES IDX 6 1 7 2 12 3 8 4 11 5 9 6 5 7 4 8 2 9 1 10 3 11 10 12
REMARK H PARENT 10 13
REMARK Flexibility Score: inf
ROOT
ATOM      1  C   UNL     1     -10.078   9.007  23.366  1.00  0.00    -0.025 A 
ATOM      2  C   UNL     1      -9.170   9.968  22.890  1.00  0.00     0.012 A 
ATOM      3  C   UNL     1     -10.726   9.235  24.598  1.00  0.00     0.012 A 
ATOM      4  C   UNL     1      -8.895  11.118  23.636  1.00  0.00     0.047 A 
ATOM      5  C   UNL     1     -10.448  10.387  25.341  1.00  0.00     0.047 A 
ATOM      6  C   UNL     1      -9.530  11.330  24.862  1.00  0.00     0.115 A 
ENDROOT
BRANCH   1   7
ATOM      7  C   UNL     1     -10.345   7.808  22.533  1.00  0.00     0.010 C 
ATOM      8  C   UNL     1     -11.097   6.774  22.934  1.00  0.00     0.025 C 
BRANCH   8   9
ATOM      9  C   UNL     1     -11.325   5.599  22.078  1.00  0.00     0.064 C 
ATOM     10  O   UNL     1     -10.467   4.679  22.044  1.00  0.00    -0.545 OA
ATOM     11  O   UNL     1     -12.475   5.487  21.305  1.00  0.00    -0.545 OA
ENDBRANCH   8   9
ENDBRANCH   1   7
BRANCH   6  12
ATOM     12  O   UNL     1      -9.245  12.480  25.595  1.00  0.00    -0.508 OA
ATOM     13  H   UNL     1      -9.901  12.852  26.273  1.00  0.00     0.293 HD
ENDBRANCH   6  12
TORSDOF 3
ENDMDL
MODEL 2
REMARK VINA RESULT:    -4.923     16.234     17.944
REMARK INTER + INTRA:          -5.782
REMARK INTER:                  -5.641
REMARK INTRA:                  -0.141
REMARK UNBOUND:                -0.139
REMARK SMILES O=C([O-])C=Cc1ccc(O)cc1
REMARK SMILES IDX 6 1 7 2 12 3 8 4 11 5 9 6 5 7 4 8 2 9 1 10 3 11 10 12
REMARK H PARENT 10 13
REMARK Flexibility Score: inf
ROOT
ATOM      1  C   UNL     1      -2.212   5.539   8.622  1.00  0.00    -0.025 A 
ATOM      2  C   UNL     1      -1.042   5.192   7.925  1.00  0.00     0.012 A 
ATOM      3  C   UNL     1      -3.169   4.537   8.885  1.00  0.00     0.012 A 
ATOM      4  C   UNL     1      -0.842   3.884   7.477  1.00  0.00     0.047 A 
ATOM      5  C   UNL     1      -2.965   3.228   8.435  1.00  0.00     0.047 A 
ATOM      6  C   UNL     1      -1.801   2.899   7.728  1.00  0.00     0.115 A 
ENDROOT
BRANCH   1   7
ATOM      7  C   UNL     1      -2.374   6.939   9.086  1.00  0.00     0.010 C 
ATOM      8  C   UNL     1      -1.519   7.554   9.915  1.00  0.00     0.025 C 
BRANCH   8   9
ATOM      9  C   UNL     1      -1.726   8.941  10.359  1.00  0.00     0.064 C 
ATOM     10  O   UNL     1      -1.672   9.877   9.519  1.00  0.00    -0.545 OA
ATOM     11  O   UNL     1      -1.983   9.237  11.693  1.00  0.00    -0.545 OA
ENDBRANCH   8   9
ENDBRANCH   1   7
BRANCH   6  12
ATOM     12  O   UNL     1      -1.588   1.599   7.275  1.00  0.00    -0.508 OA
ATOM     13  H   UNL     1      -1.430   1.401   6.293  1.00  0.00     0.293 HD
ENDBRANCH   6  12
TORSDOF 3
ENDMDL
MODEL 3
REMARK VINA RESULT:    -4.923     16.218     17.954
REMARK INTER + INTRA:          -5.781
REMARK INTER:                  -5.647
REMARK INTRA:                  -0.134
REMARK UNBOUND:                -0.139
REMARK SMILES O=C([O-])C=Cc1ccc(O)cc1
REMARK SMILES IDX 6 1 7 2 12 3 8 4 11 5 9 6 5 7 4 8 2 9 1 10 3 11 10 12
REMARK H PARENT 10 13
REMARK Flexibility Score: inf
ROOT
ATOM      1  C   UNL     1      -2.088   5.704   8.626  1.00  0.00    -0.025 A 
ATOM      2  C   UNL     1      -3.120   4.773   8.834  1.00  0.00     0.012 A 
ATOM      3  C   UNL     1      -0.923   5.287   7.950  1.00  0.00     0.012 A 
ATOM      4  C   UNL     1      -2.984   3.451   8.402  1.00  0.00     0.047 A 
ATOM      5  C   UNL     1      -0.790   3.963   7.518  1.00  0.00     0.047 A 
ATOM      6  C   UNL     1      -1.820   3.041   7.745  1.00  0.00     0.115 A 
ENDROOT
BRANCH   1   7
ATOM      7  C   UNL     1      -2.284   7.098   9.094  1.00  0.00     0.010 C 
ATOM      8  C   UNL     1      -1.522   7.686  10.027  1.00  0.00     0.025 C 
BRANCH   8   9
ATOM      9  C   UNL     1      -1.761   9.069  10.469  1.00  0.00     0.064 C 
ATOM     10  O   UNL     1      -2.254   9.280  11.607  1.00  0.00    -0.545 OA
ATOM     11  O   UNL     1      -1.449  10.148   9.650  1.00  0.00    -0.545 OA
ENDBRANCH   8   9
ENDBRANCH   1   7
BRANCH   6  12
ATOM     12  O   UNL     1      -1.698   1.720   7.321  1.00  0.00    -0.508 OA
ATOM     13  H   UNL     1      -1.691   0.951   7.982  1.00  0.00     0.293 HD
ENDBRANCH   6  12
TORSDOF 3
ENDMDL
MODEL 4
REMARK VINA RESULT:    -4.731     15.096     16.823
REMARK INTER + INTRA:          -5.561
REMARK INTER:                  -5.409
REMARK INTRA:                  -0.151
REMARK UNBOUND:                -0.139
REMARK SMILES O=C([O-])C=Cc1ccc(O)cc1
REMARK SMILES IDX 6 1 7 2 12 3 8 4 11 5 9 6 5 7 4 8 2 9 1 10 3 11 10 12
REMARK H PARENT 10 13
REMARK Flexibility Score: inf
ROOT
ATOM      1  C   UNL     1      -2.432   6.378   9.495  1.00  0.00    -0.025 A 
ATOM      2  C   UNL     1      -2.382   5.463  10.560  1.00  0.00     0.012 A 
ATOM      3  C   UNL     1      -2.883   5.932   8.236  1.00  0.00     0.012 A 
ATOM      4  C   UNL     1      -2.749   4.128  10.368  1.00  0.00     0.047 A 
ATOM      5  C   UNL     1      -3.250   4.596   8.048  1.00  0.00     0.047 A 
ATOM      6  C   UNL     1      -3.181   3.690   9.114  1.00  0.00     0.115 A 
ENDROOT
BRANCH   1   7
ATOM      7  C   UNL     1      -2.042   7.787   9.751  1.00  0.00     0.010 C 
ATOM      8  C   UNL     1      -1.964   8.329  10.974  1.00  0.00     0.025 C 
BRANCH   8   9
ATOM      9  C   UNL     1      -1.584   9.736  11.179  1.00  0.00     0.064 C 
ATOM     10  O   UNL     1      -1.689  10.246  12.325  1.00  0.00    -0.545 OA
ATOM     11  O   UNL     1      -1.110  10.512  10.128  1.00  0.00    -0.545 OA
ENDBRANCH   8   9
ENDBRANCH   1   7
BRANCH   6  12
ATOM     12  O   UNL     1      -3.543   2.356   8.938  1.00  0.00    -0.508 OA
ATOM     13  H   UNL     1      -2.849   1.616   8.930  1.00  0.00     0.293 HD
ENDBRANCH   6  12
TORSDOF 3
ENDMDL
MODEL 5
REMARK VINA RESULT:    -4.722     15.012     16.713
REMARK INTER + INTRA:          -5.550
REMARK INTER:                  -5.411
REMARK INTRA:                  -0.139
REMARK UNBOUND:                -0.139
REMARK SMILES O=C([O-])C=Cc1ccc(O)cc1
REMARK SMILES IDX 6 1 7 2 12 3 8 4 11 5 9 6 5 7 4 8 2 9 1 10 3 11 10 12
REMARK H PARENT 10 13
REMARK Flexibility Score: inf
ROOT
ATOM      1  C   UNL     1      -2.497   6.317   9.653  1.00  0.00    -0.025 A 
ATOM      2  C   UNL     1      -2.843   5.911   8.352  1.00  0.00     0.012 A 
ATOM      3  C   UNL     1      -2.489   5.357  10.685  1.00  0.00     0.012 A 
ATOM      4  C   UNL     1      -3.197   4.584   8.092  1.00  0.00     0.047 A 
ATOM      5  C   UNL     1      -2.845   4.030  10.421  1.00  0.00     0.047 A 
ATOM      6  C   UNL     1      -3.202   3.641   9.124  1.00  0.00     0.115 A 
ENDROOT
BRANCH   1   7
ATOM      7  C   UNL     1      -2.118   7.734   9.877  1.00  0.00     0.010 C 
ATOM      8  C   UNL     1      -2.028   8.300  11.088  1.00  0.00     0.025 C 
BRANCH   8   9
ATOM      9  C   UNL     1      -1.659   9.713  11.262  1.00  0.00     0.064 C 
ATOM     10  O   UNL     1      -1.582  10.197  12.422  1.00  0.00    -0.545 OA
ATOM     11  O   UNL     1      -1.393  10.525  10.166  1.00  0.00    -0.545 OA
ENDBRANCH   8   9
ENDBRANCH   1   7
BRANCH   6  12
ATOM     12  O   UNL     1      -3.558   2.323   8.850  1.00  0.00    -0.508 OA
ATOM     13  H   UNL     1      -3.608   1.625   9.583  1.00  0.00     0.293 HD
ENDBRANCH   6  12
TORSDOF 3
ENDMDL
MODEL 6
REMARK VINA RESULT:    -4.506     13.086     14.184
REMARK INTER + INTRA:          -5.304
REMARK INTER:                  -5.165
REMARK INTRA:                  -0.138
REMARK UNBOUND:                -0.139
REMARK SMILES O=C([O-])C=Cc1ccc(O)cc1
REMARK SMILES IDX 6 1 7 2 12 3 8 4 11 5 9 6 5 7 4 8 2 9 1 10 3 11 10 12
REMARK H PARENT 10 13
REMARK Flexibility Score: inf
ROOT
ATOM      1  C   UNL     1      -2.260   7.338  12.018  1.00  0.00    -0.025 A 
ATOM      2  C   UNL     1      -2.128   6.994  10.662  1.00  0.00     0.012 A 
ATOM      3  C   UNL     1      -2.129   8.692  12.392  1.00  0.00     0.012 A 
ATOM      4  C   UNL     1      -1.846   7.972   9.704  1.00  0.00     0.047 A 
ATOM      5  C   UNL     1      -1.847   9.667  11.430  1.00  0.00     0.047 A 
ATOM      6  C   UNL     1      -1.703   9.309  10.084  1.00  0.00     0.115 A 
ENDROOT
BRANCH   1   7
ATOM      7  C   UNL     1      -2.570   6.266  12.996  1.00  0.00     0.010 C 
ATOM      8  C   UNL     1      -2.542   6.438  14.325  1.00  0.00     0.025 C 
BRANCH   8   9
ATOM      9  C   UNL     1      -2.846   5.341  15.258  1.00  0.00     0.064 C 
ATOM     10  O   UNL     1      -4.044   5.071  15.530  1.00  0.00    -0.545 OA
ATOM     11  O   UNL     1      -1.829   4.597  15.844  1.00  0.00    -0.545 OA
ENDBRANCH   8   9
ENDBRANCH   1   7
BRANCH   6  12
ATOM     12  O   UNL     1      -1.421  10.273   9.118  1.00  0.00    -0.508 OA
ATOM     13  H   UNL     1      -0.610  10.878   9.195  1.00  0.00     0.293 HD
ENDBRANCH   6  12
TORSDOF 3
ENDMDL
MODEL 7
REMARK VINA RESULT:    -4.485     12.939     14.060
REMARK INTER + INTRA:          -5.279
REMARK INTER:                  -5.142
REMARK INTRA:                  -0.138
REMARK UNBOUND:                -0.139
REMARK SMILES O=C([O-])C=Cc1ccc(O)cc1
REMARK SMILES IDX 6 1 7 2 12 3 8 4 11 5 9 6 5 7 4 8 2 9 1 10 3 11 10 12
REMARK H PARENT 10 13
REMARK Flexibility Score: inf
ROOT
ATOM      1  C   UNL     1      -2.116   7.882  12.521  1.00  0.00    -0.025 A 
ATOM      2  C   UNL     1      -1.956   9.275  12.618  1.00  0.00     0.012 A 
ATOM      3  C   UNL     1      -2.047   7.278  11.248  1.00  0.00     0.012 A 
ATOM      4  C   UNL     1      -1.759  10.051  11.472  1.00  0.00     0.047 A 
ATOM      5  C   UNL     1      -1.850   8.058  10.104  1.00  0.00     0.047 A 
ATOM      6  C   UNL     1      -1.707   9.446  10.213  1.00  0.00     0.115 A 
ENDROOT
BRANCH   1   7
ATOM      7  C   UNL     1      -2.312   7.101  13.767  1.00  0.00     0.010 C 
ATOM      8  C   UNL     1      -2.710   5.821  13.790  1.00  0.00     0.025 C 
BRANCH   8   9
ATOM      9  C   UNL     1      -2.903   5.089  15.051  1.00  0.00     0.064 C 
ATOM     10  O   UNL     1      -4.068   4.812  15.436  1.00  0.00    -0.545 OA
ATOM     11  O   UNL     1      -1.818   4.694  15.825  1.00  0.00    -0.545 OA
ENDBRANCH   8   9
ENDBRANCH   1   7
BRANCH   6  12
ATOM     12  O   UNL     1      -1.511  10.233   9.080  1.00  0.00    -0.508 OA
ATOM     13  H   UNL     1      -0.744  10.056   8.440  1.00  0.00     0.293 HD
ENDBRANCH   6  12
TORSDOF 3
ENDMDL
MODEL 8
REMARK VINA RESULT:    -4.435     13.381     14.874
REMARK INTER + INTRA:          -5.221
REMARK INTER:                  -5.067
REMARK INTRA:                  -0.154
REMARK UNBOUND:                -0.139
REMARK SMILES O=C([O-])C=Cc1ccc(O)cc1
REMARK SMILES IDX 6 1 7 2 12 3 8 4 11 5 9 6 5 7 4 8 2 9 1 10 3 11 10 12
REMARK H PARENT 10 13
REMARK Flexibility Score: inf
ROOT
ATOM      1  C   UNL     1      -2.374  10.964  11.731  1.00  0.00    -0.025 A 
ATOM      2  C   UNL     1      -2.813   9.722  12.222  1.00  0.00     0.012 A 
ATOM      3  C   UNL     1      -1.211  11.007  10.934  1.00  0.00     0.012 A 
ATOM      4  C   UNL     1      -2.094   8.555  11.948  1.00  0.00     0.047 A 
ATOM      5  C   UNL     1      -0.496   9.837  10.662  1.00  0.00     0.047 A 
ATOM      6  C   UNL     1      -0.935   8.608  11.171  1.00  0.00     0.115 A 
ENDROOT
BRANCH   1   7
ATOM      7  C   UNL     1      -3.176  12.173  12.040  1.00  0.00     0.010 C 
ATOM      8  C   UNL     1      -4.423  12.136  12.530  1.00  0.00     0.025 C 
BRANCH   8   9
ATOM      9  C   UNL     1      -5.186  13.362  12.810  1.00  0.00     0.064 C 
ATOM     10  O   UNL     1      -4.671  14.484  12.566  1.00  0.00    -0.545 OA
ATOM     11  O   UNL     1      -6.470  13.303  13.341  1.00  0.00    -0.545 OA
ENDBRANCH   8   9
ENDBRANCH   1   7
BRANCH   6  12
ATOM     12  O   UNL     1      -0.229   7.436  10.907  1.00  0.00    -0.508 OA
ATOM     13  H   UNL     1      -0.412   6.581  11.420  1.00  0.00     0.293 HD
ENDBRANCH   6  12
TORSDOF 3
ENDMDL
MODEL 9
REMARK VINA RESULT:    -4.428     12.579     13.915
REMARK INTER + INTRA:          -5.214
REMARK INTER:                  -5.073
REMARK INTRA:                  -0.142
REMARK UNBOUND:                -0.139
REMARK SMILES O=C([O-])C=Cc1ccc(O)cc1
REMARK SMILES IDX 6 1 7 2 12 3 8 4 11 5 9 6 5 7 4 8 2 9 1 10 3 11 10 12
REMARK H PARENT 10 13
REMARK Flexibility Score: inf
ROOT
ATOM      1  C   UNL     1      -2.140   7.773  13.627  1.00  0.00    -0.025 A 
ATOM      2  C   UNL     1      -2.316   6.512  13.034  1.00  0.00     0.012 A 
ATOM      3  C   UNL     1      -2.440   7.928  14.996  1.00  0.00     0.012 A 
ATOM      4  C   UNL     1      -2.806   5.436  13.780  1.00  0.00     0.047 A 
ATOM      5  C   UNL     1      -2.930   6.850  15.740  1.00  0.00     0.047 A 
ATOM      6  C   UNL     1      -3.116   5.601  15.133  1.00  0.00     0.115 A 
ENDROOT
BRANCH   1   7
ATOM      7  C   UNL     1      -1.608   8.881  12.796  1.00  0.00     0.010 C 
ATOM      8  C   UNL     1      -2.153   9.271  11.635  1.00  0.00     0.025 C 
BRANCH   8   9
ATOM      9  C   UNL     1      -1.583  10.368  10.837  1.00  0.00     0.064 C 
ATOM     10  O   UNL     1      -1.241  11.437  11.406  1.00  0.00    -0.545 OA
ATOM     11  O   UNL     1      -1.414  10.243   9.463  1.00  0.00    -0.545 OA
ENDBRANCH   8   9
ENDBRANCH   1   7
BRANCH   6  12
ATOM     12  O   UNL     1      -3.604   4.521  15.864  1.00  0.00    -0.508 OA
ATOM     13  H   UNL     1      -3.894   4.624  16.830  1.00  0.00     0.293 HD
ENDBRANCH   6  12
TORSDOF 3
ENDMDL
