MODEL 1
REMARK VINA RESULT:    -4.802      0.000      0.000
REMARK INTER + INTRA:          -4.943
REMARK INTER:                  -4.943
REMARK INTRA:                   0.000
REMARK UNBOUND:                 0.000
REMARK SMILES Cc1ccccc1O
REMARK SMILES IDX 1 1 2 2 3 3 4 4 5 5 6 6 7 7 8 8
REMARK H PARENT 8 9
REMARK Flexibility Score: inf
ROOT
ATOM      1  C   UNL     1     -11.007  45.126  21.203  1.00  0.00     0.048 C 
ATOM      2  C   UNL     1     -12.287  44.668  21.843  1.00  0.00    -0.009 A 
ATOM      3  C   UNL     1     -13.033  43.626  21.267  1.00  0.00     0.007 A 
ATOM      4  C   UNL     1     -14.225  43.200  21.862  1.00  0.00     0.001 A 
ATOM      5  C   UNL     1     -14.679  43.809  23.034  1.00  0.00     0.004 A 
ATOM      6  C   UNL     1     -13.944  44.845  23.614  1.00  0.00     0.046 A 
ATOM      7  C   UNL     1     -12.747  45.279  23.024  1.00  0.00     0.118 A 
ENDROOT
BRANCH   7   8
ATOM      8  O   UNL     1     -12.016  46.315  23.607  1.00  0.00    -0.508 OA
ATOM      9  H   UNL     1     -11.053  46.186  23.895  1.00  0.00     0.293 HD
ENDBRANCH   7   8
TORSDOF 1
ENDMDL
MODEL 2
REMARK VINA RESULT:    -4.696      0.670      2.495
REMARK INTER + INTRA:          -4.833
REMARK INTER:                  -4.833
REMARK INTRA:                   0.000
REMARK UNBOUND:                 0.000
REMARK SMILES Cc1ccccc1O
REMARK SMILES IDX 1 1 2 2 3 3 4 4 5 5 6 6 7 7 8 8
REMARK H PARENT 8 9
REMARK Flexibility Score: inf
ROOT
ATOM      1  C   UNL     1     -14.701  44.752  24.287  1.00  0.00     0.048 C 
ATOM      2  C   UNL     1     -13.835  44.536  23.079  1.00  0.00    -0.009 A 
ATOM      3  C   UNL     1     -14.166  43.547  22.137  1.00  0.00     0.007 A 
ATOM      4  C   UNL     1     -13.360  43.347  21.012  1.00  0.00     0.001 A 
ATOM      5  C   UNL     1     -12.220  44.130  20.819  1.00  0.00     0.004 A 
ATOM      6  C   UNL     1     -11.882  45.116  21.749  1.00  0.00     0.046 A 
ATOM      7  C   UNL     1     -12.685  45.324  22.881  1.00  0.00     0.118 A 
ENDROOT
BRANCH   7   8
ATOM      8  O   UNL     1     -12.345  46.310  23.808  1.00  0.00    -0.508 OA
ATOM      9  H   UNL     1     -11.514  46.232  24.383  1.00  0.00     0.293 HD
ENDBRANCH   7   8
TORSDOF 1
ENDMDL
MODEL 3
REMARK VINA RESULT:    -4.677      1.195      1.830
REMARK INTER + INTRA:          -4.814
REMARK INTER:                  -4.814
REMARK INTRA:                   0.000
REMARK UNBOUND:                 0.000
REMARK SMILES Cc1ccccc1O
REMARK SMILES IDX 1 1 2 2 3 3 4 4 5 5 6 6 7 7 8 8
REMARK H PARENT 8 9
REMARK Flexibility Score: inf
ROOT
ATOM      1  C   UNL     1     -12.749  43.751  20.826  1.00  0.00     0.048 C 
ATOM      2  C   UNL     1     -13.207  44.314  22.141  1.00  0.00    -0.009 A 
ATOM      3  C   UNL     1     -14.400  43.860  22.730  1.00  0.00     0.007 A 
ATOM      4  C   UNL     1     -14.826  44.385  23.954  1.00  0.00     0.001 A 
ATOM      5  C   UNL     1     -14.068  45.364  24.599  1.00  0.00     0.004 A 
ATOM      6  C   UNL     1     -12.881  45.823  24.021  1.00  0.00     0.046 A 
ATOM      7  C   UNL     1     -12.445  45.302  22.793  1.00  0.00     0.118 A 
ENDROOT
BRANCH   7   8
ATOM      8  O   UNL     1     -11.259  45.762  22.220  1.00  0.00    -0.508 OA
ATOM      9  H   UNL     1     -11.245  46.567  21.606  1.00  0.00     0.293 HD
ENDBRANCH   7   8
TORSDOF 1
ENDMDL
MODEL 4
REMARK VINA RESULT:    -4.675      0.961      2.316
REMARK INTER + INTRA:          -4.812
REMARK INTER:                  -4.812
REMARK INTRA:                   0.000
REMARK UNBOUND:                 0.000
REMARK SMILES Cc1ccccc1O
REMARK SMILES IDX 1 1 2 2 3 3 4 4 5 5 6 6 7 7 8 8
REMARK H PARENT 8 9
REMARK Flexibility Score: inf
ROOT
ATOM      1  C   UNL     1     -13.079  45.983  24.158  1.00  0.00     0.048 C 
ATOM      2  C   UNL     1     -13.091  44.994  23.027  1.00  0.00    -0.009 A 
ATOM      3  C   UNL     1     -14.178  44.118  22.864  1.00  0.00     0.007 A 
ATOM      4  C   UNL     1     -14.188  43.197  21.811  1.00  0.00     0.001 A 
ATOM      5  C   UNL     1     -13.118  43.144  20.915  1.00  0.00     0.004 A 
ATOM      6  C   UNL     1     -12.034  44.011  21.070  1.00  0.00     0.046 A 
ATOM      7  C   UNL     1     -12.014  44.938  22.123  1.00  0.00     0.118 A 
ENDROOT
BRANCH   7   8
ATOM      8  O   UNL     1     -10.929  45.802  22.273  1.00  0.00    -0.508 OA
ATOM      9  H   UNL     1     -10.895  46.697  21.799  1.00  0.00     0.293 HD
ENDBRANCH   7   8
TORSDOF 1
ENDMDL
MODEL 5
REMARK VINA RESULT:    -4.522      1.725      2.428
REMARK INTER + INTRA:          -4.654
REMARK INTER:                  -4.654
REMARK INTRA:                   0.000
REMARK UNBOUND:                 0.000
REMARK SMILES Cc1ccccc1O
REMARK SMILES IDX 1 1 2 2 3 3 4 4 5 5 6 6 7 7 8 8
REMARK H PARENT 8 9
REMARK Flexibility Score: inf
ROOT
ATOM      1  C   UNL     1     -11.160  45.107  21.031  1.00  0.00     0.048 C 
ATOM      2  C   UNL     1     -12.366  44.709  21.834  1.00  0.00    -0.009 A 
ATOM      3  C   UNL     1     -12.709  45.420  22.996  1.00  0.00     0.007 A 
ATOM      4  C   UNL     1     -13.832  45.050  23.743  1.00  0.00     0.001 A 
ATOM      5  C   UNL     1     -14.619  43.970  23.337  1.00  0.00     0.004 A 
ATOM      6  C   UNL     1     -14.286  43.257  22.183  1.00  0.00     0.046 A 
ATOM      7  C   UNL     1     -13.162  43.621  21.427  1.00  0.00     0.118 A 
ENDROOT
BRANCH   7   8
ATOM      8  O   UNL     1     -12.833  42.907  20.274  1.00  0.00    -0.508 OA
ATOM      9  H   UNL     1     -12.353  43.346  19.497  1.00  0.00     0.293 HD
ENDBRANCH   7   8
TORSDOF 1
ENDMDL
MODEL 6
REMARK VINA RESULT:    -4.421      1.522      2.652
REMARK INTER + INTRA:          -4.551
REMARK INTER:                  -4.551
REMARK INTRA:                   0.000
REMARK UNBOUND:                 0.000
REMARK SMILES Cc1ccccc1O
REMARK SMILES IDX 1 1 2 2 3 3 4 4 5 5 6 6 7 7 8 8
REMARK H PARENT 8 9
REMARK Flexibility Score: inf
ROOT
ATOM      1  C   UNL     1     -12.904  45.973  24.154  1.00  0.00     0.048 C 
ATOM      2  C   UNL     1     -13.002  45.067  22.959  1.00  0.00    -0.009 A 
ATOM      3  C   UNL     1     -12.078  45.181  21.906  1.00  0.00     0.007 A 
ATOM      4  C   UNL     1     -12.169  44.338  20.794  1.00  0.00     0.001 A 
ATOM      5  C   UNL     1     -13.180  43.377  20.724  1.00  0.00     0.004 A 
ATOM      6  C   UNL     1     -14.103  43.256  21.766  1.00  0.00     0.046 A 
ATOM      7  C   UNL     1     -14.019  44.098  22.886  1.00  0.00     0.118 A 
ENDROOT
BRANCH   7   8
ATOM      8  O   UNL     1     -14.943  43.973  23.924  1.00  0.00    -0.508 OA
ATOM      9  H   UNL     1     -15.858  44.406  23.875  1.00  0.00     0.293 HD
ENDBRANCH   7   8
TORSDOF 1
ENDMDL
MODEL 7
REMARK VINA RESULT:    -4.397      1.916      3.563
REMARK INTER + INTRA:          -4.525
REMARK INTER:                  -4.525
REMARK INTRA:                   0.000
REMARK UNBOUND:                 0.000
REMARK SMILES Cc1ccccc1O
REMARK SMILES IDX 1 1 2 2 3 3 4 4 5 5 6 6 7 7 8 8
REMARK H PARENT 8 9
REMARK Flexibility Score: inf
ROOT
ATOM      1  C   UNL     1     -15.791  45.100  26.265  1.00  0.00     0.048 C 
ATOM      2  C   UNL     1     -14.838  45.093  25.104  1.00  0.00    -0.009 A 
ATOM      3  C   UNL     1     -15.029  44.199  24.036  1.00  0.00     0.007 A 
ATOM      4  C   UNL     1     -14.141  44.192  22.956  1.00  0.00     0.001 A 
ATOM      5  C   UNL     1     -13.060  45.075  22.931  1.00  0.00     0.004 A 
ATOM      6  C   UNL     1     -12.862  45.968  23.988  1.00  0.00     0.046 A 
ATOM      7  C   UNL     1     -13.747  45.982  25.076  1.00  0.00     0.118 A 
ENDROOT
BRANCH   7   8
ATOM      8  O   UNL     1     -13.546  46.875  26.129  1.00  0.00    -0.508 OA
ATOM      9  H   UNL     1     -13.354  46.552  27.070  1.00  0.00     0.293 HD
ENDBRANCH   7   8
TORSDOF 1
ENDMDL
MODEL 8
REMARK VINA RESULT:    -4.278      1.866      2.804
REMARK INTER + INTRA:          -4.403
REMARK INTER:                  -4.403
REMARK INTRA:                   0.000
REMARK UNBOUND:                 0.000
REMARK SMILES Cc1ccccc1O
REMARK SMILES IDX 1 1 2 2 3 3 4 4 5 5 6 6 7 7 8 8
REMARK H PARENT 8 9
REMARK Flexibility Score: inf
ROOT
ATOM      1  C   UNL     1     -12.139  44.885  21.749  1.00  0.00     0.048 C 
ATOM      2  C   UNL     1     -13.111  44.933  22.894  1.00  0.00    -0.009 A 
ATOM      3  C   UNL     1     -12.906  45.826  23.960  1.00  0.00     0.007 A 
ATOM      4  C   UNL     1     -13.810  45.869  25.026  1.00  0.00     0.001 A 
ATOM      5  C   UNL     1     -14.923  45.026  25.036  1.00  0.00     0.004 A 
ATOM      6  C   UNL     1     -15.135  44.135  23.981  1.00  0.00     0.046 A 
ATOM      7  C   UNL     1     -14.233  44.084  22.908  1.00  0.00     0.118 A 
ENDROOT
BRANCH   7   8
ATOM      8  O   UNL     1     -14.449  43.193  21.856  1.00  0.00    -0.508 OA
ATOM      9  H   UNL     1     -15.345  42.739  21.720  1.00  0.00     0.293 HD
ENDBRANCH   7   8
TORSDOF 1
ENDMDL
MODEL 9
REMARK VINA RESULT:    -4.109     21.664     22.920
REMARK INTER + INTRA:          -4.229
REMARK INTER:                  -4.229
REMARK INTRA:                   0.000
REMARK UNBOUND:                 0.000
REMARK SMILES Cc1ccccc1O
REMARK SMILES IDX 1 1 2 2 3 3 4 4 5 5 6 6 7 7 8 8
REMARK H PARENT 8 9
REMARK Flexibility Score: inf
ROOT
ATOM      1  C   UNL     1     -26.999  62.011  33.018  1.00  0.00     0.048 C 
ATOM      2  C   UNL     1     -26.252  61.636  31.770  1.00  0.00    -0.009 A 
ATOM      3  C   UNL     1     -25.487  62.596  31.086  1.00  0.00     0.007 A 
ATOM      4  C   UNL     1     -24.793  62.246  29.924  1.00  0.00     0.001 A 
ATOM      5  C   UNL     1     -24.856  60.939  29.436  1.00  0.00     0.004 A 
ATOM      6  C   UNL     1     -25.614  59.977  30.109  1.00  0.00     0.046 A 
ATOM      7  C   UNL     1     -26.314  60.319  31.276  1.00  0.00     0.118 A 
ENDROOT
BRANCH   7   8
ATOM      8  O   UNL     1     -27.069  59.355  31.945  1.00  0.00    -0.508 OA
ATOM      9  H   UNL     1     -26.844  59.068  32.890  1.00  0.00     0.293 HD
ENDBRANCH   7   8
TORSDOF 1
ENDMDL
