MODEL 1
REMARK VINA RESULT:    -4.474      0.000      0.000
REMARK INTER + INTRA:          -6.046
REMARK INTER:                  -5.782
REMARK INTRA:                  -0.264
REMARK UNBOUND:                -0.264
REMARK SMILES CCCCCCC(=O)[O-]
REMARK SMILES IDX 5 1 6 2 7 3 8 4 9 5 4 6 3 7 2 8 1 9
REMARK H PARENT
REMARK Flexibility Score: inf
ROOT
ATOM      1  C   UNL     1      64.839 149.069   5.411  1.00  0.00     0.006 C 
ENDROOT
BRANCH   1   2
ATOM      2  C   UNL     1      63.525 149.387   6.136  1.00  0.00     0.053 C 
BRANCH   2   3
ATOM      3  C   UNL     1      62.416 148.535   5.603  1.00  0.00     0.041 C 
ATOM      4  O   UNL     1      61.269 149.024   5.429  1.00  0.00    -0.550 OA
ATOM      5  O   UNL     1      62.637 147.189   5.343  1.00  0.00    -0.550 OA
ENDBRANCH   2   3
ENDBRANCH   1   2
BRANCH   1   6
ATOM      6  C   UNL     1      64.969 149.807   4.069  1.00  0.00     0.000 C 
BRANCH   6   7
ATOM      7  C   UNL     1      64.235 151.159   4.065  1.00  0.00    -0.000 C 
BRANCH   7   8
ATOM      8  C   UNL     1      65.186 152.347   4.277  1.00  0.00    -0.003 C 
ATOM      9  C   UNL     1      65.434 152.649   5.755  1.00  0.00     0.004 C 
ENDBRANCH   7   8
ENDBRANCH   6   7
ENDBRANCH   1   6
TORSDOF 5
ENDMDL
MODEL 2
REMARK VINA RESULT:    -4.420      1.578      2.421
REMARK INTER + INTRA:          -5.976
REMARK INTER:                  -5.702
REMARK INTRA:                  -0.274
REMARK UNBOUND:                -0.264
REMARK SMILES CCCCCCC(=O)[O-]
REMARK SMILES IDX 5 1 6 2 7 3 8 4 9 5 4 6 3 7 2 8 1 9
REMARK H PARENT
REMARK Flexibility Score: inf
ROOT
ATOM      1  C   UNL     1      65.008 150.007   4.161  1.00  0.00     0.006 C 
ENDROOT
BRANCH   1   2
ATOM      2  C   UNL     1      65.027 149.167   5.445  1.00  0.00     0.053 C 
BRANCH   2   3
ATOM      3  C   UNL     1      63.631 148.881   5.902  1.00  0.00     0.041 C 
ATOM      4  O   UNL     1      63.104 149.583   6.805  1.00  0.00    -0.550 OA
ATOM      5  O   UNL     1      62.930 147.808   5.367  1.00  0.00    -0.550 OA
ENDBRANCH   2   3
ENDBRANCH   1   2
BRANCH   1   6
ATOM      6  C   UNL     1      64.888 151.514   4.441  1.00  0.00     0.000 C 
BRANCH   6   7
ATOM      7  C   UNL     1      63.855 152.203   3.535  1.00  0.00    -0.000 C 
BRANCH   7   8
ATOM      8  C   UNL     1      62.491 151.496   3.553  1.00  0.00    -0.003 C 
ATOM      9  C   UNL     1      61.601 151.895   2.376  1.00  0.00     0.004 C 
ENDBRANCH   7   8
ENDBRANCH   6   7
ENDBRANCH   1   6
TORSDOF 5
ENDMDL
MODEL 3
REMARK VINA RESULT:    -4.363      1.062      1.711
REMARK INTER + INTRA:          -5.903
REMARK INTER:                  -5.651
REMARK INTRA:                  -0.252
REMARK UNBOUND:                -0.264
REMARK SMILES CCCCCCC(=O)[O-]
REMARK SMILES IDX 5 1 6 2 7 3 8 4 9 5 4 6 3 7 2 8 1 9
REMARK H PARENT
REMARK Flexibility Score: inf
ROOT
ATOM      1  C   UNL     1      64.223 148.834   5.823  1.00  0.00     0.006 C 
ENDROOT
BRANCH   1   2
ATOM      2  C   UNL     1      62.719 149.136   5.851  1.00  0.00     0.053 C 
BRANCH   2   3
ATOM      3  C   UNL     1      61.930 147.872   5.712  1.00  0.00     0.041 C 
ATOM      4  O   UNL     1      62.266 147.007   4.861  1.00  0.00    -0.550 OA
ATOM      5  O   UNL     1      60.797 147.670   6.489  1.00  0.00    -0.550 OA
ENDBRANCH   2   3
ENDBRANCH   1   2
BRANCH   1   6
ATOM      6  C   UNL     1      64.996 149.760   4.870  1.00  0.00     0.000 C 
BRANCH   6   7
ATOM      7  C   UNL     1      64.953 151.232   5.312  1.00  0.00    -0.000 C 
BRANCH   7   8
ATOM      8  C   UNL     1      64.601 152.184   4.158  1.00  0.00    -0.003 C 
ATOM      9  C   UNL     1      63.388 151.715   3.354  1.00  0.00     0.004 C 
ENDBRANCH   7   8
ENDBRANCH   6   7
ENDBRANCH   1   6
TORSDOF 5
ENDMDL
MODEL 4
REMARK VINA RESULT:    -4.359      1.143      1.900
REMARK INTER + INTRA:          -5.897
REMARK INTER:                  -5.528
REMARK INTRA:                  -0.369
REMARK UNBOUND:                -0.264
REMARK SMILES CCCCCCC(=O)[O-]
REMARK SMILES IDX 5 1 6 2 7 3 8 4 9 5 4 6 3 7 2 8 1 9
REMARK H PARENT
REMARK Flexibility Score: inf
ROOT
ATOM      1  C   UNL     1      64.058 148.805   5.665  1.00  0.00     0.006 C 
ENDROOT
BRANCH   1   2
ATOM      2  C   UNL     1      63.083 149.634   6.511  1.00  0.00     0.053 C 
BRANCH   2   3
ATOM      3  C   UNL     1      61.722 149.634   5.888  1.00  0.00     0.041 C 
ATOM      4  O   UNL     1      61.206 148.555   5.494  1.00  0.00    -0.550 OA
ATOM      5  O   UNL     1      61.044 150.831   5.698  1.00  0.00    -0.550 OA
ENDBRANCH   2   3
ENDBRANCH   1   2
BRANCH   1   6
ATOM      6  C   UNL     1      65.051 149.677   4.880  1.00  0.00     0.000 C 
BRANCH   6   7
ATOM      7  C   UNL     1      65.060 151.139   5.358  1.00  0.00    -0.000 C 
BRANCH   7   8
ATOM      8  C   UNL     1      64.739 152.130   4.228  1.00  0.00    -0.003 C 
ATOM      9  C   UNL     1      63.546 151.693   3.378  1.00  0.00     0.004 C 
ENDBRANCH   7   8
ENDBRANCH   6   7
ENDBRANCH   1   6
TORSDOF 5
ENDMDL
MODEL 5
REMARK VINA RESULT:    -4.341      4.029      5.176
REMARK INTER + INTRA:          -5.874
REMARK INTER:                  -5.758
REMARK INTRA:                  -0.116
REMARK UNBOUND:                -0.264
REMARK SMILES CCCCCCC(=O)[O-]
REMARK SMILES IDX 5 1 6 2 7 3 8 4 9 5 4 6 3 7 2 8 1 9
REMARK H PARENT
REMARK Flexibility Score: inf
ROOT
ATOM      1  C   UNL     1      62.010 151.914   2.393  1.00  0.00     0.006 C 
ENDROOT
BRANCH   1   2
ATOM      2  C   UNL     1      60.512 152.227   2.513  1.00  0.00     0.053 C 
BRANCH   2   3
ATOM      3  C   UNL     1      60.144 153.368   1.618  1.00  0.00     0.041 C 
ATOM      4  O   UNL     1      60.937 153.747   0.716  1.00  0.00    -0.550 OA
ATOM      5  O   UNL     1      58.948 154.046   1.811  1.00  0.00    -0.550 OA
ENDBRANCH   2   3
ENDBRANCH   1   2
BRANCH   1   6
ATOM      6  C   UNL     1      62.646 151.534   3.739  1.00  0.00     0.000 C 
BRANCH   6   7
ATOM      7  C   UNL     1      64.142 151.886   3.807  1.00  0.00    -0.000 C 
BRANCH   7   8
ATOM      8  C   UNL     1      64.923 150.960   4.752  1.00  0.00    -0.003 C 
ATOM      9  C   UNL     1      65.074 149.542   4.201  1.00  0.00     0.004 C 
ENDBRANCH   7   8
ENDBRANCH   6   7
ENDBRANCH   1   6
TORSDOF 5
ENDMDL
MODEL 6
REMARK VINA RESULT:    -4.224      3.154      4.085
REMARK INTER + INTRA:          -5.724
REMARK INTER:                  -5.596
REMARK INTRA:                  -0.127
REMARK UNBOUND:                -0.264
REMARK SMILES CCCCCCC(=O)[O-]
REMARK SMILES IDX 5 1 6 2 7 3 8 4 9 5 4 6 3 7 2 8 1 9
REMARK H PARENT
REMARK Flexibility Score: inf
ROOT
ATOM      1  C   UNL     1      63.724 151.593   3.424  1.00  0.00     0.006 C 
ENDROOT
BRANCH   1   2
ATOM      2  C   UNL     1      64.435 151.157   4.712  1.00  0.00     0.053 C 
BRANCH   2   3
ATOM      3  C   UNL     1      64.554 149.666   4.762  1.00  0.00     0.041 C 
ATOM      4  O   UNL     1      65.275 149.060   3.926  1.00  0.00    -0.550 OA
ATOM      5  O   UNL     1      63.831 148.941   5.700  1.00  0.00    -0.550 OA
ENDBRANCH   2   3
ENDBRANCH   1   2
BRANCH   1   6
ATOM      6  C   UNL     1      62.193 151.512   3.535  1.00  0.00     0.000 C 
BRANCH   6   7
ATOM      7  C   UNL     1      61.485 151.899   2.226  1.00  0.00    -0.000 C 
BRANCH   7   8
ATOM      8  C   UNL     1      60.225 152.745   2.467  1.00  0.00    -0.003 C 
ATOM      9  C   UNL     1      59.823 153.570   1.244  1.00  0.00     0.004 C 
ENDBRANCH   7   8
ENDBRANCH   6   7
ENDBRANCH   1   6
TORSDOF 5
ENDMDL
MODEL 7
REMARK VINA RESULT:    -4.209      4.235      5.184
REMARK INTER + INTRA:          -5.704
REMARK INTER:                  -5.563
REMARK INTRA:                  -0.141
REMARK UNBOUND:                -0.264
REMARK SMILES CCCCCCC(=O)[O-]
REMARK SMILES IDX 5 1 6 2 7 3 8 4 9 5 4 6 3 7 2 8 1 9
REMARK H PARENT
REMARK Flexibility Score: inf
ROOT
ATOM      1  C   UNL     1      61.933 151.648   3.389  1.00  0.00     0.006 C 
ENDROOT
BRANCH   1   2
ATOM      2  C   UNL     1      63.467 151.624   3.399  1.00  0.00     0.053 C 
BRANCH   2   3
ATOM      3  C   UNL     1      63.987 152.107   4.717  1.00  0.00     0.041 C 
ATOM      4  O   UNL     1      63.195 152.310   5.674  1.00  0.00    -0.550 OA
ATOM      5  O   UNL     1      65.339 152.380   4.873  1.00  0.00    -0.550 OA
ENDBRANCH   2   3
ENDBRANCH   1   2
BRANCH   1   6
ATOM      6  C   UNL     1      61.358 152.167   2.061  1.00  0.00     0.000 C 
BRANCH   6   7
ATOM      7  C   UNL     1      60.061 152.972   2.254  1.00  0.00    -0.000 C 
BRANCH   7   8
ATOM      8  C   UNL     1      59.661 153.754   0.993  1.00  0.00    -0.003 C 
ATOM      9  C   UNL     1      60.848 154.046   0.076  1.00  0.00     0.004 C 
ENDBRANCH   7   8
ENDBRANCH   6   7
ENDBRANCH   1   6
TORSDOF 5
ENDMDL
MODEL 8
REMARK VINA RESULT:    -4.139      2.023      3.684
REMARK INTER + INTRA:          -5.613
REMARK INTER:                  -5.271
REMARK INTRA:                  -0.343
REMARK UNBOUND:                -0.264
REMARK SMILES CCCCCCC(=O)[O-]
REMARK SMILES IDX 5 1 6 2 7 3 8 4 9 5 4 6 3 7 2 8 1 9
REMARK H PARENT
REMARK Flexibility Score: inf
ROOT
ATOM      1  C   UNL     1      64.306 151.405   4.131  1.00  0.00     0.006 C 
ENDROOT
BRANCH   1   2
ATOM      2  C   UNL     1      63.133 151.583   3.159  1.00  0.00     0.053 C 
BRANCH   2   3
ATOM      3  C   UNL     1      61.859 151.801   3.913  1.00  0.00     0.041 C 
ATOM      4  O   UNL     1      61.846 151.723   5.170  1.00  0.00    -0.550 OA
ATOM      5  O   UNL     1      60.676 152.041   3.227  1.00  0.00    -0.550 OA
ENDBRANCH   2   3
ENDBRANCH   1   2
BRANCH   1   6
ATOM      6  C   UNL     1      65.000 150.042   3.980  1.00  0.00     0.000 C 
BRANCH   6   7
ATOM      7  C   UNL     1      65.164 149.310   5.323  1.00  0.00    -0.000 C 
BRANCH   7   8
ATOM      8  C   UNL     1      63.840 149.192   6.094  1.00  0.00    -0.003 C 
ATOM      9  C   UNL     1      62.877 148.184   5.466  1.00  0.00     0.004 C 
ENDBRANCH   7   8
ENDBRANCH   6   7
ENDBRANCH   1   6
TORSDOF 5
ENDMDL
MODEL 9
REMARK VINA RESULT:    -4.055      1.331      2.391
REMARK INTER + INTRA:          -5.504
REMARK INTER:                  -5.204
REMARK INTRA:                  -0.300
REMARK UNBOUND:                -0.264
REMARK SMILES CCCCCCC(=O)[O-]
REMARK SMILES IDX 5 1 6 2 7 3 8 4 9 5 4 6 3 7 2 8 1 9
REMARK H PARENT
REMARK Flexibility Score: inf
ROOT
ATOM      1  C   UNL     1      62.589 150.256   6.449  1.00  0.00     0.006 C 
ENDROOT
BRANCH   1   2
ATOM      2  C   UNL     1      61.560 149.511   5.589  1.00  0.00     0.053 C 
BRANCH   2   3
ATOM      3  C   UNL     1      61.613 148.042   5.869  1.00  0.00     0.041 C 
ATOM      4  O   UNL     1      62.404 147.303   5.226  1.00  0.00    -0.550 OA
ATOM      5  O   UNL     1      60.754 147.481   6.805  1.00  0.00    -0.550 OA
ENDBRANCH   2   3
ENDBRANCH   1   2
BRANCH   1   6
ATOM      6  C   UNL     1      63.180 151.483   5.735  1.00  0.00     0.000 C 
BRANCH   6   7
ATOM      7  C   UNL     1      64.661 151.294   5.366  1.00  0.00    -0.000 C 
BRANCH   7   8
ATOM      8  C   UNL     1      64.845 150.673   3.973  1.00  0.00    -0.003 C 
ATOM      9  C   UNL     1      65.204 149.188   4.030  1.00  0.00     0.004 C 
ENDBRANCH   7   8
ENDBRANCH   6   7
ENDBRANCH   1   6
TORSDOF 5
ENDMDL
