MODEL 1
REMARK VINA RESULT:    -3.782      0.000      0.000
REMARK INTER + INTRA:          -4.773
REMARK INTER:                  -4.556
REMARK INTRA:                  -0.216
REMARK UNBOUND:                -0.216
REMARK SMILES OCC(O)CO
REMARK SMILES IDX 3 1 5 2 6 3 2 5 1 6 4 8
REMARK H PARENT 6 4 1 7 4 9
REMARK Flexibility Score: inf
ROOT
ATOM      1  C   UNL     1      99.967 101.182  93.984  1.00  0.00     0.165 C 
ENDROOT
BRANCH   1   2
ATOM      2  C   UNL     1     100.326 101.143  95.476  1.00  0.00     0.190 C 
BRANCH   2   3
ATOM      3  O   UNL     1     101.502 100.407  95.678  1.00  0.00    -0.394 OA
ATOM      4  H   UNL     1     101.246  99.625  96.232  1.00  0.00     0.210 HD
ENDBRANCH   2   3
ENDBRANCH   1   2
BRANCH   1   5
ATOM      5  C   UNL     1     100.635 100.029  93.222  1.00  0.00     0.190 C 
BRANCH   5   6
ATOM      6  O   UNL     1     101.951 100.369  92.875  1.00  0.00    -0.394 OA
ATOM      7  H   UNL     1     102.177  99.839  92.066  1.00  0.00     0.210 HD
ENDBRANCH   5   6
ENDBRANCH   1   5
BRANCH   1   8
ATOM      8  O   UNL     1     100.368 102.406  93.424  1.00  0.00    -0.388 OA
ATOM      9  H   UNL     1     100.130 103.113  94.079  1.00  0.00     0.211 HD
ENDBRANCH   1   8
TORSDOF 5
ENDMDL
MODEL 2
REMARK VINA RESULT:    -3.482      0.655      2.583
REMARK INTER + INTRA:          -4.410
REMARK INTER:                  -4.208
REMARK INTRA:                  -0.203
REMARK UNBOUND:                -0.216
REMARK SMILES OCC(O)CO
REMARK SMILES IDX 3 1 5 2 6 3 2 5 1 6 4 8
REMARK H PARENT 6 4 1 7 4 9
REMARK Flexibility Score: inf
ROOT
ATOM      1  C   UNL     1     100.369 100.752  94.738  1.00  0.00     0.165 C 
ENDROOT
BRANCH   1   2
ATOM      2  C   UNL     1     100.634 100.136  93.358  1.00  0.00     0.190 C 
BRANCH   2   3
ATOM      3  O   UNL     1     101.896 100.519  92.885  1.00  0.00    -0.394 OA
ATOM      4  H   UNL     1     101.783 101.428  92.502  1.00  0.00     0.210 HD
ENDBRANCH   2   3
ENDBRANCH   1   2
BRANCH   1   5
ATOM      5  C   UNL     1     100.207 102.275  94.645  1.00  0.00     0.190 C 
BRANCH   5   6
ATOM      6  O   UNL     1     100.223 102.689  93.305  1.00  0.00    -0.394 OA
ATOM      7  H   UNL     1      99.293 102.595  92.968  1.00  0.00     0.210 HD
ENDBRANCH   5   6
ENDBRANCH   1   5
BRANCH   1   8
ATOM      8  O   UNL     1     101.424 100.447  95.614  1.00  0.00    -0.388 OA
ATOM      9  H   UNL     1     101.124 100.701  96.525  1.00  0.00     0.211 HD
ENDBRANCH   1   8
TORSDOF 5
ENDMDL
MODEL 3
REMARK VINA RESULT:    -3.295     13.218     13.989
REMARK INTER + INTRA:          -4.185
REMARK INTER:                  -3.964
REMARK INTRA:                  -0.222
REMARK UNBOUND:                -0.216
REMARK SMILES OCC(O)CO
REMARK SMILES IDX 3 1 5 2 6 3 2 5 1 6 4 8
REMARK H PARENT 6 4 1 7 4 9
REMARK Flexibility Score: inf
ROOT
ATOM      1  C   UNL     1     100.216 115.179  94.066  1.00  0.00     0.165 C 
ENDROOT
BRANCH   1   2
ATOM      2  C   UNL     1      99.963 115.416  95.561  1.00  0.00     0.190 C 
BRANCH   2   3
ATOM      3  O   UNL     1     101.175 115.449  96.264  1.00  0.00    -0.394 OA
ATOM      4  H   UNL     1     101.247 116.362  96.647  1.00  0.00     0.210 HD
ENDBRANCH   2   3
ENDBRANCH   1   2
BRANCH   1   5
ATOM      5  C   UNL     1     100.598 113.719  93.791  1.00  0.00     0.190 C 
BRANCH   5   6
ATOM      6  O   UNL     1     101.936 113.487  94.142  1.00  0.00    -0.394 OA
ATOM      7  H   UNL     1     101.992 113.586  95.129  1.00  0.00     0.210 HD
ENDBRANCH   5   6
ENDBRANCH   1   5
BRANCH   1   8
ATOM      8  O   UNL     1     101.244 116.023  93.611  1.00  0.00    -0.388 OA
ATOM      9  H   UNL     1     101.982 115.436  93.304  1.00  0.00     0.211 HD
ENDBRANCH   1   8
TORSDOF 5
ENDMDL
MODEL 4
REMARK VINA RESULT:    -3.275     14.780     15.015
REMARK INTER + INTRA:          -4.161
REMARK INTER:                  -3.986
REMARK INTRA:                  -0.175
REMARK UNBOUND:                -0.216
REMARK SMILES OCC(O)CO
REMARK SMILES IDX 3 1 5 2 6 3 2 5 1 6 4 8
REMARK H PARENT 6 4 1 7 4 9
REMARK Flexibility Score: inf
ROOT
ATOM      1  C   UNL     1     112.141 111.169  94.449  1.00  0.00     0.165 C 
ENDROOT
BRANCH   1   2
ATOM      2  C   UNL     1     111.528 111.899  95.653  1.00  0.00     0.190 C 
BRANCH   2   3
ATOM      3  O   UNL     1     110.131 111.925  95.548  1.00  0.00    -0.394 OA
ATOM      4  H   UNL     1     109.891 111.233  94.878  1.00  0.00     0.210 HD
ENDBRANCH   2   3
ENDBRANCH   1   2
BRANCH   1   5
ATOM      5  C   UNL     1     111.848 111.914  93.140  1.00  0.00     0.190 C 
BRANCH   5   6
ATOM      6  O   UNL     1     110.470 111.915  92.875  1.00  0.00    -0.394 OA
ATOM      7  H   UNL     1     110.069 111.216  93.455  1.00  0.00     0.210 HD
ENDBRANCH   5   6
ENDBRANCH   1   5
BRANCH   1   8
ATOM      8  O   UNL     1     111.633 109.862  94.367  1.00  0.00    -0.388 OA
ATOM      9  H   UNL     1     111.851 109.527  93.458  1.00  0.00     0.211 HD
ENDBRANCH   1   8
TORSDOF 5
ENDMDL
MODEL 5
REMARK VINA RESULT:    -3.270      0.893      2.613
REMARK INTER + INTRA:          -4.155
REMARK INTER:                  -3.960
REMARK INTRA:                  -0.195
REMARK UNBOUND:                -0.216
REMARK SMILES OCC(O)CO
REMARK SMILES IDX 3 1 5 2 6 3 2 5 1 6 4 8
REMARK H PARENT 6 4 1 7 4 9
REMARK Flexibility Score: inf
ROOT
ATOM      1  C   UNL     1     100.164 100.482  93.680  1.00  0.00     0.165 C 
ENDROOT
BRANCH   1   2
ATOM      2  C   UNL     1     100.446 101.758  92.875  1.00  0.00     0.190 C 
BRANCH   2   3
ATOM      3  O   UNL     1     100.366 102.886  93.703  1.00  0.00    -0.394 OA
ATOM      4  H   UNL     1      99.473 103.287  93.537  1.00  0.00     0.210 HD
ENDBRANCH   2   3
ENDBRANCH   1   2
BRANCH   1   5
ATOM      5  C   UNL     1     100.179 100.762  95.189  1.00  0.00     0.190 C 
BRANCH   5   6
ATOM      6  O   UNL     1     101.494 100.753  95.676  1.00  0.00    -0.394 OA
ATOM      7  H   UNL     1     101.848 101.672  95.554  1.00  0.00     0.210 HD
ENDBRANCH   5   6
ENDBRANCH   1   5
BRANCH   1   8
ATOM      8  O   UNL     1     101.123  99.500  93.378  1.00  0.00    -0.388 OA
ATOM      9  H   UNL     1     101.592  99.801  92.557  1.00  0.00     0.211 HD
ENDBRANCH   1   8
TORSDOF 5
ENDMDL
MODEL 6
REMARK VINA RESULT:    -3.171     12.848     13.760
REMARK INTER + INTRA:          -4.036
REMARK INTER:                  -3.821
REMARK INTRA:                  -0.215
REMARK UNBOUND:                -0.216
REMARK SMILES OCC(O)CO
REMARK SMILES IDX 3 1 5 2 6 3 2 5 1 6 4 8
REMARK H PARENT 6 4 1 7 4 9
REMARK Flexibility Score: inf
ROOT
ATOM      1  C   UNL     1      99.968 114.372  94.515  1.00  0.00     0.165 C 
ENDROOT
BRANCH   1   2
ATOM      2  C   UNL     1     100.874 113.534  93.603  1.00  0.00     0.190 C 
BRANCH   2   3
ATOM      3  O   UNL     1     102.069 113.213  94.261  1.00  0.00    -0.394 OA
ATOM      4  H   UNL     1     102.022 112.242  94.460  1.00  0.00     0.210 HD
ENDBRANCH   2   3
ENDBRANCH   1   2
BRANCH   1   5
ATOM      5  C   UNL     1     100.333 115.861  94.446  1.00  0.00     0.190 C 
BRANCH   5   6
ATOM      6  O   UNL     1     101.357 116.071  93.511  1.00  0.00    -0.394 OA
ATOM      7  H   UNL     1     101.962 115.286  93.572  1.00  0.00     0.210 HD
ENDBRANCH   5   6
ENDBRANCH   1   5
BRANCH   1   8
ATOM      8  O   UNL     1     100.076 113.926  95.843  1.00  0.00    -0.388 OA
ATOM      9  H   UNL     1     100.225 114.731  96.404  1.00  0.00     0.211 HD
ENDBRANCH   1   8
TORSDOF 5
ENDMDL
MODEL 7
REMARK VINA RESULT:    -3.144     13.656     14.424
REMARK INTER + INTRA:          -4.004
REMARK INTER:                  -3.973
REMARK INTRA:                  -0.031
REMARK UNBOUND:                -0.216
REMARK SMILES OCC(O)CO
REMARK SMILES IDX 3 1 5 2 6 3 2 5 1 6 4 8
REMARK H PARENT 6 4 1 7 4 9
REMARK Flexibility Score: inf
ROOT
ATOM      1  C   UNL     1      99.524 114.946  96.746  1.00  0.00     0.165 C 
ENDROOT
BRANCH   1   2
ATOM      2  C   UNL     1      99.773 114.726  95.248  1.00  0.00     0.190 C 
BRANCH   2   3
ATOM      3  O   UNL     1     101.091 114.303  95.028  1.00  0.00    -0.394 OA
ATOM      4  H   UNL     1     101.560 114.399  95.897  1.00  0.00     0.210 HD
ENDBRANCH   2   3
ENDBRANCH   1   2
BRANCH   1   5
ATOM      5  C   UNL     1     100.530 115.943  97.337  1.00  0.00     0.190 C 
BRANCH   5   6
ATOM      6  O   UNL     1     101.166 115.391  98.459  1.00  0.00    -0.394 OA
ATOM      7  H   UNL     1     100.464 114.918  98.979  1.00  0.00     0.210 HD
ENDBRANCH   5   6
ENDBRANCH   1   5
BRANCH   1   8
ATOM      8  O   UNL     1      99.618 113.725  97.435  1.00  0.00    -0.388 OA
ATOM      9  H   UNL     1     100.404 113.795  98.037  1.00  0.00     0.211 HD
ENDBRANCH   1   8
TORSDOF 5
ENDMDL
MODEL 8
REMARK VINA RESULT:    -3.118     11.376     11.827
REMARK INTER + INTRA:          -3.972
REMARK INTER:                  -3.748
REMARK INTRA:                  -0.224
REMARK UNBOUND:                -0.216
REMARK SMILES OCC(O)CO
REMARK SMILES IDX 3 1 5 2 6 3 2 5 1 6 4 8
REMARK H PARENT 6 4 1 7 4 9
REMARK Flexibility Score: inf
ROOT
ATOM      1  C   UNL     1     112.689 100.368  96.190  1.00  0.00     0.165 C 
ENDROOT
BRANCH   1   2
ATOM      2  C   UNL     1     113.009 100.309  97.690  1.00  0.00     0.190 C 
BRANCH   2   3
ATOM      3  O   UNL     1     112.056  99.533  98.363  1.00  0.00    -0.394 OA
ATOM      4  H   UNL     1     111.386  99.266  97.681  1.00  0.00     0.210 HD
ENDBRANCH   2   3
ENDBRANCH   1   2
BRANCH   1   5
ATOM      5  C   UNL     1     111.790 101.567  95.860  1.00  0.00     0.190 C 
BRANCH   5   6
ATOM      6  O   UNL     1     110.956 101.868  96.947  1.00  0.00    -0.394 OA
ATOM      7  H   UNL     1     110.322 102.565  96.633  1.00  0.00     0.210 HD
ENDBRANCH   5   6
ENDBRANCH   1   5
BRANCH   1   8
ATOM      8  O   UNL     1     112.052  99.183  95.785  1.00  0.00    -0.388 OA
ATOM      9  H   UNL     1     111.119  99.231  96.119  1.00  0.00     0.211 HD
ENDBRANCH   1   8
TORSDOF 5
ENDMDL
MODEL 9
REMARK VINA RESULT:    -3.103     13.673     14.508
REMARK INTER + INTRA:          -3.954
REMARK INTER:                  -3.731
REMARK INTRA:                  -0.223
REMARK UNBOUND:                -0.216
REMARK SMILES OCC(O)CO
REMARK SMILES IDX 3 1 5 2 6 3 2 5 1 6 4 8
REMARK H PARENT 6 4 1 7 4 9
REMARK Flexibility Score: inf
ROOT
ATOM      1  C   UNL     1     100.003 115.202  96.003  1.00  0.00     0.165 C 
ENDROOT
BRANCH   1   2
ATOM      2  C   UNL     1     100.603 116.125  97.074  1.00  0.00     0.190 C 
BRANCH   2   3
ATOM      3  O   UNL     1     100.906 115.398  98.232  1.00  0.00    -0.394 OA
ATOM      4  H   UNL     1     100.417 114.537  98.153  1.00  0.00     0.210 HD
ENDBRANCH   2   3
ENDBRANCH   1   2
BRANCH   1   5
ATOM      5  C   UNL     1      99.160 114.089  96.639  1.00  0.00     0.190 C 
BRANCH   5   6
ATOM      6  O   UNL     1      98.147 114.637  97.440  1.00  0.00    -0.394 OA
ATOM      7  H   UNL     1      97.324 114.655  96.885  1.00  0.00     0.210 HD
ENDBRANCH   5   6
ENDBRANCH   1   5
BRANCH   1   8
ATOM      8  O   UNL     1     101.027 114.629  95.231  1.00  0.00    -0.388 OA
ATOM      9  H   UNL     1     101.607 114.122  95.857  1.00  0.00     0.211 HD
ENDBRANCH   1   8
TORSDOF 5
ENDMDL
