MODEL 1
REMARK VINA RESULT:    -4.610      0.000      0.000
REMARK INTER + INTRA:          -5.951
REMARK INTER:                  -5.687
REMARK INTRA:                  -0.264
REMARK UNBOUND:                -0.264
REMARK SMILES CCCCC=CC(C)=O
REMARK SMILES IDX 4 1 3 2 2 3 1 4 5 5 6 6 7 7 9 8 8 9
REMARK H PARENT
REMARK Flexibility Score: inf
ROOT
ATOM      1  C   UNL     1       2.267  14.253  -8.159  1.00  0.00     0.027 C 
ENDROOT
BRANCH   1   2
ATOM      2  C   UNL     1       3.462  14.239  -9.125  1.00  0.00     0.004 C 
BRANCH   2   3
ATOM      3  C   UNL     1       4.270  12.935  -9.042  1.00  0.00    -0.003 C 
ATOM      4  C   UNL     1       5.743  13.170  -8.706  1.00  0.00     0.004 C 
ENDBRANCH   2   3
ENDBRANCH   1   2
BRANCH   1   5
ATOM      5  C   UNL     1       2.561  15.085  -6.944  1.00  0.00    -0.023 C 
ATOM      6  C   UNL     1       3.558  15.976  -6.932  1.00  0.00     0.042 C 
BRANCH   6   7
ATOM      7  C   UNL     1       3.873  16.793  -5.745  1.00  0.00     0.152 C 
ATOM      8  O   UNL     1       4.263  16.251  -4.675  1.00  0.00    -0.295 OA
ATOM      9  C   UNL     1       3.725  18.279  -5.809  1.00  0.00     0.093 C 
ENDBRANCH   6   7
ENDBRANCH   1   5
TORSDOF 4
ENDMDL
MODEL 2
REMARK VINA RESULT:    -4.392      0.943      1.274
REMARK INTER + INTRA:          -5.683
REMARK INTER:                  -5.411
REMARK INTRA:                  -0.273
REMARK UNBOUND:                -0.264
REMARK SMILES CCCCC=CC(C)=O
REMARK SMILES IDX 4 1 3 2 2 3 1 4 5 5 6 6 7 7 9 8 8 9
REMARK H PARENT
REMARK Flexibility Score: inf
ROOT
ATOM      1  C   UNL     1       3.157  14.008  -8.856  1.00  0.00     0.027 C 
ENDROOT
BRANCH   1   2
ATOM      2  C   UNL     1       4.630  13.598  -9.014  1.00  0.00     0.004 C 
BRANCH   2   3
ATOM      3  C   UNL     1       4.854  12.101  -8.750  1.00  0.00    -0.003 C 
ATOM      4  C   UNL     1       3.641  11.422  -8.114  1.00  0.00     0.004 C 
ENDBRANCH   2   3
ENDBRANCH   1   2
BRANCH   1   5
ATOM      5  C   UNL     1       2.991  15.016  -7.755  1.00  0.00    -0.023 C 
ATOM      6  C   UNL     1       3.981  15.284  -6.897  1.00  0.00     0.042 C 
BRANCH   6   7
ATOM      7  C   UNL     1       3.834  16.259  -5.801  1.00  0.00     0.152 C 
ATOM      8  O   UNL     1       4.099  15.936  -4.611  1.00  0.00    -0.295 OA
ATOM      9  C   UNL     1       3.362  17.645  -6.101  1.00  0.00     0.093 C 
ENDBRANCH   6   7
ENDBRANCH   1   5
TORSDOF 4
ENDMDL
MODEL 3
REMARK VINA RESULT:    -3.898      2.377      4.612
REMARK INTER + INTRA:          -5.074
REMARK INTER:                  -4.895
REMARK INTRA:                  -0.179
REMARK UNBOUND:                -0.264
REMARK SMILES CCCCC=CC(C)=O
REMARK SMILES IDX 4 1 3 2 2 3 1 4 5 5 6 6 7 7 9 8 8 9
REMARK H PARENT
REMARK Flexibility Score: inf
ROOT
ATOM      1  C   UNL     1       1.868  14.494  -6.826  1.00  0.00     0.027 C 
ENDROOT
BRANCH   1   2
ATOM      2  C   UNL     1       2.593  15.375  -5.796  1.00  0.00     0.004 C 
BRANCH   2   3
ATOM      3  C   UNL     1       3.583  16.351  -6.450  1.00  0.00    -0.003 C 
ATOM      4  C   UNL     1       3.505  17.759  -5.860  1.00  0.00     0.004 C 
ENDBRANCH   2   3
ENDBRANCH   1   2
BRANCH   1   5
ATOM      5  C   UNL     1       2.833  13.926  -7.827  1.00  0.00    -0.023 C 
ATOM      6  C   UNL     1       3.671  12.935  -7.505  1.00  0.00     0.042 C 
BRANCH   6   7
ATOM      7  C   UNL     1       4.636  12.372  -8.468  1.00  0.00     0.152 C 
ATOM      8  O   UNL     1       4.421  11.259  -9.021  1.00  0.00    -0.295 OA
ATOM      9  C   UNL     1       5.885  13.127  -8.791  1.00  0.00     0.093 C 
ENDBRANCH   6   7
ENDBRANCH   1   5
TORSDOF 4
ENDMDL
MODEL 4
REMARK VINA RESULT:    -3.681      2.551      4.913
REMARK INTER + INTRA:          -4.805
REMARK INTER:                  -4.534
REMARK INTRA:                  -0.271
REMARK UNBOUND:                -0.264
REMARK SMILES CCCCC=CC(C)=O
REMARK SMILES IDX 4 1 3 2 2 3 1 4 5 5 6 6 7 7 9 8 8 9
REMARK H PARENT
REMARK Flexibility Score: inf
ROOT
ATOM      1  C   UNL     1       2.606  15.067  -7.843  1.00  0.00     0.027 C 
ENDROOT
BRANCH   1   2
ATOM      2  C   UNL     1       3.813  15.865  -7.324  1.00  0.00     0.004 C 
BRANCH   2   3
ATOM      3  C   UNL     1       3.643  16.304  -5.862  1.00  0.00    -0.003 C 
ATOM      4  C   UNL     1       3.004  15.224  -4.989  1.00  0.00     0.004 C 
ENDBRANCH   2   3
ENDBRANCH   1   2
BRANCH   1   5
ATOM      5  C   UNL     1       3.046  13.816  -8.547  1.00  0.00    -0.023 C 
ATOM      6  C   UNL     1       3.548  12.775  -7.875  1.00  0.00     0.042 C 
BRANCH   6   7
ATOM      7  C   UNL     1       3.998  11.543  -8.548  1.00  0.00     0.152 C 
ATOM      8  O   UNL     1       5.226  11.274  -8.647  1.00  0.00    -0.295 OA
ATOM      9  C   UNL     1       2.989  10.603  -9.125  1.00  0.00     0.093 C 
ENDBRANCH   6   7
ENDBRANCH   1   5
TORSDOF 4
ENDMDL
MODEL 5
REMARK VINA RESULT:    -3.513      2.882      4.677
REMARK INTER + INTRA:          -4.598
REMARK INTER:                  -4.521
REMARK INTRA:                  -0.077
REMARK UNBOUND:                -0.264
REMARK SMILES CCCCC=CC(C)=O
REMARK SMILES IDX 4 1 3 2 2 3 1 4 5 5 6 6 7 7 9 8 8 9
REMARK H PARENT
REMARK Flexibility Score: inf
ROOT
ATOM      1  C   UNL     1       3.094  14.343  -5.670  1.00  0.00     0.027 C 
ENDROOT
BRANCH   1   2
ATOM      2  C   UNL     1       2.820  15.609  -6.497  1.00  0.00     0.004 C 
BRANCH   2   3
ATOM      3  C   UNL     1       4.056  16.080  -7.278  1.00  0.00    -0.003 C 
ATOM      4  C   UNL     1       4.037  15.638  -8.741  1.00  0.00     0.004 C 
ENDBRANCH   2   3
ENDBRANCH   1   2
BRANCH   1   5
ATOM      5  C   UNL     1       3.660  13.248  -6.528  1.00  0.00    -0.023 C 
ATOM      6  C   UNL     1       2.880  12.512  -7.327  1.00  0.00     0.042 C 
BRANCH   6   7
ATOM      7  C   UNL     1       3.413  11.423  -8.167  1.00  0.00     0.152 C 
ATOM      8  O   UNL     1       2.676  10.465  -8.526  1.00  0.00    -0.295 OA
ATOM      9  C   UNL     1       4.845  11.452  -8.595  1.00  0.00     0.093 C 
ENDBRANCH   6   7
ENDBRANCH   1   5
TORSDOF 4
ENDMDL
MODEL 6
REMARK VINA RESULT:    -3.211      2.281      5.139
REMARK INTER + INTRA:          -4.226
REMARK INTER:                  -4.146
REMARK INTRA:                  -0.081
REMARK UNBOUND:                -0.264
REMARK SMILES CCCCC=CC(C)=O
REMARK SMILES IDX 4 1 3 2 2 3 1 4 5 5 6 6 7 7 9 8 8 9
REMARK H PARENT
REMARK Flexibility Score: inf
ROOT
ATOM      1  C   UNL     1       3.349  15.341  -6.602  1.00  0.00     0.027 C 
ENDROOT
BRANCH   1   2
ATOM      2  C   UNL     1       3.749  16.810  -6.815  1.00  0.00     0.004 C 
BRANCH   2   3
ATOM      3  C   UNL     1       3.145  17.743  -5.754  1.00  0.00    -0.003 C 
ATOM      4  C   UNL     1       3.788  19.130  -5.749  1.00  0.00     0.004 C 
ENDBRANCH   2   3
ENDBRANCH   1   2
BRANCH   1   5
ATOM      5  C   UNL     1       4.003  14.450  -7.619  1.00  0.00    -0.023 C 
ATOM      6  C   UNL     1       3.923  13.117  -7.534  1.00  0.00     0.042 C 
BRANCH   6   7
ATOM      7  C   UNL     1       4.570  12.224  -8.513  1.00  0.00     0.152 C 
ATOM      8  O   UNL     1       5.775  12.393  -8.844  1.00  0.00    -0.295 OA
ATOM      9  C   UNL     1       3.787  11.107  -9.125  1.00  0.00     0.093 C 
ENDBRANCH   6   7
ENDBRANCH   1   5
TORSDOF 4
ENDMDL
MODEL 7
REMARK VINA RESULT:    -2.406      2.386      4.534
REMARK INTER + INTRA:          -3.233
REMARK INTER:                  -3.133
REMARK INTRA:                  -0.100
REMARK UNBOUND:                -0.264
REMARK SMILES CCCCC=CC(C)=O
REMARK SMILES IDX 4 1 3 2 2 3 1 4 5 5 6 6 7 7 9 8 8 9
REMARK H PARENT
REMARK Flexibility Score: inf
ROOT
ATOM      1  C   UNL     1       3.820  16.508  -6.648  1.00  0.00     0.027 C 
ENDROOT
BRANCH   1   2
ATOM      2  C   UNL     1       2.503  16.125  -5.956  1.00  0.00     0.004 C 
BRANCH   2   3
ATOM      3  C   UNL     1       2.647  14.883  -5.063  1.00  0.00    -0.003 C 
ATOM      4  C   UNL     1       3.263  15.200  -3.701  1.00  0.00     0.004 C 
ENDBRANCH   2   3
ENDBRANCH   1   2
BRANCH   1   5
ATOM      5  C   UNL     1       4.513  15.297  -7.204  1.00  0.00    -0.023 C 
ATOM      6  C   UNL     1       3.974  14.575  -8.192  1.00  0.00     0.042 C 
BRANCH   6   7
ATOM      7  C   UNL     1       4.630  13.374  -8.742  1.00  0.00     0.152 C 
ATOM      8  O   UNL     1       3.949  12.381  -9.115  1.00  0.00    -0.295 OA
ATOM      9  C   UNL     1       6.120  13.333  -8.855  1.00  0.00     0.093 C 
ENDBRANCH   6   7
ENDBRANCH   1   5
TORSDOF 4
ENDMDL
MODEL 8
REMARK VINA RESULT:    -2.116      1.344      1.805
REMARK INTER + INTRA:          -2.875
REMARK INTER:                  -2.730
REMARK INTRA:                  -0.145
REMARK UNBOUND:                -0.264
REMARK SMILES CCCCC=CC(C)=O
REMARK SMILES IDX 4 1 3 2 2 3 1 4 5 5 6 6 7 7 9 8 8 9
REMARK H PARENT
REMARK Flexibility Score: inf
ROOT
ATOM      1  C   UNL     1       4.148  14.366  -6.911  1.00  0.00     0.027 C 
ENDROOT
BRANCH   1   2
ATOM      2  C   UNL     1       2.840  13.810  -7.494  1.00  0.00     0.004 C 
BRANCH   2   3
ATOM      3  C   UNL     1       2.989  13.371  -8.959  1.00  0.00    -0.003 C 
ATOM      4  C   UNL     1       3.895  12.152  -9.124  1.00  0.00     0.004 C 
ENDBRANCH   2   3
ENDBRANCH   1   2
BRANCH   1   5
ATOM      5  C   UNL     1       4.114  15.866  -6.837  1.00  0.00    -0.023 C 
ATOM      6  C   UNL     1       3.746  16.503  -5.720  1.00  0.00     0.042 C 
BRANCH   6   7
ATOM      7  C   UNL     1       3.692  17.974  -5.631  1.00  0.00     0.152 C 
ATOM      8  O   UNL     1       4.720  18.640  -5.333  1.00  0.00    -0.295 OA
ATOM      9  C   UNL     1       2.403  18.684  -5.893  1.00  0.00     0.093 C 
ENDBRANCH   6   7
ENDBRANCH   1   5
TORSDOF 4
ENDMDL
