MODEL 1
REMARK VINA RESULT:    -6.014      0.000      0.000
REMARK INTER + INTRA:          -7.664
REMARK INTER:                  -7.245
REMARK INTRA:                  -0.419
REMARK UNBOUND:                -0.419
REMARK SMILES O=c1c(O)c(-c2ccc(O)cc2O)oc2cc(O)cc(O)c12
REMARK SMILES IDX 5 1 3 2 2 3 1 4 22 5 20 6 19 7 17 8 16 9 15 10 14 11 6 12
REMARK SMILES IDX 8 13 7 14 9 15 11 16 12 17 10 18 13 20 4 22 21 24 18 26
REMARK H PARENT 10 19 13 21 4 23 21 25 18 27
REMARK Flexibility Score: inf
ROOT
ATOM      1  C   UNL     1     -16.655  -1.512   3.839  1.00  0.00     0.184 A 
ATOM      2  C   UNL     1     -16.338  -0.972   5.095  1.00  0.00     0.208 A 
ATOM      3  C   UNL     1     -15.033  -1.123   5.591  1.00  0.00     0.238 A 
ATOM      4  O   UNL     1     -14.768  -0.684   6.740  1.00  0.00    -0.285 OA
ATOM      5  C   UNL     1     -14.060  -1.799   4.815  1.00  0.00     0.111 A 
ATOM      6  C   UNL     1     -12.697  -1.976   5.200  1.00  0.00     0.134 A 
ATOM      7  C   UNL     1     -11.855  -2.773   4.414  1.00  0.00     0.093 A 
ATOM      8  C   UNL     1     -12.310  -3.346   3.224  1.00  0.00     0.123 A 
ATOM      9  C   UNL     1     -13.622  -3.130   2.810  1.00  0.00     0.094 A 
ATOM     10  C   UNL     1     -14.496  -2.370   3.590  1.00  0.00     0.146 A 
ATOM     11  O   UNL     1     -15.742  -2.198   3.164  1.00  0.00    -0.451 OA
ENDROOT
BRANCH   1  12
ATOM     12  C   UNL     1     -18.005  -1.374   3.253  1.00  0.00     0.063 A 
ATOM     13  C   UNL     1     -20.319  -2.114   3.171  1.00  0.00     0.047 A 
ATOM     14  C   UNL     1     -19.033  -2.215   3.707  1.00  0.00     0.020 A 
ATOM     15  C   UNL     1     -20.589  -1.181   2.163  1.00  0.00     0.119 A 
ATOM     16  C   UNL     1     -19.566  -0.356   1.688  1.00  0.00     0.093 A 
ATOM     17  C   UNL     1     -18.271  -0.454   2.218  1.00  0.00     0.130 A 
BRANCH  15  18
ATOM     18  O   UNL     1     -21.869  -1.069   1.623  1.00  0.00    -0.508 OA
ATOM     19  H   UNL     1     -22.464  -0.276   1.832  1.00  0.00     0.293 HD
ENDBRANCH  15  18
BRANCH  17  20
ATOM     20  O   UNL     1     -17.248   0.341   1.701  1.00  0.00    -0.507 OA
ATOM     21  H   UNL     1     -17.154   0.506   0.706  1.00  0.00     0.293 HD
ENDBRANCH  17  20
ENDBRANCH   1  12
BRANCH   2  22
ATOM     22  O   UNL     1     -17.322  -0.325   5.848  1.00  0.00    -0.502 OA
ATOM     23  H   UNL     1     -17.938   0.373   5.449  1.00  0.00     0.293 HD
ENDBRANCH   2  22
BRANCH   6  24
ATOM     24  O   UNL     1     -12.118  -1.373   6.320  1.00  0.00    -0.507 OA
ATOM     25  H   UNL     1     -11.264  -0.836   6.307  1.00  0.00     0.293 HD
ENDBRANCH   6  24
BRANCH   8  26
ATOM     26  O   UNL     1     -11.461  -4.125   2.440  1.00  0.00    -0.508 OA
ATOM     27  H   UNL     1     -11.811  -4.900   1.890  1.00  0.00     0.293 HD
ENDBRANCH   8  26
TORSDOF 6
ENDMDL
MODEL 2
REMARK VINA RESULT:    -5.768      1.266      2.857
REMARK INTER + INTRA:          -7.367
REMARK INTER:                  -6.983
REMARK INTRA:                  -0.385
REMARK UNBOUND:                -0.419
REMARK SMILES O=c1c(O)c(-c2ccc(O)cc2O)oc2cc(O)cc(O)c12
REMARK SMILES IDX 5 1 3 2 2 3 1 4 22 5 20 6 19 7 17 8 16 9 15 10 14 11 6 12
REMARK SMILES IDX 8 13 7 14 9 15 11 16 12 17 10 18 13 20 4 22 21 24 18 26
REMARK H PARENT 10 19 13 21 4 23 21 25 18 27
REMARK Flexibility Score: inf
ROOT
ATOM      1  C   UNL     1     -17.023  -1.899   3.173  1.00  0.00     0.184 A 
ATOM      2  C   UNL     1     -16.285  -2.412   2.096  1.00  0.00     0.208 A 
ATOM      3  C   UNL     1     -14.907  -2.628   2.257  1.00  0.00     0.238 A 
ATOM      4  O   UNL     1     -14.240  -3.038   1.272  1.00  0.00    -0.285 OA
ATOM      5  C   UNL     1     -14.291  -2.342   3.500  1.00  0.00     0.111 A 
ATOM      6  C   UNL     1     -12.910  -2.559   3.788  1.00  0.00     0.134 A 
ATOM      7  C   UNL     1     -12.382  -2.119   5.008  1.00  0.00     0.093 A 
ATOM      8  C   UNL     1     -13.198  -1.527   5.975  1.00  0.00     0.123 A 
ATOM      9  C   UNL     1     -14.558  -1.365   5.727  1.00  0.00     0.094 A 
ATOM     10  C   UNL     1     -15.108  -1.761   4.505  1.00  0.00     0.146 A 
ATOM     11  O   UNL     1     -16.408  -1.578   4.304  1.00  0.00    -0.451 OA
ENDROOT
BRANCH   1  12
ATOM     12  C   UNL     1     -18.480  -1.664   3.075  1.00  0.00     0.063 A 
ATOM     13  C   UNL     1     -20.742  -2.477   3.434  1.00  0.00     0.047 A 
ATOM     14  C   UNL     1     -19.360  -2.664   3.518  1.00  0.00     0.020 A 
ATOM     15  C   UNL     1     -21.261  -1.295   2.892  1.00  0.00     0.119 A 
ATOM     16  C   UNL     1     -20.390  -0.304   2.427  1.00  0.00     0.093 A 
ATOM     17  C   UNL     1     -19.002  -0.486   2.503  1.00  0.00     0.130 A 
BRANCH  15  18
ATOM     18  O   UNL     1     -22.637  -1.096   2.808  1.00  0.00    -0.508 OA
ATOM     19  H   UNL     1     -23.183  -1.491   2.052  1.00  0.00     0.293 HD
ENDBRANCH  15  18
BRANCH  17  20
ATOM     20  O   UNL     1     -18.146   0.489   1.990  1.00  0.00    -0.507 OA
ATOM     21  H   UNL     1     -17.781   1.235   2.569  1.00  0.00     0.293 HD
ENDBRANCH  17  20
ENDBRANCH   1  12
BRANCH   2  22
ATOM     22  O   UNL     1     -16.915  -2.669   0.875  1.00  0.00    -0.502 OA
ATOM     23  H   UNL     1     -16.483  -2.453  -0.015  1.00  0.00     0.293 HD
ENDBRANCH   2  22
BRANCH   6  24
ATOM     24  O   UNL     1     -12.028  -3.222   2.929  1.00  0.00    -0.507 OA
ATOM     25  H   UNL     1     -12.154  -3.309   1.932  1.00  0.00     0.293 HD
ENDBRANCH   6  24
BRANCH   8  26
ATOM     26  O   UNL     1     -12.667  -1.106   7.192  1.00  0.00    -0.508 OA
ATOM     27  H   UNL     1     -12.066  -1.707   7.744  1.00  0.00     0.293 HD
ENDBRANCH   8  26
TORSDOF 6
ENDMDL
MODEL 3
REMARK VINA RESULT:    -5.597      1.380      6.777
REMARK INTER + INTRA:          -7.161
REMARK INTER:                  -6.742
REMARK INTRA:                  -0.419
REMARK UNBOUND:                -0.419
REMARK SMILES O=c1c(O)c(-c2ccc(O)cc2O)oc2cc(O)cc(O)c12
REMARK SMILES IDX 5 1 3 2 2 3 1 4 22 5 20 6 19 7 17 8 16 9 15 10 14 11 6 12
REMARK SMILES IDX 8 13 7 14 9 15 11 16 12 17 10 18 13 20 4 22 21 24 18 26
REMARK H PARENT 10 19 13 21 4 23 21 25 18 27
REMARK Flexibility Score: inf
ROOT
ATOM      1  C   UNL     1     -16.299  -1.678   3.840  1.00  0.00     0.184 A 
ATOM      2  C   UNL     1     -16.539  -0.523   3.079  1.00  0.00     0.208 A 
ATOM      3  C   UNL     1     -17.844  -0.261   2.633  1.00  0.00     0.238 A 
ATOM      4  O   UNL     1     -18.044   0.747   1.907  1.00  0.00    -0.285 OA
ATOM      5  C   UNL     1     -18.894  -1.150   2.968  1.00  0.00     0.111 A 
ATOM      6  C   UNL     1     -20.261  -0.964   2.604  1.00  0.00     0.134 A 
ATOM      7  C   UNL     1     -21.193  -1.973   2.878  1.00  0.00     0.093 A 
ATOM      8  C   UNL     1     -20.819  -3.133   3.559  1.00  0.00     0.123 A 
ATOM      9  C   UNL     1     -19.499  -3.298   3.971  1.00  0.00     0.094 A 
ATOM     10  C   UNL     1     -18.538  -2.326   3.682  1.00  0.00     0.146 A 
ATOM     11  O   UNL     1     -17.289  -2.528   4.083  1.00  0.00    -0.451 OA
ENDROOT
BRANCH   1  12
ATOM     12  C   UNL     1     -14.952  -2.004   4.354  1.00  0.00     0.063 A 
ATOM     13  C   UNL     1     -12.838  -3.165   4.050  1.00  0.00     0.047 A 
ATOM     14  C   UNL     1     -14.115  -2.833   3.591  1.00  0.00     0.020 A 
ATOM     15  C   UNL     1     -12.388  -2.684   5.285  1.00  0.00     0.119 A 
ATOM     16  C   UNL     1     -13.223  -1.876   6.062  1.00  0.00     0.093 A 
ATOM     17  C   UNL     1     -14.509  -1.542   5.611  1.00  0.00     0.130 A 
BRANCH  15  18
ATOM     18  O   UNL     1     -11.114  -3.004   5.751  1.00  0.00    -0.508 OA
ATOM     19  H   UNL     1     -10.955  -3.812   6.341  1.00  0.00     0.293 HD
ENDBRANCH  15  18
BRANCH  17  20
ATOM     20  O   UNL     1     -15.350  -0.777   6.418  1.00  0.00    -0.507 OA
ATOM     21  H   UNL     1     -15.738   0.102   6.100  1.00  0.00     0.293 HD
ENDBRANCH  17  20
ENDBRANCH   1  12
BRANCH   2  22
ATOM     22  O   UNL     1     -15.481   0.328   2.748  1.00  0.00    -0.502 OA
ATOM     23  H   UNL     1     -14.519   0.013   2.717  1.00  0.00     0.293 HD
ENDBRANCH   2  22
BRANCH   6  24
ATOM     24  O   UNL     1     -20.757   0.197   2.002  1.00  0.00    -0.507 OA
ATOM     25  H   UNL     1     -21.045   0.265   1.037  1.00  0.00     0.293 HD
ENDBRANCH   6  24
BRANCH   8  26
ATOM     26  O   UNL     1     -21.756  -4.125   3.842  1.00  0.00    -0.508 OA
ATOM     27  H   UNL     1     -21.497  -5.104   3.873  1.00  0.00     0.293 HD
ENDBRANCH   8  26
TORSDOF 6
ENDMDL
MODEL 4
REMARK VINA RESULT:    -5.516      1.682      6.856
REMARK INTER + INTRA:          -7.064
REMARK INTER:                  -6.638
REMARK INTRA:                  -0.426
REMARK UNBOUND:                -0.419
REMARK SMILES O=c1c(O)c(-c2ccc(O)cc2O)oc2cc(O)cc(O)c12
REMARK SMILES IDX 5 1 3 2 2 3 1 4 22 5 20 6 19 7 17 8 16 9 15 10 14 11 6 12
REMARK SMILES IDX 8 13 7 14 9 15 11 16 12 17 10 18 13 20 4 22 21 24 18 26
REMARK H PARENT 10 19 13 21 4 23 21 25 18 27
REMARK Flexibility Score: inf
ROOT
ATOM      1  C   UNL     1     -16.533  -1.923   4.137  1.00  0.00     0.184 A 
ATOM      2  C   UNL     1     -17.463  -2.955   4.330  1.00  0.00     0.208 A 
ATOM      3  C   UNL     1     -18.780  -2.778   3.877  1.00  0.00     0.238 A 
ATOM      4  O   UNL     1     -19.624  -3.685   4.099  1.00  0.00    -0.285 OA
ATOM      5  C   UNL     1     -19.143  -1.576   3.222  1.00  0.00     0.111 A 
ATOM      6  C   UNL     1     -20.438  -1.303   2.687  1.00  0.00     0.134 A 
ATOM      7  C   UNL     1     -20.720  -0.030   2.176  1.00  0.00     0.093 A 
ATOM      8  C   UNL     1     -19.736   0.960   2.124  1.00  0.00     0.123 A 
ATOM      9  C   UNL     1     -18.453   0.685   2.589  1.00  0.00     0.094 A 
ATOM     10  C   UNL     1     -18.150  -0.564   3.138  1.00  0.00     0.146 A 
ATOM     11  O   UNL     1     -16.917  -0.781   3.580  1.00  0.00    -0.451 OA
ENDROOT
BRANCH   1  12
ATOM     12  C   UNL     1     -15.127  -2.053   4.575  1.00  0.00     0.063 A 
ATOM     13  C   UNL     1     -12.914  -2.989   4.204  1.00  0.00     0.047 A 
ATOM     14  C   UNL     1     -14.248  -2.841   3.815  1.00  0.00     0.020 A 
ATOM     15  C   UNL     1     -12.447  -2.364   5.366  1.00  0.00     0.119 A 
ATOM     16  C   UNL     1     -13.321  -1.596   6.142  1.00  0.00     0.093 A 
ATOM     17  C   UNL     1     -14.663  -1.447   5.761  1.00  0.00     0.130 A 
BRANCH  15  18
ATOM     18  O   UNL     1     -11.118  -2.501   5.761  1.00  0.00    -0.508 OA
ATOM     19  H   UNL     1     -10.599  -1.724   6.151  1.00  0.00     0.293 HD
ENDBRANCH  15  18
BRANCH  17  20
ATOM     20  O   UNL     1     -15.536  -0.720   6.570  1.00  0.00    -0.507 OA
ATOM     21  H   UNL     1     -15.678  -0.955   7.545  1.00  0.00     0.293 HD
ENDBRANCH  17  20
ENDBRANCH   1  12
BRANCH   2  22
ATOM     22  O   UNL     1     -17.083  -4.125   4.994  1.00  0.00    -0.502 OA
ATOM     23  H   UNL     1     -16.918  -4.153   5.993  1.00  0.00     0.293 HD
ENDBRANCH   2  22
BRANCH   6  24
ATOM     24  O   UNL     1     -21.464  -2.249   2.608  1.00  0.00    -0.507 OA
ATOM     25  H   UNL     1     -21.327  -3.233   2.432  1.00  0.00     0.293 HD
ENDBRANCH   6  24
BRANCH   8  26
ATOM     26  O   UNL     1     -20.022   2.219   1.600  1.00  0.00    -0.508 OA
ATOM     27  H   UNL     1     -19.606   3.059   1.984  1.00  0.00     0.293 HD
ENDBRANCH   8  26
TORSDOF 6
ENDMDL
MODEL 5
REMARK VINA RESULT:    -5.502      2.046      2.974
REMARK INTER + INTRA:          -7.046
REMARK INTER:                  -6.628
REMARK INTRA:                  -0.418
REMARK UNBOUND:                -0.419
REMARK SMILES O=c1c(O)c(-c2ccc(O)cc2O)oc2cc(O)cc(O)c12
REMARK SMILES IDX 5 1 3 2 2 3 1 4 22 5 20 6 19 7 17 8 16 9 15 10 14 11 6 12
REMARK SMILES IDX 8 13 7 14 9 15 11 16 12 17 10 18 13 20 4 22 21 24 18 26
REMARK H PARENT 10 19 13 21 4 23 21 25 18 27
REMARK Flexibility Score: inf
ROOT
ATOM      1  C   UNL     1     -18.045  -1.721   3.206  1.00  0.00     0.184 A 
ATOM      2  C   UNL     1     -17.182  -0.701   2.775  1.00  0.00     0.208 A 
ATOM      3  C   UNL     1     -15.920  -0.578   3.377  1.00  0.00     0.238 A 
ATOM      4  O   UNL     1     -15.171   0.370   3.026  1.00  0.00    -0.285 OA
ATOM      5  C   UNL     1     -15.533  -1.488   4.392  1.00  0.00     0.111 A 
ATOM      6  C   UNL     1     -14.264  -1.482   5.044  1.00  0.00     0.134 A 
ATOM      7  C   UNL     1     -14.038  -2.346   6.124  1.00  0.00     0.093 A 
ATOM      8  C   UNL     1     -15.012  -3.259   6.532  1.00  0.00     0.123 A 
ATOM      9  C   UNL     1     -16.233  -3.313   5.864  1.00  0.00     0.094 A 
ATOM     10  C   UNL     1     -16.502  -2.440   4.806  1.00  0.00     0.146 A 
ATOM     11  O   UNL     1     -17.682  -2.517   4.203  1.00  0.00    -0.451 OA
ENDROOT
BRANCH   1  12
ATOM     12  C   UNL     1     -19.380  -1.915   2.601  1.00  0.00     0.063 A 
ATOM     13  C   UNL     1     -21.772  -1.487   2.668  1.00  0.00     0.047 A 
ATOM     14  C   UNL     1     -20.495  -1.318   3.210  1.00  0.00     0.020 A 
ATOM     15  C   UNL     1     -21.951  -2.266   1.519  1.00  0.00     0.119 A 
ATOM     16  C   UNL     1     -20.849  -2.883   0.920  1.00  0.00     0.093 A 
ATOM     17  C   UNL     1     -19.564  -2.724   1.461  1.00  0.00     0.130 A 
BRANCH  15  18
ATOM     18  O   UNL     1     -23.219  -2.437   0.968  1.00  0.00    -0.508 OA
ATOM     19  H   UNL     1     -23.766  -1.649   0.643  1.00  0.00     0.293 HD
ENDBRANCH  15  18
BRANCH  17  20
ATOM     20  O   UNL     1     -18.481  -3.385   0.882  1.00  0.00    -0.507 OA
ATOM     21  H   UNL     1     -17.881  -2.931   0.205  1.00  0.00     0.293 HD
ENDBRANCH  17  20
ENDBRANCH   1  12
BRANCH   2  22
ATOM     22  O   UNL     1     -17.596   0.194   1.784  1.00  0.00    -0.502 OA
ATOM     23  H   UNL     1     -18.376   0.825   1.915  1.00  0.00     0.293 HD
ENDBRANCH   2  22
BRANCH   6  24
ATOM     24  O   UNL     1     -13.191  -0.674   4.657  1.00  0.00    -0.507 OA
ATOM     25  H   UNL     1     -12.232  -0.982   4.595  1.00  0.00     0.293 HD
ENDBRANCH   6  24
BRANCH   8  26
ATOM     26  O   UNL     1     -14.773  -4.125   7.596  1.00  0.00    -0.508 OA
ATOM     27  H   UNL     1     -14.589  -3.778   8.531  1.00  0.00     0.293 HD
ENDBRANCH   8  26
TORSDOF 6
ENDMDL
MODEL 6
REMARK VINA RESULT:    -5.278      2.489      7.890
REMARK INTER + INTRA:          -6.776
REMARK INTER:                  -6.355
REMARK INTRA:                  -0.421
REMARK UNBOUND:                -0.419
REMARK SMILES O=c1c(O)c(-c2ccc(O)cc2O)oc2cc(O)cc(O)c12
REMARK SMILES IDX 5 1 3 2 2 3 1 4 22 5 20 6 19 7 17 8 16 9 15 10 14 11 6 12
REMARK SMILES IDX 8 13 7 14 9 15 11 16 12 17 10 18 13 20 4 22 21 24 18 26
REMARK H PARENT 10 19 13 21 4 23 21 25 18 27
REMARK Flexibility Score: inf
ROOT
ATOM      1  C   UNL     1     -19.334  -2.030   3.106  1.00  0.00     0.184 A 
ATOM      2  C   UNL     1     -19.618  -2.938   2.075  1.00  0.00     0.208 A 
ATOM      3  C   UNL     1     -20.958  -3.218   1.764  1.00  0.00     0.238 A 
ATOM      4  O   UNL     1     -21.207  -4.073   0.875  1.00  0.00    -0.285 OA
ATOM      5  C   UNL     1     -21.996  -2.572   2.479  1.00  0.00     0.111 A 
ATOM      6  C   UNL     1     -23.389  -2.749   2.223  1.00  0.00     0.134 A 
ATOM      7  C   UNL     1     -24.328  -2.160   3.078  1.00  0.00     0.093 A 
ATOM      8  C   UNL     1     -23.926  -1.348   4.141  1.00  0.00     0.123 A 
ATOM      9  C   UNL     1     -22.571  -1.121   4.364  1.00  0.00     0.094 A 
ATOM     10  C   UNL     1     -21.608  -1.724   3.550  1.00  0.00     0.146 A 
ATOM     11  O   UNL     1     -20.326  -1.490   3.803  1.00  0.00    -0.451 OA
ENDROOT
BRANCH   1  12
ATOM     12  C   UNL     1     -17.945  -1.679   3.472  1.00  0.00     0.063 A 
ATOM     13  C   UNL     1     -15.889  -2.272   4.624  1.00  0.00     0.047 A 
ATOM     14  C   UNL     1     -17.202  -2.575   4.256  1.00  0.00     0.020 A 
ATOM     15  C   UNL     1     -15.308  -1.062   4.225  1.00  0.00     0.119 A 
ATOM     16  C   UNL     1     -16.049  -0.154   3.463  1.00  0.00     0.093 A 
ATOM     17  C   UNL     1     -17.370  -0.448   3.094  1.00  0.00     0.130 A 
BRANCH  15  18
ATOM     18  O   UNL     1     -13.998  -0.751   4.582  1.00  0.00    -0.508 OA
ATOM     19  H   UNL     1     -13.677   0.208   4.635  1.00  0.00     0.293 HD
ENDBRANCH  15  18
BRANCH  17  20
ATOM     20  O   UNL     1     -18.114   0.488   2.377  1.00  0.00    -0.507 OA
ATOM     21  H   UNL     1     -18.511   1.307   2.822  1.00  0.00     0.293 HD
ENDBRANCH  17  20
ENDBRANCH   1  12
BRANCH   2  22
ATOM     22  O   UNL     1     -18.575  -3.575   1.396  1.00  0.00    -0.502 OA
ATOM     23  H   UNL     1     -17.620  -3.241   1.433  1.00  0.00     0.293 HD
ENDBRANCH   2  22
BRANCH   6  24
ATOM     24  O   UNL     1     -23.897  -3.466   1.136  1.00  0.00    -0.507 OA
ATOM     25  H   UNL     1     -24.865  -3.729   1.022  1.00  0.00     0.293 HD
ENDBRANCH   6  24
BRANCH   8  26
ATOM     26  O   UNL     1     -24.869  -0.753   4.977  1.00  0.00    -0.508 OA
ATOM     27  H   UNL     1     -25.182   0.199   4.829  1.00  0.00     0.293 HD
ENDBRANCH   8  26
TORSDOF 6
ENDMDL
MODEL 7
REMARK VINA RESULT:    -5.175      1.652      3.210
REMARK INTER + INTRA:          -6.653
REMARK INTER:                  -6.284
REMARK INTRA:                  -0.369
REMARK UNBOUND:                -0.419
REMARK SMILES O=c1c(O)c(-c2ccc(O)cc2O)oc2cc(O)cc(O)c12
REMARK SMILES IDX 5 1 3 2 2 3 1 4 22 5 20 6 19 7 17 8 16 9 15 10 14 11 6 12
REMARK SMILES IDX 8 13 7 14 9 15 11 16 12 17 10 18 13 20 4 22 21 24 18 26
REMARK H PARENT 10 19 13 21 4 23 21 25 18 27
REMARK Flexibility Score: inf
ROOT
ATOM      1  C   UNL     1     -18.020  -1.846   3.155  1.00  0.00     0.184 A 
ATOM      2  C   UNL     1     -17.422  -2.401   2.013  1.00  0.00     0.208 A 
ATOM      3  C   UNL     1     -16.031  -2.589   1.997  1.00  0.00     0.238 A 
ATOM      4  O   UNL     1     -15.493  -3.037   0.952  1.00  0.00    -0.285 OA
ATOM      5  C   UNL     1     -15.260  -2.233   3.131  1.00  0.00     0.111 A 
ATOM      6  C   UNL     1     -13.848  -2.415   3.240  1.00  0.00     0.134 A 
ATOM      7  C   UNL     1     -13.171  -1.907   4.356  1.00  0.00     0.093 A 
ATOM      8  C   UNL     1     -13.863  -1.280   5.395  1.00  0.00     0.123 A 
ATOM      9  C   UNL     1     -15.247  -1.150   5.325  1.00  0.00     0.094 A 
ATOM     10  C   UNL     1     -15.948  -1.615   4.208  1.00  0.00     0.146 A 
ATOM     11  O   UNL     1     -17.266  -1.461   4.176  1.00  0.00    -0.451 OA
ENDROOT
BRANCH   1  12
ATOM     12  C   UNL     1     -19.481  -1.639   3.243  1.00  0.00     0.063 A 
ATOM     13  C   UNL     1     -21.653  -2.448   3.975  1.00  0.00     0.047 A 
ATOM     14  C   UNL     1     -20.269  -2.611   3.880  1.00  0.00     0.020 A 
ATOM     15  C   UNL     1     -22.269  -1.319   3.422  1.00  0.00     0.119 A 
ATOM     16  C   UNL     1     -21.495  -0.357   2.766  1.00  0.00     0.093 A 
ATOM     17  C   UNL     1     -20.105  -0.516   2.661  1.00  0.00     0.130 A 
BRANCH  15  18
ATOM     18  O   UNL     1     -23.648  -1.145   3.515  1.00  0.00    -0.508 OA
ATOM     19  H   UNL     1     -24.294  -1.874   3.236  1.00  0.00     0.293 HD
ENDBRANCH  15  18
BRANCH  17  20
ATOM     20  O   UNL     1     -19.351   0.426   1.961  1.00  0.00    -0.507 OA
ATOM     21  H   UNL     1     -19.094   1.315   2.373  1.00  0.00     0.293 HD
ENDBRANCH  17  20
ENDBRANCH   1  12
BRANCH   2  22
ATOM     22  O   UNL     1     -18.205  -2.728   0.902  1.00  0.00    -0.502 OA
ATOM     23  H   UNL     1     -17.800  -2.991   0.012  1.00  0.00     0.293 HD
ENDBRANCH   2  22
BRANCH   6  24
ATOM     24  O   UNL     1     -13.076  -3.106   2.302  1.00  0.00    -0.507 OA
ATOM     25  H   UNL     1     -12.177  -3.523   2.493  1.00  0.00     0.293 HD
ENDBRANCH   6  24
BRANCH   8  26
ATOM     26  O   UNL     1     -13.182  -0.792   6.508  1.00  0.00    -0.508 OA
ATOM     27  H   UNL     1     -12.219  -0.484   6.448  1.00  0.00     0.293 HD
ENDBRANCH   8  26
TORSDOF 6
ENDMDL
MODEL 8
REMARK VINA RESULT:    -5.104      4.011      6.948
REMARK INTER + INTRA:          -6.567
REMARK INTER:                  -6.177
REMARK INTRA:                  -0.390
REMARK UNBOUND:                -0.419
REMARK SMILES O=c1c(O)c(-c2ccc(O)cc2O)oc2cc(O)cc(O)c12
REMARK SMILES IDX 5 1 3 2 2 3 1 4 22 5 20 6 19 7 17 8 16 9 15 10 14 11 6 12
REMARK SMILES IDX 8 13 7 14 9 15 11 16 12 17 10 18 13 20 4 22 21 24 18 26
REMARK H PARENT 10 19 13 21 4 23 21 25 18 27
REMARK Flexibility Score: inf
ROOT
ATOM      1  C   UNL     1     -23.098  -2.087   3.343  1.00  0.00     0.184 A 
ATOM      2  C   UNL     1     -22.476  -3.126   4.053  1.00  0.00     0.208 A 
ATOM      3  C   UNL     1     -21.074  -3.162   4.118  1.00  0.00     0.238 A 
ATOM      4  O   UNL     1     -20.521  -4.125   4.709  1.00  0.00    -0.285 OA
ATOM      5  C   UNL     1     -20.315  -2.148   3.485  1.00  0.00     0.111 A 
ATOM      6  C   UNL     1     -18.890  -2.062   3.519  1.00  0.00     0.134 A 
ATOM      7  C   UNL     1     -18.238  -1.091   2.749  1.00  0.00     0.093 A 
ATOM      8  C   UNL     1     -18.962  -0.162   1.998  1.00  0.00     0.123 A 
ATOM      9  C   UNL     1     -20.354  -0.200   2.005  1.00  0.00     0.094 A 
ATOM     10  C   UNL     1     -21.033  -1.180   2.734  1.00  0.00     0.146 A 
ATOM     11  O   UNL     1     -22.360  -1.188   2.705  1.00  0.00    -0.451 OA
ENDROOT
BRANCH   1  12
ATOM     12  C   UNL     1     -24.570  -1.982   3.251  1.00  0.00     0.063 A 
ATOM     13  C   UNL     1     -26.700  -1.626   4.366  1.00  0.00     0.047 A 
ATOM     14  C   UNL     1     -25.307  -1.726   4.418  1.00  0.00     0.020 A 
ATOM     15  C   UNL     1     -27.373  -1.796   3.151  1.00  0.00     0.119 A 
ATOM     16  C   UNL     1     -26.648  -2.074   1.989  1.00  0.00     0.093 A 
ATOM     17  C   UNL     1     -25.250  -2.182   2.032  1.00  0.00     0.130 A 
BRANCH  15  18
ATOM     18  O   UNL     1     -28.761  -1.694   3.088  1.00  0.00    -0.508 OA
ATOM     19  H   UNL     1     -29.283  -1.152   3.766  1.00  0.00     0.293 HD
ENDBRANCH  15  18
BRANCH  17  20
ATOM     20  O   UNL     1     -24.543  -2.509   0.875  1.00  0.00    -0.507 OA
ATOM     21  H   UNL     1     -23.550  -2.705   0.896  1.00  0.00     0.293 HD
ENDBRANCH  17  20
ENDBRANCH   1  12
BRANCH   2  22
ATOM     22  O   UNL     1     -23.250  -4.124   4.653  1.00  0.00    -0.502 OA
ATOM     23  H   UNL     1     -22.867  -4.776   5.326  1.00  0.00     0.293 HD
ENDBRANCH   2  22
BRANCH   6  24
ATOM     24  O   UNL     1     -18.078  -2.883   4.307  1.00  0.00    -0.507 OA
ATOM     25  H   UNL     1     -17.170  -2.621   4.663  1.00  0.00     0.293 HD
ENDBRANCH   6  24
BRANCH   8  26
ATOM     26  O   UNL     1     -18.305   0.811   1.248  1.00  0.00    -0.508 OA
ATOM     27  H   UNL     1     -17.871   1.615   1.687  1.00  0.00     0.293 HD
ENDBRANCH   8  26
TORSDOF 6
ENDMDL
