MODEL 1
REMARK VINA RESULT:    -5.410      0.000      0.000
REMARK INTER + INTRA:          -5.568
REMARK INTER:                  -5.568
REMARK INTRA:                   0.000
REMARK UNBOUND:                 0.000
REMARK SMILES O=c1ccc2cc(O)ccc2o1
REMARK SMILES IDX 9 1 10 2 11 3 5 4 4 5 3 6 2 7 1 8 12 9 6 10 7 11 8 12
REMARK H PARENT 8 13
REMARK Flexibility Score: inf
ROOT
ATOM      1  C   UNL     1      -7.350  14.950   6.165  1.00  0.00     0.050 A 
ATOM      2  C   UNL     1      -6.845  15.598   7.297  1.00  0.00     0.052 A 
ATOM      3  C   UNL     1      -5.570  15.282   7.775  1.00  0.00     0.138 A 
ATOM      4  C   UNL     1      -4.793  14.308   7.111  1.00  0.00     0.021 A 
ATOM      5  C   UNL     1      -3.521  14.012   7.612  1.00  0.00     0.019 A 
ATOM      6  C   UNL     1      -3.060  14.685   8.743  1.00  0.00     0.094 A 
ATOM      7  C   UNL     1      -3.884  15.638   9.349  1.00  0.00     0.336 A 
ATOM      8  O   UNL     1      -3.485  16.255  10.372  1.00  0.00    -0.246 OA
ATOM      9  O   UNL     1      -5.091  15.899   8.853  1.00  0.00    -0.423 OA
ATOM     10  C   UNL     1      -5.304  13.660   5.976  1.00  0.00     0.058 A 
ATOM     11  C   UNL     1      -6.584  13.983   5.502  1.00  0.00     0.116 A 
ENDROOT
BRANCH  11  12
ATOM     12  O   UNL     1      -7.104  13.349   4.376  1.00  0.00    -0.508 OA
ATOM     13  H   UNL     1      -6.827  12.408   4.122  1.00  0.00     0.293 HD
ENDBRANCH  11  12
TORSDOF 1
ENDMDL
MODEL 2
REMARK VINA RESULT:    -5.384      1.967      2.341
REMARK INTER + INTRA:          -5.541
REMARK INTER:                  -5.541
REMARK INTRA:                   0.000
REMARK UNBOUND:                 0.000
REMARK SMILES O=c1ccc2cc(O)ccc2o1
REMARK SMILES IDX 9 1 10 2 11 3 5 4 4 5 3 6 2 7 1 8 12 9 6 10 7 11 8 12
REMARK H PARENT 8 13
REMARK Flexibility Score: inf
ROOT
ATOM      1  C   UNL     1      -9.119  14.875   5.998  1.00  0.00     0.050 A 
ATOM      2  C   UNL     1      -8.165  15.786   6.463  1.00  0.00     0.052 A 
ATOM      3  C   UNL     1      -6.804  15.474   6.389  1.00  0.00     0.138 A 
ATOM      4  C   UNL     1      -6.396  14.237   5.845  1.00  0.00     0.021 A 
ATOM      5  C   UNL     1      -5.028  13.953   5.785  1.00  0.00     0.019 A 
ATOM      6  C   UNL     1      -4.114  14.893   6.259  1.00  0.00     0.094 A 
ATOM      7  C   UNL     1      -4.590  16.098   6.785  1.00  0.00     0.336 A 
ATOM      8  O   UNL     1      -3.780  16.958   7.219  1.00  0.00    -0.246 OA
ATOM      9  O   UNL     1      -5.897  16.343   6.832  1.00  0.00    -0.423 OA
ATOM     10  C   UNL     1      -7.357  13.326   5.381  1.00  0.00     0.058 A 
ATOM     11  C   UNL     1      -8.720  13.646   5.458  1.00  0.00     0.116 A 
ENDROOT
BRANCH  11  12
ATOM     12  O   UNL     1      -9.685  12.752   5.001  1.00  0.00    -0.508 OA
ATOM     13  H   UNL     1     -10.258  12.216   5.643  1.00  0.00     0.293 HD
ENDBRANCH  11  12
TORSDOF 1
ENDMDL
MODEL 3
REMARK VINA RESULT:    -5.376      2.581      4.007
REMARK INTER + INTRA:          -5.534
REMARK INTER:                  -5.534
REMARK INTRA:                   0.000
REMARK UNBOUND:                 0.000
REMARK SMILES O=c1ccc2cc(O)ccc2o1
REMARK SMILES IDX 9 1 10 2 11 3 5 4 4 5 3 6 2 7 1 8 12 9 6 10 7 11 8 12
REMARK H PARENT 8 13
REMARK Flexibility Score: inf
ROOT
ATOM      1  C   UNL     1      -9.550  17.020   7.142  1.00  0.00     0.050 A 
ATOM      2  C   UNL     1      -8.213  16.713   7.413  1.00  0.00     0.052 A 
ATOM      3  C   UNL     1      -7.555  15.728   6.670  1.00  0.00     0.138 A 
ATOM      4  C   UNL     1      -8.245  15.045   5.645  1.00  0.00     0.021 A 
ATOM      5  C   UNL     1      -7.562  14.065   4.918  1.00  0.00     0.019 A 
ATOM      6  C   UNL     1      -6.228  13.793   5.224  1.00  0.00     0.094 A 
ATOM      7  C   UNL     1      -5.609  14.510   6.253  1.00  0.00     0.336 A 
ATOM      8  O   UNL     1      -4.406  14.279   6.544  1.00  0.00    -0.246 OA
ATOM      9  O   UNL     1      -6.282  15.437   6.929  1.00  0.00    -0.423 OA
ATOM     10  C   UNL     1      -9.587  15.356   5.377  1.00  0.00     0.058 A 
ATOM     11  C   UNL     1     -10.240  16.345   6.126  1.00  0.00     0.116 A 
ENDROOT
BRANCH  11  12
ATOM     12  O   UNL     1     -11.571  16.665   5.872  1.00  0.00    -0.508 OA
ATOM     13  H   UNL     1     -12.059  17.371   6.411  1.00  0.00     0.293 HD
ENDBRANCH  11  12
TORSDOF 1
ENDMDL
MODEL 4
REMARK VINA RESULT:    -5.240      2.103      4.720
REMARK INTER + INTRA:          -5.393
REMARK INTER:                  -5.393
REMARK INTRA:                   0.000
REMARK UNBOUND:                 0.000
REMARK SMILES O=c1ccc2cc(O)ccc2o1
REMARK SMILES IDX 9 1 10 2 11 3 5 4 4 5 3 6 2 7 1 8 12 9 6 10 7 11 8 12
REMARK H PARENT 8 13
REMARK Flexibility Score: inf
ROOT
ATOM      1  C   UNL     1      -5.367  13.675   5.694  1.00  0.00     0.050 A 
ATOM      2  C   UNL     1      -6.590  14.075   5.146  1.00  0.00     0.052 A 
ATOM      3  C   UNL     1      -7.489  14.824   5.911  1.00  0.00     0.138 A 
ATOM      4  C   UNL     1      -7.159  15.174   7.238  1.00  0.00     0.021 A 
ATOM      5  C   UNL     1      -8.078  15.923   7.980  1.00  0.00     0.019 A 
ATOM      6  C   UNL     1      -9.285  16.300   7.391  1.00  0.00     0.094 A 
ATOM      7  C   UNL     1      -9.545  15.917   6.071  1.00  0.00     0.336 A 
ATOM      8  O   UNL     1     -10.629  16.247   5.522  1.00  0.00    -0.246 OA
ATOM      9  O   UNL     1      -8.653  15.203   5.388  1.00  0.00    -0.423 OA
ATOM     10  C   UNL     1      -5.931  14.770   7.784  1.00  0.00     0.058 A 
ATOM     11  C   UNL     1      -5.034  14.019   7.010  1.00  0.00     0.116 A 
ENDROOT
BRANCH  11  12
ATOM     12  O   UNL     1      -3.812  13.611   7.538  1.00  0.00    -0.508 OA
ATOM     13  H   UNL     1      -3.141  14.280   7.900  1.00  0.00     0.293 HD
ENDBRANCH  11  12
TORSDOF 1
ENDMDL
MODEL 5
REMARK VINA RESULT:    -5.222      1.805      4.359
REMARK INTER + INTRA:          -5.374
REMARK INTER:                  -5.374
REMARK INTRA:                   0.000
REMARK UNBOUND:                 0.000
REMARK SMILES O=c1ccc2cc(O)ccc2o1
REMARK SMILES IDX 9 1 10 2 11 3 5 4 4 5 3 6 2 7 1 8 12 9 6 10 7 11 8 12
REMARK H PARENT 8 13
REMARK Flexibility Score: inf
ROOT
ATOM      1  C   UNL     1      -4.370  16.712   7.962  1.00  0.00     0.050 A 
ATOM      2  C   UNL     1      -5.724  16.614   7.626  1.00  0.00     0.052 A 
ATOM      3  C   UNL     1      -6.158  15.612   6.752  1.00  0.00     0.138 A 
ATOM      4  C   UNL     1      -5.225  14.702   6.210  1.00  0.00     0.021 A 
ATOM      5  C   UNL     1      -5.688  13.711   5.338  1.00  0.00     0.019 A 
ATOM      6  C   UNL     1      -7.048  13.651   5.033  1.00  0.00     0.094 A 
ATOM      7  C   UNL     1      -7.914  14.587   5.607  1.00  0.00     0.336 A 
ATOM      8  O   UNL     1      -9.145  14.549   5.343  1.00  0.00    -0.246 OA
ATOM      9  O   UNL     1      -7.447  15.520   6.433  1.00  0.00    -0.423 OA
ATOM     10  C   UNL     1      -3.868  14.805   6.550  1.00  0.00     0.058 A 
ATOM     11  C   UNL     1      -3.440  15.811   7.427  1.00  0.00     0.116 A 
ENDROOT
BRANCH  11  12
ATOM     12  O   UNL     1      -2.096  15.926   7.774  1.00  0.00    -0.508 OA
ATOM     13  H   UNL     1      -1.639  16.829   7.833  1.00  0.00     0.293 HD
ENDBRANCH  11  12
TORSDOF 1
ENDMDL
MODEL 6
REMARK VINA RESULT:    -5.133      3.389      5.143
REMARK INTER + INTRA:          -5.283
REMARK INTER:                  -5.283
REMARK INTRA:                   0.000
REMARK UNBOUND:                 0.000
REMARK SMILES O=c1ccc2cc(O)ccc2o1
REMARK SMILES IDX 9 1 10 2 11 3 5 4 4 5 3 6 2 7 1 8 12 9 6 10 7 11 8 12
REMARK H PARENT 8 13
REMARK Flexibility Score: inf
ROOT
ATOM      1  C   UNL     1      -8.358  13.397   5.107  1.00  0.00     0.050 A 
ATOM      2  C   UNL     1      -9.543  14.107   5.326  1.00  0.00     0.052 A 
ATOM      3  C   UNL     1      -9.519  15.309   6.040  1.00  0.00     0.138 A 
ATOM      4  C   UNL     1      -8.294  15.803   6.540  1.00  0.00     0.021 A 
ATOM      5  C   UNL     1      -8.301  17.007   7.251  1.00  0.00     0.019 A 
ATOM      6  C   UNL     1      -9.507  17.680   7.444  1.00  0.00     0.094 A 
ATOM      7  C   UNL     1     -10.682  17.131   6.920  1.00  0.00     0.336 A 
ATOM      8  O   UNL     1     -11.781  17.724   7.084  1.00  0.00    -0.246 OA
ATOM      9  O   UNL     1     -10.648  15.983   6.248  1.00  0.00    -0.423 OA
ATOM     10  C   UNL     1      -7.108  15.088   6.319  1.00  0.00     0.058 A 
ATOM     11  C   UNL     1      -7.141  13.883   5.601  1.00  0.00     0.116 A 
ENDROOT
BRANCH  11  12
ATOM     12  O   UNL     1      -5.971  13.162   5.373  1.00  0.00    -0.508 OA
ATOM     13  H   UNL     1      -5.274  13.040   6.097  1.00  0.00     0.293 HD
ENDBRANCH  11  12
TORSDOF 1
ENDMDL
MODEL 7
REMARK VINA RESULT:    -5.059      1.902      2.573
REMARK INTER + INTRA:          -5.207
REMARK INTER:                  -5.207
REMARK INTRA:                   0.000
REMARK UNBOUND:                 0.000
REMARK SMILES O=c1ccc2cc(O)ccc2o1
REMARK SMILES IDX 9 1 10 2 11 3 5 4 4 5 3 6 2 7 1 8 12 9 6 10 7 11 8 12
REMARK H PARENT 8 13
REMARK Flexibility Score: inf
ROOT
ATOM      1  C   UNL     1      -7.092  13.612   5.086  1.00  0.00     0.050 A 
ATOM      2  C   UNL     1      -5.718  13.703   5.333  1.00  0.00     0.052 A 
ATOM      3  C   UNL     1      -5.219  14.723   6.148  1.00  0.00     0.138 A 
ATOM      4  C   UNL     1      -6.106  15.660   6.722  1.00  0.00     0.021 A 
ATOM      5  C   UNL     1      -5.577  16.670   7.532  1.00  0.00     0.019 A 
ATOM      6  C   UNL     1      -4.201  16.721   7.750  1.00  0.00     0.094 A 
ATOM      7  C   UNL     1      -3.383  15.758   7.150  1.00  0.00     0.336 A 
ATOM      8  O   UNL     1      -2.138  15.788   7.334  1.00  0.00    -0.246 OA
ATOM      9  O   UNL     1      -3.911  14.809   6.381  1.00  0.00    -0.423 OA
ATOM     10  C   UNL     1      -7.483  15.566   6.471  1.00  0.00     0.058 A 
ATOM     11  C   UNL     1      -7.976  14.539   5.652  1.00  0.00     0.116 A 
ENDROOT
BRANCH  11  12
ATOM     12  O   UNL     1      -9.341  14.431   5.394  1.00  0.00    -0.508 OA
ATOM     13  H   UNL     1      -9.982  15.187   5.608  1.00  0.00     0.293 HD
ENDBRANCH  11  12
TORSDOF 1
ENDMDL
MODEL 8
REMARK VINA RESULT:    -4.915      2.618      5.205
REMARK INTER + INTRA:          -5.059
REMARK INTER:                  -5.059
REMARK INTRA:                   0.000
REMARK UNBOUND:                 0.000
REMARK SMILES O=c1ccc2cc(O)ccc2o1
REMARK SMILES IDX 9 1 10 2 11 3 5 4 4 5 3 6 2 7 1 8 12 9 6 10 7 11 8 12
REMARK H PARENT 8 13
REMARK Flexibility Score: inf
ROOT
ATOM      1  C   UNL     1      -0.304  16.604   7.256  1.00  0.00     0.050 A 
ATOM      2  C   UNL     1      -1.475  16.589   6.492  1.00  0.00     0.052 A 
ATOM      3  C   UNL     1      -2.566  15.814   6.896  1.00  0.00     0.138 A 
ATOM      4  C   UNL     1      -2.482  15.045   8.077  1.00  0.00     0.021 A 
ATOM      5  C   UNL     1      -3.588  14.278   8.455  1.00  0.00     0.019 A 
ATOM      6  C   UNL     1      -4.735  14.296   7.662  1.00  0.00     0.094 A 
ATOM      7  C   UNL     1      -4.748  15.082   6.505  1.00  0.00     0.336 A 
ATOM      8  O   UNL     1      -5.774  15.111   5.776  1.00  0.00    -0.246 OA
ATOM      9  O   UNL     1      -3.680  15.801   6.167  1.00  0.00    -0.423 OA
ATOM     10  C   UNL     1      -1.304  15.061   8.840  1.00  0.00     0.058 A 
ATOM     11  C   UNL     1      -0.214  15.843   8.428  1.00  0.00     0.116 A 
ENDROOT
BRANCH  11  12
ATOM     12  O   UNL     1       0.961  15.870   9.176  1.00  0.00    -0.508 OA
ATOM     13  H   UNL     1       0.946  15.826  10.188  1.00  0.00     0.293 HD
ENDBRANCH  11  12
TORSDOF 1
ENDMDL
MODEL 9
REMARK VINA RESULT:    -4.901      2.734      4.695
REMARK INTER + INTRA:          -5.044
REMARK INTER:                  -5.044
REMARK INTRA:                   0.000
REMARK UNBOUND:                 0.000
REMARK SMILES O=c1ccc2cc(O)ccc2o1
REMARK SMILES IDX 9 1 10 2 11 3 5 4 4 5 3 6 2 7 1 8 12 9 6 10 7 11 8 12
REMARK H PARENT 8 13
REMARK Flexibility Score: inf
ROOT
ATOM      1  C   UNL     1      -5.823  14.635   6.829  1.00  0.00     0.050 A 
ATOM      2  C   UNL     1      -6.683  15.512   7.497  1.00  0.00     0.052 A 
ATOM      3  C   UNL     1      -7.953  15.780   6.978  1.00  0.00     0.138 A 
ATOM      4  C   UNL     1      -8.364  15.163   5.776  1.00  0.00     0.021 A 
ATOM      5  C   UNL     1      -9.639  15.452   5.280  1.00  0.00     0.019 A 
ATOM      6  C   UNL     1     -10.462  16.332   5.982  1.00  0.00     0.094 A 
ATOM      7  C   UNL     1      -9.988  16.906   7.166  1.00  0.00     0.336 A 
ATOM      8  O   UNL     1     -10.716  17.704   7.813  1.00  0.00    -0.246 OA
ATOM      9  O   UNL     1      -8.770  16.616   7.615  1.00  0.00    -0.423 OA
ATOM     10  C   UNL     1      -7.498  14.285   5.108  1.00  0.00     0.058 A 
ATOM     11  C   UNL     1      -6.226  14.020   5.636  1.00  0.00     0.116 A 
ENDROOT
BRANCH  11  12
ATOM     12  O   UNL     1      -5.355  13.150   4.985  1.00  0.00    -0.508 OA
ATOM     13  H   UNL     1      -4.483  12.856   5.410  1.00  0.00     0.293 HD
ENDBRANCH  11  12
TORSDOF 1
ENDMDL
