MODEL 1
REMARK VINA RESULT:    -4.723      0.000      0.000
REMARK INTER + INTRA:          -6.499
REMARK INTER:                  -6.380
REMARK INTRA:                  -0.120
REMARK UNBOUND:                -0.120
REMARK SMILES [NH3+]CCCC[C@@H]([NH3+])C(=O)[O-]
REMARK SMILES IDX 4 1 3 2 2 3 1 4 5 8 6 9 7 10 8 14 9 15 10 16
REMARK H PARENT 1 5 1 6 1 7 7 11 7 12 7 13
REMARK Flexibility Score: inf
ROOT
ATOM      1  C   UNL     1     -24.184   6.284 -14.034  1.00  0.00     0.012 C 
ENDROOT
BRANCH   1   2
ATOM      2  C   UNL     1     -22.954   6.858 -14.756  1.00  0.00     0.061 C 
BRANCH   2   3
ATOM      3  C   UNL     1     -22.911   8.395 -14.727  1.00  0.00     0.258 C 
BRANCH   3   4
ATOM      4  N   UNL     1     -24.174   8.942 -14.232  1.00  0.00    -0.358 N 
ATOM      5  H   UNL     1     -24.234   8.827 -13.194  1.00  0.00     0.344 HD
ATOM      6  H   UNL     1     -24.968   8.427 -14.676  1.00  0.00     0.344 HD
ATOM      7  H   UNL     1     -24.248   9.956 -14.480  1.00  0.00     0.344 HD
ENDBRANCH   3   4
ENDBRANCH   2   3
ENDBRANCH   1   2
BRANCH   1   8
ATOM      8  C   UNL     1     -24.787   5.071 -14.769  1.00  0.00     0.072 C 
BRANCH   8   9
ATOM      9  C   UNL     1     -23.749   4.201 -15.515  1.00  0.00     0.227 C 
BRANCH   9  10
ATOM     10  N   UNL     1     -23.733   2.814 -15.029  1.00  0.00    -0.350 N 
ATOM     11  H   UNL     1     -22.809   2.377 -15.252  1.00  0.00     0.345 HD
ATOM     12  H   UNL     1     -23.856   2.800 -13.989  1.00  0.00     0.345 HD
ATOM     13  H   UNL     1     -24.486   2.242 -15.472  1.00  0.00     0.345 HD
ENDBRANCH   9  10
BRANCH   9  14
ATOM     14  C   UNL     1     -23.946   4.262 -17.010  1.00  0.00     0.099 C 
ATOM     15  O   UNL     1     -22.961   4.364 -17.789  1.00  0.00    -0.544 OA
ATOM     16  O   UNL     1     -25.225   4.153 -17.539  1.00  0.00    -0.544 OA
ENDBRANCH   9  14
ENDBRANCH   8   9
ENDBRANCH   1   8
TORSDOF 7
ENDMDL
MODEL 2
REMARK VINA RESULT:    -4.528      3.084      4.596
REMARK INTER + INTRA:          -6.235
REMARK INTER:                  -6.155
REMARK INTRA:                  -0.081
REMARK UNBOUND:                -0.120
REMARK SMILES [NH3+]CCCC[C@@H]([NH3+])C(=O)[O-]
REMARK SMILES IDX 4 1 3 2 2 3 1 4 5 8 6 9 7 10 8 14 9 15 10 16
REMARK H PARENT 1 5 1 6 1 7 7 11 7 12 7 13
REMARK Flexibility Score: inf
ROOT
ATOM      1  C   UNL     1     -24.873   4.643 -15.148  1.00  0.00     0.012 C 
ENDROOT
BRANCH   1   2
ATOM      2  C   UNL     1     -23.755   3.911 -15.909  1.00  0.00     0.061 C 
BRANCH   2   3
ATOM      3  C   UNL     1     -23.778   4.199 -17.419  1.00  0.00     0.258 C 
BRANCH   3   4
ATOM      4  N   UNL     1     -25.058   3.802 -18.006  1.00  0.00    -0.358 N 
ATOM      5  H   UNL     1     -25.805   4.480 -17.730  1.00  0.00     0.344 HD
ATOM      6  H   UNL     1     -25.317   2.852 -17.653  1.00  0.00     0.344 HD
ATOM      7  H   UNL     1     -24.979   3.767 -19.048  1.00  0.00     0.344 HD
ENDBRANCH   3   4
ENDBRANCH   2   3
ENDBRANCH   1   2
BRANCH   1   8
ATOM      8  C   UNL     1     -24.337   5.805 -14.288  1.00  0.00     0.072 C 
BRANCH   8   9
ATOM      9  C   UNL     1     -25.439   6.683 -13.650  1.00  0.00     0.227 C 
BRANCH   9  10
ATOM     10  N   UNL     1     -25.423   6.616 -12.182  1.00  0.00    -0.350 N 
ATOM     11  H   UNL     1     -24.630   7.194 -11.816  1.00  0.00     0.345 HD
ATOM     12  H   UNL     1     -26.314   7.008 -11.798  1.00  0.00     0.345 HD
ATOM     13  H   UNL     1     -25.303   5.635 -11.842  1.00  0.00     0.345 HD
ENDBRANCH   9  10
BRANCH   9  14
ATOM     14  C   UNL     1     -25.367   8.108 -14.141  1.00  0.00     0.099 C 
ATOM     15  O   UNL     1     -24.264   8.629 -14.456  1.00  0.00    -0.544 OA
ATOM     16  O   UNL     1     -26.537   8.841 -14.296  1.00  0.00    -0.544 OA
ENDBRANCH   9  14
ENDBRANCH   8   9
ENDBRANCH   1   8
TORSDOF 7
ENDMDL
MODEL 3
REMARK VINA RESULT:    -4.500      1.545      2.024
REMARK INTER + INTRA:          -6.199
REMARK INTER:                  -6.067
REMARK INTRA:                  -0.132
REMARK UNBOUND:                -0.120
REMARK SMILES [NH3+]CCCC[C@@H]([NH3+])C(=O)[O-]
REMARK SMILES IDX 4 1 3 2 2 3 1 4 5 8 6 9 7 10 8 14 9 15 10 16
REMARK H PARENT 1 5 1 6 1 7 7 11 7 12 7 13
REMARK Flexibility Score: inf
ROOT
ATOM      1  C   UNL     1     -22.525   6.271 -15.109  1.00  0.00     0.012 C 
ENDROOT
BRANCH   1   2
ATOM      2  C   UNL     1     -22.396   7.768 -14.786  1.00  0.00     0.061 C 
BRANCH   2   3
ATOM      3  C   UNL     1     -23.759   8.464 -14.640  1.00  0.00     0.258 C 
BRANCH   3   4
ATOM      4  N   UNL     1     -23.592   9.860 -14.233  1.00  0.00    -0.358 N 
ATOM      5  H   UNL     1     -22.966   9.918 -13.397  1.00  0.00     0.344 HD
ATOM      6  H   UNL     1     -24.525  10.259 -13.985  1.00  0.00     0.344 HD
ATOM      7  H   UNL     1     -23.184  10.415 -15.020  1.00  0.00     0.344 HD
ENDBRANCH   3   4
ENDBRANCH   2   3
ENDBRANCH   1   2
BRANCH   1   8
ATOM      8  C   UNL     1     -23.809   5.650 -14.524  1.00  0.00     0.072 C 
BRANCH   8   9
ATOM      9  C   UNL     1     -24.472   4.588 -15.431  1.00  0.00     0.227 C 
BRANCH   9  10
ATOM     10  N   UNL     1     -24.308   3.226 -14.905  1.00  0.00    -0.350 N 
ATOM     11  H   UNL     1     -23.302   3.062 -14.671  1.00  0.00     0.345 HD
ATOM     12  H   UNL     1     -24.868   3.114 -14.028  1.00  0.00     0.345 HD
ATOM     13  H   UNL     1     -24.610   2.506 -15.600  1.00  0.00     0.345 HD
ENDBRANCH   9  10
BRANCH   9  14
ATOM     14  C   UNL     1     -25.922   4.911 -15.694  1.00  0.00     0.099 C 
ATOM     15  O   UNL     1     -26.589   5.605 -14.880  1.00  0.00    -0.544 OA
ATOM     16  O   UNL     1     -26.519   4.481 -16.872  1.00  0.00    -0.544 OA
ENDBRANCH   9  14
ENDBRANCH   8   9
ENDBRANCH   1   8
TORSDOF 7
ENDMDL
MODEL 4
REMARK VINA RESULT:    -4.404      1.515      1.979
REMARK INTER + INTRA:          -6.068
REMARK INTER:                  -5.658
REMARK INTRA:                  -0.410
REMARK UNBOUND:                -0.120
REMARK SMILES [NH3+]CCCC[C@@H]([NH3+])C(=O)[O-]
REMARK SMILES IDX 4 1 3 2 2 3 1 4 5 8 6 9 7 10 8 14 9 15 10 16
REMARK H PARENT 1 5 1 6 1 7 7 11 7 12 7 13
REMARK Flexibility Score: inf
ROOT
ATOM      1  C   UNL     1     -26.296   5.606 -14.801  1.00  0.00     0.012 C 
ENDROOT
BRANCH   1   2
ATOM      2  C   UNL     1     -25.373   6.347 -13.821  1.00  0.00     0.061 C 
BRANCH   2   3
ATOM      3  C   UNL     1     -25.305   7.858 -14.097  1.00  0.00     0.258 C 
BRANCH   3   4
ATOM      4  N   UNL     1     -23.916   8.308 -14.193  1.00  0.00    -0.358 N 
ATOM      5  H   UNL     1     -23.573   8.622 -13.256  1.00  0.00     0.344 HD
ATOM      6  H   UNL     1     -23.862   9.112 -14.859  1.00  0.00     0.344 HD
ATOM      7  H   UNL     1     -23.311   7.532 -14.550  1.00  0.00     0.344 HD
ENDBRANCH   3   4
ENDBRANCH   2   3
ENDBRANCH   1   2
BRANCH   1   8
ATOM      8  C   UNL     1     -25.543   4.552 -15.637  1.00  0.00     0.072 C 
BRANCH   8   9
ATOM      9  C   UNL     1     -24.089   4.296 -15.176  1.00  0.00     0.227 C 
BRANCH   9  10
ATOM     10  N   UNL     1     -23.802   2.863 -15.014  1.00  0.00    -0.350 N 
ATOM     11  H   UNL     1     -23.817   2.397 -15.950  1.00  0.00     0.345 HD
ATOM     12  H   UNL     1     -22.848   2.736 -14.602  1.00  0.00     0.345 HD
ATOM     13  H   UNL     1     -24.507   2.397 -14.399  1.00  0.00     0.345 HD
ENDBRANCH   9  10
BRANCH   9  14
ATOM     14  C   UNL     1     -23.091   4.961 -16.091  1.00  0.00     0.099 C 
ATOM     15  O   UNL     1     -22.969   4.596 -17.291  1.00  0.00    -0.544 OA
ATOM     16  O   UNL     1     -22.331   6.024 -15.621  1.00  0.00    -0.544 OA
ENDBRANCH   9  14
ENDBRANCH   8   9
ENDBRANCH   1   8
TORSDOF 7
ENDMDL
MODEL 5
REMARK VINA RESULT:    -4.360      2.984      4.498
REMARK INTER + INTRA:          -6.009
REMARK INTER:                  -5.837
REMARK INTRA:                  -0.172
REMARK UNBOUND:                -0.120
REMARK SMILES [NH3+]CCCC[C@@H]([NH3+])C(=O)[O-]
REMARK SMILES IDX 4 1 3 2 2 3 1 4 5 8 6 9 7 10 8 14 9 15 10 16
REMARK H PARENT 1 5 1 6 1 7 7 11 7 12 7 13
REMARK Flexibility Score: inf
ROOT
ATOM      1  C   UNL     1     -24.832   4.256 -15.917  1.00  0.00     0.012 C 
ENDROOT
BRANCH   1   2
ATOM      2  C   UNL     1     -26.214   4.751 -16.373  1.00  0.00     0.061 C 
BRANCH   2   3
ATOM      3  C   UNL     1     -26.568   4.295 -17.798  1.00  0.00     0.258 C 
BRANCH   3   4
ATOM      4  N   UNL     1     -25.390   3.762 -18.482  1.00  0.00    -0.358 N 
ATOM      5  H   UNL     1     -25.559   2.771 -18.771  1.00  0.00     0.344 HD
ATOM      6  H   UNL     1     -24.573   3.788 -17.830  1.00  0.00     0.344 HD
ATOM      7  H   UNL     1     -25.170   4.343 -19.324  1.00  0.00     0.344 HD
ENDBRANCH   3   4
ENDBRANCH   2   3
ENDBRANCH   1   2
BRANCH   1   8
ATOM      8  C   UNL     1     -24.437   4.804 -14.531  1.00  0.00     0.072 C 
BRANCH   8   9
ATOM      9  C   UNL     1     -24.982   6.220 -14.229  1.00  0.00     0.227 C 
BRANCH   9  10
ATOM     10  N   UNL     1     -25.586   6.310 -12.892  1.00  0.00    -0.350 N 
ATOM     11  H   UNL     1     -26.002   5.385 -12.636  1.00  0.00     0.345 HD
ATOM     12  H   UNL     1     -24.851   6.543 -12.185  1.00  0.00     0.345 HD
ATOM     13  H   UNL     1     -26.339   7.033 -12.858  1.00  0.00     0.345 HD
ENDBRANCH   9  10
BRANCH   9  14
ATOM     14  C   UNL     1     -23.924   7.276 -14.432  1.00  0.00     0.099 C 
ATOM     15  O   UNL     1     -22.719   6.958 -14.619  1.00  0.00    -0.544 OA
ATOM     16  O   UNL     1     -24.288   8.616 -14.462  1.00  0.00    -0.544 OA
ENDBRANCH   9  14
ENDBRANCH   8   9
ENDBRANCH   1   8
TORSDOF 7
ENDMDL
MODEL 6
REMARK VINA RESULT:    -4.258      1.782      1.963
REMARK INTER + INTRA:          -5.871
REMARK INTER:                  -5.808
REMARK INTRA:                  -0.063
REMARK UNBOUND:                -0.120
REMARK SMILES [NH3+]CCCC[C@@H]([NH3+])C(=O)[O-]
REMARK SMILES IDX 4 1 3 2 2 3 1 4 5 8 6 9 7 10 8 14 9 15 10 16
REMARK H PARENT 1 5 1 6 1 7 7 11 7 12 7 13
REMARK Flexibility Score: inf
ROOT
ATOM      1  C   UNL     1     -24.028   6.212 -13.993  1.00  0.00     0.012 C 
ENDROOT
BRANCH   1   2
ATOM      2  C   UNL     1     -23.275   7.442 -14.526  1.00  0.00     0.061 C 
BRANCH   2   3
ATOM      3  C   UNL     1     -24.141   8.712 -14.532  1.00  0.00     0.258 C 
BRANCH   3   4
ATOM      4  N   UNL     1     -23.336   9.894 -14.224  1.00  0.00    -0.358 N 
ATOM      5  H   UNL     1     -22.391   9.810 -14.665  1.00  0.00     0.344 HD
ATOM      6  H   UNL     1     -23.219   9.968 -13.187  1.00  0.00     0.344 HD
ATOM      7  H   UNL     1     -23.815  10.755 -14.574  1.00  0.00     0.344 HD
ENDBRANCH   3   4
ENDBRANCH   2   3
ENDBRANCH   1   2
BRANCH   1   8
ATOM      8  C   UNL     1     -25.411   6.037 -14.650  1.00  0.00     0.072 C 
BRANCH   8   9
ATOM      9  C   UNL     1     -25.648   4.640 -15.270  1.00  0.00     0.227 C 
BRANCH   9  10
ATOM     10  N   UNL     1     -26.561   4.690 -16.421  1.00  0.00    -0.350 N 
ATOM     11  H   UNL     1     -26.012   4.577 -17.305  1.00  0.00     0.345 HD
ATOM     12  H   UNL     1     -27.250   3.904 -16.364  1.00  0.00     0.345 HD
ATOM     13  H   UNL     1     -27.076   5.598 -16.464  1.00  0.00     0.345 HD
ENDBRANCH   9  10
BRANCH   9  14
ATOM     14  C   UNL     1     -24.348   3.961 -15.622  1.00  0.00     0.099 C 
ATOM     15  O   UNL     1     -23.879   3.044 -14.897  1.00  0.00    -0.544 OA
ATOM     16  O   UNL     1     -23.681   4.316 -16.788  1.00  0.00    -0.544 OA
ENDBRANCH   9  14
ENDBRANCH   8   9
ENDBRANCH   1   8
TORSDOF 7
ENDMDL
MODEL 7
REMARK VINA RESULT:    -4.256      1.843      2.102
REMARK INTER + INTRA:          -5.868
REMARK INTER:                  -5.748
REMARK INTRA:                  -0.120
REMARK UNBOUND:                -0.120
REMARK SMILES [NH3+]CCCC[C@@H]([NH3+])C(=O)[O-]
REMARK SMILES IDX 4 1 3 2 2 3 1 4 5 8 6 9 7 10 8 14 9 15 10 16
REMARK H PARENT 1 5 1 6 1 7 7 11 7 12 7 13
REMARK Flexibility Score: inf
ROOT
ATOM      1  C   UNL     1     -25.419   6.156 -14.548  1.00  0.00     0.012 C 
ENDROOT
BRANCH   1   2
ATOM      2  C   UNL     1     -24.611   6.222 -13.242  1.00  0.00     0.061 C 
BRANCH   2   3
ATOM      3  C   UNL     1     -25.503   6.194 -11.990  1.00  0.00     0.258 C 
BRANCH   3   4
ATOM      4  N   UNL     1     -24.790   6.732 -10.830  1.00  0.00    -0.358 N 
ATOM      5  H   UNL     1     -25.469   6.978 -10.074  1.00  0.00     0.344 HD
ATOM      6  H   UNL     1     -24.274   7.595 -11.115  1.00  0.00     0.344 HD
ATOM      7  H   UNL     1     -24.103   6.028 -10.474  1.00  0.00     0.344 HD
ENDBRANCH   3   4
ENDBRANCH   2   3
ENDBRANCH   1   2
BRANCH   1   8
ATOM      8  C   UNL     1     -25.453   4.737 -15.149  1.00  0.00     0.072 C 
BRANCH   8   9
ATOM      9  C   UNL     1     -24.087   4.236 -15.672  1.00  0.00     0.227 C 
BRANCH   9  10
ATOM     10  N   UNL     1     -23.735   2.915 -15.132  1.00  0.00    -0.350 N 
ATOM     11  H   UNL     1     -23.049   3.030 -14.350  1.00  0.00     0.345 HD
ATOM     12  H   UNL     1     -24.590   2.449 -14.748  1.00  0.00     0.345 HD
ATOM     13  H   UNL     1     -23.307   2.302 -15.862  1.00  0.00     0.345 HD
ENDBRANCH   9  10
BRANCH   9  14
ATOM     14  C   UNL     1     -24.029   4.252 -17.179  1.00  0.00     0.099 C 
ATOM     15  O   UNL     1     -22.930   4.363 -17.784  1.00  0.00    -0.544 OA
ATOM     16  O   UNL     1     -25.198   4.091 -17.913  1.00  0.00    -0.544 OA
ENDBRANCH   9  14
ENDBRANCH   8   9
ENDBRANCH   1   8
TORSDOF 7
ENDMDL
MODEL 8
REMARK VINA RESULT:    -3.982      2.165      2.461
REMARK INTER + INTRA:          -5.499
REMARK INTER:                  -5.014
REMARK INTRA:                  -0.485
REMARK UNBOUND:                -0.120
REMARK SMILES [NH3+]CCCC[C@@H]([NH3+])C(=O)[O-]
REMARK SMILES IDX 4 1 3 2 2 3 1 4 5 8 6 9 7 10 8 14 9 15 10 16
REMARK H PARENT 1 5 1 6 1 7 7 11 7 12 7 13
REMARK Flexibility Score: inf
ROOT
ATOM      1  C   UNL     1     -24.580   7.189 -14.179  1.00  0.00     0.012 C 
ENDROOT
BRANCH   1   2
ATOM      2  C   UNL     1     -23.199   7.557 -14.747  1.00  0.00     0.061 C 
BRANCH   2   3
ATOM      3  C   UNL     1     -22.217   6.375 -14.735  1.00  0.00     0.258 C 
BRANCH   3   4
ATOM      4  N   UNL     1     -21.795   6.034 -16.093  1.00  0.00    -0.358 N 
ATOM      5  H   UNL     1     -22.109   5.067 -16.336  1.00  0.00     0.344 HD
ATOM      6  H   UNL     1     -20.751   6.073 -16.148  1.00  0.00     0.344 HD
ATOM      7  H   UNL     1     -22.196   6.719 -16.776  1.00  0.00     0.344 HD
ENDBRANCH   3   4
ENDBRANCH   2   3
ENDBRANCH   1   2
BRANCH   1   8
ATOM      8  C   UNL     1     -24.788   5.665 -14.078  1.00  0.00     0.072 C 
BRANCH   8   9
ATOM      9  C   UNL     1     -25.957   5.125 -14.934  1.00  0.00     0.227 C 
BRANCH   9  10
ATOM     10  N   UNL     1     -27.023   6.122 -15.111  1.00  0.00    -0.350 N 
ATOM     11  H   UNL     1     -26.606   7.081 -15.109  1.00  0.00     0.345 HD
ATOM     12  H   UNL     1     -27.497   5.976 -16.033  1.00  0.00     0.345 HD
ATOM     13  H   UNL     1     -27.732   6.066 -14.346  1.00  0.00     0.345 HD
ENDBRANCH   9  10
BRANCH   9  14
ATOM     14  C   UNL     1     -25.473   4.590 -16.259  1.00  0.00     0.099 C 
ATOM     15  O   UNL     1     -24.293   4.169 -16.395  1.00  0.00    -0.544 OA
ATOM     16  O   UNL     1     -26.353   4.511 -17.331  1.00  0.00    -0.544 OA
ENDBRANCH   9  14
ENDBRANCH   8   9
ENDBRANCH   1   8
TORSDOF 7
ENDMDL
MODEL 9
REMARK VINA RESULT:    -3.913      2.630      4.585
REMARK INTER + INTRA:          -5.405
REMARK INTER:                  -5.379
REMARK INTRA:                  -0.025
REMARK UNBOUND:                -0.120
REMARK SMILES [NH3+]CCCC[C@@H]([NH3+])C(=O)[O-]
REMARK SMILES IDX 4 1 3 2 2 3 1 4 5 8 6 9 7 10 8 14 9 15 10 16
REMARK H PARENT 1 5 1 6 1 7 7 11 7 12 7 13
REMARK Flexibility Score: inf
ROOT
ATOM      1  C   UNL     1     -23.794   4.717 -15.151  1.00  0.00     0.012 C 
ENDROOT
BRANCH   1   2
ATOM      2  C   UNL     1     -23.940   4.194 -16.590  1.00  0.00     0.061 C 
BRANCH   2   3
ATOM      3  C   UNL     1     -25.368   4.351 -17.137  1.00  0.00     0.258 C 
BRANCH   3   4
ATOM      4  N   UNL     1     -25.489   3.738 -18.460  1.00  0.00    -0.358 N 
ATOM      5  H   UNL     1     -25.282   4.443 -19.204  1.00  0.00     0.344 HD
ATOM      6  H   UNL     1     -26.467   3.390 -18.587  1.00  0.00     0.344 HD
ATOM      7  H   UNL     1     -24.829   2.930 -18.543  1.00  0.00     0.344 HD
ENDBRANCH   3   4
ENDBRANCH   2   3
ENDBRANCH   1   2
BRANCH   1   8
ATOM      8  C   UNL     1     -23.111   6.098 -15.092  1.00  0.00     0.072 C 
BRANCH   8   9
ATOM      9  C   UNL     1     -23.667   7.035 -13.995  1.00  0.00     0.227 C 
BRANCH   9  10
ATOM     10  N   UNL     1     -23.609   8.450 -14.391  1.00  0.00    -0.350 N 
ATOM     11  H   UNL     1     -23.800   8.532 -15.416  1.00  0.00     0.345 HD
ATOM     12  H   UNL     1     -24.342   8.993 -13.879  1.00  0.00     0.345 HD
ATOM     13  H   UNL     1     -22.671   8.866 -14.193  1.00  0.00     0.345 HD
ENDBRANCH   9  10
BRANCH   9  14
ATOM     14  C   UNL     1     -25.060   6.633 -13.576  1.00  0.00     0.099 C 
ATOM     15  O   UNL     1     -25.291   6.220 -12.408  1.00  0.00    -0.544 OA
ATOM     16  O   UNL     1     -26.112   6.767 -14.472  1.00  0.00    -0.544 OA
ENDBRANCH   9  14
ENDBRANCH   8   9
ENDBRANCH   1   8
TORSDOF 7
ENDMDL
