MODEL 1
REMARK VINA RESULT:    -4.536      0.000      0.000
REMARK INTER + INTRA:          -8.886
REMARK INTER:                  -7.717
REMARK INTRA:                  -1.168
REMARK UNBOUND:                -1.168
REMARK SMILES CCCCCCCCCCCCCC(=O)[O-]
REMARK SMILES IDX 8 1 9 2 10 3 11 4 12 5 13 6 14 7 15 8 16 9 7 10 6 11 5 12
REMARK SMILES IDX 4 13 3 14 2 15 1 16
REMARK H PARENT
REMARK Flexibility Score: inf
ROOT
ATOM      1  C   UNL     1     154.972 168.256 193.082  1.00  0.00     0.000 C 
ENDROOT
BRANCH   1   2
ATOM      2  C   UNL     1     154.357 168.587 191.717  1.00  0.00     0.000 C 
BRANCH   2   3
ATOM      3  C   UNL     1     154.387 167.365 190.789  1.00  0.00     0.000 C 
BRANCH   3   4
ATOM      4  C   UNL     1     154.298 167.792 189.316  1.00  0.00     0.000 C 
BRANCH   4   5
ATOM      5  C   UNL     1     152.986 168.523 188.990  1.00  0.00     0.006 C 
BRANCH   5   6
ATOM      6  C   UNL     1     152.379 168.076 187.654  1.00  0.00     0.053 C 
BRANCH   6   7
ATOM      7  C   UNL     1     153.325 168.361 186.529  1.00  0.00     0.041 C 
ATOM      8  O   UNL     1     153.700 169.540 186.300  1.00  0.00    -0.550 OA
ATOM      9  O   UNL     1     153.754 167.329 185.703  1.00  0.00    -0.550 OA
ENDBRANCH   6   7
ENDBRANCH   5   6
ENDBRANCH   4   5
ENDBRANCH   3   4
ENDBRANCH   2   3
ENDBRANCH   1   2
BRANCH   1  10
ATOM     10  C   UNL     1     154.974 166.744 193.334  1.00  0.00     0.000 C 
BRANCH  10  11
ATOM     11  C   UNL     1     154.544 166.423 194.770  1.00  0.00    -0.000 C 
BRANCH  11  12
ATOM     12  C   UNL     1     153.882 165.040 194.850  1.00  0.00    -0.000 C 
BRANCH  12  13
ATOM     13  C   UNL     1     154.258 164.127 193.669  1.00  0.00    -0.000 C 
BRANCH  13  14
ATOM     14  C   UNL     1     153.062 163.550 192.883  1.00  0.00    -0.000 C 
BRANCH  14  15
ATOM     15  C   UNL     1     153.019 163.934 191.393  1.00  0.00    -0.003 C 
ATOM     16  C   UNL     1     154.349 163.699 190.678  1.00  0.00     0.004 C 
ENDBRANCH  14  15
ENDBRANCH  13  14
ENDBRANCH  12  13
ENDBRANCH  11  12
ENDBRANCH  10  11
ENDBRANCH   1  10
TORSDOF 12
ENDMDL
MODEL 2
REMARK VINA RESULT:    -4.377      1.466      2.352
REMARK INTER + INTRA:          -8.616
REMARK INTER:                  -7.906
REMARK INTRA:                  -0.711
REMARK UNBOUND:                -1.168
REMARK SMILES CCCCCCCCCCCCCC(=O)[O-]
REMARK SMILES IDX 8 1 9 2 10 3 11 4 12 5 13 6 14 7 15 8 16 9 7 10 6 11 5 12
REMARK SMILES IDX 4 13 3 14 2 15 1 16
REMARK H PARENT
REMARK Flexibility Score: inf
ROOT
ATOM      1  C   UNL     1     154.792 167.885 191.539  1.00  0.00     0.000 C 
ENDROOT
BRANCH   1   2
ATOM      2  C   UNL     1     155.590 168.647 190.475  1.00  0.00     0.000 C 
BRANCH   2   3
ATOM      3  C   UNL     1     154.960 168.478 189.087  1.00  0.00     0.000 C 
BRANCH   3   4
ATOM      4  C   UNL     1     153.522 167.950 189.198  1.00  0.00     0.000 C 
BRANCH   4   5
ATOM      5  C   UNL     1     152.561 168.639 188.217  1.00  0.00     0.006 C 
BRANCH   5   6
ATOM      6  C   UNL     1     152.153 167.727 187.052  1.00  0.00     0.053 C 
BRANCH   6   7
ATOM      7  C   UNL     1     152.941 168.064 185.825  1.00  0.00     0.041 C 
ATOM      8  O   UNL     1     153.037 167.231 184.885  1.00  0.00    -0.550 OA
ATOM      9  O   UNL     1     153.611 169.278 185.740  1.00  0.00    -0.550 OA
ENDBRANCH   6   7
ENDBRANCH   5   6
ENDBRANCH   4   5
ENDBRANCH   3   4
ENDBRANCH   2   3
ENDBRANCH   1   2
BRANCH   1  10
ATOM     10  C   UNL     1     154.709 168.686 192.844  1.00  0.00     0.000 C 
BRANCH  10  11
ATOM     11  C   UNL     1     155.805 168.256 193.827  1.00  0.00    -0.000 C 
BRANCH  11  12
ATOM     12  C   UNL     1     155.723 166.752 194.120  1.00  0.00    -0.000 C 
BRANCH  12  13
ATOM     13  C   UNL     1     154.710 166.411 195.228  1.00  0.00    -0.000 C 
BRANCH  13  14
ATOM     14  C   UNL     1     154.420 164.907 195.408  1.00  0.00    -0.000 C 
BRANCH  14  15
ATOM     15  C   UNL     1     153.598 164.263 194.278  1.00  0.00    -0.003 C 
ATOM     16  C   UNL     1     152.443 163.404 194.796  1.00  0.00     0.004 C 
ENDBRANCH  14  15
ENDBRANCH  13  14
ENDBRANCH  12  13
ENDBRANCH  11  12
ENDBRANCH  10  11
ENDBRANCH   1  10
TORSDOF 12
ENDMDL
MODEL 3
REMARK VINA RESULT:    -4.370      1.461      2.184
REMARK INTER + INTRA:          -8.603
REMARK INTER:                  -7.778
REMARK INTRA:                  -0.826
REMARK UNBOUND:                -1.168
REMARK SMILES CCCCCCCCCCCCCC(=O)[O-]
REMARK SMILES IDX 8 1 9 2 10 3 11 4 12 5 13 6 14 7 15 8 16 9 7 10 6 11 5 12
REMARK SMILES IDX 4 13 3 14 2 15 1 16
REMARK H PARENT
REMARK Flexibility Score: inf
ROOT
ATOM      1  C   UNL     1     154.614 168.640 192.100  1.00  0.00     0.000 C 
ENDROOT
BRANCH   1   2
ATOM      2  C   UNL     1     154.690 167.333 191.302  1.00  0.00     0.000 C 
BRANCH   2   3
ATOM      3  C   UNL     1     153.736 167.365 190.101  1.00  0.00     0.000 C 
BRANCH   3   4
ATOM      4  C   UNL     1     154.335 168.180 188.946  1.00  0.00     0.000 C 
BRANCH   4   5
ATOM      5  C   UNL     1     153.498 168.090 187.660  1.00  0.00     0.006 C 
BRANCH   5   6
ATOM      6  C   UNL     1     152.004 168.333 187.912  1.00  0.00     0.053 C 
BRANCH   6   7
ATOM      7  C   UNL     1     151.178 167.584 186.912  1.00  0.00     0.041 C 
ATOM      8  O   UNL     1     150.004 167.230 187.199  1.00  0.00    -0.550 OA
ATOM      9  O   UNL     1     151.723 167.233 185.683  1.00  0.00    -0.550 OA
ENDBRANCH   6   7
ENDBRANCH   5   6
ENDBRANCH   4   5
ENDBRANCH   3   4
ENDBRANCH   2   3
ENDBRANCH   1   2
BRANCH   1  10
ATOM     10  C   UNL     1     155.236 168.472 193.492  1.00  0.00     0.000 C 
BRANCH  10  11
ATOM     11  C   UNL     1     155.482 166.993 193.812  1.00  0.00    -0.000 C 
BRANCH  11  12
ATOM     12  C   UNL     1     154.653 166.545 195.023  1.00  0.00    -0.000 C 
BRANCH  12  13
ATOM     13  C   UNL     1     154.279 165.053 194.975  1.00  0.00    -0.000 C 
BRANCH  13  14
ATOM     14  C   UNL     1     153.949 164.506 193.571  1.00  0.00    -0.000 C 
BRANCH  14  15
ATOM     15  C   UNL     1     152.910 163.372 193.543  1.00  0.00    -0.003 C 
ATOM     16  C   UNL     1     152.366 163.028 194.929  1.00  0.00     0.004 C 
ENDBRANCH  14  15
ENDBRANCH  13  14
ENDBRANCH  12  13
ENDBRANCH  11  12
ENDBRANCH  10  11
ENDBRANCH   1  10
TORSDOF 12
ENDMDL
MODEL 4
REMARK VINA RESULT:    -4.300      0.893      2.921
REMARK INTER + INTRA:          -8.484
REMARK INTER:                  -7.218
REMARK INTRA:                  -1.267
REMARK UNBOUND:                -1.168
REMARK SMILES CCCCCCCCCCCCCC(=O)[O-]
REMARK SMILES IDX 8 1 9 2 10 3 11 4 12 5 13 6 14 7 15 8 16 9 7 10 6 11 5 12
REMARK SMILES IDX 4 13 3 14 2 15 1 16
REMARK H PARENT
REMARK Flexibility Score: inf
ROOT
ATOM      1  C   UNL     1     154.615 164.395 190.923  1.00  0.00     0.000 C 
ENDROOT
BRANCH   1   2
ATOM      2  C   UNL     1     154.809 165.704 190.149  1.00  0.00     0.000 C 
BRANCH   2   3
ATOM      3  C   UNL     1     154.512 166.919 191.038  1.00  0.00     0.000 C 
BRANCH   3   4
ATOM      4  C   UNL     1     153.705 167.976 190.271  1.00  0.00     0.000 C 
BRANCH   4   5
ATOM      5  C   UNL     1     154.243 168.216 188.851  1.00  0.00     0.006 C 
BRANCH   5   6
ATOM      6  C   UNL     1     153.123 168.329 187.808  1.00  0.00     0.053 C 
BRANCH   6   7
ATOM      7  C   UNL     1     153.698 168.362 186.426  1.00  0.00     0.041 C 
ATOM      8  O   UNL     1     154.174 169.432 185.964  1.00  0.00    -0.550 OA
ATOM      9  O   UNL     1     153.660 167.224 185.631  1.00  0.00    -0.550 OA
ENDBRANCH   6   7
ENDBRANCH   5   6
ENDBRANCH   4   5
ENDBRANCH   3   4
ENDBRANCH   2   3
ENDBRANCH   1   2
BRANCH   1  10
ATOM     10  C   UNL     1     153.128 164.109 191.159  1.00  0.00     0.000 C 
BRANCH  10  11
ATOM     11  C   UNL     1     152.870 163.683 192.609  1.00  0.00    -0.000 C 
BRANCH  11  12
ATOM     12  C   UNL     1     154.143 163.816 193.457  1.00  0.00    -0.000 C 
BRANCH  12  13
ATOM     13  C   UNL     1     153.890 164.497 194.814  1.00  0.00    -0.000 C 
BRANCH  13  14
ATOM     14  C   UNL     1     154.320 165.976 194.894  1.00  0.00    -0.000 C 
BRANCH  14  15
ATOM     15  C   UNL     1     155.750 166.264 194.405  1.00  0.00    -0.003 C 
ATOM     16  C   UNL     1     156.067 167.759 194.337  1.00  0.00     0.004 C 
ENDBRANCH  14  15
ENDBRANCH  13  14
ENDBRANCH  12  13
ENDBRANCH  11  12
ENDBRANCH  10  11
ENDBRANCH   1  10
TORSDOF 12
ENDMDL
MODEL 5
REMARK VINA RESULT:    -4.282      1.257      1.782
REMARK INTER + INTRA:          -8.454
REMARK INTER:                  -7.463
REMARK INTRA:                  -0.990
REMARK UNBOUND:                -1.168
REMARK SMILES CCCCCCCCCCCCCC(=O)[O-]
REMARK SMILES IDX 8 1 9 2 10 3 11 4 12 5 13 6 14 7 15 8 16 9 7 10 6 11 5 12
REMARK SMILES IDX 4 13 3 14 2 15 1 16
REMARK H PARENT
REMARK Flexibility Score: inf
ROOT
ATOM      1  C   UNL     1     155.790 168.275 192.140  1.00  0.00     0.000 C 
ENDROOT
BRANCH   1   2
ATOM      2  C   UNL     1     154.384 168.247 191.531  1.00  0.00     0.000 C 
BRANCH   2   3
ATOM      3  C   UNL     1     154.118 166.913 190.820  1.00  0.00     0.000 C 
BRANCH   3   4
ATOM      4  C   UNL     1     153.520 167.144 189.425  1.00  0.00     0.000 C 
BRANCH   4   5
ATOM      5  C   UNL     1     153.836 168.542 188.870  1.00  0.00     0.006 C 
BRANCH   5   6
ATOM      6  C   UNL     1     155.032 168.538 187.908  1.00  0.00     0.053 C 
BRANCH   6   7
ATOM      7  C   UNL     1     154.696 169.284 186.654  1.00  0.00     0.041 C 
ATOM      8  O   UNL     1     153.494 169.444 186.315  1.00  0.00    -0.550 OA
ATOM      9  O   UNL     1     155.712 169.759 185.834  1.00  0.00    -0.550 OA
ENDBRANCH   6   7
ENDBRANCH   5   6
ENDBRANCH   4   5
ENDBRANCH   3   4
ENDBRANCH   2   3
ENDBRANCH   1   2
BRANCH   1  10
ATOM     10  C   UNL     1     155.736 168.602 193.637  1.00  0.00     0.000 C 
BRANCH  10  11
ATOM     11  C   UNL     1     155.932 167.341 194.485  1.00  0.00    -0.000 C 
BRANCH  11  12
ATOM     12  C   UNL     1     154.589 166.653 194.767  1.00  0.00    -0.000 C 
BRANCH  12  13
ATOM     13  C   UNL     1     154.477 165.264 194.112  1.00  0.00    -0.000 C 
BRANCH  13  14
ATOM     14  C   UNL     1     153.488 164.297 194.795  1.00  0.00    -0.000 C 
BRANCH  14  15
ATOM     15  C   UNL     1     152.768 163.326 193.843  1.00  0.00    -0.003 C 
ATOM     16  C   UNL     1     152.970 163.675 192.369  1.00  0.00     0.004 C 
ENDBRANCH  14  15
ENDBRANCH  13  14
ENDBRANCH  12  13
ENDBRANCH  11  12
ENDBRANCH  10  11
ENDBRANCH   1  10
TORSDOF 12
ENDMDL
MODEL 6
REMARK VINA RESULT:    -4.224      1.621      2.018
REMARK INTER + INTRA:          -8.355
REMARK INTER:                  -7.309
REMARK INTRA:                  -1.046
REMARK UNBOUND:                -1.168
REMARK SMILES CCCCCCCCCCCCCC(=O)[O-]
REMARK SMILES IDX 8 1 9 2 10 3 11 4 12 5 13 6 14 7 15 8 16 9 7 10 6 11 5 12
REMARK SMILES IDX 4 13 3 14 2 15 1 16
REMARK H PARENT
REMARK Flexibility Score: inf
ROOT
ATOM      1  C   UNL     1     155.378 167.293 193.404  1.00  0.00     0.000 C 
ENDROOT
BRANCH   1   2
ATOM      2  C   UNL     1     154.711 168.588 192.926  1.00  0.00     0.000 C 
BRANCH   2   3
ATOM      3  C   UNL     1     154.410 168.530 191.423  1.00  0.00     0.000 C 
BRANCH   3   4
ATOM      4  C   UNL     1     155.707 168.566 190.602  1.00  0.00     0.000 C 
BRANCH   4   5
ATOM      5  C   UNL     1     155.460 168.386 189.096  1.00  0.00     0.006 C 
BRANCH   5   6
ATOM      6  C   UNL     1     156.226 169.409 188.246  1.00  0.00     0.053 C 
BRANCH   6   7
ATOM      7  C   UNL     1     155.938 169.199 186.792  1.00  0.00     0.041 C 
ATOM      8  O   UNL     1     156.823 168.723 186.034  1.00  0.00    -0.550 OA
ATOM      9  O   UNL     1     154.710 169.578 186.265  1.00  0.00    -0.550 OA
ENDBRANCH   6   7
ENDBRANCH   5   6
ENDBRANCH   4   5
ENDBRANCH   3   4
ENDBRANCH   2   3
ENDBRANCH   1   2
BRANCH   1  10
ATOM     10  C   UNL     1     154.642 166.709 194.616  1.00  0.00     0.000 C 
BRANCH  10  11
ATOM     11  C   UNL     1     154.787 165.184 194.667  1.00  0.00    -0.000 C 
BRANCH  11  12
ATOM     12  C   UNL     1     153.443 164.513 194.983  1.00  0.00    -0.000 C 
BRANCH  12  13
ATOM     13  C   UNL     1     152.932 163.625 193.834  1.00  0.00    -0.000 C 
BRANCH  13  14
ATOM     14  C   UNL     1     153.813 163.623 192.567  1.00  0.00    -0.000 C 
BRANCH  14  15
ATOM     15  C   UNL     1     153.102 164.077 191.280  1.00  0.00    -0.003 C 
ATOM     16  C   UNL     1     153.887 165.137 190.507  1.00  0.00     0.004 C 
ENDBRANCH  14  15
ENDBRANCH  13  14
ENDBRANCH  12  13
ENDBRANCH  11  12
ENDBRANCH  10  11
ENDBRANCH   1  10
TORSDOF 12
ENDMDL
MODEL 7
REMARK VINA RESULT:    -4.179      1.100      2.199
REMARK INTER + INTRA:          -8.278
REMARK INTER:                  -6.959
REMARK INTRA:                  -1.319
REMARK UNBOUND:                -1.168
REMARK SMILES CCCCCCCCCCCCCC(=O)[O-]
REMARK SMILES IDX 8 1 9 2 10 3 11 4 12 5 13 6 14 7 15 8 16 9 7 10 6 11 5 12
REMARK SMILES IDX 4 13 3 14 2 15 1 16
REMARK H PARENT
REMARK Flexibility Score: inf
ROOT
ATOM      1  C   UNL     1     154.528 166.872 194.691  1.00  0.00     0.000 C 
ENDROOT
BRANCH   1   2
ATOM      2  C   UNL     1     155.152 167.133 193.315  1.00  0.00     0.000 C 
BRANCH   2   3
ATOM      3  C   UNL     1     154.638 168.449 192.717  1.00  0.00     0.000 C 
BRANCH   3   4
ATOM      4  C   UNL     1     155.074 168.593 191.252  1.00  0.00     0.000 C 
BRANCH   4   5
ATOM      5  C   UNL     1     153.908 168.415 190.267  1.00  0.00     0.006 C 
BRANCH   5   6
ATOM      6  C   UNL     1     154.371 168.381 188.805  1.00  0.00     0.053 C 
BRANCH   6   7
ATOM      7  C   UNL     1     153.191 168.349 187.884  1.00  0.00     0.041 C 
ATOM      8  O   UNL     1     152.201 167.618 188.148  1.00  0.00    -0.550 OA
ATOM      9  O   UNL     1     153.207 169.088 186.708  1.00  0.00    -0.550 OA
ENDBRANCH   6   7
ENDBRANCH   5   6
ENDBRANCH   4   5
ENDBRANCH   3   4
ENDBRANCH   2   3
ENDBRANCH   1   2
BRANCH   1  10
ATOM     10  C   UNL     1     154.248 165.378 194.894  1.00  0.00     0.000 C 
BRANCH  10  11
ATOM     11  C   UNL     1     154.545 164.582 193.619  1.00  0.00    -0.000 C 
BRANCH  11  12
ATOM     12  C   UNL     1     153.326 163.755 193.188  1.00  0.00    -0.000 C 
BRANCH  12  13
ATOM     13  C   UNL     1     153.143 163.707 191.660  1.00  0.00    -0.000 C 
BRANCH  13  14
ATOM     14  C   UNL     1     153.731 164.911 190.894  1.00  0.00    -0.000 C 
BRANCH  14  15
ATOM     15  C   UNL     1     155.034 164.621 190.129  1.00  0.00    -0.003 C 
ATOM     16  C   UNL     1     155.240 163.132 189.846  1.00  0.00     0.004 C 
ENDBRANCH  14  15
ENDBRANCH  13  14
ENDBRANCH  12  13
ENDBRANCH  11  12
ENDBRANCH  10  11
ENDBRANCH   1  10
TORSDOF 12
ENDMDL
MODEL 8
REMARK VINA RESULT:    -4.155      2.309      4.832
REMARK INTER + INTRA:          -8.238
REMARK INTER:                  -6.676
REMARK INTRA:                  -1.562
REMARK UNBOUND:                -1.168
REMARK SMILES CCCCCCCCCCCCCC(=O)[O-]
REMARK SMILES IDX 8 1 9 2 10 3 11 4 12 5 13 6 14 7 15 8 16 9 7 10 6 11 5 12
REMARK SMILES IDX 4 13 3 14 2 15 1 16
REMARK H PARENT
REMARK Flexibility Score: inf
ROOT
ATOM      1  C   UNL     1     154.161 165.320 194.935  1.00  0.00     0.000 C 
ENDROOT
BRANCH   1   2
ATOM      2  C   UNL     1     153.216 164.139 194.684  1.00  0.00     0.000 C 
BRANCH   2   3
ATOM      3  C   UNL     1     153.620 163.369 193.421  1.00  0.00     0.000 C 
BRANCH   3   4
ATOM      4  C   UNL     1     152.686 163.707 192.249  1.00  0.00     0.000 C 
BRANCH   4   5
ATOM      5  C   UNL     1     153.450 164.161 190.996  1.00  0.00     0.006 C 
BRANCH   5   6
ATOM      6  C   UNL     1     154.913 163.700 190.997  1.00  0.00     0.053 C 
BRANCH   6   7
ATOM      7  C   UNL     1     155.441 163.634 189.598  1.00  0.00     0.041 C 
ATOM      8  O   UNL     1     155.446 162.541 188.974  1.00  0.00    -0.550 OA
ATOM      9  O   UNL     1     155.974 164.770 189.001  1.00  0.00    -0.550 OA
ENDBRANCH   6   7
ENDBRANCH   5   6
ENDBRANCH   4   5
ENDBRANCH   3   4
ENDBRANCH   2   3
ENDBRANCH   1   2
BRANCH   1  10
ATOM     10  C   UNL     1     155.537 165.066 194.309  1.00  0.00     0.000 C 
BRANCH  10  11
ATOM     11  C   UNL     1     156.069 166.325 193.614  1.00  0.00    -0.000 C 
BRANCH  11  12
ATOM     12  C   UNL     1     155.326 167.577 194.099  1.00  0.00    -0.000 C 
BRANCH  12  13
ATOM     13  C   UNL     1     154.733 168.407 192.946  1.00  0.00    -0.000 C 
BRANCH  13  14
ATOM     14  C   UNL     1     154.483 167.626 191.640  1.00  0.00    -0.000 C 
BRANCH  14  15
ATOM     15  C   UNL     1     153.930 168.466 190.476  1.00  0.00    -0.003 C 
ATOM     16  C   UNL     1     154.730 168.294 189.184  1.00  0.00     0.004 C 
ENDBRANCH  14  15
ENDBRANCH  13  14
ENDBRANCH  12  13
ENDBRANCH  11  12
ENDBRANCH  10  11
ENDBRANCH   1  10
TORSDOF 12
ENDMDL
MODEL 9
REMARK VINA RESULT:    -4.087      2.874      4.052
REMARK INTER + INTRA:          -8.122
REMARK INTER:                  -6.476
REMARK INTRA:                  -1.646
REMARK UNBOUND:                -1.168
REMARK SMILES CCCCCCCCCCCCCC(=O)[O-]
REMARK SMILES IDX 8 1 9 2 10 3 11 4 12 5 13 6 14 7 15 8 16 9 7 10 6 11 5 12
REMARK SMILES IDX 4 13 3 14 2 15 1 16
REMARK H PARENT
REMARK Flexibility Score: inf
ROOT
ATOM      1  C   UNL     1     155.883 168.898 191.609  1.00  0.00     0.000 C 
ENDROOT
BRANCH   1   2
ATOM      2  C   UNL     1     155.274 168.621 190.230  1.00  0.00     0.000 C 
BRANCH   2   3
ATOM      3  C   UNL     1     153.901 167.949 190.357  1.00  0.00     0.000 C 
BRANCH   3   4
ATOM      4  C   UNL     1     153.919 166.543 189.740  1.00  0.00     0.000 C 
BRANCH   4   5
ATOM      5  C   UNL     1     153.927 165.431 190.801  1.00  0.00     0.006 C 
BRANCH   5   6
ATOM      6  C   UNL     1     155.346 164.970 191.161  1.00  0.00     0.053 C 
BRANCH   6   7
ATOM      7  C   UNL     1     155.573 163.566 190.694  1.00  0.00     0.041 C 
ATOM      8  O   UNL     1     154.801 163.049 189.844  1.00  0.00    -0.550 OA
ATOM      9  O   UNL     1     156.607 162.812 191.234  1.00  0.00    -0.550 OA
ENDBRANCH   6   7
ENDBRANCH   5   6
ENDBRANCH   4   5
ENDBRANCH   3   4
ENDBRANCH   2   3
ENDBRANCH   1   2
BRANCH   1  10
ATOM     10  C   UNL     1     154.881 168.583 192.726  1.00  0.00     0.000 C 
BRANCH  10  11
ATOM     11  C   UNL     1     155.454 167.557 193.710  1.00  0.00    -0.000 C 
BRANCH  11  12
ATOM     12  C   UNL     1     154.338 166.894 194.528  1.00  0.00    -0.000 C 
BRANCH  12  13
ATOM     13  C   UNL     1     154.849 165.753 195.426  1.00  0.00    -0.000 C 
BRANCH  13  14
ATOM     14  C   UNL     1     154.821 164.352 194.782  1.00  0.00    -0.000 C 
BRANCH  14  15
ATOM     15  C   UNL     1     153.503 163.578 194.967  1.00  0.00    -0.003 C 
ATOM     16  C   UNL     1     152.815 163.248 193.642  1.00  0.00     0.004 C 
ENDBRANCH  14  15
ENDBRANCH  13  14
ENDBRANCH  12  13
ENDBRANCH  11  12
ENDBRANCH  10  11
ENDBRANCH   1  10
TORSDOF 12
ENDMDL
