MODEL 1
REMARK VINA RESULT:    -5.430      0.000      0.000
REMARK INTER + INTRA:          -6.051
REMARK INTER:                  -5.748
REMARK INTRA:                  -0.303
REMARK UNBOUND:                -0.303
REMARK SMILES CC1=CC[C@H]2[C@@H]3[C@@H](C(C)C)CC[C@@]2(C)[C@H]13
REMARK SMILES IDX 1 1 2 2 3 3 4 4 5 5 6 6 15 7 13 8 12 9 11 10 7 11 14 12 8 13
REMARK SMILES IDX 9 14 10 15
REMARK H PARENT
REMARK Flexibility Score: inf
ROOT
ATOM      1  C   UNL     1      31.361   7.329  28.163  1.00  0.00     0.039 C 
ATOM      2  C   UNL     1      30.758   8.603  28.674  1.00  0.00    -0.073 C 
ATOM      3  C   UNL     1      29.411   8.788  28.693  1.00  0.00    -0.027 C 
ATOM      4  C   UNL     1      28.854  10.121  29.206  1.00  0.00     0.031 C 
ATOM      5  C   UNL     1      30.019  11.054  29.674  1.00  0.00     0.003 C 
ATOM      6  C   UNL     1      30.976  10.205  30.542  1.00  0.00     0.004 C 
ATOM      7  C   UNL     1      31.625   9.744  29.214  1.00  0.00     0.024 C 
ATOM      8  C   UNL     1      31.156  11.101  28.628  1.00  0.00    -0.022 C 
ATOM      9  C   UNL     1      32.138  12.244  29.014  1.00  0.00     0.008 C 
ATOM     10  C   UNL     1      32.783  12.024  30.405  1.00  0.00     0.005 C 
ATOM     11  C   UNL     1      31.923  11.136  31.366  1.00  0.00    -0.005 C 
ATOM     12  C   UNL     1      30.784  11.178  27.128  1.00  0.00     0.012 C 
ENDROOT
BRANCH  11  13
ATOM     13  C   UNL     1      32.825  10.344  32.367  1.00  0.00    -0.014 C 
ATOM     14  C   UNL     1      32.234   8.967  32.725  1.00  0.00     0.007 C 
ATOM     15  C   UNL     1      33.046  11.139  33.668  1.00  0.00     0.007 C 
ENDBRANCH  11  13
TORSDOF 1
ENDMDL
MODEL 2
REMARK VINA RESULT:    -5.409      1.550      4.294
REMARK INTER + INTRA:          -6.029
REMARK INTER:                  -5.801
REMARK INTRA:                  -0.228
REMARK UNBOUND:                -0.303
REMARK SMILES CC1=CC[C@H]2[C@@H]3[C@@H](C(C)C)CC[C@@]2(C)[C@H]13
REMARK SMILES IDX 1 1 2 2 3 3 4 4 5 5 6 6 15 7 13 8 12 9 11 10 7 11 14 12 8 13
REMARK SMILES IDX 9 14 10 15
REMARK H PARENT
REMARK Flexibility Score: inf
ROOT
ATOM      1  C   UNL     1      31.267   7.508  31.873  1.00  0.00     0.039 C 
ATOM      2  C   UNL     1      31.735   8.932  31.904  1.00  0.00    -0.073 C 
ATOM      3  C   UNL     1      32.702   9.337  32.769  1.00  0.00    -0.027 C 
ATOM      4  C   UNL     1      33.125  10.811  32.770  1.00  0.00     0.031 C 
ATOM      5  C   UNL     1      32.334  11.605  31.678  1.00  0.00     0.003 C 
ATOM      6  C   UNL     1      32.370  10.768  30.378  1.00  0.00     0.004 C 
ATOM      7  C   UNL     1      31.163   9.988  30.955  1.00  0.00     0.024 C 
ATOM      8  C   UNL     1      30.823  11.285  31.734  1.00  0.00    -0.022 C 
ATOM      9  C   UNL     1      30.069  12.299  30.827  1.00  0.00     0.008 C 
ATOM     10  C   UNL     1      30.515  12.214  29.347  1.00  0.00     0.005 C 
ATOM     11  C   UNL     1      31.965  11.655  29.157  1.00  0.00    -0.005 C 
ATOM     12  C   UNL     1      30.139  11.168  33.117  1.00  0.00     0.012 C 
ENDROOT
BRANCH  11  13
ATOM     13  C   UNL     1      32.111  10.905  27.793  1.00  0.00    -0.014 C 
ATOM     14  C   UNL     1      32.386  11.867  26.621  1.00  0.00     0.007 C 
ATOM     15  C   UNL     1      30.848  10.084  27.470  1.00  0.00     0.007 C 
ENDBRANCH  11  13
TORSDOF 1
ENDMDL
MODEL 3
REMARK VINA RESULT:    -5.373      1.595      4.660
REMARK INTER + INTRA:          -5.990
REMARK INTER:                  -5.556
REMARK INTRA:                  -0.434
REMARK UNBOUND:                -0.303
REMARK SMILES CC1=CC[C@H]2[C@@H]3[C@@H](C(C)C)CC[C@@]2(C)[C@H]13
REMARK SMILES IDX 1 1 2 2 3 3 4 4 5 5 6 6 15 7 13 8 12 9 11 10 7 11 14 12 8 13
REMARK SMILES IDX 9 14 10 15
REMARK H PARENT
REMARK Flexibility Score: inf
ROOT
ATOM      1  C   UNL     1      28.773  10.637  33.992  1.00  0.00     0.039 C 
ATOM      2  C   UNL     1      30.052  10.068  33.456  1.00  0.00    -0.073 C 
ATOM      3  C   UNL     1      30.568   8.910  33.946  1.00  0.00    -0.027 C 
ATOM      4  C   UNL     1      31.891   8.388  33.372  1.00  0.00     0.031 C 
ATOM      5  C   UNL     1      32.402   9.334  32.235  1.00  0.00     0.003 C 
ATOM      6  C   UNL     1      31.201   9.642  31.311  1.00  0.00     0.004 C 
ATOM      7  C   UNL     1      30.823  10.751  32.323  1.00  0.00     0.024 C 
ATOM      8  C   UNL     1      32.334  10.817  32.665  1.00  0.00    -0.022 C 
ATOM      9  C   UNL     1      33.106  11.671  31.618  1.00  0.00     0.008 C 
ATOM     10  C   UNL     1      32.494  11.561  30.199  1.00  0.00     0.005 C 
ATOM     11  C   UNL     1      31.704  10.232  29.955  1.00  0.00    -0.005 C 
ATOM     12  C   UNL     1      32.759  11.195  34.104  1.00  0.00     0.012 C 
ENDROOT
BRANCH  11  13
ATOM     13  C   UNL     1      30.549  10.439  28.923  1.00  0.00    -0.014 C 
ATOM     14  C   UNL     1      30.085  11.906  28.849  1.00  0.00     0.007 C 
ATOM     15  C   UNL     1      29.333   9.554  29.261  1.00  0.00     0.007 C 
ENDBRANCH  11  13
TORSDOF 1
ENDMDL
MODEL 4
REMARK VINA RESULT:    -5.336      2.372      4.782
REMARK INTER + INTRA:          -5.951
REMARK INTER:                  -5.708
REMARK INTRA:                  -0.243
REMARK UNBOUND:                -0.303
REMARK SMILES CC1=CC[C@H]2[C@@H]3[C@@H](C(C)C)CC[C@@]2(C)[C@H]13
REMARK SMILES IDX 1 1 2 2 3 3 4 4 5 5 6 6 15 7 13 8 12 9 11 10 7 11 14 12 8 13
REMARK SMILES IDX 9 14 10 15
REMARK H PARENT
REMARK Flexibility Score: inf
ROOT
ATOM      1  C   UNL     1      28.997  11.836  32.418  1.00  0.00     0.039 C 
ATOM      2  C   UNL     1      30.343  11.178  32.443  1.00  0.00    -0.073 C 
ATOM      3  C   UNL     1      31.476  11.880  32.172  1.00  0.00    -0.027 C 
ATOM      4  C   UNL     1      32.823  11.147  32.190  1.00  0.00     0.031 C 
ATOM      5  C   UNL     1      32.621   9.646  32.580  1.00  0.00     0.003 C 
ATOM      6  C   UNL     1      31.676   9.605  33.804  1.00  0.00     0.004 C 
ATOM      7  C   UNL     1      30.509   9.696  32.791  1.00  0.00     0.024 C 
ATOM      8  C   UNL     1      31.462   9.009  31.780  1.00  0.00    -0.022 C 
ATOM      9  C   UNL     1      31.494   7.469  32.002  1.00  0.00     0.008 C 
ATOM     10  C   UNL     1      31.309   7.083  33.491  1.00  0.00     0.005 C 
ATOM     11  C   UNL     1      31.748   8.204  34.492  1.00  0.00    -0.005 C 
ATOM     12  C   UNL     1      31.323   9.344  30.276  1.00  0.00     0.012 C 
ENDROOT
BRANCH  11  13
ATOM     13  C   UNL     1      30.920   8.140  35.815  1.00  0.00    -0.014 C 
ATOM     14  C   UNL     1      31.319   9.246  36.811  1.00  0.00     0.007 C 
ATOM     15  C   UNL     1      31.080   6.773  36.508  1.00  0.00     0.007 C 
ENDBRANCH  11  13
TORSDOF 1
ENDMDL
MODEL 5
REMARK VINA RESULT:    -5.201      1.253      2.353
REMARK INTER + INTRA:          -5.809
REMARK INTER:                  -5.521
REMARK INTRA:                  -0.288
REMARK UNBOUND:                -0.303
REMARK SMILES CC1=CC[C@H]2[C@@H]3[C@@H](C(C)C)CC[C@@]2(C)[C@H]13
REMARK SMILES IDX 1 1 2 2 3 3 4 4 5 5 6 6 15 7 13 8 12 9 11 10 7 11 14 12 8 13
REMARK SMILES IDX 9 14 10 15
REMARK H PARENT
REMARK Flexibility Score: inf
ROOT
ATOM      1  C   UNL     1      31.080   8.184  28.318  1.00  0.00     0.039 C 
ATOM      2  C   UNL     1      30.778   9.306  29.266  1.00  0.00    -0.073 C 
ATOM      3  C   UNL     1      29.732  10.148  29.050  1.00  0.00    -0.027 C 
ATOM      4  C   UNL     1      29.485  11.290  30.043  1.00  0.00     0.031 C 
ATOM      5  C   UNL     1      30.531  11.238  31.205  1.00  0.00     0.003 C 
ATOM      6  C   UNL     1      30.619   9.771  31.686  1.00  0.00     0.004 C 
ATOM      7  C   UNL     1      31.616   9.544  30.525  1.00  0.00     0.024 C 
ATOM      8  C   UNL     1      31.966  11.049  30.661  1.00  0.00    -0.022 C 
ATOM      9  C   UNL     1      32.971  11.284  31.825  1.00  0.00     0.008 C 
ATOM     10  C   UNL     1      32.771  10.283  32.990  1.00  0.00     0.005 C 
ATOM     11  C   UNL     1      31.319   9.705  33.082  1.00  0.00    -0.005 C 
ATOM     12  C   UNL     1      32.392  11.835  29.398  1.00  0.00     0.012 C 
ENDROOT
BRANCH  11  13
ATOM     13  C   UNL     1      31.318   8.264  33.688  1.00  0.00    -0.014 C 
ATOM     14  C   UNL     1      32.354   7.344  33.014  1.00  0.00     0.007 C 
ATOM     15  C   UNL     1      29.928   7.610  33.570  1.00  0.00     0.007 C 
ENDBRANCH  11  13
TORSDOF 1
ENDMDL
MODEL 6
REMARK VINA RESULT:    -5.189      1.171      2.711
REMARK INTER + INTRA:          -5.796
REMARK INTER:                  -5.517
REMARK INTRA:                  -0.279
REMARK UNBOUND:                -0.303
REMARK SMILES CC1=CC[C@H]2[C@@H]3[C@@H](C(C)C)CC[C@@]2(C)[C@H]13
REMARK SMILES IDX 1 1 2 2 3 3 4 4 5 5 6 6 15 7 13 8 12 9 11 10 7 11 14 12 8 13
REMARK SMILES IDX 9 14 10 15
REMARK H PARENT
REMARK Flexibility Score: inf
ROOT
ATOM      1  C   UNL     1      32.164  11.782  26.341  1.00  0.00     0.039 C 
ATOM      2  C   UNL     1      31.754  10.629  27.207  1.00  0.00    -0.073 C 
ATOM      3  C   UNL     1      31.955   9.344  26.812  1.00  0.00    -0.027 C 
ATOM      4  C   UNL     1      31.494   8.205  27.730  1.00  0.00     0.031 C 
ATOM      5  C   UNL     1      30.875   8.784  29.045  1.00  0.00     0.003 C 
ATOM      6  C   UNL     1      31.828   9.887  29.562  1.00  0.00     0.004 C 
ATOM      7  C   UNL     1      31.108  10.842  28.579  1.00  0.00     0.024 C 
ATOM      8  C   UNL     1      29.872   9.920  28.742  1.00  0.00    -0.022 C 
ATOM      9  C   UNL     1      29.095  10.256  30.047  1.00  0.00     0.008 C 
ATOM     10  C   UNL     1      30.029  10.740  31.183  1.00  0.00     0.005 C 
ATOM     11  C   UNL     1      31.501  10.224  31.053  1.00  0.00    -0.005 C 
ATOM     12  C   UNL     1      28.900   9.756  27.549  1.00  0.00     0.012 C 
ENDROOT
BRANCH  11  13
ATOM     13  C   UNL     1      32.515  11.235  31.678  1.00  0.00    -0.014 C 
ATOM     14  C   UNL     1      33.069  10.750  33.031  1.00  0.00     0.007 C 
ATOM     15  C   UNL     1      31.870  12.620  31.879  1.00  0.00     0.007 C 
ENDBRANCH  11  13
TORSDOF 1
ENDMDL
MODEL 7
REMARK VINA RESULT:    -5.172      1.438      4.477
REMARK INTER + INTRA:          -5.778
REMARK INTER:                  -5.344
REMARK INTRA:                  -0.434
REMARK UNBOUND:                -0.303
REMARK SMILES CC1=CC[C@H]2[C@@H]3[C@@H](C(C)C)CC[C@@]2(C)[C@H]13
REMARK SMILES IDX 1 1 2 2 3 3 4 4 5 5 6 6 15 7 13 8 12 9 11 10 7 11 14 12 8 13
REMARK SMILES IDX 9 14 10 15
REMARK H PARENT
REMARK Flexibility Score: inf
ROOT
ATOM      1  C   UNL     1      32.518  11.916  29.236  1.00  0.00     0.039 C 
ATOM      2  C   UNL     1      31.774  11.446  30.450  1.00  0.00    -0.073 C 
ATOM      3  C   UNL     1      31.075  12.314  31.228  1.00  0.00    -0.027 C 
ATOM      4  C   UNL     1      30.352  11.778  32.470  1.00  0.00     0.031 C 
ATOM      5  C   UNL     1      30.541  10.229  32.583  1.00  0.00     0.003 C 
ATOM      6  C   UNL     1      30.277   9.624  31.185  1.00  0.00     0.004 C 
ATOM      7  C   UNL     1      31.750   9.970  30.857  1.00  0.00     0.024 C 
ATOM      8  C   UNL     1      32.019   9.827  32.377  1.00  0.00    -0.022 C 
ATOM      9  C   UNL     1      32.186   8.332  32.775  1.00  0.00     0.008 C 
ATOM     10  C   UNL     1      31.314   7.389  31.909  1.00  0.00     0.005 C 
ATOM     11  C   UNL     1      30.049   8.082  31.301  1.00  0.00    -0.005 C 
ATOM     12  C   UNL     1      33.124  10.695  33.025  1.00  0.00     0.012 C 
ENDROOT
BRANCH  11  13
ATOM     13  C   UNL     1      29.643   7.429  29.940  1.00  0.00    -0.014 C 
ATOM     14  C   UNL     1      30.848   6.822  29.198  1.00  0.00     0.007 C 
ATOM     15  C   UNL     1      28.958   8.453  29.013  1.00  0.00     0.007 C 
ENDBRANCH  11  13
TORSDOF 1
ENDMDL
MODEL 8
REMARK VINA RESULT:    -5.106      1.918      4.264
REMARK INTER + INTRA:          -5.708
REMARK INTER:                  -5.284
REMARK INTRA:                  -0.424
REMARK UNBOUND:                -0.303
REMARK SMILES CC1=CC[C@H]2[C@@H]3[C@@H](C(C)C)CC[C@@]2(C)[C@H]13
REMARK SMILES IDX 1 1 2 2 3 3 4 4 5 5 6 6 15 7 13 8 12 9 11 10 7 11 14 12 8 13
REMARK SMILES IDX 9 14 10 15
REMARK H PARENT
REMARK Flexibility Score: inf
ROOT
ATOM      1  C   UNL     1      27.622   9.208  27.052  1.00  0.00     0.039 C 
ATOM      2  C   UNL     1      29.025   8.777  27.359  1.00  0.00    -0.073 C 
ATOM      3  C   UNL     1      29.472   7.539  27.018  1.00  0.00    -0.027 C 
ATOM      4  C   UNL     1      30.911   7.147  27.377  1.00  0.00     0.031 C 
ATOM      5  C   UNL     1      31.641   8.340  28.078  1.00  0.00     0.003 C 
ATOM      6  C   UNL     1      31.347   9.615  27.254  1.00  0.00     0.004 C 
ATOM      7  C   UNL     1      30.022   9.713  28.049  1.00  0.00     0.024 C 
ATOM      8  C   UNL     1      30.763   8.964  29.186  1.00  0.00    -0.022 C 
ATOM      9  C   UNL     1      31.639   9.943  30.019  1.00  0.00     0.008 C 
ATOM     10  C   UNL     1      32.211  11.099  29.162  1.00  0.00     0.005 C 
ATOM     11  C   UNL     1      32.349  10.749  27.642  1.00  0.00    -0.005 C 
ATOM     12  C   UNL     1      29.955   8.024  30.113  1.00  0.00     0.012 C 
ENDROOT
BRANCH  11  13
ATOM     13  C   UNL     1      32.192  12.023  26.750  1.00  0.00    -0.014 C 
ATOM     14  C   UNL     1      31.243  13.063  27.374  1.00  0.00     0.007 C 
ATOM     15  C   UNL     1      31.670  11.659  25.346  1.00  0.00     0.007 C 
ENDBRANCH  11  13
TORSDOF 1
ENDMDL
