MODEL 1
REMARK VINA RESULT:    -5.885      0.000      0.000
REMARK INTER + INTRA:         -10.495
REMARK INTER:                  -9.153
REMARK INTRA:                  -1.342
REMARK UNBOUND:                -1.342
REMARK SMILES COc1cc(CNC(=O)CCCCC=CC(C)C)ccc1O
REMARK SMILES IDX 11 1 12 2 13 3 14 4 15 5 16 6 17 7 18 8 10 9 8 10 9 11 7 12
REMARK SMILES IDX 6 14 5 15 4 16 19 17 3 18 20 19 21 20 2 21 1 22 22 23
REMARK H PARENT 7 13 22 24
REMARK Flexibility Score: inf
ROOT
ATOM      1  C   UNL     1     136.187  -0.346  95.396  1.00  0.00     0.010 C 
ENDROOT
BRANCH   1   2
ATOM      2  C   UNL     1     134.700  -0.266  95.798  1.00  0.00     0.005 C 
BRANCH   2   3
ATOM      3  C   UNL     1     133.892  -1.541  95.493  1.00  0.00     0.027 C 
BRANCH   3   4
ATOM      4  C   UNL     1     133.117  -1.440  94.207  1.00  0.00    -0.031 C 
ATOM      5  C   UNL     1     133.027  -0.284  93.528  1.00  0.00    -0.028 C 
BRANCH   5   6
ATOM      6  C   UNL     1     132.239  -0.150  92.246  1.00  0.00     0.005 C 
ATOM      7  C   UNL     1     130.766  -0.518  92.453  1.00  0.00     0.012 C 
ATOM      8  C   UNL     1     132.381   1.257  91.650  1.00  0.00     0.012 C 
ENDBRANCH   5   6
ENDBRANCH   3   4
ENDBRANCH   2   3
ENDBRANCH   1   2
BRANCH   1   9
ATOM      9  C   UNL     1     136.582   0.596  94.247  1.00  0.00     0.100 C 
BRANCH   9  10
ATOM     10  C   UNL     1     136.564   2.035  94.671  1.00  0.00     0.220 C 
ATOM     11  O   UNL     1     137.515   2.485  95.368  1.00  0.00    -0.275 OA
ATOM     12  N   UNL     1     135.460   2.881  94.318  1.00  0.00    -0.352 N 
ATOM     13  H   UNL     1     134.665   2.481  93.773  1.00  0.00     0.163 HD
BRANCH  12  14
ATOM     14  C   UNL     1     135.399   4.289  94.702  1.00  0.00     0.151 C 
BRANCH  14  15
ATOM     15  C   UNL     1     134.017   4.835  94.459  1.00  0.00    -0.025 A 
ATOM     16  C   UNL     1     132.964   3.963  94.147  1.00  0.00     0.056 A 
ATOM     17  C   UNL     1     133.778   6.215  94.511  1.00  0.00     0.009 A 
ATOM     18  C   UNL     1     131.670   4.460  93.894  1.00  0.00     0.160 A 
ATOM     19  C   UNL     1     132.498   6.715  94.263  1.00  0.00     0.050 A 
ATOM     20  C   UNL     1     131.445   5.848  93.956  1.00  0.00     0.157 A 
BRANCH  18  21
ATOM     21  O   UNL     1     130.596   3.612  93.579  1.00  0.00    -0.493 OA
ATOM     22  C   UNL     1     130.092   2.594  94.436  1.00  0.00     0.278 C 
ENDBRANCH  18  21
BRANCH  20  23
ATOM     23  O   UNL     1     130.180   6.384  93.714  1.00  0.00    -0.504 OA
ATOM     24  H   UNL     1     129.349   6.035  94.175  1.00  0.00     0.293 HD
ENDBRANCH  20  23
ENDBRANCH  14  15
ENDBRANCH  12  14
ENDBRANCH   9  10
ENDBRANCH   1   9
TORSDOF 10
ENDMDL
MODEL 2
REMARK VINA RESULT:    -5.746      2.831      6.074
REMARK INTER + INTRA:         -10.278
REMARK INTER:                  -9.326
REMARK INTRA:                  -0.952
REMARK UNBOUND:                -1.342
REMARK SMILES COc1cc(CNC(=O)CCCCC=CC(C)C)ccc1O
REMARK SMILES IDX 11 1 12 2 13 3 14 4 15 5 16 6 17 7 18 8 10 9 8 10 9 11 7 12
REMARK SMILES IDX 6 14 5 15 4 16 19 17 3 18 20 19 21 20 2 21 1 22 22 23
REMARK H PARENT 7 13 22 24
REMARK Flexibility Score: inf
ROOT
ATOM      1  C   UNL     1     134.596   5.120  93.473  1.00  0.00     0.010 C 
ENDROOT
BRANCH   1   2
ATOM      2  C   UNL     1     135.229   6.040  94.537  1.00  0.00     0.005 C 
BRANCH   2   3
ATOM      3  C   UNL     1     136.022   5.297  95.627  1.00  0.00     0.027 C 
BRANCH   3   4
ATOM      4  C   UNL     1     135.593   3.862  95.777  1.00  0.00    -0.031 C 
ATOM      5  C   UNL     1     136.360   2.849  95.340  1.00  0.00    -0.028 C 
BRANCH   5   6
ATOM      6  C   UNL     1     135.946   1.401  95.459  1.00  0.00     0.005 C 
ATOM      7  C   UNL     1     134.420   1.251  95.423  1.00  0.00     0.012 C 
ATOM      8  C   UNL     1     136.614   0.540  94.380  1.00  0.00     0.012 C 
ENDBRANCH   5   6
ENDBRANCH   3   4
ENDBRANCH   2   3
ENDBRANCH   1   2
BRANCH   1   9
ATOM      9  C   UNL     1     133.059   5.133  93.462  1.00  0.00     0.100 C 
BRANCH   9  10
ATOM     10  C   UNL     1     132.488   3.753  93.318  1.00  0.00     0.220 C 
ATOM     11  O   UNL     1     131.505   3.414  94.033  1.00  0.00    -0.275 OA
ATOM     12  N   UNL     1     133.077   2.817  92.404  1.00  0.00    -0.352 N 
ATOM     13  H   UNL     1     133.913   3.103  91.849  1.00  0.00     0.163 HD
BRANCH  12  14
ATOM     14  C   UNL     1     132.555   1.464  92.224  1.00  0.00     0.151 C 
BRANCH  14  15
ATOM     15  C   UNL     1     131.994   1.304  90.837  1.00  0.00    -0.025 A 
ATOM     16  C   UNL     1     131.075   2.240  90.339  1.00  0.00     0.056 A 
ATOM     17  C   UNL     1     132.358   0.206  90.044  1.00  0.00     0.009 A 
ATOM     18  C   UNL     1     130.523   2.090  89.051  1.00  0.00     0.160 A 
ATOM     19  C   UNL     1     131.817   0.052  88.767  1.00  0.00     0.050 A 
ATOM     20  C   UNL     1     130.904   0.986  88.266  1.00  0.00     0.157 A 
BRANCH  18  21
ATOM     21  O   UNL     1     129.602   3.011  88.526  1.00  0.00    -0.493 OA
ATOM     22  C   UNL     1     129.949   4.271  87.965  1.00  0.00     0.278 C 
ENDBRANCH  18  21
BRANCH  20  23
ATOM     23  O   UNL     1     130.384   0.800  86.986  1.00  0.00    -0.504 OA
ATOM     24  H   UNL     1     130.887   0.295  86.266  1.00  0.00     0.293 HD
ENDBRANCH  20  23
ENDBRANCH  14  15
ENDBRANCH  12  14
ENDBRANCH   9  10
ENDBRANCH   1   9
TORSDOF 10
ENDMDL
MODEL 3
REMARK VINA RESULT:    -5.642      1.874      5.262
REMARK INTER + INTRA:         -10.118
REMARK INTER:                  -8.865
REMARK INTRA:                  -1.253
REMARK UNBOUND:                -1.342
REMARK SMILES COc1cc(CNC(=O)CCCCC=CC(C)C)ccc1O
REMARK SMILES IDX 11 1 12 2 13 3 14 4 15 5 16 6 17 7 18 8 10 9 8 10 9 11 7 12
REMARK SMILES IDX 6 14 5 15 4 16 19 17 3 18 20 19 21 20 2 21 1 22 22 23
REMARK H PARENT 7 13 22 24
REMARK Flexibility Score: inf
ROOT
ATOM      1  C   UNL     1     131.276   5.130  92.896  1.00  0.00     0.010 C 
ENDROOT
BRANCH   1   2
ATOM      2  C   UNL     1     130.098   4.147  93.050  1.00  0.00     0.005 C 
BRANCH   2   3
ATOM      3  C   UNL     1     130.324   3.047  94.102  1.00  0.00     0.027 C 
BRANCH   3   4
ATOM      4  C   UNL     1     131.263   1.973  93.622  1.00  0.00    -0.031 C 
ATOM      5  C   UNL     1     131.356   1.648  92.322  1.00  0.00    -0.028 C 
BRANCH   5   6
ATOM      6  C   UNL     1     132.275   0.560  91.815  1.00  0.00     0.005 C 
ATOM      7  C   UNL     1     131.839  -0.820  92.319  1.00  0.00     0.012 C 
ATOM      8  C   UNL     1     132.378   0.587  90.285  1.00  0.00     0.012 C 
ENDBRANCH   5   6
ENDBRANCH   3   4
ENDBRANCH   2   3
ENDBRANCH   1   2
BRANCH   1   9
ATOM      9  C   UNL     1     131.373   6.178  94.016  1.00  0.00     0.100 C 
BRANCH   9  10
ATOM     10  C   UNL     1     132.688   6.109  94.735  1.00  0.00     0.220 C 
ATOM     11  O   UNL     1     133.328   7.174  94.958  1.00  0.00    -0.275 OA
ATOM     12  N   UNL     1     133.230   4.842  95.134  1.00  0.00    -0.352 N 
ATOM     13  H   UNL     1     132.705   3.969  94.908  1.00  0.00     0.163 HD
BRANCH  12  14
ATOM     14  C   UNL     1     134.503   4.722  95.841  1.00  0.00     0.151 C 
BRANCH  14  15
ATOM     15  C   UNL     1     135.194   3.441  95.455  1.00  0.00    -0.025 A 
ATOM     16  C   UNL     1     134.439   2.287  95.197  1.00  0.00     0.056 A 
ATOM     17  C   UNL     1     136.593   3.382  95.380  1.00  0.00     0.009 A 
ATOM     18  C   UNL     1     135.072   1.075  94.857  1.00  0.00     0.160 A 
ATOM     19  C   UNL     1     137.227   2.185  95.042  1.00  0.00     0.050 A 
ATOM     20  C   UNL     1     136.477   1.034  94.781  1.00  0.00     0.157 A 
BRANCH  18  21
ATOM     21  O   UNL     1     134.344  -0.096  94.594  1.00  0.00    -0.493 OA
ATOM     22  C   UNL     1     134.126  -1.141  95.535  1.00  0.00     0.278 C 
ENDBRANCH  18  21
BRANCH  20  23
ATOM     23  O   UNL     1     137.145  -0.144  94.447  1.00  0.00    -0.504 OA
ATOM     24  H   UNL     1     138.051  -0.379  94.833  1.00  0.00     0.293 HD
ENDBRANCH  20  23
ENDBRANCH  14  15
ENDBRANCH  12  14
ENDBRANCH   9  10
ENDBRANCH   1   9
TORSDOF 10
ENDMDL
MODEL 4
REMARK VINA RESULT:    -5.606      2.060      6.070
REMARK INTER + INTRA:         -10.062
REMARK INTER:                  -8.991
REMARK INTRA:                  -1.070
REMARK UNBOUND:                -1.342
REMARK SMILES COc1cc(CNC(=O)CCCCC=CC(C)C)ccc1O
REMARK SMILES IDX 11 1 12 2 13 3 14 4 15 5 16 6 17 7 18 8 10 9 8 10 9 11 7 12
REMARK SMILES IDX 6 14 5 15 4 16 19 17 3 18 20 19 21 20 2 21 1 22 22 23
REMARK H PARENT 7 13 22 24
REMARK Flexibility Score: inf
ROOT
ATOM      1  C   UNL     1     135.564   5.766  94.570  1.00  0.00     0.010 C 
ENDROOT
BRANCH   1   2
ATOM      2  C   UNL     1     134.258   6.469  94.993  1.00  0.00     0.005 C 
BRANCH   2   3
ATOM      3  C   UNL     1     132.981   5.843  94.403  1.00  0.00     0.027 C 
BRANCH   3   4
ATOM      4  C   UNL     1     132.010   6.877  93.900  1.00  0.00    -0.031 C 
ATOM      5  C   UNL     1     131.484   7.805  94.717  1.00  0.00    -0.028 C 
BRANCH   5   6
ATOM      6  C   UNL     1     130.491   8.842  94.244  1.00  0.00     0.005 C 
ATOM      7  C   UNL     1     130.670  10.169  94.989  1.00  0.00     0.012 C 
ATOM      8  C   UNL     1     130.576   9.041  92.725  1.00  0.00     0.012 C 
ENDBRANCH   5   6
ENDBRANCH   3   4
ENDBRANCH   2   3
ENDBRANCH   1   2
BRANCH   1   9
ATOM      9  C   UNL     1     136.331   5.110  95.729  1.00  0.00     0.100 C 
BRANCH   9  10
ATOM     10  C   UNL     1     136.216   3.615  95.702  1.00  0.00     0.220 C 
ATOM     11  O   UNL     1     137.219   2.924  95.372  1.00  0.00    -0.275 OA
ATOM     12  N   UNL     1     134.969   2.978  96.013  1.00  0.00    -0.352 N 
ATOM     13  H   UNL     1     134.140   3.568  96.247  1.00  0.00     0.163 HD
BRANCH  12  14
ATOM     14  C   UNL     1     134.807   1.526  96.005  1.00  0.00     0.151 C 
BRANCH  14  15
ATOM     15  C   UNL     1     133.974   1.101  94.825  1.00  0.00    -0.025 A 
ATOM     16  C   UNL     1     133.389   2.069  93.995  1.00  0.00     0.056 A 
ATOM     17  C   UNL     1     133.751  -0.258  94.564  1.00  0.00     0.009 A 
ATOM     18  C   UNL     1     132.587   1.687  92.901  1.00  0.00     0.160 A 
ATOM     19  C   UNL     1     132.960  -0.644  93.480  1.00  0.00     0.050 A 
ATOM     20  C   UNL     1     132.378   0.319  92.649  1.00  0.00     0.157 A 
BRANCH  18  21
ATOM     21  O   UNL     1     131.988   2.633  92.053  1.00  0.00    -0.493 OA
ATOM     22  C   UNL     1     130.757   3.294  92.323  1.00  0.00     0.278 C 
ENDBRANCH  18  21
BRANCH  20  23
ATOM     23  O   UNL     1     131.594  -0.104  91.576  1.00  0.00    -0.504 OA
ATOM     24  H   UNL     1     131.379   0.501  90.793  1.00  0.00     0.293 HD
ENDBRANCH  20  23
ENDBRANCH  14  15
ENDBRANCH  12  14
ENDBRANCH   9  10
ENDBRANCH   1   9
TORSDOF 10
ENDMDL
MODEL 5
REMARK VINA RESULT:    -5.559     14.000     16.642
REMARK INTER + INTRA:          -9.988
REMARK INTER:                  -8.590
REMARK INTRA:                  -1.398
REMARK UNBOUND:                -1.342
REMARK SMILES COc1cc(CNC(=O)CCCCC=CC(C)C)ccc1O
REMARK SMILES IDX 11 1 12 2 13 3 14 4 15 5 16 6 17 7 18 8 10 9 8 10 9 11 7 12
REMARK SMILES IDX 6 14 5 15 4 16 19 17 3 18 20 19 21 20 2 21 1 22 22 23
REMARK H PARENT 7 13 22 24
REMARK Flexibility Score: inf
ROOT
ATOM      1  C   UNL     1     129.739  -3.165  76.202  1.00  0.00     0.010 C 
ENDROOT
BRANCH   1   2
ATOM      2  C   UNL     1     129.835  -3.857  77.577  1.00  0.00     0.005 C 
BRANCH   2   3
ATOM      3  C   UNL     1     128.951  -3.227  78.668  1.00  0.00     0.027 C 
BRANCH   3   4
ATOM      4  C   UNL     1     129.510  -3.424  80.051  1.00  0.00    -0.031 C 
ATOM      5  C   UNL     1     130.668  -4.074  80.256  1.00  0.00    -0.028 C 
BRANCH   5   6
ATOM      6  C   UNL     1     131.242  -4.304  81.635  1.00  0.00     0.005 C 
ATOM      7  C   UNL     1     130.288  -3.809  82.728  1.00  0.00     0.012 C 
ATOM      8  C   UNL     1     131.612  -5.778  81.845  1.00  0.00     0.012 C 
ENDBRANCH   5   6
ENDBRANCH   3   4
ENDBRANCH   2   3
ENDBRANCH   1   2
BRANCH   1   9
ATOM      9  C   UNL     1     129.638  -1.632  76.274  1.00  0.00     0.100 C 
BRANCH   9  10
ATOM     10  C   UNL     1     130.981  -0.990  76.457  1.00  0.00     0.220 C 
ATOM     11  O   UNL     1     131.046   0.237  76.743  1.00  0.00    -0.275 OA
ATOM     12  N   UNL     1     132.181  -1.755  76.273  1.00  0.00    -0.352 N 
ATOM     13  H   UNL     1     132.108  -2.760  76.000  1.00  0.00     0.163 HD
BRANCH  12  14
ATOM     14  C   UNL     1     133.512  -1.178  76.445  1.00  0.00     0.151 C 
BRANCH  14  15
ATOM     15  C   UNL     1     133.926  -1.247  77.891  1.00  0.00    -0.025 A 
ATOM     16  C   UNL     1     134.803  -0.286  78.416  1.00  0.00     0.056 A 
ATOM     17  C   UNL     1     133.466  -2.284  78.715  1.00  0.00     0.009 A 
ATOM     18  C   UNL     1     135.218  -0.350  79.761  1.00  0.00     0.160 A 
ATOM     19  C   UNL     1     133.871  -2.353  80.049  1.00  0.00     0.050 A 
ATOM     20  C   UNL     1     134.743  -1.394  80.576  1.00  0.00     0.157 A 
BRANCH  18  21
ATOM     21  O   UNL     1     136.095   0.597  80.314  1.00  0.00    -0.493 OA
ATOM     22  C   UNL     1     135.772   1.965  80.536  1.00  0.00     0.278 C 
ENDBRANCH  18  21
BRANCH  20  23
ATOM     23  O   UNL     1     135.126  -1.495  81.913  1.00  0.00    -0.504 OA
ATOM     24  H   UNL     1     135.707  -2.252  82.252  1.00  0.00     0.293 HD
ENDBRANCH  20  23
ENDBRANCH  14  15
ENDBRANCH  12  14
ENDBRANCH   9  10
ENDBRANCH   1   9
TORSDOF 10
ENDMDL
MODEL 6
REMARK VINA RESULT:    -5.321      2.115      6.128
REMARK INTER + INTRA:          -9.618
REMARK INTER:                  -8.278
REMARK INTRA:                  -1.341
REMARK UNBOUND:                -1.342
REMARK SMILES COc1cc(CNC(=O)CCCCC=CC(C)C)ccc1O
REMARK SMILES IDX 11 1 12 2 13 3 14 4 15 5 16 6 17 7 18 8 10 9 8 10 9 11 7 12
REMARK SMILES IDX 6 14 5 15 4 16 19 17 3 18 20 19 21 20 2 21 1 22 22 23
REMARK H PARENT 7 13 22 24
REMARK Flexibility Score: inf
ROOT
ATOM      1  C   UNL     1     130.016   7.908  93.597  1.00  0.00     0.010 C 
ENDROOT
BRANCH   1   2
ATOM      2  C   UNL     1     129.241   7.198  92.468  1.00  0.00     0.005 C 
BRANCH   2   3
ATOM      3  C   UNL     1     130.133   6.457  91.456  1.00  0.00     0.027 C 
BRANCH   3   4
ATOM      4  C   UNL     1     129.953   4.963  91.511  1.00  0.00    -0.031 C 
ATOM      5  C   UNL     1     130.701   4.194  92.320  1.00  0.00    -0.028 C 
BRANCH   5   6
ATOM      6  C   UNL     1     130.555   2.691  92.380  1.00  0.00     0.005 C 
ATOM      7  C   UNL     1     131.598   1.992  91.500  1.00  0.00     0.012 C 
ATOM      8  C   UNL     1     130.619   2.183  93.826  1.00  0.00     0.012 C 
ENDBRANCH   5   6
ENDBRANCH   3   4
ENDBRANCH   2   3
ENDBRANCH   1   2
BRANCH   1   9
ATOM      9  C   UNL     1     131.533   7.657  93.576  1.00  0.00     0.100 C 
BRANCH   9  10
ATOM     10  C   UNL     1     131.985   6.867  94.768  1.00  0.00     0.220 C 
ATOM     11  O   UNL     1     131.228   6.775  95.773  1.00  0.00    -0.275 OA
ATOM     12  N   UNL     1     133.281   6.251  94.779  1.00  0.00    -0.352 N 
ATOM     13  H   UNL     1     133.909   6.368  93.954  1.00  0.00     0.163 HD
BRANCH  12  14
ATOM     14  C   UNL     1     133.766   5.467  95.913  1.00  0.00     0.151 C 
BRANCH  14  15
ATOM     15  C   UNL     1     134.650   4.348  95.431  1.00  0.00    -0.025 A 
ATOM     16  C   UNL     1     134.105   3.299  94.676  1.00  0.00     0.056 A 
ATOM     17  C   UNL     1     136.013   4.326  95.758  1.00  0.00     0.009 A 
ATOM     18  C   UNL     1     134.915   2.232  94.238  1.00  0.00     0.160 A 
ATOM     19  C   UNL     1     136.822   3.274  95.325  1.00  0.00     0.050 A 
ATOM     20  C   UNL     1     136.283   2.229  94.569  1.00  0.00     0.157 A 
BRANCH  18  21
ATOM     21  O   UNL     1     134.398   1.169  93.481  1.00  0.00    -0.493 OA
ATOM     22  C   UNL     1     133.672   0.070  94.021  1.00  0.00     0.278 C 
ENDBRANCH  18  21
BRANCH  20  23
ATOM     23  O   UNL     1     137.121   1.195  94.155  1.00  0.00    -0.504 OA
ATOM     24  H   UNL     1     137.384   1.067  93.185  1.00  0.00     0.293 HD
ENDBRANCH  20  23
ENDBRANCH  14  15
ENDBRANCH  12  14
ENDBRANCH   9  10
ENDBRANCH   1   9
TORSDOF 10
ENDMDL
MODEL 7
REMARK VINA RESULT:    -5.293      2.559      5.082
REMARK INTER + INTRA:          -9.574
REMARK INTER:                  -8.198
REMARK INTRA:                  -1.377
REMARK UNBOUND:                -1.342
REMARK SMILES COc1cc(CNC(=O)CCCCC=CC(C)C)ccc1O
REMARK SMILES IDX 11 1 12 2 13 3 14 4 15 5 16 6 17 7 18 8 10 9 8 10 9 11 7 12
REMARK SMILES IDX 6 14 5 15 4 16 19 17 3 18 20 19 21 20 2 21 1 22 22 23
REMARK H PARENT 7 13 22 24
REMARK Flexibility Score: inf
ROOT
ATOM      1  C   UNL     1     132.183   1.749  91.049  1.00  0.00     0.010 C 
ENDROOT
BRANCH   1   2
ATOM      2  C   UNL     1     132.329   0.796  92.254  1.00  0.00     0.005 C 
BRANCH   2   3
ATOM      3  C   UNL     1     131.985   1.434  93.611  1.00  0.00     0.027 C 
BRANCH   3   4
ATOM      4  C   UNL     1     133.206   1.902  94.357  1.00  0.00    -0.031 C 
ATOM      5  C   UNL     1     134.445   1.672  93.892  1.00  0.00    -0.028 C 
BRANCH   5   6
ATOM      6  C   UNL     1     135.688   2.112  94.630  1.00  0.00     0.005 C 
ATOM      7  C   UNL     1     135.368   2.520  96.072  1.00  0.00     0.012 C 
ATOM      8  C   UNL     1     136.774   1.028  94.587  1.00  0.00     0.012 C 
ENDBRANCH   5   6
ENDBRANCH   3   4
ENDBRANCH   2   3
ENDBRANCH   1   2
BRANCH   1   9
ATOM      9  C   UNL     1     130.750   1.862  90.505  1.00  0.00     0.100 C 
BRANCH   9  10
ATOM     10  C   UNL     1     129.992   2.984  91.153  1.00  0.00     0.220 C 
ATOM     11  O   UNL     1     128.925   2.730  91.776  1.00  0.00    -0.275 OA
ATOM     12  N   UNL     1     130.458   4.335  91.034  1.00  0.00    -0.352 N 
ATOM     13  H   UNL     1     131.323   4.531  90.484  1.00  0.00     0.163 HD
BRANCH  12  14
ATOM     14  C   UNL     1     129.760   5.461  91.651  1.00  0.00     0.151 C 
BRANCH  14  15
ATOM     15  C   UNL     1     130.627   6.096  92.705  1.00  0.00    -0.025 A 
ATOM     16  C   UNL     1     131.817   5.471  93.105  1.00  0.00     0.056 A 
ATOM     17  C   UNL     1     130.239   7.297  93.317  1.00  0.00     0.009 A 
ATOM     18  C   UNL     1     132.627   6.041  94.107  1.00  0.00     0.160 A 
ATOM     19  C   UNL     1     131.038   7.869  94.309  1.00  0.00     0.050 A 
ATOM     20  C   UNL     1     132.227   7.250  94.707  1.00  0.00     0.157 A 
BRANCH  18  21
ATOM     21  O   UNL     1     133.823   5.438  94.528  1.00  0.00    -0.493 OA
ATOM     22  C   UNL     1     135.077   5.586  93.871  1.00  0.00     0.278 C 
ENDBRANCH  18  21
BRANCH  20  23
ATOM     23  O   UNL     1     132.998   7.850  95.701  1.00  0.00    -0.504 OA
ATOM     24  H   UNL     1     132.959   7.553  96.669  1.00  0.00     0.293 HD
ENDBRANCH  20  23
ENDBRANCH  14  15
ENDBRANCH  12  14
ENDBRANCH   9  10
ENDBRANCH   1   9
TORSDOF 10
ENDMDL
MODEL 8
REMARK VINA RESULT:    -5.219      1.571      2.252
REMARK INTER + INTRA:          -9.459
REMARK INTER:                  -8.470
REMARK INTRA:                  -0.989
REMARK UNBOUND:                -1.342
REMARK SMILES COc1cc(CNC(=O)CCCCC=CC(C)C)ccc1O
REMARK SMILES IDX 11 1 12 2 13 3 14 4 15 5 16 6 17 7 18 8 10 9 8 10 9 11 7 12
REMARK SMILES IDX 6 14 5 15 4 16 19 17 3 18 20 19 21 20 2 21 1 22 22 23
REMARK H PARENT 7 13 22 24
REMARK Flexibility Score: inf
ROOT
ATOM      1  C   UNL     1     134.428   0.650  94.942  1.00  0.00     0.010 C 
ENDROOT
BRANCH   1   2
ATOM      2  C   UNL     1     133.407   0.086  93.934  1.00  0.00     0.005 C 
BRANCH   2   3
ATOM      3  C   UNL     1     132.908   1.108  92.897  1.00  0.00     0.027 C 
BRANCH   3   4
ATOM      4  C   UNL     1     132.313   0.454  91.679  1.00  0.00    -0.031 C 
ATOM      5  C   UNL     1     132.256   1.088  90.496  1.00  0.00    -0.028 C 
BRANCH   5   6
ATOM      6  C   UNL     1     131.646   0.463  89.263  1.00  0.00     0.005 C 
ATOM      7  C   UNL     1     132.654  -0.432  88.533  1.00  0.00     0.012 C 
ATOM      8  C   UNL     1     130.365  -0.307  89.605  1.00  0.00     0.012 C 
ENDBRANCH   5   6
ENDBRANCH   3   4
ENDBRANCH   2   3
ENDBRANCH   1   2
BRANCH   1   9
ATOM      9  C   UNL     1     135.656   1.310  94.294  1.00  0.00     0.100 C 
BRANCH   9  10
ATOM     10  C   UNL     1     135.770   2.761  94.660  1.00  0.00     0.220 C 
ATOM     11  O   UNL     1     136.420   3.088  95.692  1.00  0.00    -0.275 OA
ATOM     12  N   UNL     1     135.119   3.762  93.866  1.00  0.00    -0.352 N 
ATOM     13  H   UNL     1     134.556   3.469  93.038  1.00  0.00     0.163 HD
BRANCH  12  14
ATOM     14  C   UNL     1     135.205   5.187  94.178  1.00  0.00     0.151 C 
BRANCH  14  15
ATOM     15  C   UNL     1     133.826   5.786  94.261  1.00  0.00    -0.025 A 
ATOM     16  C   UNL     1     132.755   5.174  93.593  1.00  0.00     0.056 A 
ATOM     17  C   UNL     1     133.607   6.971  94.977  1.00  0.00     0.009 A 
ATOM     18  C   UNL     1     131.463   5.735  93.642  1.00  0.00     0.160 A 
ATOM     19  C   UNL     1     132.330   7.531  95.031  1.00  0.00     0.050 A 
ATOM     20  C   UNL     1     131.259   6.922  94.370  1.00  0.00     0.157 A 
BRANCH  18  21
ATOM     21  O   UNL     1     130.372   5.146  92.984  1.00  0.00    -0.493 OA
ATOM     22  C   UNL     1     130.434   3.933  92.242  1.00  0.00     0.278 C 
ENDBRANCH  18  21
BRANCH  20  23
ATOM     23  O   UNL     1     129.997   7.511  94.447  1.00  0.00    -0.504 OA
ATOM     24  H   UNL     1     129.481   7.572  95.317  1.00  0.00     0.293 HD
ENDBRANCH  20  23
ENDBRANCH  14  15
ENDBRANCH  12  14
ENDBRANCH   9  10
ENDBRANCH   1   9
TORSDOF 10
ENDMDL
MODEL 9
REMARK VINA RESULT:    -5.182      2.794      5.231
REMARK INTER + INTRA:          -9.402
REMARK INTER:                  -8.175
REMARK INTRA:                  -1.226
REMARK UNBOUND:                -1.342
REMARK SMILES COc1cc(CNC(=O)CCCCC=CC(C)C)ccc1O
REMARK SMILES IDX 11 1 12 2 13 3 14 4 15 5 16 6 17 7 18 8 10 9 8 10 9 11 7 12
REMARK SMILES IDX 6 14 5 15 4 16 19 17 3 18 20 19 21 20 2 21 1 22 22 23
REMARK H PARENT 7 13 22 24
REMARK Flexibility Score: inf
ROOT
ATOM      1  C   UNL     1     132.269   1.107  90.850  1.00  0.00     0.010 C 
ENDROOT
BRANCH   1   2
ATOM      2  C   UNL     1     132.621   0.429  92.190  1.00  0.00     0.005 C 
BRANCH   2   3
ATOM      3  C   UNL     1     132.146   1.200  93.435  1.00  0.00     0.027 C 
BRANCH   3   4
ATOM      4  C   UNL     1     133.285   1.622  94.323  1.00  0.00    -0.031 C 
ATOM      5  C   UNL     1     134.435   2.097  93.816  1.00  0.00    -0.028 C 
BRANCH   5   6
ATOM      6  C   UNL     1     135.602   2.509  94.683  1.00  0.00     0.005 C 
ATOM      7  C   UNL     1     135.158   2.783  96.124  1.00  0.00     0.012 C 
ATOM      8  C   UNL     1     136.726   1.466  94.636  1.00  0.00     0.012 C 
ENDBRANCH   5   6
ENDBRANCH   3   4
ENDBRANCH   2   3
ENDBRANCH   1   2
BRANCH   1   9
ATOM      9  C   UNL     1     130.763   1.326  90.632  1.00  0.00     0.100 C 
BRANCH   9  10
ATOM     10  C   UNL     1     130.421   2.781  90.505  1.00  0.00     0.220 C 
ATOM     11  O   UNL     1     130.097   3.244  89.376  1.00  0.00    -0.275 OA
ATOM     12  N   UNL     1     130.497   3.645  91.647  1.00  0.00    -0.352 N 
ATOM     13  H   UNL     1     130.803   3.252  92.565  1.00  0.00     0.163 HD
BRANCH  12  14
ATOM     14  C   UNL     1     130.169   5.067  91.577  1.00  0.00     0.151 C 
BRANCH  14  15
ATOM     15  C   UNL     1     130.892   5.822  92.660  1.00  0.00    -0.025 A 
ATOM     16  C   UNL     1     130.670   7.198  92.824  1.00  0.00     0.056 A 
ATOM     17  C   UNL     1     131.813   5.168  93.491  1.00  0.00     0.009 A 
ATOM     18  C   UNL     1     131.356   7.923  93.818  1.00  0.00     0.160 A 
ATOM     19  C   UNL     1     132.495   5.880  94.479  1.00  0.00     0.050 A 
ATOM     20  C   UNL     1     132.273   7.250  94.648  1.00  0.00     0.157 A 
BRANCH  18  21
ATOM     21  O   UNL     1     131.155   9.300  94.006  1.00  0.00    -0.493 OA
ATOM     22  C   UNL     1     130.351   9.866  95.035  1.00  0.00     0.278 C 
ENDBRANCH  18  21
BRANCH  20  23
ATOM     23  O   UNL     1     132.973   7.928  95.645  1.00  0.00    -0.504 OA
ATOM     24  H   UNL     1     132.510   8.334  96.450  1.00  0.00     0.293 HD
ENDBRANCH  20  23
ENDBRANCH  14  15
ENDBRANCH  12  14
ENDBRANCH   9  10
ENDBRANCH   1   9
TORSDOF 10
ENDMDL
