MODEL 1
REMARK VINA RESULT:     1.813      0.000      0.000
REMARK INTER + INTRA:           1.866
REMARK INTER:                   1.866
REMARK INTRA:                   0.000
REMARK UNBOUND:                 0.000
REMARK SMILES Cc1ccccc1O
REMARK SMILES IDX 1 1 2 2 3 3 4 4 5 5 6 6 7 7 8 8
REMARK H PARENT 8 9
REMARK Flexibility Score: inf
ROOT
ATOM      1  C   UNL     1      -2.547  -0.117  38.449  1.00  0.00     0.048 C 
ATOM      2  C   UNL     1      -2.968  -1.089  39.514  1.00  0.00    -0.009 A 
ATOM      3  C   UNL     1      -2.602  -0.876  40.854  1.00  0.00     0.007 A 
ATOM      4  C   UNL     1      -2.995  -1.780  41.845  1.00  0.00     0.001 A 
ATOM      5  C   UNL     1      -3.754  -2.903  41.508  1.00  0.00     0.004 A 
ATOM      6  C   UNL     1      -4.124  -3.124  40.179  1.00  0.00     0.046 A 
ATOM      7  C   UNL     1      -3.735  -2.222  39.178  1.00  0.00     0.118 A 
ENDROOT
BRANCH   7   8
ATOM      8  O   UNL     1      -4.105  -2.447  37.852  1.00  0.00    -0.508 OA
ATOM      9  H   UNL     1      -3.435  -2.380  37.095  1.00  0.00     0.293 HD
ENDBRANCH   7   8
TORSDOF 1
ENDMDL
MODEL 2
REMARK VINA RESULT:     2.196     19.007     20.445
REMARK INTER + INTRA:           2.260
REMARK INTER:                   2.260
REMARK INTRA:                   0.000
REMARK UNBOUND:                 0.000
REMARK SMILES Cc1ccccc1O
REMARK SMILES IDX 1 1 2 2 3 3 4 4 5 5 6 6 7 7 8 8
REMARK H PARENT 8 9
REMARK Flexibility Score: inf
ROOT
ATOM      1  C   UNL     1      15.858   3.864  29.521  1.00  0.00     0.048 C 
ATOM      2  C   UNL     1      14.519   3.251  29.821  1.00  0.00    -0.009 A 
ATOM      3  C   UNL     1      14.325   2.516  31.003  1.00  0.00     0.007 A 
ATOM      4  C   UNL     1      13.080   1.946  31.282  1.00  0.00     0.001 A 
ATOM      5  C   UNL     1      12.020   2.103  30.386  1.00  0.00     0.004 A 
ATOM      6  C   UNL     1      12.203   2.832  29.208  1.00  0.00     0.046 A 
ATOM      7  C   UNL     1      13.449   3.408  28.920  1.00  0.00     0.118 A 
ENDROOT
BRANCH   7   8
ATOM      8  O   UNL     1      13.627   4.135  27.742  1.00  0.00    -0.508 OA
ATOM      9  H   UNL     1      14.543   4.456  27.451  1.00  0.00     0.293 HD
ENDBRANCH   7   8
TORSDOF 1
ENDMDL
MODEL 3
REMARK VINA RESULT:     2.719     19.139     20.459
REMARK INTER + INTRA:           2.799
REMARK INTER:                   2.799
REMARK INTRA:                   0.000
REMARK UNBOUND:                 0.000
REMARK SMILES Cc1ccccc1O
REMARK SMILES IDX 1 1 2 2 3 3 4 4 5 5 6 6 7 7 8 8
REMARK H PARENT 8 9
REMARK Flexibility Score: inf
ROOT
ATOM      1  C   UNL     1      13.498   4.208  27.640  1.00  0.00     0.048 C 
ATOM      2  C   UNL     1      13.363   3.424  28.914  1.00  0.00    -0.009 A 
ATOM      3  C   UNL     1      12.171   2.736  29.201  1.00  0.00     0.007 A 
ATOM      4  C   UNL     1      12.045   2.006  30.385  1.00  0.00     0.001 A 
ATOM      5  C   UNL     1      13.105   1.956  31.294  1.00  0.00     0.004 A 
ATOM      6  C   UNL     1      14.295   2.636  31.019  1.00  0.00     0.046 A 
ATOM      7  C   UNL     1      14.430   3.371  29.831  1.00  0.00     0.118 A 
ENDROOT
BRANCH   7   8
ATOM      8  O   UNL     1      15.619   4.049  29.561  1.00  0.00    -0.508 OA
ATOM      9  H   UNL     1      16.418   3.986  30.181  1.00  0.00     0.293 HD
ENDBRANCH   7   8
TORSDOF 1
ENDMDL
MODEL 4
REMARK VINA RESULT:     3.675     19.248     20.529
REMARK INTER + INTRA:           3.782
REMARK INTER:                   3.782
REMARK INTRA:                   0.000
REMARK UNBOUND:                 0.000
REMARK SMILES Cc1ccccc1O
REMARK SMILES IDX 1 1 2 2 3 3 4 4 5 5 6 6 7 7 8 8
REMARK H PARENT 8 9
REMARK Flexibility Score: inf
ROOT
ATOM      1  C   UNL     1      15.912   3.845  29.868  1.00  0.00     0.048 C 
ATOM      2  C   UNL     1      14.527   3.279  29.727  1.00  0.00    -0.009 A 
ATOM      3  C   UNL     1      13.696   3.693  28.671  1.00  0.00     0.007 A 
ATOM      4  C   UNL     1      12.409   3.167  28.540  1.00  0.00     0.001 A 
ATOM      5  C   UNL     1      11.939   2.225  29.458  1.00  0.00     0.004 A 
ATOM      6  C   UNL     1      12.757   1.807  30.511  1.00  0.00     0.046 A 
ATOM      7  C   UNL     1      14.051   2.330  30.651  1.00  0.00     0.118 A 
ENDROOT
BRANCH   7   8
ATOM      8  O   UNL     1      14.864   1.911  31.705  1.00  0.00    -0.508 OA
ATOM      9  H   UNL     1      14.479   1.449  32.520  1.00  0.00     0.293 HD
ENDBRANCH   7   8
TORSDOF 1
ENDMDL
MODEL 5
REMARK VINA RESULT:     3.996     21.136     22.654
REMARK INTER + INTRA:           4.112
REMARK INTER:                   4.112
REMARK INTRA:                   0.000
REMARK UNBOUND:                 0.000
REMARK SMILES Cc1ccccc1O
REMARK SMILES IDX 1 1 2 2 3 3 4 4 5 5 6 6 7 7 8 8
REMARK H PARENT 8 9
REMARK Flexibility Score: inf
ROOT
ATOM      1  C   UNL     1      12.579  13.645  28.721  1.00  0.00     0.048 C 
ATOM      2  C   UNL     1      11.823  12.630  29.531  1.00  0.00    -0.009 A 
ATOM      3  C   UNL     1      10.505  12.891  29.943  1.00  0.00     0.007 A 
ATOM      4  C   UNL     1       9.802  11.947  30.696  1.00  0.00     0.001 A 
ATOM      5  C   UNL     1      10.406  10.737  31.044  1.00  0.00     0.004 A 
ATOM      6  C   UNL     1      11.716  10.468  30.640  1.00  0.00     0.046 A 
ATOM      7  C   UNL     1      12.430  11.409  29.884  1.00  0.00     0.118 A 
ENDROOT
BRANCH   7   8
ATOM      8  O   UNL     1      13.738  11.137  29.482  1.00  0.00    -0.508 OA
ATOM      9  H   UNL     1      14.382  10.634  30.081  1.00  0.00     0.293 HD
ENDBRANCH   7   8
TORSDOF 1
ENDMDL
MODEL 6
REMARK VINA RESULT:     4.290     19.653     20.142
REMARK INTER + INTRA:           4.416
REMARK INTER:                   4.416
REMARK INTRA:                   0.000
REMARK UNBOUND:                 0.000
REMARK SMILES Cc1ccccc1O
REMARK SMILES IDX 1 1 2 2 3 3 4 4 5 5 6 6 7 7 8 8
REMARK H PARENT 8 9
REMARK Flexibility Score: inf
ROOT
ATOM      1  C   UNL     1      12.786  -0.017  29.051  1.00  0.00     0.048 C 
ATOM      2  C   UNL     1      13.277   1.285  29.618  1.00  0.00    -0.009 A 
ATOM      3  C   UNL     1      14.190   1.293  30.687  1.00  0.00     0.007 A 
ATOM      4  C   UNL     1      14.647   2.504  31.214  1.00  0.00     0.001 A 
ATOM      5  C   UNL     1      14.200   3.714  30.679  1.00  0.00     0.004 A 
ATOM      6  C   UNL     1      13.293   3.717  29.617  1.00  0.00     0.046 A 
ATOM      7  C   UNL     1      12.829   2.506  29.081  1.00  0.00     0.118 A 
ENDROOT
BRANCH   7   8
ATOM      8  O   UNL     1      11.922   2.514  28.020  1.00  0.00    -0.508 OA
ATOM      9  H   UNL     1      11.003   2.929  28.111  1.00  0.00     0.293 HD
ENDBRANCH   7   8
TORSDOF 1
ENDMDL
MODEL 7
REMARK VINA RESULT:     4.302     18.651     20.372
REMARK INTER + INTRA:           4.428
REMARK INTER:                   4.428
REMARK INTRA:                   0.000
REMARK UNBOUND:                 0.000
REMARK SMILES Cc1ccccc1O
REMARK SMILES IDX 1 1 2 2 3 3 4 4 5 5 6 6 7 7 8 8
REMARK H PARENT 8 9
REMARK Flexibility Score: inf
ROOT
ATOM      1  C   UNL     1      11.609   1.637  30.865  1.00  0.00     0.048 C 
ATOM      2  C   UNL     1      12.643   2.454  30.142  1.00  0.00    -0.009 A 
ATOM      3  C   UNL     1      12.329   3.074  28.920  1.00  0.00     0.007 A 
ATOM      4  C   UNL     1      13.290   3.834  28.247  1.00  0.00     0.001 A 
ATOM      5  C   UNL     1      14.570   3.980  28.786  1.00  0.00     0.004 A 
ATOM      6  C   UNL     1      14.893   3.368  30.000  1.00  0.00     0.046 A 
ATOM      7  C   UNL     1      13.934   2.604  30.682  1.00  0.00     0.118 A 
ENDROOT
BRANCH   7   8
ATOM      8  O   UNL     1      14.261   1.993  31.894  1.00  0.00    -0.508 OA
ATOM      9  H   UNL     1      14.998   2.354  32.488  1.00  0.00     0.293 HD
ENDBRANCH   7   8
TORSDOF 1
ENDMDL
MODEL 8
REMARK VINA RESULT:     4.412     21.238     22.746
REMARK INTER + INTRA:           4.541
REMARK INTER:                   4.541
REMARK INTRA:                   0.000
REMARK UNBOUND:                 0.000
REMARK SMILES Cc1ccccc1O
REMARK SMILES IDX 1 1 2 2 3 3 4 4 5 5 6 6 7 7 8 8
REMARK H PARENT 8 9
REMARK Flexibility Score: inf
ROOT
ATOM      1  C   UNL     1      13.463  13.420  29.459  1.00  0.00     0.048 C 
ATOM      2  C   UNL     1      12.297  12.595  29.924  1.00  0.00    -0.009 A 
ATOM      3  C   UNL     1      12.395  11.824  31.095  1.00  0.00     0.007 A 
ATOM      4  C   UNL     1      11.310  11.057  31.527  1.00  0.00     0.001 A 
ATOM      5  C   UNL     1      10.121  11.050  30.795  1.00  0.00     0.004 A 
ATOM      6  C   UNL     1      10.013  11.812  29.629  1.00  0.00     0.046 A 
ATOM      7  C   UNL     1      11.096  12.586  29.188  1.00  0.00     0.118 A 
ENDROOT
BRANCH   7   8
ATOM      8  O   UNL     1      10.985  13.345  28.022  1.00  0.00    -0.508 OA
ATOM      9  H   UNL     1      11.572  13.167  27.216  1.00  0.00     0.293 HD
ENDBRANCH   7   8
TORSDOF 1
ENDMDL
MODEL 9
REMARK VINA RESULT:     4.515     18.881     20.026
REMARK INTER + INTRA:           4.647
REMARK INTER:                   4.647
REMARK INTRA:                   0.000
REMARK UNBOUND:                 0.000
REMARK SMILES Cc1ccccc1O
REMARK SMILES IDX 1 1 2 2 3 3 4 4 5 5 6 6 7 7 8 8
REMARK H PARENT 8 9
REMARK Flexibility Score: inf
ROOT
ATOM      1  C   UNL     1      13.126  -0.090  29.504  1.00  0.00     0.048 C 
ATOM      2  C   UNL     1      13.476   1.338  29.815  1.00  0.00    -0.009 A 
ATOM      3  C   UNL     1      14.778   1.816  29.586  1.00  0.00     0.007 A 
ATOM      4  C   UNL     1      15.102   3.144  29.874  1.00  0.00     0.001 A 
ATOM      5  C   UNL     1      14.134   4.006  30.393  1.00  0.00     0.004 A 
ATOM      6  C   UNL     1      12.836   3.541  30.625  1.00  0.00     0.046 A 
ATOM      7  C   UNL     1      12.501   2.210  30.338  1.00  0.00     0.118 A 
ENDROOT
BRANCH   7   8
ATOM      8  O   UNL     1      11.205   1.750  30.571  1.00  0.00    -0.508 OA
ATOM      9  H   UNL     1      11.031   0.875  31.052  1.00  0.00     0.293 HD
ENDBRANCH   7   8
TORSDOF 1
ENDMDL
