MODEL 1
REMARK VINA RESULT:    -4.079      0.000      0.000
REMARK INTER + INTRA:          -5.319
REMARK INTER:                  -5.032
REMARK INTRA:                  -0.287
REMARK UNBOUND:                -0.287
REMARK SMILES C=CCc1ccc(OC)c(OC)c1
REMARK SMILES IDX 7 1 10 2 13 3 4 4 5 5 6 6 8 7 9 8 11 9 12 10 3 11 2 12 1 13
REMARK H PARENT
REMARK Flexibility Score: inf
ROOT
ATOM      1  C   UNL     1     165.101 165.176 168.189  1.00  0.00     0.160 A 
ATOM      2  C   UNL     1     164.940 164.954 166.812  1.00  0.00     0.160 A 
ATOM      3  C   UNL     1     165.713 165.691 165.893  1.00  0.00     0.054 A 
ATOM      4  C   UNL     1     166.646 166.638 166.343  1.00  0.00    -0.040 A 
ATOM      5  C   UNL     1     166.793 166.861 167.718  1.00  0.00     0.008 A 
ATOM      6  C   UNL     1     166.031 166.135 168.634  1.00  0.00     0.051 A 
ENDROOT
BRANCH   1   7
ATOM      7  O   UNL     1     164.318 164.427 169.080  1.00  0.00    -0.493 OA
ATOM      8  C   UNL     1     164.825 163.416 169.946  1.00  0.00     0.278 C 
ENDBRANCH   1   7
BRANCH   2   9
ATOM      9  O   UNL     1     164.002 163.997 166.396  1.00  0.00    -0.493 OA
ATOM     10  C   UNL     1     163.879 163.512 165.063  1.00  0.00     0.278 C 
ENDBRANCH   2   9
BRANCH   4  11
ATOM     11  C   UNL     1     167.447 167.441 165.352  1.00  0.00     0.062 C 
BRANCH  11  12
ATOM     12  C   UNL     1     168.707 166.714 164.973  1.00  0.00    -0.030 C 
ATOM     13  C   UNL     1     169.832 166.842 165.683  1.00  0.00     0.004 C 
ENDBRANCH  11  12
ENDBRANCH   4  11
TORSDOF 4
ENDMDL
MODEL 2
REMARK VINA RESULT:    -4.077      1.225      2.939
REMARK INTER + INTRA:          -5.317
REMARK INTER:                  -5.047
REMARK INTRA:                  -0.270
REMARK UNBOUND:                -0.287
REMARK SMILES C=CCc1ccc(OC)c(OC)c1
REMARK SMILES IDX 7 1 10 2 13 3 4 4 5 5 6 6 8 7 9 8 11 9 12 10 3 11 2 12 1 13
REMARK H PARENT
REMARK Flexibility Score: inf
ROOT
ATOM      1  C   UNL     1     163.920 164.612 166.067  1.00  0.00     0.160 A 
ATOM      2  C   UNL     1     164.324 164.847 167.392  1.00  0.00     0.160 A 
ATOM      3  C   UNL     1     165.507 165.569 167.641  1.00  0.00     0.054 A 
ATOM      4  C   UNL     1     166.280 166.061 166.579  1.00  0.00    -0.040 A 
ATOM      5  C   UNL     1     165.876 165.813 165.260  1.00  0.00     0.008 A 
ATOM      6  C   UNL     1     164.704 165.099 165.005  1.00  0.00     0.051 A 
ENDROOT
BRANCH   1   7
ATOM      7  O   UNL     1     162.735 163.891 165.850  1.00  0.00    -0.493 OA
ATOM      8  C   UNL     1     161.533 164.452 165.333  1.00  0.00     0.278 C 
ENDBRANCH   1   7
BRANCH   2   9
ATOM      9  O   UNL     1     163.524 164.345 168.431  1.00  0.00    -0.493 OA
ATOM     10  C   UNL     1     163.809 164.504 169.818  1.00  0.00     0.278 C 
ENDBRANCH   2   9
BRANCH   4  11
ATOM     11  C   UNL     1     167.559 166.807 166.855  1.00  0.00     0.062 C 
BRANCH  11  12
ATOM     12  C   UNL     1     168.477 166.749 165.666  1.00  0.00    -0.030 C 
ATOM     13  C   UNL     1     169.801 166.876 165.794  1.00  0.00     0.004 C 
ENDBRANCH  11  12
ENDBRANCH   4  11
TORSDOF 4
ENDMDL
MODEL 3
REMARK VINA RESULT:    -4.075      2.056      4.523
REMARK INTER + INTRA:          -5.314
REMARK INTER:                  -5.096
REMARK INTRA:                  -0.218
REMARK UNBOUND:                -0.287
REMARK SMILES C=CCc1ccc(OC)c(OC)c1
REMARK SMILES IDX 7 1 10 2 13 3 4 4 5 5 6 6 8 7 9 8 11 9 12 10 3 11 2 12 1 13
REMARK H PARENT
REMARK Flexibility Score: inf
ROOT
ATOM      1  C   UNL     1     166.191 166.333 167.743  1.00  0.00     0.160 A 
ATOM      2  C   UNL     1     166.337 166.386 166.347  1.00  0.00     0.160 A 
ATOM      3  C   UNL     1     165.529 165.570 165.532  1.00  0.00     0.054 A 
ATOM      4  C   UNL     1     164.577 164.711 166.101  1.00  0.00    -0.040 A 
ATOM      5  C   UNL     1     164.445 164.657 167.495  1.00  0.00     0.008 A 
ATOM      6  C   UNL     1     165.241 165.462 168.310  1.00  0.00     0.051 A 
ENDROOT
BRANCH   1   7
ATOM      7  O   UNL     1     167.010 167.158 168.530  1.00  0.00    -0.493 OA
ATOM      8  C   UNL     1     167.723 166.722 169.683  1.00  0.00     0.278 C 
ENDBRANCH   1   7
BRANCH   2   9
ATOM      9  O   UNL     1     167.295 167.259 165.810  1.00  0.00    -0.493 OA
ATOM     10  C   UNL     1     168.669 166.933 165.621  1.00  0.00     0.278 C 
ENDBRANCH   2   9
BRANCH   4  11
ATOM     11  C   UNL     1     163.737 163.822 165.222  1.00  0.00     0.062 C 
BRANCH  11  12
ATOM     12  C   UNL     1     162.436 164.491 164.876  1.00  0.00    -0.030 C 
ATOM     13  C   UNL     1     161.393 164.472 165.710  1.00  0.00     0.004 C 
ENDBRANCH  11  12
ENDBRANCH   4  11
TORSDOF 4
ENDMDL
MODEL 4
REMARK VINA RESULT:    -3.762      1.389      2.853
REMARK INTER + INTRA:          -4.928
REMARK INTER:                  -4.581
REMARK INTRA:                  -0.347
REMARK UNBOUND:                -0.287
REMARK SMILES C=CCc1ccc(OC)c(OC)c1
REMARK SMILES IDX 7 1 10 2 13 3 4 4 5 5 6 6 8 7 9 8 11 9 12 10 3 11 2 12 1 13
REMARK H PARENT
REMARK Flexibility Score: inf
ROOT
ATOM      1  C   UNL     1     165.246 164.565 168.609  1.00  0.00     0.160 A 
ATOM      2  C   UNL     1     165.816 165.776 169.034  1.00  0.00     0.160 A 
ATOM      3  C   UNL     1     166.222 166.728 168.078  1.00  0.00     0.054 A 
ATOM      4  C   UNL     1     166.056 166.478 166.707  1.00  0.00    -0.040 A 
ATOM      5  C   UNL     1     165.496 165.263 166.291  1.00  0.00     0.008 A 
ATOM      6  C   UNL     1     165.091 164.316 167.232  1.00  0.00     0.051 A 
ENDROOT
BRANCH   1   7
ATOM      7  O   UNL     1     164.850 163.636 169.584  1.00  0.00    -0.493 OA
ATOM      8  C   UNL     1     165.542 162.425 169.872  1.00  0.00     0.278 C 
ENDBRANCH   1   7
BRANCH   2   9
ATOM      9  O   UNL     1     165.963 165.995 170.412  1.00  0.00    -0.493 OA
ATOM     10  C   UNL     1     165.145 166.870 171.183  1.00  0.00     0.278 C 
ENDBRANCH   2   9
BRANCH   4  11
ATOM     11  C   UNL     1     166.520 167.489 165.692  1.00  0.00     0.062 C 
BRANCH  11  12
ATOM     12  C   UNL     1     167.739 166.993 164.965  1.00  0.00    -0.030 C 
ATOM     13  C   UNL     1     168.945 166.986 165.540  1.00  0.00     0.004 C 
ENDBRANCH  11  12
ENDBRANCH   4  11
TORSDOF 4
ENDMDL
MODEL 5
REMARK VINA RESULT:    -3.749      1.890      4.200
REMARK INTER + INTRA:          -4.912
REMARK INTER:                  -4.672
REMARK INTRA:                  -0.240
REMARK UNBOUND:                -0.287
REMARK SMILES C=CCc1ccc(OC)c(OC)c1
REMARK SMILES IDX 7 1 10 2 13 3 4 4 5 5 6 6 8 7 9 8 11 9 12 10 3 11 2 12 1 13
REMARK H PARENT
REMARK Flexibility Score: inf
ROOT
ATOM      1  C   UNL     1     165.257 164.917 166.223  1.00  0.00     0.160 A 
ATOM      2  C   UNL     1     166.025 166.092 166.221  1.00  0.00     0.160 A 
ATOM      3  C   UNL     1     166.215 166.802 167.424  1.00  0.00     0.054 A 
ATOM      4  C   UNL     1     165.651 166.340 168.622  1.00  0.00    -0.040 A 
ATOM      5  C   UNL     1     164.877 165.172 168.614  1.00  0.00     0.008 A 
ATOM      6  C   UNL     1     164.684 164.463 167.427  1.00  0.00     0.051 A 
ENDROOT
BRANCH   1   7
ATOM      7  O   UNL     1     165.085 164.231 165.011  1.00  0.00    -0.493 OA
ATOM      8  C   UNL     1     164.472 162.951 164.888  1.00  0.00     0.278 C 
ENDBRANCH   1   7
BRANCH   2   9
ATOM      9  O   UNL     1     166.579 166.524 165.006  1.00  0.00    -0.493 OA
ATOM     10  C   UNL     1     167.853 167.146 164.875  1.00  0.00     0.278 C 
ENDBRANCH   2   9
BRANCH   4  11
ATOM     11  C   UNL     1     165.837 167.120 169.896  1.00  0.00     0.062 C 
BRANCH  11  12
ATOM     12  C   UNL     1     165.631 168.590 169.655  1.00  0.00    -0.030 C 
ATOM     13  C   UNL     1     164.891 169.339 170.478  1.00  0.00     0.004 C 
ENDBRANCH  11  12
ENDBRANCH   4  11
TORSDOF 4
ENDMDL
MODEL 6
REMARK VINA RESULT:    -3.715      2.220      4.373
REMARK INTER + INTRA:          -4.870
REMARK INTER:                  -4.530
REMARK INTRA:                  -0.340
REMARK UNBOUND:                -0.287
REMARK SMILES C=CCc1ccc(OC)c(OC)c1
REMARK SMILES IDX 7 1 10 2 13 3 4 4 5 5 6 6 8 7 9 8 11 9 12 10 3 11 2 12 1 13
REMARK H PARENT
REMARK Flexibility Score: inf
ROOT
ATOM      1  C   UNL     1     166.010 166.614 168.649  1.00  0.00     0.160 A 
ATOM      2  C   UNL     1     165.555 165.354 169.071  1.00  0.00     0.160 A 
ATOM      3  C   UNL     1     165.152 164.403 168.113  1.00  0.00     0.054 A 
ATOM      4  C   UNL     1     165.208 164.701 166.743  1.00  0.00    -0.040 A 
ATOM      5  C   UNL     1     165.653 165.964 166.331  1.00  0.00     0.008 A 
ATOM      6  C   UNL     1     166.054 166.912 167.274  1.00  0.00     0.051 A 
ENDROOT
BRANCH   1   7
ATOM      7  O   UNL     1     166.405 167.540 169.626  1.00  0.00    -0.493 OA
ATOM      8  C   UNL     1     165.702 168.740 169.931  1.00  0.00     0.278 C 
ENDBRANCH   1   7
BRANCH   2   9
ATOM      9  O   UNL     1     165.516 165.086 170.448  1.00  0.00    -0.493 OA
ATOM     10  C   UNL     1     165.711 163.799 171.027  1.00  0.00     0.278 C 
ENDBRANCH   2   9
BRANCH   4  11
ATOM     11  C   UNL     1     164.748 163.688 165.728  1.00  0.00     0.062 C 
BRANCH  11  12
ATOM     12  C   UNL     1     163.522 164.176 165.007  1.00  0.00    -0.030 C 
ATOM     13  C   UNL     1     162.326 164.212 165.602  1.00  0.00     0.004 C 
ENDBRANCH  11  12
ENDBRANCH   4  11
TORSDOF 4
ENDMDL
MODEL 7
REMARK VINA RESULT:    -3.701      1.361      2.881
REMARK INTER + INTRA:          -4.853
REMARK INTER:                  -4.578
REMARK INTRA:                  -0.276
REMARK UNBOUND:                -0.287
REMARK SMILES C=CCc1ccc(OC)c(OC)c1
REMARK SMILES IDX 7 1 10 2 13 3 4 4 5 5 6 6 8 7 9 8 11 9 12 10 3 11 2 12 1 13
REMARK H PARENT
REMARK Flexibility Score: inf
ROOT
ATOM      1  C   UNL     1     164.772 164.822 168.537  1.00  0.00     0.160 A 
ATOM      2  C   UNL     1     165.615 165.934 168.692  1.00  0.00     0.160 A 
ATOM      3  C   UNL     1     166.210 166.520 167.557  1.00  0.00     0.054 A 
ATOM      4  C   UNL     1     165.962 166.006 166.276  1.00  0.00    -0.040 A 
ATOM      5  C   UNL     1     165.129 164.889 166.131  1.00  0.00     0.008 A 
ATOM      6  C   UNL     1     164.535 164.304 167.250  1.00  0.00     0.051 A 
ENDROOT
BRANCH   1   7
ATOM      7  O   UNL     1     164.193 164.260 169.686  1.00  0.00    -0.493 OA
ATOM      8  C   UNL     1     162.810 164.344 170.014  1.00  0.00     0.278 C 
ENDBRANCH   1   7
BRANCH   2   9
ATOM      9  O   UNL     1     165.838 166.426 169.988  1.00  0.00    -0.493 OA
ATOM     10  C   UNL     1     165.929 167.808 170.323  1.00  0.00     0.278 C 
ENDBRANCH   2   9
BRANCH   4  11
ATOM     11  C   UNL     1     166.626 166.621 165.072  1.00  0.00     0.062 C 
BRANCH  11  12
ATOM     12  C   UNL     1     167.948 167.231 165.446  1.00  0.00    -0.030 C 
ATOM     13  C   UNL     1     169.105 166.717 165.018  1.00  0.00     0.004 C 
ENDBRANCH  11  12
ENDBRANCH   4  11
TORSDOF 4
ENDMDL
MODEL 8
REMARK VINA RESULT:    -3.694      1.657      4.392
REMARK INTER + INTRA:          -4.844
REMARK INTER:                  -4.616
REMARK INTRA:                  -0.228
REMARK UNBOUND:                -0.287
REMARK SMILES C=CCc1ccc(OC)c(OC)c1
REMARK SMILES IDX 7 1 10 2 13 3 4 4 5 5 6 6 8 7 9 8 11 9 12 10 3 11 2 12 1 13
REMARK H PARENT
REMARK Flexibility Score: inf
ROOT
ATOM      1  C   UNL     1     166.007 166.113 166.284  1.00  0.00     0.160 A 
ATOM      2  C   UNL     1     165.169 164.986 166.281  1.00  0.00     0.160 A 
ATOM      3  C   UNL     1     164.700 164.464 167.503  1.00  0.00     0.054 A 
ATOM      4  C   UNL     1     165.057 165.065 168.719  1.00  0.00    -0.040 A 
ATOM      5  C   UNL     1     165.902 166.183 168.714  1.00  0.00     0.008 A 
ATOM      6  C   UNL     1     166.370 166.706 167.508  1.00  0.00     0.051 A 
ENDROOT
BRANCH   1   7
ATOM      7  O   UNL     1     166.457 166.611 165.051  1.00  0.00    -0.493 OA
ATOM      8  C   UNL     1     167.126 167.857 164.881  1.00  0.00     0.278 C 
ENDBRANCH   1   7
BRANCH   2   9
ATOM      9  O   UNL     1     164.828 164.412 165.047  1.00  0.00    -0.493 OA
ATOM     10  C   UNL     1     164.048 163.230 164.893  1.00  0.00     0.278 C 
ENDBRANCH   2   9
BRANCH   4  11
ATOM     11  C   UNL     1     164.574 164.483 170.022  1.00  0.00     0.062 C 
BRANCH  11  12
ATOM     12  C   UNL     1     165.601 163.552 170.602  1.00  0.00    -0.030 C 
ATOM     13  C   UNL     1     165.799 162.327 170.105  1.00  0.00     0.004 C 
ENDBRANCH  11  12
ENDBRANCH   4  11
TORSDOF 4
ENDMDL
MODEL 9
REMARK VINA RESULT:    -3.010      1.978      4.938
REMARK INTER + INTRA:          -4.001
REMARK INTER:                  -3.756
REMARK INTRA:                  -0.245
REMARK UNBOUND:                -0.287
REMARK SMILES C=CCc1ccc(OC)c(OC)c1
REMARK SMILES IDX 7 1 10 2 13 3 4 4 5 5 6 6 8 7 9 8 11 9 12 10 3 11 2 12 1 13
REMARK H PARENT
REMARK Flexibility Score: inf
ROOT
ATOM      1  C   UNL     1     166.390 166.026 166.744  1.00  0.00     0.160 A 
ATOM      2  C   UNL     1     165.565 165.316 167.631  1.00  0.00     0.160 A 
ATOM      3  C   UNL     1     164.472 164.581 167.129  1.00  0.00     0.054 A 
ATOM      4  C   UNL     1     164.206 164.549 165.752  1.00  0.00    -0.040 A 
ATOM      5  C   UNL     1     165.028 165.269 164.875  1.00  0.00     0.008 A 
ATOM      6  C   UNL     1     166.112 165.998 165.364  1.00  0.00     0.051 A 
ENDROOT
BRANCH   1   7
ATOM      7  O   UNL     1     167.471 166.748 167.273  1.00  0.00    -0.493 OA
ATOM      8  C   UNL     1     168.766 166.808 166.682  1.00  0.00     0.278 C 
ENDBRANCH   1   7
BRANCH   2   9
ATOM      9  O   UNL     1     165.862 165.366 169.002  1.00  0.00    -0.493 OA
ATOM     10  C   UNL     1     164.893 165.277 170.043  1.00  0.00     0.278 C 
ENDBRANCH   2   9
BRANCH   4  11
ATOM     11  C   UNL     1     163.019 163.785 165.229  1.00  0.00     0.062 C 
BRANCH  11  12
ATOM     12  C   UNL     1     161.744 164.537 165.489  1.00  0.00    -0.030 C 
ATOM     13  C   UNL     1     160.875 164.143 166.425  1.00  0.00     0.004 C 
ENDBRANCH  11  12
ENDBRANCH   4  11
TORSDOF 4
ENDMDL
