MODEL 1
REMARK VINA RESULT:    -4.515      0.000      0.000
REMARK INTER + INTRA:          -6.102
REMARK INTER:                  -5.834
REMARK INTRA:                  -0.268
REMARK UNBOUND:                -0.268
REMARK SMILES CCCCCCC(=O)[O-]
REMARK SMILES IDX 5 1 6 2 7 3 8 4 9 5 4 6 3 7 2 8 1 9
REMARK H PARENT
REMARK Flexibility Score: inf
ROOT
ATOM      1  C   UNL     1     -16.837  35.117  82.016  1.00  0.00     0.006 C 
ENDROOT
BRANCH   1   2
ATOM      2  C   UNL     1     -17.238  35.562  83.432  1.00  0.00     0.053 C 
BRANCH   2   3
ATOM      3  C   UNL     1     -17.792  36.953  83.447  1.00  0.00     0.041 C 
ATOM      4  O   UNL     1     -17.200  37.878  82.830  1.00  0.00    -0.550 OA
ATOM      5  O   UNL     1     -18.945  37.235  84.170  1.00  0.00    -0.550 OA
ENDBRANCH   2   3
ENDBRANCH   1   2
BRANCH   1   6
ATOM      6  C   UNL     1     -18.013  34.653  81.138  1.00  0.00     0.000 C 
BRANCH   6   7
ATOM      7  C   UNL     1     -18.008  35.303  79.744  1.00  0.00    -0.000 C 
BRANCH   7   8
ATOM      8  C   UNL     1     -18.603  36.719  79.752  1.00  0.00    -0.003 C 
ATOM      9  C   UNL     1     -18.730  37.318  78.352  1.00  0.00     0.004 C 
ENDBRANCH   7   8
ENDBRANCH   6   7
ENDBRANCH   1   6
TORSDOF 5
ENDMDL
MODEL 2
REMARK VINA RESULT:    -4.333      2.401      4.096
REMARK INTER + INTRA:          -5.868
REMARK INTER:                  -5.632
REMARK INTRA:                  -0.236
REMARK UNBOUND:                -0.268
REMARK SMILES CCCCCCC(=O)[O-]
REMARK SMILES IDX 5 1 6 2 7 3 8 4 9 5 4 6 3 7 2 8 1 9
REMARK H PARENT
REMARK Flexibility Score: inf
ROOT
ATOM      1  C   UNL     1     -18.066  35.248  80.097  1.00  0.00     0.006 C 
ENDROOT
BRANCH   1   2
ATOM      2  C   UNL     1     -18.306  36.763  80.193  1.00  0.00     0.053 C 
BRANCH   2   3
ATOM      3  C   UNL     1     -19.137  37.273  79.057  1.00  0.00     0.041 C 
ATOM      4  O   UNL     1     -18.644  37.367  77.902  1.00  0.00    -0.550 OA
ATOM      5  O   UNL     1     -20.449  37.674  79.279  1.00  0.00    -0.550 OA
ENDBRANCH   2   3
ENDBRANCH   1   2
BRANCH   1   6
ATOM      6  C   UNL     1     -17.559  34.600  81.398  1.00  0.00     0.000 C 
BRANCH   6   7
ATOM      7  C   UNL     1     -16.561  35.491  82.157  1.00  0.00    -0.000 C 
BRANCH   7   8
ATOM      8  C   UNL     1     -16.930  35.658  83.639  1.00  0.00    -0.003 C 
ATOM      9  C   UNL     1     -18.033  36.692  83.864  1.00  0.00     0.004 C 
ENDBRANCH   7   8
ENDBRANCH   6   7
ENDBRANCH   1   6
TORSDOF 5
ENDMDL
MODEL 3
REMARK VINA RESULT:    -4.290      1.553      1.829
REMARK INTER + INTRA:          -5.812
REMARK INTER:                  -5.670
REMARK INTRA:                  -0.142
REMARK UNBOUND:                -0.268
REMARK SMILES CCCCCCC(=O)[O-]
REMARK SMILES IDX 5 1 6 2 7 3 8 4 9 5 4 6 3 7 2 8 1 9
REMARK H PARENT
REMARK Flexibility Score: inf
ROOT
ATOM      1  C   UNL     1     -16.290  35.975  82.036  1.00  0.00     0.006 C 
ENDROOT
BRANCH   1   2
ATOM      2  C   UNL     1     -17.028  34.991  82.960  1.00  0.00     0.053 C 
BRANCH   2   3
ATOM      3  C   UNL     1     -17.211  35.547  84.338  1.00  0.00     0.041 C 
ATOM      4  O   UNL     1     -18.088  36.424  84.558  1.00  0.00    -0.550 OA
ATOM      5  O   UNL     1     -16.391  35.120  85.376  1.00  0.00    -0.550 OA
ENDBRANCH   2   3
ENDBRANCH   1   2
BRANCH   1   6
ATOM      6  C   UNL     1     -17.215  36.885  81.208  1.00  0.00     0.000 C 
BRANCH   6   7
ATOM      7  C   UNL     1     -18.155  36.094  80.282  1.00  0.00    -0.000 C 
BRANCH   7   8
ATOM      8  C   UNL     1     -19.179  36.994  79.574  1.00  0.00    -0.003 C 
ATOM      9  C   UNL     1     -18.745  37.391  78.162  1.00  0.00     0.004 C 
ENDBRANCH   7   8
ENDBRANCH   6   7
ENDBRANCH   1   6
TORSDOF 5
ENDMDL
MODEL 4
REMARK VINA RESULT:    -4.265      2.349      4.045
REMARK INTER + INTRA:          -5.780
REMARK INTER:                  -5.570
REMARK INTRA:                  -0.210
REMARK UNBOUND:                -0.268
REMARK SMILES CCCCCCC(=O)[O-]
REMARK SMILES IDX 5 1 6 2 7 3 8 4 9 5 4 6 3 7 2 8 1 9
REMARK H PARENT
REMARK Flexibility Score: inf
ROOT
ATOM      1  C   UNL     1     -17.259  36.444  80.928  1.00  0.00     0.006 C 
ENDROOT
BRANCH   1   2
ATOM      2  C   UNL     1     -18.243  35.922  79.868  1.00  0.00     0.053 C 
BRANCH   2   3
ATOM      3  C   UNL     1     -18.931  37.038  79.143  1.00  0.00     0.041 C 
ATOM      4  O   UNL     1     -18.389  37.572  78.140  1.00  0.00    -0.550 OA
ATOM      5  O   UNL     1     -20.157  37.510  79.595  1.00  0.00    -0.550 OA
ENDBRANCH   2   3
ENDBRANCH   1   2
BRANCH   1   6
ATOM      6  C   UNL     1     -16.862  35.407  81.994  1.00  0.00     0.000 C 
BRANCH   6   7
ATOM      7  C   UNL     1     -17.177  35.875  83.425  1.00  0.00    -0.000 C 
BRANCH   7   8
ATOM      8  C   UNL     1     -17.719  37.311  83.469  1.00  0.00    -0.003 C 
ATOM      9  C   UNL     1     -19.141  37.392  84.026  1.00  0.00     0.004 C 
ENDBRANCH   7   8
ENDBRANCH   6   7
ENDBRANCH   1   6
TORSDOF 5
ENDMDL
MODEL 5
REMARK VINA RESULT:    -3.943      1.378      2.182
REMARK INTER + INTRA:          -5.364
REMARK INTER:                  -5.093
REMARK INTRA:                  -0.271
REMARK UNBOUND:                -0.268
REMARK SMILES CCCCCCC(=O)[O-]
REMARK SMILES IDX 5 1 6 2 7 3 8 4 9 5 4 6 3 7 2 8 1 9
REMARK H PARENT
REMARK Flexibility Score: inf
ROOT
ATOM      1  C   UNL     1     -16.786  36.837  81.696  1.00  0.00     0.006 C 
ENDROOT
BRANCH   1   2
ATOM      2  C   UNL     1     -17.118  37.660  82.951  1.00  0.00     0.053 C 
BRANCH   2   3
ATOM      3  C   UNL     1     -18.159  36.995  83.798  1.00  0.00     0.041 C 
ATOM      4  O   UNL     1     -19.358  37.377  83.747  1.00  0.00    -0.550 OA
ATOM      5  O   UNL     1     -17.800  35.972  84.668  1.00  0.00    -0.550 OA
ENDBRANCH   2   3
ENDBRANCH   1   2
BRANCH   1   6
ATOM      6  C   UNL     1     -17.425  37.367  80.400  1.00  0.00     0.000 C 
BRANCH   6   7
ATOM      7  C   UNL     1     -18.512  36.430  79.846  1.00  0.00    -0.000 C 
BRANCH   7   8
ATOM      8  C   UNL     1     -18.365  34.990  80.359  1.00  0.00    -0.003 C 
ATOM      9  C   UNL     1     -17.618  34.084  79.380  1.00  0.00     0.004 C 
ENDBRANCH   7   8
ENDBRANCH   6   7
ENDBRANCH   1   6
TORSDOF 5
ENDMDL
MODEL 6
REMARK VINA RESULT:    -3.930     13.832     15.011
REMARK INTER + INTRA:          -5.346
REMARK INTER:                  -5.096
REMARK INTRA:                  -0.251
REMARK UNBOUND:                -0.268
REMARK SMILES CCCCCCC(=O)[O-]
REMARK SMILES IDX 5 1 6 2 7 3 8 4 9 5 4 6 3 7 2 8 1 9
REMARK H PARENT
REMARK Flexibility Score: inf
ROOT
ATOM      1  C   UNL     1     -26.196  44.555  90.630  1.00  0.00     0.006 C 
ENDROOT
BRANCH   1   2
ATOM      2  C   UNL     1     -26.966  43.542  91.494  1.00  0.00     0.053 C 
BRANCH   2   3
ATOM      3  C   UNL     1     -28.107  42.922  90.747  1.00  0.00     0.041 C 
ATOM      4  O   UNL     1     -29.192  42.675  91.336  1.00  0.00    -0.550 OA
ATOM      5  O   UNL     1     -27.960  42.586  89.406  1.00  0.00    -0.550 OA
ENDBRANCH   2   3
ENDBRANCH   1   2
BRANCH   1   6
ATOM      6  C   UNL     1     -26.910  45.906  90.445  1.00  0.00     0.000 C 
BRANCH   6   7
ATOM      7  C   UNL     1     -26.519  46.611  89.135  1.00  0.00    -0.000 C 
BRANCH   7   8
ATOM      8  C   UNL     1     -26.076  45.624  88.045  1.00  0.00    -0.003 C 
ATOM      9  C   UNL     1     -25.327  46.303  86.898  1.00  0.00     0.004 C 
ENDBRANCH   7   8
ENDBRANCH   6   7
ENDBRANCH   1   6
TORSDOF 5
ENDMDL
MODEL 7
REMARK VINA RESULT:    -3.889      2.528      4.639
REMARK INTER + INTRA:          -5.294
REMARK INTER:                  -5.132
REMARK INTRA:                  -0.162
REMARK UNBOUND:                -0.268
REMARK SMILES CCCCCCC(=O)[O-]
REMARK SMILES IDX 5 1 6 2 7 3 8 4 9 5 4 6 3 7 2 8 1 9
REMARK H PARENT
REMARK Flexibility Score: inf
ROOT
ATOM      1  C   UNL     1     -17.199  37.103  80.930  1.00  0.00     0.006 C 
ENDROOT
BRANCH   1   2
ATOM      2  C   UNL     1     -18.368  36.392  80.228  1.00  0.00     0.053 C 
BRANCH   2   3
ATOM      3  C   UNL     1     -18.181  34.907  80.195  1.00  0.00     0.041 C 
ATOM      4  O   UNL     1     -18.405  34.216  81.223  1.00  0.00    -0.550 OA
ATOM      5  O   UNL     1     -17.728  34.288  79.036  1.00  0.00    -0.550 OA
ENDBRANCH   2   3
ENDBRANCH   1   2
BRANCH   1   6
ATOM      6  C   UNL     1     -17.398  37.313  82.442  1.00  0.00     0.000 C 
BRANCH   6   7
ATOM      7  C   UNL     1     -16.300  36.642  83.286  1.00  0.00    -0.000 C 
BRANCH   7   8
ATOM      8  C   UNL     1     -16.746  35.292  83.866  1.00  0.00    -0.003 C 
ATOM      9  C   UNL     1     -16.584  35.216  85.384  1.00  0.00     0.004 C 
ENDBRANCH   7   8
ENDBRANCH   6   7
ENDBRANCH   1   6
TORSDOF 5
ENDMDL
MODEL 8
REMARK VINA RESULT:    -3.681      8.854      9.632
REMARK INTER + INTRA:          -5.025
REMARK INTER:                  -4.667
REMARK INTRA:                  -0.358
REMARK UNBOUND:                -0.268
REMARK SMILES CCCCCCC(=O)[O-]
REMARK SMILES IDX 5 1 6 2 7 3 8 4 9 5 4 6 3 7 2 8 1 9
REMARK H PARENT
REMARK Flexibility Score: inf
ROOT
ATOM      1  C   UNL     1     -17.918  44.742  85.691  1.00  0.00     0.006 C 
ENDROOT
BRANCH   1   2
ATOM      2  C   UNL     1     -19.057  43.754  85.387  1.00  0.00     0.053 C 
BRANCH   2   3
ATOM      3  C   UNL     1     -20.248  43.984  86.265  1.00  0.00     0.041 C 
ATOM      4  O   UNL     1     -20.370  43.352  87.347  1.00  0.00    -0.550 OA
ATOM      5  O   UNL     1     -21.241  44.874  85.873  1.00  0.00    -0.550 OA
ENDBRANCH   2   3
ENDBRANCH   1   2
BRANCH   1   6
ATOM      6  C   UNL     1     -17.604  45.723  84.547  1.00  0.00     0.000 C 
BRANCH   6   7
ATOM      7  C   UNL     1     -18.484  45.492  83.307  1.00  0.00    -0.000 C 
BRANCH   7   8
ATOM      8  C   UNL     1     -19.441  46.663  83.038  1.00  0.00    -0.003 C 
ATOM      9  C   UNL     1     -20.839  46.204  82.625  1.00  0.00     0.004 C 
ENDBRANCH   7   8
ENDBRANCH   6   7
ENDBRANCH   1   6
TORSDOF 5
ENDMDL
MODEL 9
REMARK VINA RESULT:    -3.634      7.929      8.839
REMARK INTER + INTRA:          -4.965
REMARK INTER:                  -4.821
REMARK INTRA:                  -0.143
REMARK UNBOUND:                -0.268
REMARK SMILES CCCCCCC(=O)[O-]
REMARK SMILES IDX 5 1 6 2 7 3 8 4 9 5 4 6 3 7 2 8 1 9
REMARK H PARENT
REMARK Flexibility Score: inf
ROOT
ATOM      1  C   UNL     1     -19.417  43.088  85.767  1.00  0.00     0.006 C 
ENDROOT
BRANCH   1   2
ATOM      2  C   UNL     1     -20.465  42.621  86.791  1.00  0.00     0.053 C 
BRANCH   2   3
ATOM      3  C   UNL     1     -20.292  41.177  87.149  1.00  0.00     0.041 C 
ATOM      4  O   UNL     1     -19.139  40.697  87.314  1.00  0.00    -0.550 OA
ATOM      5  O   UNL     1     -21.404  40.352  87.270  1.00  0.00    -0.550 OA
ENDBRANCH   2   3
ENDBRANCH   1   2
BRANCH   1   6
ATOM      6  C   UNL     1     -19.126  44.599  85.800  1.00  0.00     0.000 C 
BRANCH   6   7
ATOM      7  C   UNL     1     -17.689  44.938  85.367  1.00  0.00    -0.000 C 
BRANCH   7   8
ATOM      8  C   UNL     1     -17.642  46.010  84.268  1.00  0.00    -0.003 C 
ATOM      9  C   UNL     1     -18.815  45.913  83.293  1.00  0.00     0.004 C 
ENDBRANCH   7   8
ENDBRANCH   6   7
ENDBRANCH   1   6
TORSDOF 5
ENDMDL
