MODEL 1
REMARK VINA RESULT:    -5.584      0.000      0.000
REMARK INTER + INTRA:          -5.747
REMARK INTER:                  -5.747
REMARK INTRA:                   0.000
REMARK UNBOUND:                 0.000
REMARK SMILES Oc1ccc2[nH]ccc2c1
REMARK SMILES IDX 3 1 4 2 5 3 9 4 8 5 7 6 6 7 10 8 2 9 1 11
REMARK H PARENT 6 10 1 12
REMARK Flexibility Score: inf
ROOT
ATOM      1  C   UNL     1     107.502 111.442  89.238  1.00  0.00     0.048 A 
ATOM      2  C   UNL     1     107.600 110.370  88.331  1.00  0.00     0.030 A 
ATOM      3  C   UNL     1     107.297 110.619  86.994  1.00  0.00     0.046 A 
ATOM      4  C   UNL     1     106.913 111.860  86.562  1.00  0.00     0.003 A 
ATOM      5  C   UNL     1     106.688 111.773  85.206  1.00  0.00     0.028 A 
ATOM      6  C   UNL     1     106.955 110.447  84.878  1.00  0.00     0.083 A 
ATOM      7  N   UNL     1     107.325 109.746  85.974  1.00  0.00    -0.361 N 
ATOM      8  C   UNL     1     106.805 112.942  87.433  1.00  0.00     0.056 A 
ATOM      9  C   UNL     1     107.105 112.727  88.792  1.00  0.00     0.116 A 
ATOM     10  H   UNL     1     107.582 108.734  86.013  1.00  0.00     0.166 HD
ENDROOT
BRANCH   9  11
ATOM     11  O   UNL     1     107.007 113.787  89.690  1.00  0.00    -0.508 OA
ATOM     12  H   UNL     1     106.875 114.740  89.370  1.00  0.00     0.293 HD
ENDBRANCH   9  11
TORSDOF 1
ENDMDL
MODEL 2
REMARK VINA RESULT:    -5.488      2.627      4.083
REMARK INTER + INTRA:          -5.648
REMARK INTER:                  -5.648
REMARK INTRA:                   0.000
REMARK UNBOUND:                 0.000
REMARK SMILES Oc1ccc2[nH]ccc2c1
REMARK SMILES IDX 3 1 4 2 5 3 9 4 8 5 7 6 6 7 10 8 2 9 1 11
REMARK H PARENT 6 10 1 12
REMARK Flexibility Score: inf
ROOT
ATOM      1  C   UNL     1     106.501 112.120  85.011  1.00  0.00     0.048 A 
ATOM      2  C   UNL     1     106.506 113.030  86.084  1.00  0.00     0.030 A 
ATOM      3  C   UNL     1     106.865 112.550  87.342  1.00  0.00     0.046 A 
ATOM      4  C   UNL     1     107.204 111.238  87.543  1.00  0.00     0.003 A 
ATOM      5  C   UNL     1     107.503 111.090  88.879  1.00  0.00     0.028 A 
ATOM      6  C   UNL     1     107.326 112.354  89.434  1.00  0.00     0.083 A 
ATOM      7  N   UNL     1     106.935 113.242  88.492  1.00  0.00    -0.361 N 
ATOM      8  C   UNL     1     107.209 110.312  86.502  1.00  0.00     0.056 A 
ATOM      9  C   UNL     1     106.851 110.762  85.217  1.00  0.00     0.116 A 
ATOM     10  H   UNL     1     106.733 114.257  88.632  1.00  0.00     0.166 HD
ENDROOT
BRANCH   9  11
ATOM     11  O   UNL     1     106.845 109.862  84.155  1.00  0.00    -0.508 OA
ATOM     12  H   UNL     1     106.138 109.904  83.430  1.00  0.00     0.293 HD
ENDBRANCH   9  11
TORSDOF 1
ENDMDL
MODEL 3
REMARK VINA RESULT:    -5.406      2.060      2.678
REMARK INTER + INTRA:          -5.564
REMARK INTER:                  -5.564
REMARK INTRA:                   0.000
REMARK UNBOUND:                 0.000
REMARK SMILES Oc1ccc2[nH]ccc2c1
REMARK SMILES IDX 3 1 4 2 5 3 9 4 8 5 7 6 6 7 10 8 2 9 1 11
REMARK H PARENT 6 10 1 12
REMARK Flexibility Score: inf
ROOT
ATOM      1  C   UNL     1     107.368 111.556  89.160  1.00  0.00     0.048 A 
ATOM      2  C   UNL     1     107.139 112.786  88.514  1.00  0.00     0.030 A 
ATOM      3  C   UNL     1     106.939 112.770  87.136  1.00  0.00     0.046 A 
ATOM      4  C   UNL     1     106.963 111.603  86.419  1.00  0.00     0.003 A 
ATOM      5  C   UNL     1     106.735 111.926  85.099  1.00  0.00     0.028 A 
ATOM      6  C   UNL     1     106.580 113.309  85.085  1.00  0.00     0.083 A 
ATOM      7  N   UNL     1     106.707 113.820  86.331  1.00  0.00    -0.361 N 
ATOM      8  C   UNL     1     107.187 110.370  87.027  1.00  0.00     0.056 A 
ATOM      9  C   UNL     1     107.393 110.348  88.419  1.00  0.00     0.116 A 
ATOM     10  H   UNL     1     106.636 114.824  86.607  1.00  0.00     0.166 HD
ENDROOT
BRANCH   9  11
ATOM     11  O   UNL     1     107.620 109.133  89.058  1.00  0.00    -0.508 OA
ATOM     12  H   UNL     1     108.313 108.477  88.716  1.00  0.00     0.293 HD
ENDBRANCH   9  11
TORSDOF 1
ENDMDL
MODEL 4
REMARK VINA RESULT:    -5.251     12.133     12.730
REMARK INTER + INTRA:          -5.405
REMARK INTER:                  -5.405
REMARK INTRA:                   0.000
REMARK UNBOUND:                 0.000
REMARK SMILES Oc1ccc2[nH]ccc2c1
REMARK SMILES IDX 3 1 4 2 5 3 9 4 8 5 7 6 6 7 10 8 2 9 1 11
REMARK H PARENT 6 10 1 12
REMARK Flexibility Score: inf
ROOT
ATOM      1  C   UNL     1      98.528 104.686  89.042  1.00  0.00     0.048 A 
ATOM      2  C   UNL     1      98.175 103.361  89.361  1.00  0.00     0.030 A 
ATOM      3  C   UNL     1      97.705 103.105  90.647  1.00  0.00     0.046 A 
ATOM      4  C   UNL     1      97.587 104.099  91.582  1.00  0.00     0.003 A 
ATOM      5  C   UNL     1      97.101 103.524  92.736  1.00  0.00     0.028 A 
ATOM      6  C   UNL     1      96.946 102.175  92.432  1.00  0.00     0.083 A 
ATOM      7  N   UNL     1      97.317 101.924  91.156  1.00  0.00    -0.361 N 
ATOM      8  C   UNL     1      97.928 105.420  91.299  1.00  0.00     0.056 A 
ATOM      9  C   UNL     1      98.407 105.715  90.008  1.00  0.00     0.116 A 
ATOM     10  H   UNL     1      97.302 101.000  90.669  1.00  0.00     0.166 HD
ENDROOT
BRANCH   9  11
ATOM     11  O   UNL     1      98.756 107.025  89.692  1.00  0.00    -0.508 OA
ATOM     12  H   UNL     1      99.473 107.230  89.006  1.00  0.00     0.293 HD
ENDBRANCH   9  11
TORSDOF 1
ENDMDL
MODEL 5
REMARK VINA RESULT:    -5.238     11.037     11.407
REMARK INTER + INTRA:          -5.392
REMARK INTER:                  -5.392
REMARK INTRA:                   0.000
REMARK UNBOUND:                 0.000
REMARK SMILES Oc1ccc2[nH]ccc2c1
REMARK SMILES IDX 3 1 4 2 5 3 9 4 8 5 7 6 6 7 10 8 2 9 1 11
REMARK H PARENT 6 10 1 12
REMARK Flexibility Score: inf
ROOT
ATOM      1  C   UNL     1     100.715 104.334  89.473  1.00  0.00     0.048 A 
ATOM      2  C   UNL     1      99.856 103.260  89.773  1.00  0.00     0.030 A 
ATOM      3  C   UNL     1      98.522 103.368  89.386  1.00  0.00     0.046 A 
ATOM      4  C   UNL     1      98.048 104.477  88.736  1.00  0.00     0.003 A 
ATOM      5  C   UNL     1      96.706 104.273  88.498  1.00  0.00     0.028 A 
ATOM      6  C   UNL     1      96.430 103.017  89.030  1.00  0.00     0.083 A 
ATOM      7  N   UNL     1      97.541 102.469  89.572  1.00  0.00    -0.361 N 
ATOM      8  C   UNL     1      98.872 105.556  88.426  1.00  0.00     0.056 A 
ATOM      9  C   UNL     1     100.227 105.481  88.801  1.00  0.00     0.116 A 
ATOM     10  H   UNL     1      97.618 101.537  90.036  1.00  0.00     0.166 HD
ENDROOT
BRANCH   9  11
ATOM     11  O   UNL     1     101.078 106.543  88.506  1.00  0.00    -0.508 OA
ATOM     12  H   UNL     1     102.075 106.485  88.678  1.00  0.00     0.293 HD
ENDBRANCH   9  11
TORSDOF 1
ENDMDL
MODEL 6
REMARK VINA RESULT:    -5.219     11.094     11.654
REMARK INTER + INTRA:          -5.371
REMARK INTER:                  -5.371
REMARK INTRA:                   0.000
REMARK UNBOUND:                 0.000
REMARK SMILES Oc1ccc2[nH]ccc2c1
REMARK SMILES IDX 3 1 4 2 5 3 9 4 8 5 7 6 6 7 10 8 2 9 1 11
REMARK H PARENT 6 10 1 12
REMARK Flexibility Score: inf
ROOT
ATOM      1  C   UNL     1     100.064 104.024  89.070  1.00  0.00     0.048 A 
ATOM      2  C   UNL     1      99.063 103.246  89.680  1.00  0.00     0.030 A 
ATOM      3  C   UNL     1      98.158 103.892  90.519  1.00  0.00     0.046 A 
ATOM      4  C   UNL     1      98.227 105.240  90.752  1.00  0.00     0.003 A 
ATOM      5  C   UNL     1      97.203 105.562  91.615  1.00  0.00     0.028 A 
ATOM      6  C   UNL     1      96.548 104.361  91.866  1.00  0.00     0.083 A 
ATOM      7  N   UNL     1      97.135 103.343  91.196  1.00  0.00    -0.361 N 
ATOM      8  C   UNL     1      99.205 106.038  90.163  1.00  0.00     0.056 A 
ATOM      9  C   UNL     1     100.138 105.419  89.309  1.00  0.00     0.116 A 
ATOM     10  H   UNL     1      96.848 102.339  91.204  1.00  0.00     0.166 HD
ENDROOT
BRANCH   9  11
ATOM     11  O   UNL     1     101.128 106.188  88.705  1.00  0.00    -0.508 OA
ATOM     12  H   UNL     1     100.978 106.631  87.805  1.00  0.00     0.293 HD
ENDBRANCH   9  11
TORSDOF 1
ENDMDL
MODEL 7
REMARK VINA RESULT:    -5.183      2.002      3.328
REMARK INTER + INTRA:          -5.335
REMARK INTER:                  -5.335
REMARK INTRA:                   0.000
REMARK UNBOUND:                 0.000
REMARK SMILES Oc1ccc2[nH]ccc2c1
REMARK SMILES IDX 3 1 4 2 5 3 9 4 8 5 7 6 6 7 10 8 2 9 1 11
REMARK H PARENT 6 10 1 12
REMARK Flexibility Score: inf
ROOT
ATOM      1  C   UNL     1     106.697 111.341  84.803  1.00  0.00     0.048 A 
ATOM      2  C   UNL     1     107.002 110.370  85.775  1.00  0.00     0.030 A 
ATOM      3  C   UNL     1     107.200 110.800  87.085  1.00  0.00     0.046 A 
ATOM      4  C   UNL     1     107.105 112.122  87.430  1.00  0.00     0.003 A 
ATOM      5  C   UNL     1     107.352 112.213  88.783  1.00  0.00     0.028 A 
ATOM      6  C   UNL     1     107.590 110.907  89.198  1.00  0.00     0.083 A 
ATOM      7  N   UNL     1     107.497 110.047  88.157  1.00  0.00    -0.361 N 
ATOM      8  C   UNL     1     106.806 113.108  86.493  1.00  0.00     0.056 A 
ATOM      9  C   UNL     1     106.599 112.709  85.159  1.00  0.00     0.116 A 
ATOM     10  H   UNL     1     107.627 109.012  88.186  1.00  0.00     0.166 HD
ENDROOT
BRANCH   9  11
ATOM     11  O   UNL     1     106.298 113.670  84.197  1.00  0.00    -0.508 OA
ATOM     12  H   UNL     1     105.375 114.082  84.133  1.00  0.00     0.293 HD
ENDBRANCH   9  11
TORSDOF 1
ENDMDL
MODEL 8
REMARK VINA RESULT:    -5.160     10.754     11.390
REMARK INTER + INTRA:          -5.311
REMARK INTER:                  -5.311
REMARK INTRA:                   0.000
REMARK UNBOUND:                 0.000
REMARK SMILES Oc1ccc2[nH]ccc2c1
REMARK SMILES IDX 3 1 4 2 5 3 9 4 8 5 7 6 6 7 10 8 2 9 1 11
REMARK H PARENT 6 10 1 12
REMARK Flexibility Score: inf
ROOT
ATOM      1  C   UNL     1      99.459 106.061  88.570  1.00  0.00     0.048 A 
ATOM      2  C   UNL     1      98.138 106.298  88.995  1.00  0.00     0.030 A 
ATOM      3  C   UNL     1      97.761 105.813  90.246  1.00  0.00     0.046 A 
ATOM      4  C   UNL     1      98.635 105.125  91.045  1.00  0.00     0.003 A 
ATOM      5  C   UNL     1      97.961 104.787  92.197  1.00  0.00     0.028 A 
ATOM      6  C   UNL     1      96.679 105.302  92.033  1.00  0.00     0.083 A 
ATOM      7  N   UNL     1      96.561 105.927  90.839  1.00  0.00    -0.361 N 
ATOM      8  C   UNL     1      99.948 104.873  90.653  1.00  0.00     0.056 A 
ATOM      9  C   UNL     1     100.364 105.350  89.395  1.00  0.00     0.116 A 
ATOM     10  H   UNL     1      95.711 106.401  90.461  1.00  0.00     0.166 HD
ENDROOT
BRANCH   9  11
ATOM     11  O   UNL     1     101.670 105.115  88.973  1.00  0.00    -0.508 OA
ATOM     12  H   UNL     1     101.899 105.019  87.990  1.00  0.00     0.293 HD
ENDBRANCH   9  11
TORSDOF 1
ENDMDL
MODEL 9
REMARK VINA RESULT:    -5.048     10.686     11.210
REMARK INTER + INTRA:          -5.195
REMARK INTER:                  -5.195
REMARK INTRA:                   0.000
REMARK UNBOUND:                 0.000
REMARK SMILES Oc1ccc2[nH]ccc2c1
REMARK SMILES IDX 3 1 4 2 5 3 9 4 8 5 7 6 6 7 10 8 2 9 1 11
REMARK H PARENT 6 10 1 12
REMARK Flexibility Score: inf
ROOT
ATOM      1  C   UNL     1      97.555 105.813  89.374  1.00  0.00     0.048 A 
ATOM      2  C   UNL     1      98.887 106.245  89.231  1.00  0.00     0.030 A 
ATOM      3  C   UNL     1      99.880 105.272  89.137  1.00  0.00     0.046 A 
ATOM      4  C   UNL     1      99.584 103.935  89.182  1.00  0.00     0.003 A 
ATOM      5  C   UNL     1     100.772 103.247  89.065  1.00  0.00     0.028 A 
ATOM      6  C   UNL     1     101.751 104.228  88.953  1.00  0.00     0.083 A 
ATOM      7  N   UNL     1     101.202 105.463  88.999  1.00  0.00    -0.361 N 
ATOM      8  C   UNL     1      98.277 103.475  89.322  1.00  0.00     0.056 A 
ATOM      9  C   UNL     1      97.248 104.431  89.420  1.00  0.00     0.116 A 
ATOM     10  H   UNL     1     101.706 106.376  88.936  1.00  0.00     0.166 HD
ENDROOT
BRANCH   9  11
ATOM     11  O   UNL     1      95.930 104.004  89.561  1.00  0.00    -0.508 OA
ATOM     12  H   UNL     1      95.440 104.085  90.444  1.00  0.00     0.293 HD
ENDBRANCH   9  11
TORSDOF 1
ENDMDL
