MODEL 1
REMARK VINA RESULT:    -3.277      0.000      0.000
REMARK INTER + INTRA:          -4.224
REMARK INTER:                  -3.852
REMARK INTRA:                  -0.372
REMARK UNBOUND:                -0.372
REMARK SMILES [NH3+][C@@H](CO)C(=O)[O-]
REMARK SMILES IDX 3 1 2 2 1 3 5 7 6 8 7 9 4 10
REMARK H PARENT 1 4 1 5 1 6 4 11
REMARK Flexibility Score: inf
ROOT
ATOM      1  C   UNL     1     123.604 130.554 143.437  1.00  0.00     0.227 C 
ENDROOT
BRANCH   1   2
ATOM      2  C   UNL     1     123.128 131.330 144.676  1.00  0.00     0.253 C 
BRANCH   2   3
ATOM      3  N   UNL     1     124.190 132.197 145.201  1.00  0.00    -0.348 N 
ATOM      4  H   UNL     1     124.204 132.145 146.245  1.00  0.00     0.345 HD
ATOM      5  H   UNL     1     124.042 133.191 144.910  1.00  0.00     0.345 HD
ATOM      6  H   UNL     1     125.118 131.872 144.845  1.00  0.00     0.345 HD
ENDBRANCH   2   3
BRANCH   2   7
ATOM      7  C   UNL     1     122.635 130.383 145.739  1.00  0.00     0.102 C 
ATOM      8  O   UNL     1     121.471 129.906 145.668  1.00  0.00    -0.544 OA
ATOM      9  O   UNL     1     123.470 129.995 146.780  1.00  0.00    -0.544 OA
ENDBRANCH   2   7
ENDBRANCH   1   2
BRANCH   1  10
ATOM     10  O   UNL     1     123.891 129.222 143.764  1.00  0.00    -0.390 OA
ATOM     11  H   UNL     1     123.759 129.145 144.745  1.00  0.00     0.210 HD
ENDBRANCH   1  10
TORSDOF 4
ENDMDL
MODEL 2
REMARK VINA RESULT:    -3.119      4.019      4.659
REMARK INTER + INTRA:          -4.038
REMARK INTER:                  -3.684
REMARK INTRA:                  -0.355
REMARK UNBOUND:                -0.372
REMARK SMILES [NH3+][C@@H](CO)C(=O)[O-]
REMARK SMILES IDX 3 1 2 2 1 3 5 7 6 8 7 9 4 10
REMARK H PARENT 1 4 1 5 1 6 4 11
REMARK Flexibility Score: inf
ROOT
ATOM      1  C   UNL     1     121.173 127.001 148.160  1.00  0.00     0.227 C 
ENDROOT
BRANCH   1   2
ATOM      2  C   UNL     1     121.770 128.377 147.823  1.00  0.00     0.253 C 
BRANCH   2   3
ATOM      3  N   UNL     1     121.851 128.580 146.371  1.00  0.00    -0.348 N 
ATOM      4  H   UNL     1     122.375 129.461 146.167  1.00  0.00     0.345 HD
ATOM      5  H   UNL     1     120.897 128.643 145.947  1.00  0.00     0.345 HD
ATOM      6  H   UNL     1     122.367 127.783 145.933  1.00  0.00     0.345 HD
ENDBRANCH   2   3
BRANCH   2   7
ATOM      7  C   UNL     1     123.123 128.541 148.464  1.00  0.00     0.102 C 
ATOM      8  O   UNL     1     123.211 128.882 149.673  1.00  0.00    -0.544 OA
ATOM      9  O   UNL     1     124.281 128.279 147.742  1.00  0.00    -0.544 OA
ENDBRANCH   2   7
ENDBRANCH   1   2
BRANCH   1  10
ATOM     10  O   UNL     1     122.185 126.086 148.483  1.00  0.00    -0.390 OA
ATOM     11  H   UNL     1     121.735 125.209 148.605  1.00  0.00     0.210 HD
ENDBRANCH   1  10
TORSDOF 4
ENDMDL
MODEL 3
REMARK VINA RESULT:    -3.105      1.293      1.363
REMARK INTER + INTRA:          -4.022
REMARK INTER:                  -3.801
REMARK INTRA:                  -0.221
REMARK UNBOUND:                -0.372
REMARK SMILES [NH3+][C@@H](CO)C(=O)[O-]
REMARK SMILES IDX 3 1 2 2 1 3 5 7 6 8 7 9 4 10
REMARK H PARENT 1 4 1 5 1 6 4 11
REMARK Flexibility Score: inf
ROOT
ATOM      1  C   UNL     1     123.095 131.538 143.898  1.00  0.00     0.227 C 
ENDROOT
BRANCH   1   2
ATOM      2  C   UNL     1     123.208 131.866 145.396  1.00  0.00     0.253 C 
BRANCH   2   3
ATOM      3  N   UNL     1     124.500 132.491 145.707  1.00  0.00    -0.348 N 
ATOM      4  H   UNL     1     124.411 133.075 146.570  1.00  0.00     0.345 HD
ATOM      5  H   UNL     1     124.825 133.096 144.918  1.00  0.00     0.345 HD
ATOM      6  H   UNL     1     125.216 131.750 145.886  1.00  0.00     0.345 HD
ENDBRANCH   2   3
BRANCH   2   7
ATOM      7  C   UNL     1     122.997 130.629 146.229  1.00  0.00     0.102 C 
ATOM      8  O   UNL     1     122.515 130.726 147.390  1.00  0.00    -0.544 OA
ATOM      9  O   UNL     1     123.290 129.373 145.713  1.00  0.00    -0.544 OA
ENDBRANCH   2   7
ENDBRANCH   1   2
BRANCH   1  10
ATOM     10  O   UNL     1     124.308 131.036 143.407  1.00  0.00    -0.390 OA
ATOM     11  H   UNL     1     124.193 130.949 142.425  1.00  0.00     0.210 HD
ENDBRANCH   1  10
TORSDOF 4
ENDMDL
MODEL 4
REMARK VINA RESULT:    -3.097      2.148      3.141
REMARK INTER + INTRA:          -4.013
REMARK INTER:                  -3.635
REMARK INTRA:                  -0.378
REMARK UNBOUND:                -0.372
REMARK SMILES [NH3+][C@@H](CO)C(=O)[O-]
REMARK SMILES IDX 3 1 2 2 1 3 5 7 6 8 7 9 4 10
REMARK H PARENT 1 4 1 5 1 6 4 11
REMARK Flexibility Score: inf
ROOT
ATOM      1  C   UNL     1     121.817 133.291 145.229  1.00  0.00     0.227 C 
ENDROOT
BRANCH   1   2
ATOM      2  C   UNL     1     122.730 132.053 145.254  1.00  0.00     0.253 C 
BRANCH   2   3
ATOM      3  N   UNL     1     124.133 132.432 145.457  1.00  0.00    -0.348 N 
ATOM      4  H   UNL     1     124.646 132.388 144.547  1.00  0.00     0.345 HD
ATOM      5  H   UNL     1     124.600 131.794 146.143  1.00  0.00     0.345 HD
ATOM      6  H   UNL     1     124.185 133.414 145.814  1.00  0.00     0.345 HD
ENDBRANCH   2   3
BRANCH   2   7
ATOM      7  C   UNL     1     122.569 131.249 143.991  1.00  0.00     0.102 C 
ATOM      8  O   UNL     1     123.414 131.357 143.063  1.00  0.00    -0.544 OA
ATOM      9  O   UNL     1     121.516 130.353 143.854  1.00  0.00    -0.544 OA
ENDBRANCH   2   7
ENDBRANCH   1   2
BRANCH   1  10
ATOM     10  O   UNL     1     121.266 133.476 143.954  1.00  0.00    -0.390 OA
ATOM     11  H   UNL     1     121.936 133.124 143.311  1.00  0.00     0.210 HD
ENDBRANCH   1  10
TORSDOF 4
ENDMDL
MODEL 5
REMARK VINA RESULT:    -3.092      2.304      3.059
REMARK INTER + INTRA:          -4.007
REMARK INTER:                  -3.623
REMARK INTRA:                  -0.384
REMARK UNBOUND:                -0.372
REMARK SMILES [NH3+][C@@H](CO)C(=O)[O-]
REMARK SMILES IDX 3 1 2 2 1 3 5 7 6 8 7 9 4 10
REMARK H PARENT 1 4 1 5 1 6 4 11
REMARK Flexibility Score: inf
ROOT
ATOM      1  C   UNL     1     123.639 131.550 146.267  1.00  0.00     0.227 C 
ENDROOT
BRANCH   1   2
ATOM      2  C   UNL     1     122.731 130.855 145.238  1.00  0.00     0.253 C 
BRANCH   2   3
ATOM      3  N   UNL     1     123.146 129.464 145.018  1.00  0.00    -0.348 N 
ATOM      4  H   UNL     1     122.547 128.822 145.587  1.00  0.00     0.345 HD
ATOM      5  H   UNL     1     124.148 129.323 145.287  1.00  0.00     0.345 HD
ATOM      6  H   UNL     1     123.026 129.216 144.009  1.00  0.00     0.345 HD
ENDBRANCH   2   3
BRANCH   2   7
ATOM      7  C   UNL     1     122.712 131.620 143.942  1.00  0.00     0.102 C 
ATOM      8  O   UNL     1     121.982 132.640 143.822  1.00  0.00    -0.544 OA
ATOM      9  O   UNL     1     123.528 131.237 142.884  1.00  0.00    -0.544 OA
ENDBRANCH   2   7
ENDBRANCH   1   2
BRANCH   1  10
ATOM     10  O   UNL     1     124.465 132.494 145.642  1.00  0.00    -0.390 OA
ATOM     11  H   UNL     1     124.708 132.107 144.760  1.00  0.00     0.210 HD
ENDBRANCH   1  10
TORSDOF 4
ENDMDL
MODEL 6
REMARK VINA RESULT:    -3.070      6.867      7.277
REMARK INTER + INTRA:          -3.981
REMARK INTER:                  -3.776
REMARK INTRA:                  -0.205
REMARK UNBOUND:                -0.372
REMARK SMILES [NH3+][C@@H](CO)C(=O)[O-]
REMARK SMILES IDX 3 1 2 2 1 3 5 7 6 8 7 9 4 10
REMARK H PARENT 1 4 1 5 1 6 4 11
REMARK Flexibility Score: inf
ROOT
ATOM      1  C   UNL     1     128.581 136.450 145.908  1.00  0.00     0.227 C 
ENDROOT
BRANCH   1   2
ATOM      2  C   UNL     1     127.921 135.801 147.137  1.00  0.00     0.253 C 
BRANCH   2   3
ATOM      3  N   UNL     1     128.389 136.425 148.381  1.00  0.00    -0.348 N 
ATOM      4  H   UNL     1     128.450 135.704 149.136  1.00  0.00     0.345 HD
ATOM      5  H   UNL     1     127.739 137.186 148.688  1.00  0.00     0.345 HD
ATOM      6  H   UNL     1     129.343 136.829 148.236  1.00  0.00     0.345 HD
ENDBRANCH   2   3
BRANCH   2   7
ATOM      7  C   UNL     1     128.173 134.316 147.154  1.00  0.00     0.102 C 
ATOM      8  O   UNL     1     127.827 133.607 146.172  1.00  0.00    -0.544 OA
ATOM      9  O   UNL     1     128.824 133.724 148.229  1.00  0.00    -0.544 OA
ENDBRANCH   2   7
ENDBRANCH   1   2
BRANCH   1  10
ATOM     10  O   UNL     1     128.021 135.951 144.724  1.00  0.00    -0.390 OA
ATOM     11  H   UNL     1     127.248 136.539 144.515  1.00  0.00     0.210 HD
ENDBRANCH   1  10
TORSDOF 4
ENDMDL
MODEL 7
REMARK VINA RESULT:    -3.010      1.620      2.680
REMARK INTER + INTRA:          -3.910
REMARK INTER:                  -3.530
REMARK INTRA:                  -0.381
REMARK UNBOUND:                -0.372
REMARK SMILES [NH3+][C@@H](CO)C(=O)[O-]
REMARK SMILES IDX 3 1 2 2 1 3 5 7 6 8 7 9 4 10
REMARK H PARENT 1 4 1 5 1 6 4 11
REMARK Flexibility Score: inf
ROOT
ATOM      1  C   UNL     1     122.945 130.387 146.148  1.00  0.00     0.227 C 
ENDROOT
BRANCH   1   2
ATOM      2  C   UNL     1     123.672 131.499 145.374  1.00  0.00     0.253 C 
BRANCH   2   3
ATOM      3  N   UNL     1     123.767 132.727 146.172  1.00  0.00    -0.348 N 
ATOM      4  H   UNL     1     124.703 132.775 146.637  1.00  0.00     0.345 HD
ATOM      5  H   UNL     1     123.020 132.759 146.905  1.00  0.00     0.345 HD
ATOM      6  H   UNL     1     123.668 133.561 145.549  1.00  0.00     0.345 HD
ENDBRANCH   2   3
BRANCH   2   7
ATOM      7  C   UNL     1     122.987 131.766 144.059  1.00  0.00     0.102 C 
ATOM      8  O   UNL     1     123.451 131.274 142.995  1.00  0.00    -0.544 OA
ATOM      9  O   UNL     1     121.821 132.519 144.011  1.00  0.00    -0.544 OA
ENDBRANCH   2   7
ENDBRANCH   1   2
BRANCH   1  10
ATOM     10  O   UNL     1     122.113 129.650 145.295  1.00  0.00    -0.390 OA
ATOM     11  H   UNL     1     122.177 130.085 144.404  1.00  0.00     0.210 HD
ENDBRANCH   1  10
TORSDOF 4
ENDMDL
MODEL 8
REMARK VINA RESULT:    -2.953      2.091      2.135
REMARK INTER + INTRA:          -3.843
REMARK INTER:                  -3.608
REMARK INTRA:                  -0.236
REMARK UNBOUND:                -0.372
REMARK SMILES [NH3+][C@@H](CO)C(=O)[O-]
REMARK SMILES IDX 3 1 2 2 1 3 5 7 6 8 7 9 4 10
REMARK H PARENT 1 4 1 5 1 6 4 11
REMARK Flexibility Score: inf
ROOT
ATOM      1  C   UNL     1     123.239 130.281 143.647  1.00  0.00     0.227 C 
ENDROOT
BRANCH   1   2
ATOM      2  C   UNL     1     123.107 130.151 145.174  1.00  0.00     0.253 C 
BRANCH   2   3
ATOM      3  N   UNL     1     121.829 129.532 145.546  1.00  0.00    -0.348 N 
ATOM      4  H   UNL     1     121.794 129.390 146.581  1.00  0.00     0.345 HD
ATOM      5  H   UNL     1     121.705 128.609 145.070  1.00  0.00     0.345 HD
ATOM      6  H   UNL     1     121.040 130.164 145.276  1.00  0.00     0.345 HD
ENDBRANCH   2   3
BRANCH   2   7
ATOM      7  C   UNL     1     123.267 131.494 145.838  1.00  0.00     0.102 C 
ATOM      8  O   UNL     1     122.861 132.536 145.257  1.00  0.00    -0.544 OA
ATOM      9  O   UNL     1     123.821 131.591 147.108  1.00  0.00    -0.544 OA
ENDBRANCH   2   7
ENDBRANCH   1   2
BRANCH   1  10
ATOM     10  O   UNL     1     124.356 131.056 143.309  1.00  0.00    -0.390 OA
ATOM     11  H   UNL     1     125.110 130.704 143.851  1.00  0.00     0.210 HD
ENDBRANCH   1  10
TORSDOF 4
ENDMDL
MODEL 9
REMARK VINA RESULT:    -2.948      1.541      1.902
REMARK INTER + INTRA:          -3.837
REMARK INTER:                  -3.440
REMARK INTRA:                  -0.397
REMARK UNBOUND:                -0.372
REMARK SMILES [NH3+][C@@H](CO)C(=O)[O-]
REMARK SMILES IDX 3 1 2 2 1 3 5 7 6 8 7 9 4 10
REMARK H PARENT 1 4 1 5 1 6 4 11
REMARK Flexibility Score: inf
ROOT
ATOM      1  C   UNL     1     123.152 130.381 145.053  1.00  0.00     0.227 C 
ENDROOT
BRANCH   1   2
ATOM      2  C   UNL     1     123.247 131.645 145.924  1.00  0.00     0.253 C 
BRANCH   2   3
ATOM      3  N   UNL     1     124.441 132.431 145.590  1.00  0.00    -0.348 N 
ATOM      4  H   UNL     1     124.185 133.194 144.921  1.00  0.00     0.345 HD
ATOM      5  H   UNL     1     125.179 131.830 145.155  1.00  0.00     0.345 HD
ATOM      6  H   UNL     1     124.827 132.872 146.456  1.00  0.00     0.345 HD
ENDBRANCH   2   3
BRANCH   2   7
ATOM      7  C   UNL     1     123.235 131.285 147.387  1.00  0.00     0.102 C 
ATOM      8  O   UNL     1     122.157 131.324 148.037  1.00  0.00    -0.544 OA
ATOM      9  O   UNL     1     124.399 130.867 148.020  1.00  0.00    -0.544 OA
ENDBRANCH   2   7
ENDBRANCH   1   2
BRANCH   1  10
ATOM     10  O   UNL     1     122.841 129.261 145.836  1.00  0.00    -0.390 OA
ATOM     11  H   UNL     1     123.328 129.380 146.693  1.00  0.00     0.210 HD
ENDBRANCH   1  10
TORSDOF 4
ENDMDL
