MODEL 1
REMARK VINA RESULT:    -2.887      0.000      0.000
REMARK INTER + INTRA:          -3.476
REMARK INTER:                  -3.393
REMARK INTRA:                  -0.084
REMARK UNBOUND:                -0.084
REMARK SMILES O=C([O-])CCC(=O)[O-]
REMARK SMILES IDX 4 1 2 2 1 3 3 4 5 5 6 6 7 7 8 8
REMARK H PARENT
REMARK Flexibility Score: inf
ROOT
ATOM      1  C   UNL     1    -114.419  11.692  25.217  1.00  0.00     0.059 C 
ENDROOT
BRANCH   1   2
ATOM      2  C   UNL     1    -115.309  12.097  24.082  1.00  0.00     0.042 C 
ATOM      3  O   UNL     1    -115.883  13.217  24.095  1.00  0.00    -0.550 OA
ATOM      4  O   UNL     1    -115.472  11.253  22.989  1.00  0.00    -0.550 OA
ENDBRANCH   1   2
BRANCH   1   5
ATOM      5  C   UNL     1    -112.953  12.037  24.936  1.00  0.00     0.059 C 
BRANCH   5   6
ATOM      6  C   UNL     1    -112.161  10.822  24.559  1.00  0.00     0.042 C 
ATOM      7  O   UNL     1    -111.516  10.797  23.478  1.00  0.00    -0.550 OA
ATOM      8  O   UNL     1    -112.101   9.735  25.422  1.00  0.00    -0.550 OA
ENDBRANCH   5   6
ENDBRANCH   1   5
TORSDOF 3
ENDMDL
MODEL 2
REMARK VINA RESULT:    -2.869      0.125      3.857
REMARK INTER + INTRA:          -3.455
REMARK INTER:                  -3.373
REMARK INTRA:                  -0.083
REMARK UNBOUND:                -0.084
REMARK SMILES O=C([O-])CCC(=O)[O-]
REMARK SMILES IDX 4 1 2 2 1 3 3 4 5 5 6 6 7 7 8 8
REMARK H PARENT
REMARK Flexibility Score: inf
ROOT
ATOM      1  C   UNL     1    -112.845  12.047  24.809  1.00  0.00     0.059 C 
ENDROOT
BRANCH   1   2
ATOM      2  C   UNL     1    -112.093  10.795  24.475  1.00  0.00     0.042 C 
ATOM      3  O   UNL     1    -111.431  10.720  23.407  1.00  0.00    -0.550 OA
ATOM      4  O   UNL     1    -112.090   9.726  25.363  1.00  0.00    -0.550 OA
ENDBRANCH   1   2
BRANCH   1   5
ATOM      5  C   UNL     1    -114.295  11.747  25.205  1.00  0.00     0.059 C 
BRANCH   5   6
ATOM      6  C   UNL     1    -115.251  12.083  24.101  1.00  0.00     0.042 C 
ATOM      7  O   UNL     1    -115.442  11.269  23.160  1.00  0.00    -0.550 OA
ATOM      8  O   UNL     1    -115.962  13.276  24.135  1.00  0.00    -0.550 OA
ENDBRANCH   5   6
ENDBRANCH   1   5
TORSDOF 3
ENDMDL
MODEL 3
REMARK VINA RESULT:    -2.773      1.431      1.644
REMARK INTER + INTRA:          -3.343
REMARK INTER:                  -3.307
REMARK INTRA:                  -0.035
REMARK UNBOUND:                -0.084
REMARK SMILES O=C([O-])CCC(=O)[O-]
REMARK SMILES IDX 4 1 2 2 1 3 3 4 5 5 6 6 7 7 8 8
REMARK H PARENT
REMARK Flexibility Score: inf
ROOT
ATOM      1  C   UNL     1    -115.122  12.583  24.411  1.00  0.00     0.059 C 
ENDROOT
BRANCH   1   2
ATOM      2  C   UNL     1    -116.402  12.133  23.774  1.00  0.00     0.042 C 
ATOM      3  O   UNL     1    -117.240  11.470  24.438  1.00  0.00    -0.550 OA
ATOM      4  O   UNL     1    -116.687  12.483  22.460  1.00  0.00    -0.550 OA
ENDBRANCH   1   2
BRANCH   1   5
ATOM      5  C   UNL     1    -114.465  11.456  25.215  1.00  0.00     0.059 C 
BRANCH   5   6
ATOM      6  C   UNL     1    -112.972  11.482  25.085  1.00  0.00     0.042 C 
ATOM      7  O   UNL     1    -112.378  12.561  24.824  1.00  0.00    -0.550 OA
ATOM      8  O   UNL     1    -112.235  10.324  25.294  1.00  0.00    -0.550 OA
ENDBRANCH   5   6
ENDBRANCH   1   5
TORSDOF 3
ENDMDL
MODEL 4
REMARK VINA RESULT:    -2.771     10.543     11.521
REMARK INTER + INTRA:          -3.340
REMARK INTER:                  -3.256
REMARK INTRA:                  -0.084
REMARK UNBOUND:                -0.084
REMARK SMILES O=C([O-])CCC(=O)[O-]
REMARK SMILES IDX 4 1 2 2 1 3 3 4 5 5 6 6 7 7 8 8
REMARK H PARENT
REMARK Flexibility Score: inf
ROOT
ATOM      1  C   UNL     1    -103.663  11.371  25.579  1.00  0.00     0.059 C 
ENDROOT
BRANCH   1   2
ATOM      2  C   UNL     1    -102.780  10.423  26.332  1.00  0.00     0.042 C 
ATOM      3  O   UNL     1    -103.198   9.277  26.640  1.00  0.00    -0.550 OA
ATOM      4  O   UNL     1    -101.480  10.792  26.656  1.00  0.00    -0.550 OA
ENDBRANCH   1   2
BRANCH   1   5
ATOM      5  C   UNL     1    -102.851  12.308  24.680  1.00  0.00     0.059 C 
BRANCH   5   6
ATOM      6  C   UNL     1    -102.450  11.638  23.400  1.00  0.00     0.042 C 
ATOM      7  O   UNL     1    -101.456  12.055  22.752  1.00  0.00    -0.550 OA
ATOM      8  O   UNL     1    -103.151  10.527  22.948  1.00  0.00    -0.550 OA
ENDBRANCH   5   6
ENDBRANCH   1   5
TORSDOF 3
ENDMDL
MODEL 5
REMARK VINA RESULT:    -2.722     10.527     11.386
REMARK INTER + INTRA:          -3.283
REMARK INTER:                  -3.201
REMARK INTRA:                  -0.082
REMARK UNBOUND:                -0.084
REMARK SMILES O=C([O-])CCC(=O)[O-]
REMARK SMILES IDX 4 1 2 2 1 3 3 4 5 5 6 6 7 7 8 8
REMARK H PARENT
REMARK Flexibility Score: inf
ROOT
ATOM      1  C   UNL     1    -102.797  12.248  24.642  1.00  0.00     0.059 C 
ENDROOT
BRANCH   1   2
ATOM      2  C   UNL     1    -102.507  11.505  23.374  1.00  0.00     0.042 C 
ATOM      3  O   UNL     1    -101.557  11.866  22.631  1.00  0.00    -0.550 OA
ATOM      4  O   UNL     1    -103.260  10.387  23.034  1.00  0.00    -0.550 OA
ENDBRANCH   1   2
BRANCH   1   5
ATOM      5  C   UNL     1    -103.619  11.401  25.619  1.00  0.00     0.059 C 
BRANCH   5   6
ATOM      6  C   UNL     1    -102.759  10.433  26.372  1.00  0.00     0.042 C 
ATOM      7  O   UNL     1    -103.206   9.298  26.683  1.00  0.00    -0.550 OA
ATOM      8  O   UNL     1    -101.450  10.768  26.692  1.00  0.00    -0.550 OA
ENDBRANCH   5   6
ENDBRANCH   1   5
TORSDOF 3
ENDMDL
MODEL 6
REMARK VINA RESULT:    -2.720     17.933     18.406
REMARK INTER + INTRA:          -3.280
REMARK INTER:                  -3.165
REMARK INTRA:                  -0.115
REMARK UNBOUND:                -0.084
REMARK SMILES O=C([O-])CCC(=O)[O-]
REMARK SMILES IDX 4 1 2 2 1 3 3 4 5 5 6 6 7 7 8 8
REMARK H PARENT
REMARK Flexibility Score: inf
ROOT
ATOM      1  C   UNL     1    -101.308  22.869  31.186  1.00  0.00     0.059 C 
ENDROOT
BRANCH   1   2
ATOM      2  C   UNL     1    -102.279  23.770  31.887  1.00  0.00     0.042 C 
ATOM      3  O   UNL     1    -103.485  23.802  31.528  1.00  0.00    -0.550 OA
ATOM      4  O   UNL     1    -101.861  24.543  32.963  1.00  0.00    -0.550 OA
ENDBRANCH   1   2
BRANCH   1   5
ATOM      5  C   UNL     1    -100.225  22.355  32.140  1.00  0.00     0.059 C 
BRANCH   5   6
ATOM      6  C   UNL     1    -100.602  21.039  32.749  1.00  0.00     0.042 C 
ATOM      7  O   UNL     1    -100.141  19.968  32.276  1.00  0.00    -0.550 OA
ATOM      8  O   UNL     1    -101.427  21.000  33.865  1.00  0.00    -0.550 OA
ENDBRANCH   5   6
ENDBRANCH   1   5
TORSDOF 3
ENDMDL
MODEL 7
REMARK VINA RESULT:    -2.715     10.011     11.379
REMARK INTER + INTRA:          -3.275
REMARK INTER:                  -3.241
REMARK INTRA:                  -0.034
REMARK UNBOUND:                -0.084
REMARK SMILES O=C([O-])CCC(=O)[O-]
REMARK SMILES IDX 4 1 2 2 1 3 3 4 5 5 6 6 7 7 8 8
REMARK H PARENT
REMARK Flexibility Score: inf
ROOT
ATOM      1  C   UNL     1    -102.853  11.886  24.559  1.00  0.00     0.059 C 
ENDROOT
BRANCH   1   2
ATOM      2  C   UNL     1    -103.405  11.302  25.824  1.00  0.00     0.042 C 
ATOM      3  O   UNL     1    -102.628  10.841  26.700  1.00  0.00    -0.550 OA
ATOM      4  O   UNL     1    -104.775  11.306  26.054  1.00  0.00    -0.550 OA
ENDBRANCH   1   2
BRANCH   1   5
ATOM      5  C   UNL     1    -102.912  10.884  23.402  1.00  0.00     0.059 C 
BRANCH   5   6
ATOM      6  C   UNL     1    -102.002  11.281  22.279  1.00  0.00     0.042 C 
ATOM      7  O   UNL     1    -100.868  11.768  22.526  1.00  0.00    -0.550 OA
ATOM      8  O   UNL     1    -102.390  11.074  20.962  1.00  0.00    -0.550 OA
ENDBRANCH   5   6
ENDBRANCH   1   5
TORSDOF 3
ENDMDL
MODEL 8
REMARK VINA RESULT:    -2.715     17.946     18.695
REMARK INTER + INTRA:          -3.275
REMARK INTER:                  -3.153
REMARK INTRA:                  -0.121
REMARK UNBOUND:                -0.084
REMARK SMILES O=C([O-])CCC(=O)[O-]
REMARK SMILES IDX 4 1 2 2 1 3 3 4 5 5 6 6 7 7 8 8
REMARK H PARENT
REMARK Flexibility Score: inf
ROOT
ATOM      1  C   UNL     1    -100.195  22.385  32.142  1.00  0.00     0.059 C 
ENDROOT
BRANCH   1   2
ATOM      2  C   UNL     1    -100.567  21.044  32.698  1.00  0.00     0.042 C 
ATOM      3  O   UNL     1    -100.141  19.993  32.151  1.00  0.00    -0.550 OA
ATOM      4  O   UNL     1    -101.348  20.957  33.843  1.00  0.00    -0.550 OA
ENDBRANCH   1   2
BRANCH   1   5
ATOM      5  C   UNL     1    -101.270  22.922  31.193  1.00  0.00     0.059 C 
BRANCH   5   6
ATOM      6  C   UNL     1    -102.284  23.753  31.918  1.00  0.00     0.042 C 
ATOM      7  O   UNL     1    -103.474  23.801  31.508  1.00  0.00    -0.550 OA
ATOM      8  O   UNL     1    -101.925  24.440  33.071  1.00  0.00    -0.550 OA
ENDBRANCH   5   6
ENDBRANCH   1   5
TORSDOF 3
ENDMDL
MODEL 9
REMARK VINA RESULT:    -2.657     11.082     11.798
REMARK INTER + INTRA:          -3.207
REMARK INTER:                  -3.169
REMARK INTRA:                  -0.038
REMARK UNBOUND:                -0.084
REMARK SMILES O=C([O-])CCC(=O)[O-]
REMARK SMILES IDX 4 1 2 2 1 3 3 4 5 5 6 6 7 7 8 8
REMARK H PARENT
REMARK Flexibility Score: inf
ROOT
ATOM      1  C   UNL     1    -103.499  10.868  20.063  1.00  0.00     0.059 C 
ENDROOT
BRANCH   1   2
ATOM      2  C   UNL     1    -103.364  11.537  18.730  1.00  0.00     0.042 C 
ATOM      3  O   UNL     1    -102.256  11.544  18.134  1.00  0.00    -0.550 OA
ATOM      4  O   UNL     1    -104.474  12.117  18.127  1.00  0.00    -0.550 OA
ENDBRANCH   1   2
BRANCH   1   5
ATOM      5  C   UNL     1    -102.150  10.765  20.783  1.00  0.00     0.059 C 
BRANCH   5   6
ATOM      6  C   UNL     1    -102.265  11.137  22.230  1.00  0.00     0.042 C 
ATOM      7  O   UNL     1    -101.595  12.098  22.691  1.00  0.00    -0.550 OA
ATOM      8  O   UNL     1    -103.143  10.450  23.058  1.00  0.00    -0.550 OA
ENDBRANCH   5   6
ENDBRANCH   1   5
TORSDOF 3
ENDMDL
