MODEL 1
REMARK VINA RESULT:    -3.284      0.000      0.000
REMARK INTER + INTRA:          -4.558
REMARK INTER:                  -4.244
REMARK INTRA:                  -0.314
REMARK UNBOUND:                -0.314
REMARK SMILES CCCCCCC(=O)[O-]
REMARK SMILES IDX 5 1 6 2 7 3 8 4 9 5 4 6 3 7 2 8 1 9
REMARK H PARENT
REMARK Flexibility Score: inf
ROOT
ATOM      1  C   UNL     1      28.794  12.257 -16.026  1.00  0.00     0.006 C 
ENDROOT
BRANCH   1   2
ATOM      2  C   UNL     1      28.529  12.941 -14.681  1.00  0.00     0.053 C 
BRANCH   2   3
ATOM      3  C   UNL     1      29.524  14.031 -14.442  1.00  0.00     0.041 C 
ATOM      4  O   UNL     1      29.134  15.187 -14.128  1.00  0.00    -0.550 OA
ATOM      5  O   UNL     1      30.880  13.786 -14.615  1.00  0.00    -0.550 OA
ENDBRANCH   2   3
ENDBRANCH   1   2
BRANCH   1   6
ATOM      6  C   UNL     1      28.588  13.234 -17.190  1.00  0.00     0.000 C 
BRANCH   6   7
ATOM      7  C   UNL     1      29.833  13.289 -18.088  1.00  0.00    -0.000 C 
BRANCH   7   8
ATOM      8  C   UNL     1      30.840  12.171 -17.770  1.00  0.00    -0.003 C 
ATOM      9  C   UNL     1      30.751  11.001 -18.750  1.00  0.00     0.004 C 
ENDBRANCH   7   8
ENDBRANCH   6   7
ENDBRANCH   1   6
TORSDOF 5
ENDMDL
MODEL 2
REMARK VINA RESULT:    -3.208      2.097      2.644
REMARK INTER + INTRA:          -4.460
REMARK INTER:                  -4.102
REMARK INTRA:                  -0.358
REMARK UNBOUND:                -0.314
REMARK SMILES CCCCCCC(=O)[O-]
REMARK SMILES IDX 5 1 6 2 7 3 8 4 9 5 4 6 3 7 2 8 1 9
REMARK H PARENT
REMARK Flexibility Score: inf
ROOT
ATOM      1  C   UNL     1      28.454  12.612 -16.300  1.00  0.00     0.006 C 
ENDROOT
BRANCH   1   2
ATOM      2  C   UNL     1      29.444  13.760 -16.076  1.00  0.00     0.053 C 
BRANCH   2   3
ATOM      3  C   UNL     1      29.514  14.636 -17.285  1.00  0.00     0.041 C 
ATOM      4  O   UNL     1      29.281  14.159 -18.427  1.00  0.00    -0.550 OA
ATOM      5  O   UNL     1      29.885  15.969 -17.158  1.00  0.00    -0.550 OA
ENDBRANCH   2   3
ENDBRANCH   1   2
BRANCH   1   6
ATOM      6  C   UNL     1      29.007  11.292 -15.751  1.00  0.00     0.000 C 
BRANCH   6   7
ATOM      7  C   UNL     1      30.411  11.011 -16.307  1.00  0.00    -0.000 C 
BRANCH   7   8
ATOM      8  C   UNL     1      30.379  10.178 -17.598  1.00  0.00    -0.003 C 
ATOM      9  C   UNL     1      30.767  10.988 -18.835  1.00  0.00     0.004 C 
ENDBRANCH   7   8
ENDBRANCH   6   7
ENDBRANCH   1   6
TORSDOF 5
ENDMDL
MODEL 3
REMARK VINA RESULT:    -3.182      1.121      1.826
REMARK INTER + INTRA:          -4.426
REMARK INTER:                  -4.104
REMARK INTRA:                  -0.322
REMARK UNBOUND:                -0.314
REMARK SMILES CCCCCCC(=O)[O-]
REMARK SMILES IDX 5 1 6 2 7 3 8 4 9 5 4 6 3 7 2 8 1 9
REMARK H PARENT
REMARK Flexibility Score: inf
ROOT
ATOM      1  C   UNL     1      28.659  12.721 -14.660  1.00  0.00     0.006 C 
ENDROOT
BRANCH   1   2
ATOM      2  C   UNL     1      29.780  13.694 -14.281  1.00  0.00     0.053 C 
BRANCH   2   3
ATOM      3  C   UNL     1      29.272  15.100 -14.265  1.00  0.00     0.041 C 
ATOM      4  O   UNL     1      29.657  15.923 -15.136  1.00  0.00    -0.550 OA
ATOM      5  O   UNL     1      28.411  15.516 -13.257  1.00  0.00    -0.550 OA
ENDBRANCH   2   3
ENDBRANCH   1   2
BRANCH   1   6
ATOM      6  C   UNL     1      28.883  12.141 -16.061  1.00  0.00     0.000 C 
BRANCH   6   7
ATOM      7  C   UNL     1      28.485  13.154 -17.145  1.00  0.00    -0.000 C 
BRANCH   7   8
ATOM      8  C   UNL     1      29.661  13.536 -18.057  1.00  0.00    -0.003 C 
ATOM      9  C   UNL     1      30.822  12.545 -17.971  1.00  0.00     0.004 C 
ENDBRANCH   7   8
ENDBRANCH   6   7
ENDBRANCH   1   6
TORSDOF 5
ENDMDL
MODEL 4
REMARK VINA RESULT:    -3.149      5.550      6.304
REMARK INTER + INTRA:          -4.384
REMARK INTER:                  -4.257
REMARK INTRA:                  -0.126
REMARK UNBOUND:                -0.314
REMARK SMILES CCCCCCC(=O)[O-]
REMARK SMILES IDX 5 1 6 2 7 3 8 4 9 5 4 6 3 7 2 8 1 9
REMARK H PARENT
REMARK Flexibility Score: inf
ROOT
ATOM      1  C   UNL     1      28.158  12.523 -11.313  1.00  0.00     0.006 C 
ENDROOT
BRANCH   1   2
ATOM      2  C   UNL     1      26.674  12.592 -10.939  1.00  0.00     0.053 C 
BRANCH   2   3
ATOM      3  C   UNL     1      26.210  14.013 -10.896  1.00  0.00     0.041 C 
ATOM      4  O   UNL     1      25.094  14.299 -10.388  1.00  0.00    -0.550 OA
ATOM      5  O   UNL     1      26.987  15.016 -11.461  1.00  0.00    -0.550 OA
ENDBRANCH   2   3
ENDBRANCH   1   2
BRANCH   1   6
ATOM      6  C   UNL     1      28.651  11.072 -11.347  1.00  0.00     0.000 C 
BRANCH   6   7
ATOM      7  C   UNL     1      29.238  10.659  -9.989  1.00  0.00    -0.000 C 
BRANCH   7   8
ATOM      8  C   UNL     1      30.302   9.556 -10.116  1.00  0.00    -0.003 C 
ATOM      9  C   UNL     1      30.196   8.782 -11.430  1.00  0.00     0.004 C 
ENDBRANCH   7   8
ENDBRANCH   6   7
ENDBRANCH   1   6
TORSDOF 5
ENDMDL
MODEL 5
REMARK VINA RESULT:    -3.144      2.599      3.303
REMARK INTER + INTRA:          -4.377
REMARK INTER:                  -4.167
REMARK INTRA:                  -0.210
REMARK UNBOUND:                -0.314
REMARK SMILES CCCCCCC(=O)[O-]
REMARK SMILES IDX 5 1 6 2 7 3 8 4 9 5 4 6 3 7 2 8 1 9
REMARK H PARENT
REMARK Flexibility Score: inf
ROOT
ATOM      1  C   UNL     1      29.320  15.586 -14.289  1.00  0.00     0.006 C 
ENDROOT
BRANCH   1   2
ATOM      2  C   UNL     1      28.501  14.705 -13.340  1.00  0.00     0.053 C 
BRANCH   2   3
ATOM      3  C   UNL     1      27.646  15.549 -12.448  1.00  0.00     0.041 C 
ATOM      4  O   UNL     1      27.131  15.054 -11.411  1.00  0.00    -0.550 OA
ATOM      5  O   UNL     1      27.377  16.869 -12.788  1.00  0.00    -0.550 OA
ENDBRANCH   2   3
ENDBRANCH   1   2
BRANCH   1   6
ATOM      6  C   UNL     1      30.027  14.739 -15.353  1.00  0.00     0.000 C 
BRANCH   6   7
ATOM      7  C   UNL     1      29.865  15.361 -16.748  1.00  0.00    -0.000 C 
BRANCH   7   8
ATOM      8  C   UNL     1      29.325  14.360 -17.782  1.00  0.00    -0.003 C 
ATOM      9  C   UNL     1      28.641  13.155 -17.137  1.00  0.00     0.004 C 
ENDBRANCH   7   8
ENDBRANCH   6   7
ENDBRANCH   1   6
TORSDOF 5
ENDMDL
MODEL 6
REMARK VINA RESULT:    -3.135      2.643      4.474
REMARK INTER + INTRA:          -4.365
REMARK INTER:                  -4.073
REMARK INTRA:                  -0.291
REMARK UNBOUND:                -0.314
REMARK SMILES CCCCCCC(=O)[O-]
REMARK SMILES IDX 5 1 6 2 7 3 8 4 9 5 4 6 3 7 2 8 1 9
REMARK H PARENT
REMARK Flexibility Score: inf
ROOT
ATOM      1  C   UNL     1      30.817  12.301 -18.040  1.00  0.00     0.006 C 
ENDROOT
BRANCH   1   2
ATOM      2  C   UNL     1      30.765  10.976 -18.806  1.00  0.00     0.053 C 
BRANCH   2   3
ATOM      3  C   UNL     1      30.591   9.830 -17.861  1.00  0.00     0.041 C 
ATOM      4  O   UNL     1      30.925   9.949 -16.653  1.00  0.00    -0.550 OA
ATOM      5  O   UNL     1      30.105   8.614 -18.325  1.00  0.00    -0.550 OA
ENDBRANCH   2   3
ENDBRANCH   1   2
BRANCH   1   6
ATOM      6  C   UNL     1      29.584  13.161 -18.342  1.00  0.00     0.000 C 
BRANCH   6   7
ATOM      7  C   UNL     1      28.918  13.642 -17.044  1.00  0.00    -0.000 C 
BRANCH   7   8
ATOM      8  C   UNL     1      28.496  12.481 -16.131  1.00  0.00    -0.003 C 
ATOM      9  C   UNL     1      28.597  12.830 -14.646  1.00  0.00     0.004 C 
ENDBRANCH   7   8
ENDBRANCH   6   7
ENDBRANCH   1   6
TORSDOF 5
ENDMDL
MODEL 7
REMARK VINA RESULT:    -3.056     18.552     19.380
REMARK INTER + INTRA:          -4.264
REMARK INTER:                  -3.893
REMARK INTRA:                  -0.371
REMARK UNBOUND:                -0.314
REMARK SMILES CCCCCCC(=O)[O-]
REMARK SMILES IDX 5 1 6 2 7 3 8 4 9 5 4 6 3 7 2 8 1 9
REMARK H PARENT
REMARK Flexibility Score: inf
ROOT
ATOM      1  C   UNL     1      16.852   0.550 -13.747  1.00  0.00     0.006 C 
ENDROOT
BRANCH   1   2
ATOM      2  C   UNL     1      15.660  -0.402 -13.608  1.00  0.00     0.053 C 
BRANCH   2   3
ATOM      3  C   UNL     1      14.901  -0.112 -12.353  1.00  0.00     0.041 C 
ATOM      4  O   UNL     1      15.515   0.204 -11.301  1.00  0.00    -0.550 OA
ATOM      5  O   UNL     1      13.517  -0.240 -12.332  1.00  0.00    -0.550 OA
ENDBRANCH   2   3
ENDBRANCH   1   2
BRANCH   1   6
ATOM      6  C   UNL     1      18.128  -0.215 -14.119  1.00  0.00     0.000 C 
BRANCH   6   7
ATOM      7  C   UNL     1      18.203  -1.554 -13.369  1.00  0.00    -0.000 C 
BRANCH   7   8
ATOM      8  C   UNL     1      19.136  -1.495 -12.149  1.00  0.00    -0.003 C 
ATOM      9  C   UNL     1      18.405  -1.758 -10.833  1.00  0.00     0.004 C 
ENDBRANCH   7   8
ENDBRANCH   6   7
ENDBRANCH   1   6
TORSDOF 5
ENDMDL
MODEL 8
REMARK VINA RESULT:    -3.045     19.534     20.371
REMARK INTER + INTRA:          -4.249
REMARK INTER:                  -3.903
REMARK INTRA:                  -0.346
REMARK UNBOUND:                -0.314
REMARK SMILES CCCCCCC(=O)[O-]
REMARK SMILES IDX 5 1 6 2 7 3 8 4 9 5 4 6 3 7 2 8 1 9
REMARK H PARENT
REMARK Flexibility Score: inf
ROOT
ATOM      1  C   UNL     1      14.229  -0.248 -12.371  1.00  0.00     0.006 C 
ENDROOT
BRANCH   1   2
ATOM      2  C   UNL     1      14.121  -1.303 -13.477  1.00  0.00     0.053 C 
BRANCH   2   3
ATOM      3  C   UNL     1      13.839  -0.655 -14.794  1.00  0.00     0.041 C 
ATOM      4  O   UNL     1      14.787  -0.248 -15.516  1.00  0.00    -0.550 OA
ATOM      5  O   UNL     1      12.526  -0.453 -15.204  1.00  0.00    -0.550 OA
ENDBRANCH   2   3
ENDBRANCH   1   2
BRANCH   1   6
ATOM      6  C   UNL     1      15.690   0.150 -12.131  1.00  0.00     0.000 C 
BRANCH   6   7
ATOM      7  C   UNL     1      16.510  -1.045 -11.624  1.00  0.00    -0.000 C 
BRANCH   7   8
ATOM      8  C   UNL     1      17.706  -1.369 -12.533  1.00  0.00    -0.003 C 
ATOM      9  C   UNL     1      17.838  -0.398 -13.705  1.00  0.00     0.004 C 
ENDBRANCH   7   8
ENDBRANCH   6   7
ENDBRANCH   1   6
TORSDOF 5
ENDMDL
MODEL 9
REMARK VINA RESULT:    -3.040      1.586      2.152
REMARK INTER + INTRA:          -4.242
REMARK INTER:                  -4.108
REMARK INTRA:                  -0.134
REMARK UNBOUND:                -0.314
REMARK SMILES CCCCCCC(=O)[O-]
REMARK SMILES IDX 5 1 6 2 7 3 8 4 9 5 4 6 3 7 2 8 1 9
REMARK H PARENT
REMARK Flexibility Score: inf
ROOT
ATOM      1  C   UNL     1      29.231  14.046 -16.949  1.00  0.00     0.006 C 
ENDROOT
BRANCH   1   2
ATOM      2  C   UNL     1      30.302  15.134 -16.817  1.00  0.00     0.053 C 
BRANCH   2   3
ATOM      3  C   UNL     1      30.138  15.876 -15.529  1.00  0.00     0.041 C 
ATOM      4  O   UNL     1      29.420  15.401 -14.611  1.00  0.00    -0.550 OA
ATOM      5  O   UNL     1      30.739  17.118 -15.361  1.00  0.00    -0.550 OA
ENDBRANCH   2   3
ENDBRANCH   1   2
BRANCH   1   6
ATOM      6  C   UNL     1      29.468  13.188 -18.197  1.00  0.00     0.000 C 
BRANCH   6   7
ATOM      7  C   UNL     1      30.800  12.429 -18.096  1.00  0.00    -0.000 C 
BRANCH   7   8
ATOM      8  C   UNL     1      30.748  11.053 -18.779  1.00  0.00    -0.003 C 
ATOM      9  C   UNL     1      30.454   9.917 -17.798  1.00  0.00     0.004 C 
ENDBRANCH   7   8
ENDBRANCH   6   7
ENDBRANCH   1   6
TORSDOF 5
ENDMDL
