MODEL 1
REMARK VINA RESULT:    -4.347      0.000      0.000
REMARK INTER + INTRA:          -4.772
REMARK INTER:                  -4.728
REMARK INTRA:                  -0.043
REMARK UNBOUND:                -0.043
REMARK SMILES COc1ccccc1O
REMARK SMILES IDX 3 1 4 2 5 3 6 4 7 5 8 6 2 7 1 8 9 9
REMARK H PARENT 9 10
REMARK Flexibility Score: inf
ROOT
ATOM      1  C   UNL     1     -12.633  44.595  22.120  1.00  0.00     0.160 A 
ATOM      2  C   UNL     1     -13.617  43.652  21.762  1.00  0.00     0.050 A 
ATOM      3  C   UNL     1     -14.751  43.477  22.560  1.00  0.00     0.004 A 
ATOM      4  C   UNL     1     -14.914  44.237  23.721  1.00  0.00     0.004 A 
ATOM      5  C   UNL     1     -13.945  45.174  24.084  1.00  0.00     0.050 A 
ATOM      6  C   UNL     1     -12.805  45.356  23.288  1.00  0.00     0.157 A 
ENDROOT
BRANCH   1   7
ATOM      7  O   UNL     1     -11.480  44.805  21.348  1.00  0.00    -0.493 OA
ATOM      8  C   UNL     1     -10.460  43.833  21.146  1.00  0.00     0.278 C 
ENDBRANCH   1   7
BRANCH   6   9
ATOM      9  O   UNL     1     -11.837  46.290  23.651  1.00  0.00    -0.504 OA
ATOM     10  H   UNL     1     -12.024  47.286  23.625  1.00  0.00     0.293 HD
ENDBRANCH   6   9
TORSDOF 2
ENDMDL
MODEL 2
REMARK VINA RESULT:    -4.333      1.119      2.902
REMARK INTER + INTRA:          -4.757
REMARK INTER:                  -4.715
REMARK INTRA:                  -0.042
REMARK UNBOUND:                -0.043
REMARK SMILES COc1ccccc1O
REMARK SMILES IDX 3 1 4 2 5 3 6 4 7 5 8 6 2 7 1 8 9 9
REMARK H PARENT 9 10
REMARK Flexibility Score: inf
ROOT
ATOM      1  C   UNL     1     -12.956  45.160  23.142  1.00  0.00     0.160 A 
ATOM      2  C   UNL     1     -14.116  44.360  23.169  1.00  0.00     0.050 A 
ATOM      3  C   UNL     1     -14.400  43.493  22.110  1.00  0.00     0.004 A 
ATOM      4  C   UNL     1     -13.534  43.415  21.017  1.00  0.00     0.004 A 
ATOM      5  C   UNL     1     -12.382  44.203  20.981  1.00  0.00     0.050 A 
ATOM      6  C   UNL     1     -12.090  45.075  22.040  1.00  0.00     0.157 A 
ENDROOT
BRANCH   1   7
ATOM      7  O   UNL     1     -12.631  46.044  24.183  1.00  0.00    -0.493 OA
ATOM      8  C   UNL     1     -13.432  47.153  24.576  1.00  0.00     0.278 C 
ENDBRANCH   1   7
BRANCH   6   9
ATOM      9  O   UNL     1     -10.941  45.863  22.004  1.00  0.00    -0.504 OA
ATOM     10  H   UNL     1     -10.036  45.472  21.771  1.00  0.00     0.293 HD
ENDBRANCH   6   9
TORSDOF 2
ENDMDL
MODEL 3
REMARK VINA RESULT:    -4.267     22.750     24.204
REMARK INTER + INTRA:          -4.685
REMARK INTER:                  -4.641
REMARK INTRA:                  -0.044
REMARK UNBOUND:                -0.043
REMARK SMILES COc1ccccc1O
REMARK SMILES IDX 3 1 4 2 5 3 6 4 7 5 8 6 2 7 1 8 9 9
REMARK H PARENT 9 10
REMARK Flexibility Score: inf
ROOT
ATOM      1  C   UNL     1     -26.199  61.222  32.854  1.00  0.00     0.160 A 
ATOM      2  C   UNL     1     -25.436  60.825  33.970  1.00  0.00     0.050 A 
ATOM      3  C   UNL     1     -25.829  61.192  35.260  1.00  0.00     0.004 A 
ATOM      4  C   UNL     1     -26.982  61.957  35.450  1.00  0.00     0.004 A 
ATOM      5  C   UNL     1     -27.745  62.355  34.351  1.00  0.00     0.050 A 
ATOM      6  C   UNL     1     -27.358  61.990  33.053  1.00  0.00     0.157 A 
ENDROOT
BRANCH   1   7
ATOM      7  O   UNL     1     -25.843  60.875  31.542  1.00  0.00    -0.493 OA
ATOM      8  C   UNL     1     -25.858  59.548  31.028  1.00  0.00     0.278 C 
ENDBRANCH   1   7
BRANCH   6   9
ATOM      9  O   UNL     1     -28.118  62.388  31.955  1.00  0.00    -0.504 OA
ATOM     10  H   UNL     1     -29.064  62.736  32.063  1.00  0.00     0.293 HD
ENDBRANCH   6   9
TORSDOF 2
ENDMDL
MODEL 4
REMARK VINA RESULT:    -4.244     22.244     23.367
REMARK INTER + INTRA:          -4.660
REMARK INTER:                  -4.617
REMARK INTRA:                  -0.043
REMARK UNBOUND:                -0.043
REMARK SMILES COc1ccccc1O
REMARK SMILES IDX 3 1 4 2 5 3 6 4 7 5 8 6 2 7 1 8 9 9
REMARK H PARENT 9 10
REMARK Flexibility Score: inf
ROOT
ATOM      1  C   UNL     1     -25.295  61.270  32.385  1.00  0.00     0.160 A 
ATOM      2  C   UNL     1     -23.921  61.044  32.167  1.00  0.00     0.050 A 
ATOM      3  C   UNL     1     -23.236  61.764  31.183  1.00  0.00     0.004 A 
ATOM      4  C   UNL     1     -23.911  62.712  30.411  1.00  0.00     0.004 A 
ATOM      5  C   UNL     1     -25.272  62.942  30.620  1.00  0.00     0.050 A 
ATOM      6  C   UNL     1     -25.967  62.225  31.604  1.00  0.00     0.157 A 
ENDROOT
BRANCH   1   7
ATOM      7  O   UNL     1     -26.023  60.571  33.361  1.00  0.00    -0.493 OA
ATOM      8  C   UNL     1     -26.057  60.919  34.741  1.00  0.00     0.278 C 
ENDBRANCH   1   7
BRANCH   6   9
ATOM      9  O   UNL     1     -27.326  62.453  31.813  1.00  0.00    -0.504 OA
ATOM     10  H   UNL     1     -27.782  62.187  32.677  1.00  0.00     0.293 HD
ENDBRANCH   6   9
TORSDOF 2
ENDMDL
MODEL 5
REMARK VINA RESULT:    -4.218     23.183     24.724
REMARK INTER + INTRA:          -4.631
REMARK INTER:                  -4.604
REMARK INTRA:                  -0.027
REMARK UNBOUND:                -0.043
REMARK SMILES COc1ccccc1O
REMARK SMILES IDX 3 1 4 2 5 3 6 4 7 5 8 6 2 7 1 8 9 9
REMARK H PARENT 9 10
REMARK Flexibility Score: inf
ROOT
ATOM      1  C   UNL     1     -26.932  61.628  34.253  1.00  0.00     0.160 A 
ATOM      2  C   UNL     1     -25.794  61.020  34.819  1.00  0.00     0.050 A 
ATOM      3  C   UNL     1     -24.747  60.582  34.002  1.00  0.00     0.004 A 
ATOM      4  C   UNL     1     -24.825  60.745  32.617  1.00  0.00     0.004 A 
ATOM      5  C   UNL     1     -25.949  61.347  32.047  1.00  0.00     0.050 A 
ATOM      6  C   UNL     1     -27.002  61.789  32.860  1.00  0.00     0.157 A 
ENDROOT
BRANCH   1   7
ATOM      7  O   UNL     1     -28.005  62.083  35.035  1.00  0.00    -0.493 OA
ATOM      8  C   UNL     1     -28.023  62.076  36.458  1.00  0.00     0.278 C 
ENDBRANCH   1   7
BRANCH   6   9
ATOM      9  O   UNL     1     -28.125  62.388  32.291  1.00  0.00    -0.504 OA
ATOM     10  H   UNL     1     -28.498  62.078  31.401  1.00  0.00     0.293 HD
ENDBRANCH   6   9
TORSDOF 2
ENDMDL
MODEL 6
REMARK VINA RESULT:    -4.165      1.423      3.187
REMARK INTER + INTRA:          -4.573
REMARK INTER:                  -4.546
REMARK INTRA:                  -0.027
REMARK UNBOUND:                -0.043
REMARK SMILES COc1ccccc1O
REMARK SMILES IDX 3 1 4 2 5 3 6 4 7 5 8 6 2 7 1 8 9 9
REMARK H PARENT 9 10
REMARK Flexibility Score: inf
ROOT
ATOM      1  C   UNL     1     -13.843  44.518  23.145  1.00  0.00     0.160 A 
ATOM      2  C   UNL     1     -14.256  43.546  22.213  1.00  0.00     0.050 A 
ATOM      3  C   UNL     1     -13.564  43.383  21.010  1.00  0.00     0.004 A 
ATOM      4  C   UNL     1     -12.456  44.185  20.725  1.00  0.00     0.004 A 
ATOM      5  C   UNL     1     -12.038  45.150  21.642  1.00  0.00     0.050 A 
ATOM      6  C   UNL     1     -12.728  45.320  22.852  1.00  0.00     0.157 A 
ENDROOT
BRANCH   1   7
ATOM      7  O   UNL     1     -14.507  44.717  24.366  1.00  0.00    -0.493 OA
ATOM      8  C   UNL     1     -15.809  44.223  24.662  1.00  0.00     0.278 C 
ENDBRANCH   1   7
BRANCH   6   9
ATOM      9  O   UNL     1     -12.312  46.285  23.768  1.00  0.00    -0.504 OA
ATOM     10  H   UNL     1     -11.943  46.030  24.677  1.00  0.00     0.293 HD
ENDBRANCH   6   9
TORSDOF 2
ENDMDL
MODEL 7
REMARK VINA RESULT:    -4.153     21.122     22.678
REMARK INTER + INTRA:          -4.560
REMARK INTER:                  -4.515
REMARK INTRA:                  -0.046
REMARK UNBOUND:                -0.043
REMARK SMILES COc1ccccc1O
REMARK SMILES IDX 3 1 4 2 5 3 6 4 7 5 8 6 2 7 1 8 9 9
REMARK H PARENT 9 10
REMARK Flexibility Score: inf
ROOT
ATOM      1  C   UNL     1     -25.744  61.330  31.205  1.00  0.00     0.160 A 
ATOM      2  C   UNL     1     -25.118  62.551  30.884  1.00  0.00     0.050 A 
ATOM      3  C   UNL     1     -24.399  62.683  29.693  1.00  0.00     0.004 A 
ATOM      4  C   UNL     1     -24.296  61.602  28.813  1.00  0.00     0.004 A 
ATOM      5  C   UNL     1     -24.913  60.389  29.123  1.00  0.00     0.050 A 
ATOM      6  C   UNL     1     -25.637  60.248  30.316  1.00  0.00     0.157 A 
ENDROOT
BRANCH   1   7
ATOM      7  O   UNL     1     -26.476  61.152  32.390  1.00  0.00    -0.493 OA
ATOM      8  C   UNL     1     -27.816  61.594  32.580  1.00  0.00     0.278 C 
ENDBRANCH   1   7
BRANCH   6   9
ATOM      9  O   UNL     1     -26.251  59.037  30.626  1.00  0.00    -0.504 OA
ATOM     10  H   UNL     1     -26.590  58.837  31.560  1.00  0.00     0.293 HD
ENDBRANCH   6   9
TORSDOF 2
ENDMDL
MODEL 8
REMARK VINA RESULT:    -4.091     22.320     23.804
REMARK INTER + INTRA:          -4.494
REMARK INTER:                  -4.448
REMARK INTRA:                  -0.046
REMARK UNBOUND:                -0.043
REMARK SMILES COc1ccccc1O
REMARK SMILES IDX 3 1 4 2 5 3 6 4 7 5 8 6 2 7 1 8 9 9
REMARK H PARENT 9 10
REMARK Flexibility Score: inf
ROOT
ATOM      1  C   UNL     1     -25.875  60.646  33.272  1.00  0.00     0.160 A 
ATOM      2  C   UNL     1     -25.776  60.902  34.654  1.00  0.00     0.050 A 
ATOM      3  C   UNL     1     -26.748  61.671  35.300  1.00  0.00     0.004 A 
ATOM      4  C   UNL     1     -27.824  62.192  34.577  1.00  0.00     0.004 A 
ATOM      5  C   UNL     1     -27.931  61.943  33.208  1.00  0.00     0.050 A 
ATOM      6  C   UNL     1     -26.960  61.172  32.552  1.00  0.00     0.157 A 
ENDROOT
BRANCH   1   7
ATOM      7  O   UNL     1     -24.923  59.879  32.583  1.00  0.00    -0.493 OA
ATOM      8  C   UNL     1     -24.779  58.469  32.714  1.00  0.00     0.278 C 
ENDBRANCH   1   7
BRANCH   6   9
ATOM      9  O   UNL     1     -27.064  60.925  31.185  1.00  0.00    -0.504 OA
ATOM     10  H   UNL     1     -26.283  60.566  30.649  1.00  0.00     0.293 HD
ENDBRANCH   6   9
TORSDOF 2
ENDMDL
MODEL 9
REMARK VINA RESULT:    -4.034     22.421     23.869
REMARK INTER + INTRA:          -4.431
REMARK INTER:                  -4.384
REMARK INTRA:                  -0.046
REMARK UNBOUND:                -0.043
REMARK SMILES COc1ccccc1O
REMARK SMILES IDX 3 1 4 2 5 3 6 4 7 5 8 6 2 7 1 8 9 9
REMARK H PARENT 9 10
REMARK Flexibility Score: inf
ROOT
ATOM      1  C   UNL     1     -26.866  60.648  32.656  1.00  0.00     0.160 A 
ATOM      2  C   UNL     1     -27.818  61.686  32.686  1.00  0.00     0.050 A 
ATOM      3  C   UNL     1     -28.043  62.402  33.865  1.00  0.00     0.004 A 
ATOM      4  C   UNL     1     -27.324  62.091  35.022  1.00  0.00     0.004 A 
ATOM      5  C   UNL     1     -26.378  61.065  35.001  1.00  0.00     0.050 A 
ATOM      6  C   UNL     1     -26.146  60.342  33.822  1.00  0.00     0.157 A 
ENDROOT
BRANCH   1   7
ATOM      7  O   UNL     1     -26.607  59.903  31.495  1.00  0.00    -0.493 OA
ATOM      8  C   UNL     1     -25.855  60.381  30.384  1.00  0.00     0.278 C 
ENDBRANCH   1   7
BRANCH   6   9
ATOM      9  O   UNL     1     -25.203  59.315  33.802  1.00  0.00    -0.504 OA
ATOM     10  H   UNL     1     -25.287  58.531  33.166  1.00  0.00     0.293 HD
ENDBRANCH   6   9
TORSDOF 2
ENDMDL
