MODEL 1
REMARK VINA RESULT:    -4.503      0.000      0.000
REMARK INTER + INTRA:          -5.000
REMARK INTER:                  -4.898
REMARK INTRA:                  -0.102
REMARK UNBOUND:                -0.102
REMARK SMILES Cc1ccc(C(C)C)cc1O
REMARK SMILES IDX 1 1 2 2 10 3 9 4 5 5 4 6 3 7 11 8 6 10 7 11 8 12
REMARK H PARENT 11 9
REMARK Flexibility Score: inf
ROOT
ATOM      1  C   UNL     1     -34.125 -21.840 -36.586  1.00  0.00     0.048 C 
ATOM      2  C   UNL     1     -33.155 -21.627 -35.456  1.00  0.00    -0.009 A 
ATOM      3  C   UNL     1     -32.404 -22.698 -34.924  1.00  0.00     0.118 A 
ATOM      4  C   UNL     1     -31.510 -22.467 -33.872  1.00  0.00     0.050 A 
ATOM      5  C   UNL     1     -31.345 -21.177 -33.335  1.00  0.00    -0.042 A 
ATOM      6  C   UNL     1     -32.094 -20.118 -33.870  1.00  0.00     0.004 A 
ATOM      7  C   UNL     1     -32.989 -20.341 -34.919  1.00  0.00     0.007 A 
ENDROOT
BRANCH   3   8
ATOM      8  O   UNL     1     -32.525 -24.000 -35.414  1.00  0.00    -0.508 OA
ATOM      9  H   UNL     1     -31.776 -24.479 -35.898  1.00  0.00     0.293 HD
ENDBRANCH   3   8
BRANCH   5  10
ATOM     10  C   UNL     1     -30.376 -20.921 -32.195  1.00  0.00     0.013 C 
ATOM     11  C   UNL     1     -28.960 -20.667 -32.720  1.00  0.00     0.012 C 
ATOM     12  C   UNL     1     -30.392 -22.076 -31.187  1.00  0.00     0.012 C 
ENDBRANCH   5  10
TORSDOF 2
ENDMDL
MODEL 2
REMARK VINA RESULT:    -4.141      2.092      4.471
REMARK INTER + INTRA:          -4.606
REMARK INTER:                  -4.478
REMARK INTRA:                  -0.127
REMARK UNBOUND:                -0.102
REMARK SMILES Cc1ccc(C(C)C)cc1O
REMARK SMILES IDX 1 1 2 2 10 3 9 4 5 5 4 6 3 7 11 8 6 10 7 11 8 12
REMARK H PARENT 11 9
REMARK Flexibility Score: inf
ROOT
ATOM      1  C   UNL     1     -29.302 -19.908 -30.334  1.00  0.00     0.048 C 
ATOM      2  C   UNL     1     -30.041 -20.626 -31.429  1.00  0.00    -0.009 A 
ATOM      3  C   UNL     1     -30.341 -22.003 -31.328  1.00  0.00     0.118 A 
ATOM      4  C   UNL     1     -31.031 -22.642 -32.365  1.00  0.00     0.050 A 
ATOM      5  C   UNL     1     -31.432 -21.933 -33.512  1.00  0.00    -0.042 A 
ATOM      6  C   UNL     1     -31.129 -20.565 -33.603  1.00  0.00     0.004 A 
ATOM      7  C   UNL     1     -30.442 -19.920 -32.574  1.00  0.00     0.007 A 
ENDROOT
BRANCH   3   8
ATOM      8  O   UNL     1     -29.969 -22.761 -30.216  1.00  0.00    -0.508 OA
ATOM      9  H   UNL     1     -29.005 -22.961 -29.983  1.00  0.00     0.293 HD
ENDBRANCH   3   8
BRANCH   5  10
ATOM     10  C   UNL     1     -32.180 -22.621 -34.638  1.00  0.00     0.013 C 
ATOM     11  C   UNL     1     -31.213 -23.334 -35.590  1.00  0.00     0.012 C 
ATOM     12  C   UNL     1     -33.071 -21.631 -35.396  1.00  0.00     0.012 C 
ENDBRANCH   5  10
TORSDOF 2
ENDMDL
MODEL 3
REMARK VINA RESULT:    -3.943      1.398      2.011
REMARK INTER + INTRA:          -4.391
REMARK INTER:                  -4.263
REMARK INTRA:                  -0.128
REMARK UNBOUND:                -0.102
REMARK SMILES Cc1ccc(C(C)C)cc1O
REMARK SMILES IDX 1 1 2 2 10 3 9 4 5 5 4 6 3 7 11 8 6 10 7 11 8 12
REMARK H PARENT 11 9
REMARK Flexibility Score: inf
ROOT
ATOM      1  C   UNL     1     -33.790 -22.620 -36.809  1.00  0.00     0.048 C 
ATOM      2  C   UNL     1     -32.978 -22.110 -35.651  1.00  0.00    -0.009 A 
ATOM      3  C   UNL     1     -33.111 -20.780 -35.193  1.00  0.00     0.118 A 
ATOM      4  C   UNL     1     -32.341 -20.336 -34.112  1.00  0.00     0.050 A 
ATOM      5  C   UNL     1     -31.432 -21.197 -33.470  1.00  0.00    -0.042 A 
ATOM      6  C   UNL     1     -31.308 -22.516 -33.930  1.00  0.00     0.004 A 
ATOM      7  C   UNL     1     -32.072 -22.968 -35.008  1.00  0.00     0.007 A 
ENDROOT
BRANCH   3   8
ATOM      8  O   UNL     1     -33.994 -19.878 -35.790  1.00  0.00    -0.508 OA
ATOM      9  H   UNL     1     -34.427 -19.114 -35.286  1.00  0.00     0.293 HD
ENDBRANCH   3   8
BRANCH   5  10
ATOM     10  C   UNL     1     -30.596 -20.720 -32.297  1.00  0.00     0.013 C 
ATOM     11  C   UNL     1     -29.217 -20.239 -32.761  1.00  0.00     0.012 C 
ATOM     12  C   UNL     1     -30.469 -21.812 -31.228  1.00  0.00     0.012 C 
ENDBRANCH   5  10
TORSDOF 2
ENDMDL
MODEL 4
REMARK VINA RESULT:    -3.732      2.210      4.716
REMARK INTER + INTRA:          -4.162
REMARK INTER:                  -4.062
REMARK INTRA:                  -0.100
REMARK UNBOUND:                -0.102
REMARK SMILES Cc1ccc(C(C)C)cc1O
REMARK SMILES IDX 1 1 2 2 10 3 9 4 5 5 4 6 3 7 11 8 6 10 7 11 8 12
REMARK H PARENT 11 9
REMARK Flexibility Score: inf
ROOT
ATOM      1  C   UNL     1     -28.352 -20.085 -30.957  1.00  0.00     0.048 C 
ATOM      2  C   UNL     1     -29.270 -20.792 -31.915  1.00  0.00    -0.009 A 
ATOM      3  C   UNL     1     -29.110 -20.661 -33.313  1.00  0.00     0.118 A 
ATOM      4  C   UNL     1     -29.981 -21.333 -34.179  1.00  0.00     0.050 A 
ATOM      5  C   UNL     1     -31.019 -22.140 -33.677  1.00  0.00    -0.042 A 
ATOM      6  C   UNL     1     -31.170 -22.264 -32.287  1.00  0.00     0.004 A 
ATOM      7  C   UNL     1     -30.305 -21.598 -31.417  1.00  0.00     0.007 A 
ENDROOT
BRANCH   3   8
ATOM      8  O   UNL     1     -28.100 -19.875 -33.870  1.00  0.00    -0.508 OA
ATOM      9  H   UNL     1     -28.057 -19.650 -34.856  1.00  0.00     0.293 HD
ENDBRANCH   3   8
BRANCH   5  10
ATOM     10  C   UNL     1     -31.965 -22.869 -34.612  1.00  0.00     0.013 C 
ATOM     11  C   UNL     1     -31.197 -23.600 -35.718  1.00  0.00     0.012 C 
ATOM     12  C   UNL     1     -33.006 -21.911 -35.204  1.00  0.00     0.012 C 
ENDBRANCH   5  10
TORSDOF 2
ENDMDL
MODEL 5
REMARK VINA RESULT:    -3.597      2.964      4.844
REMARK INTER + INTRA:          -4.014
REMARK INTER:                  -3.908
REMARK INTRA:                  -0.106
REMARK UNBOUND:                -0.102
REMARK SMILES Cc1ccc(C(C)C)cc1O
REMARK SMILES IDX 1 1 2 2 10 3 9 4 5 5 4 6 3 7 11 8 6 10 7 11 8 12
REMARK H PARENT 11 9
REMARK Flexibility Score: inf
ROOT
ATOM      1  C   UNL     1     -33.968 -20.020 -35.106  1.00  0.00     0.048 C 
ATOM      2  C   UNL     1     -33.383 -21.225 -35.789  1.00  0.00    -0.009 A 
ATOM      3  C   UNL     1     -33.443 -21.371 -37.193  1.00  0.00     0.118 A 
ATOM      4  C   UNL     1     -32.888 -22.505 -37.799  1.00  0.00     0.050 A 
ATOM      5  C   UNL     1     -32.268 -23.505 -37.028  1.00  0.00    -0.042 A 
ATOM      6  C   UNL     1     -32.211 -23.351 -35.635  1.00  0.00     0.004 A 
ATOM      7  C   UNL     1     -32.762 -22.223 -35.022  1.00  0.00     0.007 A 
ENDROOT
BRANCH   3   8
ATOM      8  O   UNL     1     -34.047 -20.414 -38.010  1.00  0.00    -0.508 OA
ATOM      9  H   UNL     1     -34.899 -19.930 -37.757  1.00  0.00     0.293 HD
ENDBRANCH   3   8
BRANCH   5  10
ATOM     10  C   UNL     1     -31.664 -24.735 -37.681  1.00  0.00     0.013 C 
ATOM     11  C   UNL     1     -31.243 -24.445 -39.125  1.00  0.00     0.012 C 
ATOM     12  C   UNL     1     -32.630 -25.925 -37.616  1.00  0.00     0.012 C 
ENDBRANCH   5  10
TORSDOF 2
ENDMDL
MODEL 6
REMARK VINA RESULT:    -3.251      2.205      3.831
REMARK INTER + INTRA:          -3.639
REMARK INTER:                  -3.520
REMARK INTRA:                  -0.118
REMARK UNBOUND:                -0.102
REMARK SMILES Cc1ccc(C(C)C)cc1O
REMARK SMILES IDX 1 1 2 2 10 3 9 4 5 5 4 6 3 7 11 8 6 10 7 11 8 12
REMARK H PARENT 11 9
REMARK Flexibility Score: inf
ROOT
ATOM      1  C   UNL     1     -31.341 -25.125 -38.212  1.00  0.00     0.048 C 
ATOM      2  C   UNL     1     -31.821 -24.034 -37.296  1.00  0.00    -0.009 A 
ATOM      3  C   UNL     1     -32.622 -22.974 -37.778  1.00  0.00     0.118 A 
ATOM      4  C   UNL     1     -33.054 -21.974 -36.899  1.00  0.00     0.050 A 
ATOM      5  C   UNL     1     -32.702 -22.007 -35.537  1.00  0.00    -0.042 A 
ATOM      6  C   UNL     1     -31.906 -23.063 -35.068  1.00  0.00     0.004 A 
ATOM      7  C   UNL     1     -31.471 -24.065 -35.937  1.00  0.00     0.007 A 
ENDROOT
BRANCH   3   8
ATOM      8  O   UNL     1     -33.004 -22.887 -39.118  1.00  0.00    -0.508 OA
ATOM      9  H   UNL     1     -33.961 -22.738 -39.411  1.00  0.00     0.293 HD
ENDBRANCH   3   8
BRANCH   5  10
ATOM     10  C   UNL     1     -33.168 -20.925 -34.581  1.00  0.00     0.013 C 
ATOM     11  C   UNL     1     -34.018 -19.875 -35.305  1.00  0.00     0.012 C 
ATOM     12  C   UNL     1     -31.981 -20.273 -33.863  1.00  0.00     0.012 C 
ENDBRANCH   5  10
TORSDOF 2
ENDMDL
MODEL 7
REMARK VINA RESULT:    -3.145      3.713      5.304
REMARK INTER + INTRA:          -3.523
REMARK INTER:                  -3.421
REMARK INTRA:                  -0.102
REMARK UNBOUND:                -0.102
REMARK SMILES Cc1ccc(C(C)C)cc1O
REMARK SMILES IDX 1 1 2 2 10 3 9 4 5 5 4 6 3 7 11 8 6 10 7 11 8 12
REMARK H PARENT 11 9
REMARK Flexibility Score: inf
ROOT
ATOM      1  C   UNL     1     -31.520 -27.761 -38.865  1.00  0.00     0.048 C 
ATOM      2  C   UNL     1     -31.773 -26.462 -38.152  1.00  0.00    -0.009 A 
ATOM      3  C   UNL     1     -33.046 -26.154 -37.621  1.00  0.00     0.118 A 
ATOM      4  C   UNL     1     -33.249 -24.935 -36.962  1.00  0.00     0.050 A 
ATOM      5  C   UNL     1     -32.201 -24.008 -36.819  1.00  0.00    -0.042 A 
ATOM      6  C   UNL     1     -30.940 -24.322 -37.348  1.00  0.00     0.004 A 
ATOM      7  C   UNL     1     -30.729 -25.535 -38.007  1.00  0.00     0.007 A 
ENDROOT
BRANCH   3   8
ATOM      8  O   UNL     1     -34.125 -27.033 -37.733  1.00  0.00    -0.508 OA
ATOM      9  H   UNL     1     -34.667 -27.136 -38.581  1.00  0.00     0.293 HD
ENDBRANCH   3   8
BRANCH   5  10
ATOM     10  C   UNL     1     -32.417 -22.687 -36.105  1.00  0.00     0.013 C 
ATOM     11  C   UNL     1     -32.247 -22.841 -34.591  1.00  0.00     0.012 C 
ATOM     12  C   UNL     1     -33.788 -22.091 -36.448  1.00  0.00     0.012 C 
ENDBRANCH   5  10
TORSDOF 2
ENDMDL
MODEL 8
REMARK VINA RESULT:    -2.979      5.727      7.251
REMARK INTER + INTRA:          -3.342
REMARK INTER:                  -3.214
REMARK INTRA:                  -0.128
REMARK UNBOUND:                -0.102
REMARK SMILES Cc1ccc(C(C)C)cc1O
REMARK SMILES IDX 1 1 2 2 10 3 9 4 5 5 4 6 3 7 11 8 6 10 7 11 8 12
REMARK H PARENT 11 9
REMARK Flexibility Score: inf
ROOT
ATOM      1  C   UNL     1     -33.868 -29.886 -39.115  1.00  0.00     0.048 C 
ATOM      2  C   UNL     1     -33.215 -28.586 -38.734  1.00  0.00    -0.009 A 
ATOM      3  C   UNL     1     -31.810 -28.440 -38.755  1.00  0.00     0.118 A 
ATOM      4  C   UNL     1     -31.233 -27.216 -38.395  1.00  0.00     0.050 A 
ATOM      5  C   UNL     1     -32.033 -26.124 -38.012  1.00  0.00    -0.042 A 
ATOM      6  C   UNL     1     -33.428 -26.279 -37.995  1.00  0.00     0.004 A 
ATOM      7  C   UNL     1     -34.012 -27.496 -38.352  1.00  0.00     0.007 A 
ENDROOT
BRANCH   3   8
ATOM      8  O   UNL     1     -30.964 -29.486 -39.125  1.00  0.00    -0.508 OA
ATOM      9  H   UNL     1     -30.301 -29.418 -39.887  1.00  0.00     0.293 HD
ENDBRANCH   3   8
BRANCH   5  10
ATOM     10  C   UNL     1     -31.411 -24.797 -37.621  1.00  0.00     0.013 C 
ATOM     11  C   UNL     1     -32.081 -24.219 -36.370  1.00  0.00     0.012 C 
ATOM     12  C   UNL     1     -31.463 -23.799 -38.784  1.00  0.00     0.012 C 
ENDBRANCH   5  10
TORSDOF 2
ENDMDL
MODEL 9
REMARK VINA RESULT:    -2.352      1.930      4.917
REMARK INTER + INTRA:          -2.660
REMARK INTER:                  -2.535
REMARK INTRA:                  -0.124
REMARK UNBOUND:                -0.102
REMARK SMILES Cc1ccc(C(C)C)cc1O
REMARK SMILES IDX 1 1 2 2 10 3 9 4 5 5 4 6 3 7 11 8 6 10 7 11 8 12
REMARK H PARENT 11 9
REMARK Flexibility Score: inf
ROOT
ATOM      1  C   UNL     1     -30.751 -22.134 -32.707  1.00  0.00     0.048 C 
ATOM      2  C   UNL     1     -31.517 -22.107 -34.000  1.00  0.00    -0.009 A 
ATOM      3  C   UNL     1     -32.313 -20.995 -34.356  1.00  0.00     0.118 A 
ATOM      4  C   UNL     1     -33.014 -21.000 -35.568  1.00  0.00     0.050 A 
ATOM      5  C   UNL     1     -32.938 -22.100 -36.442  1.00  0.00    -0.042 A 
ATOM      6  C   UNL     1     -32.144 -23.199 -36.081  1.00  0.00     0.004 A 
ATOM      7  C   UNL     1     -31.442 -23.202 -34.874  1.00  0.00     0.007 A 
ENDROOT
BRANCH   3   8
ATOM      8  O   UNL     1     -32.430 -19.876 -33.530  1.00  0.00    -0.508 OA
ATOM      9  H   UNL     1     -32.516 -18.933 -33.887  1.00  0.00     0.293 HD
ENDBRANCH   3   8
BRANCH   5  10
ATOM     10  C   UNL     1     -33.696 -22.109 -37.756  1.00  0.00     0.013 C 
ATOM     11  C   UNL     1     -32.872 -22.773 -38.865  1.00  0.00     0.012 C 
ATOM     12  C   UNL     1     -34.122 -20.693 -38.159  1.00  0.00     0.012 C 
ENDBRANCH   5  10
TORSDOF 2
ENDMDL
