MODEL 1
REMARK VINA RESULT:    -8.243      0.000      0.000
REMARK INTER + INTRA:          -9.198
REMARK INTER:                  -8.966
REMARK INTRA:                  -0.232
REMARK UNBOUND:                -0.232
REMARK SMILES CC1(C)CC[C@@]2(C(=O)[O-])CC[C@]3(C)C(=CC[C@H]4[C@@]5(C)CC[C@H](O)C(C)(C)[C@H]5CC[C@]43C)[C@H]2C1
REMARK SMILES IDX 6 1 5 2 10 3 32 4 4 5 11 6 14 7 33 8 2 9 12 10 15 11 1 12
REMARK SMILES IDX 3 13 13 14 30 15 16 16 17 17 29 18 31 19 18 20 28 21 27 22
REMARK SMILES IDX 20 23 19 24 24 25 21 26 22 27 25 28 26 29 7 30 8 31 9 32
REMARK SMILES IDX 23 33
REMARK H PARENT 23 34
REMARK Flexibility Score: inf
ROOT
ATOM      1  C   UNL     1      86.800  84.873  78.852  1.00  0.00     0.017 C 
ATOM      2  C   UNL     1      85.910  84.940  77.578  1.00  0.00     0.014 C 
ATOM      3  C   UNL     1      87.914  83.816  78.596  1.00  0.00     0.014 C 
ATOM      4  C   UNL     1      87.469  86.284  79.173  1.00  0.00     0.028 C 
ATOM      5  C   UNL     1      84.904  86.101  77.636  1.00  0.00     0.007 C 
ATOM      6  C   UNL     1      88.912  83.675  79.772  1.00  0.00     0.013 C 
ATOM      7  C   UNL     1      88.997  86.142  79.428  1.00  0.00    -0.064 C 
ATOM      8  C   UNL     1      87.105  87.363  78.110  1.00  0.00     0.015 C 
ATOM      9  C   UNL     1      85.581  87.497  77.828  1.00  0.00    -0.035 C 
ATOM     10  C   UNL     1      89.430  85.034  80.401  1.00  0.00    -0.006 C 
ATOM     11  C   UNL     1      89.897  86.727  78.612  1.00  0.00    -0.027 C 
ATOM     12  C   UNL     1      84.896  88.267  78.980  1.00  0.00     0.011 C 
ATOM     13  C   UNL     1      85.405  88.332  76.537  1.00  0.00     0.011 C 
ATOM     14  C   UNL     1      88.688  85.280  81.759  1.00  0.00     0.017 C 
ATOM     15  C   UNL     1      91.024  84.991  80.686  1.00  0.00    -0.020 C 
ATOM     16  C   UNL     1      91.369  86.508  78.671  1.00  0.00     0.032 C 
ATOM     17  C   UNL     1      91.830  85.188  79.354  1.00  0.00     0.006 C 
ATOM     18  C   UNL     1      91.466  86.142  81.658  1.00  0.00     0.008 C 
ATOM     19  C   UNL     1      91.349  83.604  81.357  1.00  0.00     0.012 C 
ATOM     20  C   UNL     1      93.443  85.085  79.520  1.00  0.00    -0.025 C 
ATOM     21  C   UNL     1      92.950  86.597  81.563  1.00  0.00     0.005 C 
ATOM     22  C   UNL     1      93.921  85.535  80.977  1.00  0.00     0.003 C 
ATOM     23  C   UNL     1      94.163  85.950  78.421  1.00  0.00     0.010 C 
ATOM     24  C   UNL     1      93.851  83.593  79.266  1.00  0.00     0.012 C 
ATOM     25  C   UNL     1      95.471  85.901  81.133  1.00  0.00    -0.006 C 
ATOM     26  C   UNL     1      95.670  86.111  78.594  1.00  0.00     0.033 C 
ATOM     27  C   UNL     1      95.978  86.761  79.942  1.00  0.00     0.120 C 
ATOM     28  C   UNL     1      96.321  84.602  81.270  1.00  0.00     0.014 C 
ATOM     29  C   UNL     1      95.747  86.701  82.437  1.00  0.00     0.014 C 
ENDROOT
BRANCH   1  30
ATOM     30  C   UNL     1      85.898  84.389  79.989  1.00  0.00     0.048 C 
ATOM     31  O   UNL     1      85.453  85.202  80.843  1.00  0.00    -0.550 OA
ATOM     32  O   UNL     1      85.628  83.037  80.165  1.00  0.00    -0.550 OA
ENDBRANCH   1  30
BRANCH  27  33
ATOM     33  O   UNL     1      97.364  86.979  80.043  1.00  0.00    -0.393 OA
ATOM     34  H   UNL     1      97.810  86.110  79.866  1.00  0.00     0.210 HD
ENDBRANCH  27  33
TORSDOF 2
ENDMDL
MODEL 2
REMARK VINA RESULT:    -7.566      3.975      7.178
REMARK INTER + INTRA:          -8.462
REMARK INTER:                  -8.177
REMARK INTRA:                  -0.285
REMARK UNBOUND:                -0.232
REMARK SMILES CC1(C)CC[C@@]2(C(=O)[O-])CC[C@]3(C)C(=CC[C@H]4[C@@]5(C)CC[C@H](O)C(C)(C)[C@H]5CC[C@]43C)[C@H]2C1
REMARK SMILES IDX 6 1 5 2 10 3 32 4 4 5 11 6 14 7 33 8 2 9 12 10 15 11 1 12
REMARK SMILES IDX 3 13 13 14 30 15 16 16 17 17 29 18 31 19 18 20 28 21 27 22
REMARK SMILES IDX 20 23 19 24 24 25 21 26 22 27 25 28 26 29 7 30 8 31 9 32
REMARK SMILES IDX 23 33
REMARK H PARENT 23 34
REMARK Flexibility Score: inf
ROOT
ATOM      1  C   UNL     1      92.459  86.206  82.782  1.00  0.00     0.017 C 
ATOM      2  C   UNL     1      91.419  85.124  82.370  1.00  0.00     0.014 C 
ATOM      3  C   UNL     1      93.197  85.692  84.052  1.00  0.00     0.014 C 
ATOM      4  C   UNL     1      93.517  86.471  81.620  1.00  0.00     0.028 C 
ATOM      5  C   UNL     1      90.777  85.429  81.007  1.00  0.00     0.007 C 
ATOM      6  C   UNL     1      94.305  86.654  84.552  1.00  0.00     0.013 C 
ATOM      7  C   UNL     1      94.975  86.431  82.163  1.00  0.00    -0.064 C 
ATOM      8  C   UNL     1      93.279  85.552  80.385  1.00  0.00     0.015 C 
ATOM      9  C   UNL     1      91.818  85.564  79.849  1.00  0.00    -0.035 C 
ATOM     10  C   UNL     1      95.257  87.247  83.433  1.00  0.00    -0.006 C 
ATOM     11  C   UNL     1      95.850  85.493  81.742  1.00  0.00    -0.027 C 
ATOM     12  C   UNL     1      91.560  86.863  79.050  1.00  0.00     0.011 C 
ATOM     13  C   UNL     1      91.657  84.375  78.874  1.00  0.00     0.011 C 
ATOM     14  C   UNL     1      94.841  88.730  83.145  1.00  0.00     0.017 C 
ATOM     15  C   UNL     1      96.808  87.229  83.900  1.00  0.00    -0.020 C 
ATOM     16  C   UNL     1      97.201  85.267  82.325  1.00  0.00     0.032 C 
ATOM     17  C   UNL     1      97.406  85.782  83.779  1.00  0.00     0.006 C 
ATOM     18  C   UNL     1      97.692  88.161  82.996  1.00  0.00     0.008 C 
ATOM     19  C   UNL     1      96.865  87.754  85.383  1.00  0.00     0.012 C 
ATOM     20  C   UNL     1      98.939  85.641  84.296  1.00  0.00    -0.025 C 
ATOM     21  C   UNL     1      99.206  87.817  82.918  1.00  0.00     0.005 C 
ATOM     22  C   UNL     1      99.754  87.006  84.125  1.00  0.00     0.003 C 
ATOM     23  C   UNL     1      99.669  84.475  83.533  1.00  0.00     0.010 C 
ATOM     24  C   UNL     1      98.895  85.238  85.810  1.00  0.00     0.012 C 
ATOM     25  C   UNL     1     101.349  86.892  84.173  1.00  0.00    -0.006 C 
ATOM     26  C   UNL     1     101.173  84.374  83.771  1.00  0.00     0.033 C 
ATOM     27  C   UNL     1     101.860  85.674  83.353  1.00  0.00     0.120 C 
ATOM     28  C   UNL     1     101.838  86.800  85.650  1.00  0.00     0.014 C 
ATOM     29  C   UNL     1     102.037  88.162  83.600  1.00  0.00     0.014 C 
ENDROOT
BRANCH   1  30
ATOM     30  C   UNL     1      91.662  87.463  83.136  1.00  0.00     0.048 C 
ATOM     31  O   UNL     1      90.994  87.518  84.203  1.00  0.00    -0.550 OA
ATOM     32  O   UNL     1      91.575  88.531  82.250  1.00  0.00    -0.550 OA
ENDBRANCH   1  30
BRANCH  27  33
ATOM     33  O   UNL     1     103.252  85.528  83.498  1.00  0.00    -0.393 OA
ATOM     34  H   UNL     1     103.412  84.621  83.870  1.00  0.00     0.210 HD
ENDBRANCH  27  33
TORSDOF 2
ENDMDL
MODEL 3
REMARK VINA RESULT:    -7.518      4.371      8.097
REMARK INTER + INTRA:          -8.409
REMARK INTER:                  -8.168
REMARK INTRA:                  -0.242
REMARK UNBOUND:                -0.232
REMARK SMILES CC1(C)CC[C@@]2(C(=O)[O-])CC[C@]3(C)C(=CC[C@H]4[C@@]5(C)CC[C@H](O)C(C)(C)[C@H]5CC[C@]43C)[C@H]2C1
REMARK SMILES IDX 6 1 5 2 10 3 32 4 4 5 11 6 14 7 33 8 2 9 12 10 15 11 1 12
REMARK SMILES IDX 3 13 13 14 30 15 16 16 17 17 29 18 31 19 18 20 28 21 27 22
REMARK SMILES IDX 20 23 19 24 24 25 21 26 22 27 25 28 26 29 7 30 8 31 9 32
REMARK SMILES IDX 23 33
REMARK H PARENT 23 34
REMARK Flexibility Score: inf
ROOT
ATOM      1  C   UNL     1      92.295  84.755  80.508  1.00  0.00     0.017 C 
ATOM      2  C   UNL     1      93.314  83.609  80.246  1.00  0.00     0.014 C 
ATOM      3  C   UNL     1      91.107  84.155  81.317  1.00  0.00     0.014 C 
ATOM      4  C   UNL     1      92.956  85.947  81.335  1.00  0.00     0.028 C 
ATOM      5  C   UNL     1      94.626  84.131  79.636  1.00  0.00     0.007 C 
ATOM      6  C   UNL     1      90.029  85.201  81.695  1.00  0.00     0.013 C 
ATOM      7  C   UNL     1      92.066  86.357  82.544  1.00  0.00    -0.064 C 
ATOM      8  C   UNL     1      94.437  85.649  81.714  1.00  0.00     0.015 C 
ATOM      9  C   UNL     1      95.330  85.212  80.518  1.00  0.00    -0.035 C 
ATOM     10  C   UNL     1      90.574  86.580  82.253  1.00  0.00    -0.006 C 
ATOM     11  C   UNL     1      92.504  86.213  83.812  1.00  0.00    -0.027 C 
ATOM     12  C   UNL     1      95.699  86.442  79.657  1.00  0.00     0.011 C 
ATOM     13  C   UNL     1      96.644  84.629  81.090  1.00  0.00     0.011 C 
ATOM     14  C   UNL     1      90.467  87.663  81.126  1.00  0.00     0.017 C 
ATOM     15  C   UNL     1      89.720  87.084  83.534  1.00  0.00    -0.020 C 
ATOM     16  C   UNL     1      91.669  86.414  85.029  1.00  0.00     0.032 C 
ATOM     17  C   UNL     1      90.132  86.288  84.823  1.00  0.00     0.006 C 
ATOM     18  C   UNL     1      89.979  88.603  83.837  1.00  0.00     0.008 C 
ATOM     19  C   UNL     1      88.195  86.885  83.196  1.00  0.00     0.012 C 
ATOM     20  C   UNL     1      89.277  86.667  86.151  1.00  0.00    -0.025 C 
ATOM     21  C   UNL     1      89.733  89.070  85.300  1.00  0.00     0.005 C 
ATOM     22  C   UNL     1      88.755  88.177  86.113  1.00  0.00     0.003 C 
ATOM     23  C   UNL     1      90.139  86.424  87.444  1.00  0.00     0.010 C 
ATOM     24  C   UNL     1      88.056  85.687  86.225  1.00  0.00     0.012 C 
ATOM     25  C   UNL     1      88.296  88.806  87.511  1.00  0.00    -0.006 C 
ATOM     26  C   UNL     1      89.531  86.940  88.746  1.00  0.00     0.033 C 
ATOM     27  C   UNL     1      89.288  88.446  88.652  1.00  0.00     0.120 C 
ATOM     28  C   UNL     1      86.856  88.330  87.869  1.00  0.00     0.014 C 
ATOM     29  C   UNL     1      88.203  90.356  87.445  1.00  0.00     0.014 C 
ENDROOT
BRANCH   1  30
ATOM     30  C   UNL     1      91.791  85.212  79.137  1.00  0.00     0.048 C 
ATOM     31  O   UNL     1      90.914  84.546  78.523  1.00  0.00    -0.550 OA
ATOM     32  O   UNL     1      92.353  86.309  78.496  1.00  0.00    -0.550 OA
ENDBRANCH   1  30
BRANCH  27  33
ATOM     33  O   UNL     1      88.811  88.914  89.890  1.00  0.00    -0.393 OA
ATOM     34  H   UNL     1      89.243  89.793  90.054  1.00  0.00     0.210 HD
ENDBRANCH  27  33
TORSDOF 2
ENDMDL
MODEL 4
REMARK VINA RESULT:    -7.245      1.907      9.146
REMARK INTER + INTRA:          -8.112
REMARK INTER:                  -7.890
REMARK INTRA:                  -0.223
REMARK UNBOUND:                -0.232
REMARK SMILES CC1(C)CC[C@@]2(C(=O)[O-])CC[C@]3(C)C(=CC[C@H]4[C@@]5(C)CC[C@H](O)C(C)(C)[C@H]5CC[C@]43C)[C@H]2C1
REMARK SMILES IDX 6 1 5 2 10 3 32 4 4 5 11 6 14 7 33 8 2 9 12 10 15 11 1 12
REMARK SMILES IDX 3 13 13 14 30 15 16 16 17 17 29 18 31 19 18 20 28 21 27 22
REMARK SMILES IDX 20 23 19 24 24 25 21 26 22 27 25 28 26 29 7 30 8 31 9 32
REMARK SMILES IDX 23 33
REMARK H PARENT 23 34
REMARK Flexibility Score: inf
ROOT
ATOM      1  C   UNL     1      97.481  85.866  82.330  1.00  0.00     0.017 C 
ATOM      2  C   UNL     1      98.248  85.990  83.678  1.00  0.00     0.014 C 
ATOM      3  C   UNL     1      96.580  84.599  82.414  1.00  0.00     0.014 C 
ATOM      4  C   UNL     1      96.576  87.148  82.052  1.00  0.00     0.028 C 
ATOM      5  C   UNL     1      99.011  87.321  83.789  1.00  0.00     0.007 C 
ATOM      6  C   UNL     1      95.714  84.375  81.148  1.00  0.00     0.013 C 
ATOM      7  C   UNL     1      95.127  86.742  81.656  1.00  0.00    -0.064 C 
ATOM      8  C   UNL     1      96.646  88.181  83.216  1.00  0.00     0.015 C 
ATOM      9  C   UNL     1      98.090  88.575  83.638  1.00  0.00    -0.035 C 
ATOM     10  C   UNL     1      94.989  85.661  80.573  1.00  0.00    -0.006 C 
ATOM     11  C   UNL     1      94.074  87.076  82.430  1.00  0.00    -0.027 C 
ATOM     12  C   UNL     1      98.693  89.556  82.606  1.00  0.00     0.011 C 
ATOM     13  C   UNL     1      98.007  89.314  84.995  1.00  0.00     0.011 C 
ATOM     14  C   UNL     1      95.764  86.158  79.306  1.00  0.00     0.017 C 
ATOM     15  C   UNL     1      93.459  85.342  80.149  1.00  0.00    -0.020 C 
ATOM     16  C   UNL     1      92.680  86.589  82.229  1.00  0.00     0.032 C 
ATOM     17  C   UNL     1      92.535  85.270  81.417  1.00  0.00     0.006 C 
ATOM     18  C   UNL     1      92.871  86.469  79.226  1.00  0.00     0.008 C 
ATOM     19  C   UNL     1      93.458  83.982  79.357  1.00  0.00     0.012 C 
ATOM     20  C   UNL     1      90.990  84.879  81.105  1.00  0.00    -0.025 C 
ATOM     21  C   UNL     1      91.324  86.626  79.223  1.00  0.00     0.005 C 
ATOM     22  C   UNL     1      90.539  85.354  79.647  1.00  0.00     0.003 C 
ATOM     23  C   UNL     1      90.039  85.496  82.195  1.00  0.00     0.010 C 
ATOM     24  C   UNL     1      90.863  83.320  81.217  1.00  0.00     0.012 C 
ATOM     25  C   UNL     1      88.963  85.433  79.382  1.00  0.00    -0.006 C 
ATOM     26  C   UNL     1      88.545  85.383  81.903  1.00  0.00     0.033 C 
ATOM     27  C   UNL     1      88.214  86.077  80.583  1.00  0.00     0.120 C 
ATOM     28  C   UNL     1      88.394  84.014  79.082  1.00  0.00     0.014 C 
ATOM     29  C   UNL     1      88.630  86.275  78.119  1.00  0.00     0.014 C 
ENDROOT
BRANCH   1  30
ATOM     30  C   UNL     1      98.540  85.659  81.244  1.00  0.00     0.048 C 
ATOM     31  O   UNL     1      98.741  86.545  80.370  1.00  0.00    -0.550 OA
ATOM     32  O   UNL     1      99.232  84.459  81.136  1.00  0.00    -0.550 OA
ENDBRANCH   1  30
BRANCH  27  33
ATOM     33  O   UNL     1      86.823  86.038  80.377  1.00  0.00    -0.393 OA
ATOM     34  H   UNL     1      86.477  85.250  80.873  1.00  0.00     0.210 HD
ENDBRANCH  27  33
TORSDOF 2
ENDMDL
MODEL 5
REMARK VINA RESULT:    -7.080      4.967      7.540
REMARK INTER + INTRA:          -7.933
REMARK INTER:                  -7.646
REMARK INTRA:                  -0.287
REMARK UNBOUND:                -0.232
REMARK SMILES CC1(C)CC[C@@]2(C(=O)[O-])CC[C@]3(C)C(=CC[C@H]4[C@@]5(C)CC[C@H](O)C(C)(C)[C@H]5CC[C@]43C)[C@H]2C1
REMARK SMILES IDX 6 1 5 2 10 3 32 4 4 5 11 6 14 7 33 8 2 9 12 10 15 11 1 12
REMARK SMILES IDX 3 13 13 14 30 15 16 16 17 17 29 18 31 19 18 20 28 21 27 22
REMARK SMILES IDX 20 23 19 24 24 25 21 26 22 27 25 28 26 29 7 30 8 31 9 32
REMARK SMILES IDX 23 33
REMARK H PARENT 23 34
REMARK Flexibility Score: inf
ROOT
ATOM      1  C   UNL     1      91.353  85.022  81.172  1.00  0.00     0.017 C 
ATOM      2  C   UNL     1      92.228  83.879  80.580  1.00  0.00     0.014 C 
ATOM      3  C   UNL     1      90.886  84.575  82.588  1.00  0.00     0.014 C 
ATOM      4  C   UNL     1      92.172  86.385  81.285  1.00  0.00     0.028 C 
ATOM      5  C   UNL     1      92.917  84.297  79.270  1.00  0.00     0.007 C 
ATOM      6  C   UNL     1      90.039  85.644  83.323  1.00  0.00     0.013 C 
ATOM      7  C   UNL     1      92.020  87.020  82.698  1.00  0.00    -0.064 C 
ATOM      8  C   UNL     1      93.651  86.223  80.823  1.00  0.00     0.015 C 
ATOM      9  C   UNL     1      93.817  85.565  79.423  1.00  0.00    -0.035 C 
ATOM     10  C   UNL     1      90.590  87.127  83.251  1.00  0.00    -0.006 C 
ATOM     11  C   UNL     1      93.084  87.168  83.514  1.00  0.00    -0.027 C 
ATOM     12  C   UNL     1      93.484  86.591  78.315  1.00  0.00     0.011 C 
ATOM     13  C   UNL     1      95.301  85.162  79.258  1.00  0.00     0.011 C 
ATOM     14  C   UNL     1      89.740  87.936  82.213  1.00  0.00     0.017 C 
ATOM     15  C   UNL     1      90.492  87.870  84.687  1.00  0.00    -0.020 C 
ATOM     16  C   UNL     1      93.012  87.601  84.937  1.00  0.00     0.032 C 
ATOM     17  C   UNL     1      91.641  87.386  85.641  1.00  0.00     0.006 C 
ATOM     18  C   UNL     1      90.649  89.426  84.543  1.00  0.00     0.008 C 
ATOM     19  C   UNL     1      89.072  87.555  85.289  1.00  0.00     0.012 C 
ATOM     20  C   UNL     1      91.586  88.017  87.137  1.00  0.00    -0.025 C 
ATOM     21  C   UNL     1      91.160  90.191  85.797  1.00  0.00     0.005 C 
ATOM     22  C   UNL     1      90.912  89.466  87.148  1.00  0.00     0.003 C 
ATOM     23  C   UNL     1      93.031  88.087  87.755  1.00  0.00     0.010 C 
ATOM     24  C   UNL     1      90.753  87.038  88.035  1.00  0.00     0.012 C 
ATOM     25  C   UNL     1      91.187  90.368  88.441  1.00  0.00    -0.006 C 
ATOM     26  C   UNL     1      93.147  88.853  89.069  1.00  0.00     0.033 C 
ATOM     27  C   UNL     1      92.676  90.295  88.881  1.00  0.00     0.120 C 
ATOM     28  C   UNL     1      90.250  89.936  89.609  1.00  0.00     0.014 C 
ATOM     29  C   UNL     1      90.848  91.863  88.185  1.00  0.00     0.014 C 
ENDROOT
BRANCH   1  30
ATOM     30  C   UNL     1      90.134  85.155  80.258  1.00  0.00     0.048 C 
ATOM     31  O   UNL     1      89.242  84.264  80.246  1.00  0.00    -0.550 OA
ATOM     32  O   UNL     1      90.027  86.204  79.352  1.00  0.00    -0.550 OA
ENDBRANCH   1  30
BRANCH  27  33
ATOM     33  O   UNL     1      92.873  91.005  90.079  1.00  0.00    -0.393 OA
ATOM     34  H   UNL     1      93.826  91.286  90.098  1.00  0.00     0.210 HD
ENDBRANCH  27  33
TORSDOF 2
ENDMDL
MODEL 6
REMARK VINA RESULT:    -7.058      6.598     11.272
REMARK INTER + INTRA:          -7.909
REMARK INTER:                  -7.667
REMARK INTRA:                  -0.242
REMARK UNBOUND:                -0.232
REMARK SMILES CC1(C)CC[C@@]2(C(=O)[O-])CC[C@]3(C)C(=CC[C@H]4[C@@]5(C)CC[C@H](O)C(C)(C)[C@H]5CC[C@]43C)[C@H]2C1
REMARK SMILES IDX 6 1 5 2 10 3 32 4 4 5 11 6 14 7 33 8 2 9 12 10 15 11 1 12
REMARK SMILES IDX 3 13 13 14 30 15 16 16 17 17 29 18 31 19 18 20 28 21 27 22
REMARK SMILES IDX 20 23 19 24 24 25 21 26 22 27 25 28 26 29 7 30 8 31 9 32
REMARK SMILES IDX 23 33
REMARK H PARENT 23 34
REMARK Flexibility Score: inf
ROOT
ATOM      1  C   UNL     1      98.208  85.661  82.585  1.00  0.00     0.017 C 
ATOM      2  C   UNL     1      97.819  84.576  81.541  1.00  0.00     0.014 C 
ATOM      3  C   UNL     1      99.743  85.563  82.820  1.00  0.00     0.014 C 
ATOM      4  C   UNL     1      97.840  87.125  82.071  1.00  0.00     0.028 C 
ATOM      5  C   UNL     1      96.361  84.718  81.074  1.00  0.00     0.007 C 
ATOM      6  C   UNL     1     100.284  86.625  83.810  1.00  0.00     0.013 C 
ATOM      7  C   UNL     1      99.041  88.100  82.233  1.00  0.00    -0.064 C 
ATOM      8  C   UNL     1      97.229  87.109  80.638  1.00  0.00     0.015 C 
ATOM      9  C   UNL     1      96.044  86.118  80.457  1.00  0.00    -0.035 C 
ATOM     10  C   UNL     1      99.746  88.100  83.599  1.00  0.00    -0.006 C 
ATOM     11  C   UNL     1      99.628  88.667  81.159  1.00  0.00    -0.027 C 
ATOM     12  C   UNL     1      94.764  86.705  81.097  1.00  0.00     0.011 C 
ATOM     13  C   UNL     1      95.779  85.961  78.941  1.00  0.00     0.011 C 
ATOM     14  C   UNL     1      98.664  88.408  84.689  1.00  0.00     0.017 C 
ATOM     15  C   UNL     1     100.934  89.193  83.729  1.00  0.00    -0.020 C 
ATOM     16  C   UNL     1     100.882  89.470  81.198  1.00  0.00     0.032 C 
ATOM     17  C   UNL     1     101.807  89.221  82.424  1.00  0.00     0.006 C 
ATOM     18  C   UNL     1     100.364  90.643  83.922  1.00  0.00     0.008 C 
ATOM     19  C   UNL     1     101.795  88.811  84.991  1.00  0.00     0.012 C 
ATOM     20  C   UNL     1     103.076  90.233  82.483  1.00  0.00    -0.025 C 
ATOM     21  C   UNL     1     101.286  91.815  83.481  1.00  0.00     0.005 C 
ATOM     22  C   UNL     1     102.801  91.476  83.449  1.00  0.00     0.003 C 
ATOM     23  C   UNL     1     103.440  90.739  81.039  1.00  0.00     0.010 C 
ATOM     24  C   UNL     1     104.310  89.419  83.005  1.00  0.00     0.012 C 
ATOM     25  C   UNL     1     103.758  92.746  83.263  1.00  0.00    -0.006 C 
ATOM     26  C   UNL     1     104.475  91.858  80.976  1.00  0.00     0.033 C 
ATOM     27  C   UNL     1     103.983  93.074  81.761  1.00  0.00     0.120 C 
ATOM     28  C   UNL     1     105.120  92.505  83.980  1.00  0.00     0.014 C 
ATOM     29  C   UNL     1     103.168  94.017  83.935  1.00  0.00     0.014 C 
ENDROOT
BRANCH   1  30
ATOM     30  C   UNL     1      97.475  85.303  83.880  1.00  0.00     0.048 C 
ATOM     31  O   UNL     1      97.917  84.395  84.634  1.00  0.00    -0.550 OA
ATOM     32  O   UNL     1      96.261  85.895  84.205  1.00  0.00    -0.550 OA
ENDBRANCH   1  30
BRANCH  27  33
ATOM     33  O   UNL     1     104.911  94.122  81.617  1.00  0.00    -0.393 OA
ATOM     34  H   UNL     1     104.578  94.707  80.886  1.00  0.00     0.210 HD
ENDBRANCH  27  33
TORSDOF 2
ENDMDL
MODEL 7
REMARK VINA RESULT:    -6.983      3.837      7.227
REMARK INTER + INTRA:          -7.827
REMARK INTER:                  -7.834
REMARK INTRA:                   0.006
REMARK UNBOUND:                -0.232
REMARK SMILES CC1(C)CC[C@@]2(C(=O)[O-])CC[C@]3(C)C(=CC[C@H]4[C@@]5(C)CC[C@H](O)C(C)(C)[C@H]5CC[C@]43C)[C@H]2C1
REMARK SMILES IDX 6 1 5 2 10 3 32 4 4 5 11 6 14 7 33 8 2 9 12 10 15 11 1 12
REMARK SMILES IDX 3 13 13 14 30 15 16 16 17 17 29 18 31 19 18 20 28 21 27 22
REMARK SMILES IDX 20 23 19 24 24 25 21 26 22 27 25 28 26 29 7 30 8 31 9 32
REMARK SMILES IDX 23 33
REMARK H PARENT 23 34
REMARK Flexibility Score: inf
ROOT
ATOM      1  C   UNL     1      93.605  85.495  79.903  1.00  0.00     0.017 C 
ATOM      2  C   UNL     1      92.279  86.083  79.341  1.00  0.00     0.014 C 
ATOM      3  C   UNL     1      94.783  86.205  79.173  1.00  0.00     0.014 C 
ATOM      4  C   UNL     1      93.731  85.731  81.474  1.00  0.00     0.028 C 
ATOM      5  C   UNL     1      91.053  85.606  80.137  1.00  0.00     0.007 C 
ATOM      6  C   UNL     1      96.179  85.750  79.669  1.00  0.00     0.013 C 
ATOM      7  C   UNL     1      95.116  86.332  81.847  1.00  0.00    -0.064 C 
ATOM      8  C   UNL     1      92.522  86.530  82.047  1.00  0.00     0.015 C 
ATOM      9  C   UNL     1      91.130  85.953  81.659  1.00  0.00    -0.035 C 
ATOM     10  C   UNL     1      96.349  85.643  81.241  1.00  0.00    -0.006 C 
ATOM     11  C   UNL     1      95.219  87.560  82.396  1.00  0.00    -0.027 C 
ATOM     12  C   UNL     1      90.824  84.698  82.508  1.00  0.00     0.011 C 
ATOM     13  C   UNL     1      90.061  87.019  81.995  1.00  0.00     0.011 C 
ATOM     14  C   UNL     1      96.298  84.133  81.655  1.00  0.00     0.017 C 
ATOM     15  C   UNL     1      97.762  86.264  81.732  1.00  0.00    -0.020 C 
ATOM     16  C   UNL     1      96.499  88.286  82.626  1.00  0.00     0.032 C 
ATOM     17  C   UNL     1      97.701  87.833  81.749  1.00  0.00     0.006 C 
ATOM     18  C   UNL     1      98.114  85.809  83.193  1.00  0.00     0.008 C 
ATOM     19  C   UNL     1      98.877  85.741  80.752  1.00  0.00     0.012 C 
ATOM     20  C   UNL     1      99.097  88.557  82.155  1.00  0.00    -0.025 C 
ATOM     21  C   UNL     1      99.067  86.738  83.997  1.00  0.00     0.005 C 
ATOM     22  C   UNL     1      99.979  87.646  83.128  1.00  0.00     0.003 C 
ATOM     23  C   UNL     1      98.814  89.952  82.827  1.00  0.00     0.010 C 
ATOM     24  C   UNL     1      99.888  88.840  80.832  1.00  0.00     0.012 C 
ATOM     25  C   UNL     1     101.137  88.392  83.943  1.00  0.00    -0.006 C 
ATOM     26  C   UNL     1     100.027  90.640  83.447  1.00  0.00     0.033 C 
ATOM     27  C   UNL     1     100.645  89.747  84.523  1.00  0.00     0.120 C 
ATOM     28  C   UNL     1     102.384  88.607  83.033  1.00  0.00     0.014 C 
ATOM     29  C   UNL     1     101.651  87.534  85.132  1.00  0.00     0.014 C 
ENDROOT
BRANCH   1  30
ATOM     30  C   UNL     1      93.611  84.008  79.539  1.00  0.00     0.048 C 
ATOM     31  O   UNL     1      93.048  83.164  80.287  1.00  0.00    -0.550 OA
ATOM     32  O   UNL     1      94.317  83.542  78.437  1.00  0.00    -0.550 OA
ENDBRANCH   1  30
BRANCH  27  33
ATOM     33  O   UNL     1     101.705  90.436  85.141  1.00  0.00    -0.393 OA
ATOM     34  H   UNL     1     102.145  90.984  84.439  1.00  0.00     0.210 HD
ENDBRANCH  27  33
TORSDOF 2
ENDMDL
MODEL 8
REMARK VINA RESULT:    -6.900      2.223      8.354
REMARK INTER + INTRA:          -7.737
REMARK INTER:                  -7.451
REMARK INTRA:                  -0.286
REMARK UNBOUND:                -0.232
REMARK SMILES CC1(C)CC[C@@]2(C(=O)[O-])CC[C@]3(C)C(=CC[C@H]4[C@@]5(C)CC[C@H](O)C(C)(C)[C@H]5CC[C@]43C)[C@H]2C1
REMARK SMILES IDX 6 1 5 2 10 3 32 4 4 5 11 6 14 7 33 8 2 9 12 10 15 11 1 12
REMARK SMILES IDX 3 13 13 14 30 15 16 16 17 17 29 18 31 19 18 20 28 21 27 22
REMARK SMILES IDX 20 23 19 24 24 25 21 26 22 27 25 28 26 29 7 30 8 31 9 32
REMARK SMILES IDX 23 33
REMARK H PARENT 23 34
REMARK Flexibility Score: inf
ROOT
ATOM      1  C   UNL     1      94.181  87.782  83.270  1.00  0.00     0.017 C 
ATOM      2  C   UNL     1      95.295  88.805  82.904  1.00  0.00     0.014 C 
ATOM      3  C   UNL     1      92.810  88.507  83.138  1.00  0.00     0.014 C 
ATOM      4  C   UNL     1      94.211  86.515  82.303  1.00  0.00     0.028 C 
ATOM      5  C   UNL     1      96.678  88.141  82.797  1.00  0.00     0.007 C 
ATOM      6  C   UNL     1      91.597  87.588  83.428  1.00  0.00     0.013 C 
ATOM      7  C   UNL     1      92.794  86.199  81.742  1.00  0.00    -0.064 C 
ATOM      8  C   UNL     1      95.310  86.638  81.206  1.00  0.00     0.015 C 
ATOM      9  C   UNL     1      96.726  86.979  81.753  1.00  0.00    -0.035 C 
ATOM     10  C   UNL     1      91.647  86.152  82.762  1.00  0.00    -0.006 C 
ATOM     11  C   UNL     1      92.534  86.282  80.420  1.00  0.00    -0.027 C 
ATOM     12  C   UNL     1      97.365  85.721  82.386  1.00  0.00     0.011 C 
ATOM     13  C   UNL     1      97.611  87.403  80.558  1.00  0.00     0.011 C 
ATOM     14  C   UNL     1      92.029  85.098  83.856  1.00  0.00     0.017 C 
ATOM     15  C   UNL     1      90.215  85.739  82.127  1.00  0.00    -0.020 C 
ATOM     16  C   UNL     1      91.180  86.169  79.810  1.00  0.00     0.032 C 
ATOM     17  C   UNL     1      89.983  86.471  80.758  1.00  0.00     0.006 C 
ATOM     18  C   UNL     1      90.138  84.198  81.835  1.00  0.00     0.008 C 
ATOM     19  C   UNL     1      89.104  86.114  83.178  1.00  0.00     0.012 C 
ATOM     20  C   UNL     1      88.538  86.183  80.075  1.00  0.00    -0.025 C 
ATOM     21  C   UNL     1      89.136  83.751  80.733  1.00  0.00     0.005 C 
ATOM     22  C   UNL     1      87.969  84.743  80.471  1.00  0.00     0.003 C 
ATOM     23  C   UNL     1      88.637  86.315  78.510  1.00  0.00     0.010 C 
ATOM     24  C   UNL     1      87.550  87.296  80.565  1.00  0.00     0.012 C 
ATOM     25  C   UNL     1      86.803  84.160  79.543  1.00  0.00    -0.006 C 
ATOM     26  C   UNL     1      87.404  85.862  77.734  1.00  0.00     0.033 C 
ATOM     27  C   UNL     1      87.102  84.394  78.036  1.00  0.00     0.120 C 
ATOM     28  C   UNL     1      85.435  84.794  79.934  1.00  0.00     0.014 C 
ATOM     29  C   UNL     1      86.611  82.631  79.749  1.00  0.00     0.014 C 
ENDROOT
BRANCH   1  30
ATOM     30  C   UNL     1      94.408  87.396  84.734  1.00  0.00     0.048 C 
ATOM     31  O   UNL     1      94.185  88.226  85.656  1.00  0.00    -0.550 OA
ATOM     32  O   UNL     1      94.954  86.165  85.075  1.00  0.00    -0.550 OA
ENDBRANCH   1  30
BRANCH  27  33
ATOM     33  O   UNL     1      86.018  83.974  77.245  1.00  0.00    -0.393 OA
ATOM     34  H   UNL     1      86.380  83.349  76.562  1.00  0.00     0.210 HD
ENDBRANCH  27  33
TORSDOF 2
ENDMDL
MODEL 9
REMARK VINA RESULT:    -6.771      4.467      7.924
REMARK INTER + INTRA:          -7.597
REMARK INTER:                  -7.315
REMARK INTRA:                  -0.282
REMARK UNBOUND:                -0.232
REMARK SMILES CC1(C)CC[C@@]2(C(=O)[O-])CC[C@]3(C)C(=CC[C@H]4[C@@]5(C)CC[C@H](O)C(C)(C)[C@H]5CC[C@]43C)[C@H]2C1
REMARK SMILES IDX 6 1 5 2 10 3 32 4 4 5 11 6 14 7 33 8 2 9 12 10 15 11 1 12
REMARK SMILES IDX 3 13 13 14 30 15 16 16 17 17 29 18 31 19 18 20 28 21 27 22
REMARK SMILES IDX 20 23 19 24 24 25 21 26 22 27 25 28 26 29 7 30 8 31 9 32
REMARK SMILES IDX 23 33
REMARK H PARENT 23 34
REMARK Flexibility Score: inf
ROOT
ATOM      1  C   UNL     1      92.360  85.960  82.954  1.00  0.00     0.017 C 
ATOM      2  C   UNL     1      91.612  84.777  82.276  1.00  0.00     0.014 C 
ATOM      3  C   UNL     1      92.588  85.581  84.447  1.00  0.00     0.014 C 
ATOM      4  C   UNL     1      93.764  86.242  82.254  1.00  0.00     0.028 C 
ATOM      5  C   UNL     1      91.518  84.951  80.750  1.00  0.00     0.007 C 
ATOM      6  C   UNL     1      93.372  86.655  85.242  1.00  0.00     0.013 C 
ATOM      7  C   UNL     1      94.908  86.349  83.304  1.00  0.00    -0.064 C 
ATOM      8  C   UNL     1      94.059  85.237  81.101  1.00  0.00     0.015 C 
ATOM      9  C   UNL     1      92.912  85.102  80.059  1.00  0.00    -0.035 C 
ATOM     10  C   UNL     1      94.645  87.257  84.515  1.00  0.00    -0.006 C 
ATOM     11  C   UNL     1      95.924  85.462  83.320  1.00  0.00    -0.027 C 
ATOM     12  C   UNL     1      92.908  86.328  79.117  1.00  0.00     0.011 C 
ATOM     13  C   UNL     1      93.194  83.849  79.197  1.00  0.00     0.011 C 
ATOM     14  C   UNL     1      94.292  88.683  83.970  1.00  0.00     0.017 C 
ATOM     15  C   UNL     1      95.902  87.389  85.527  1.00  0.00    -0.020 C 
ATOM     16  C   UNL     1      96.964  85.378  84.383  1.00  0.00     0.032 C 
ATOM     17  C   UNL     1      96.576  85.990  85.760  1.00  0.00     0.006 C 
ATOM     18  C   UNL     1      97.013  88.335  84.946  1.00  0.00     0.008 C 
ATOM     19  C   UNL     1      95.366  88.002  86.875  1.00  0.00     0.012 C 
ATOM     20  C   UNL     1      97.805  86.002  86.823  1.00  0.00    -0.025 C 
ATOM     21  C   UNL     1      98.460  88.109  85.468  1.00  0.00     0.005 C 
ATOM     22  C   UNL     1      98.551  87.415  86.855  1.00  0.00     0.003 C 
ATOM     23  C   UNL     1      98.829  84.855  86.488  1.00  0.00     0.010 C 
ATOM     24  C   UNL     1      97.211  85.684  88.238  1.00  0.00     0.012 C 
ATOM     25  C   UNL     1     100.013  87.431  87.506  1.00  0.00    -0.006 C 
ATOM     26  C   UNL     1     100.134  84.889  87.278  1.00  0.00     0.033 C 
ATOM     27  C   UNL     1     100.858  86.213  87.040  1.00  0.00     0.120 C 
ATOM     28  C   UNL     1      99.910  87.464  89.060  1.00  0.00     0.014 C 
ATOM     29  C   UNL     1     100.799  88.717  87.128  1.00  0.00     0.014 C 
ENDROOT
BRANCH   1  30
ATOM     30  C   UNL     1      91.424  87.168  82.879  1.00  0.00     0.048 C 
ATOM     31  O   UNL     1      90.409  87.239  83.623  1.00  0.00    -0.550 OA
ATOM     32  O   UNL     1      91.612  88.164  81.927  1.00  0.00    -0.550 OA
ENDBRANCH   1  30
BRANCH  27  33
ATOM     33  O   UNL     1     102.098  86.187  87.706  1.00  0.00    -0.393 OA
ATOM     34  H   UNL     1     101.928  86.456  88.647  1.00  0.00     0.210 HD
ENDBRANCH  27  33
TORSDOF 2
ENDMDL
