MODEL 1
REMARK VINA RESULT:    -4.526      0.000      0.000
REMARK INTER + INTRA:          -5.209
REMARK INTER:                  -4.922
REMARK INTRA:                  -0.286
REMARK UNBOUND:                -0.286
REMARK SMILES CC(=O)c1cc(C)ccc1O
REMARK SMILES IDX 7 1 6 2 5 3 4 4 10 5 9 6 8 7 2 8 3 9 1 10 11 11
REMARK H PARENT 11 12
REMARK Flexibility Score: inf
ROOT
ATOM      1  C   UNL     1     -17.284  -1.969 -17.654  1.00  0.00     0.044 C 
ATOM      2  C   UNL     1     -17.345  -0.665 -16.916  1.00  0.00    -0.050 A 
ATOM      3  C   UNL     1     -16.736   0.480 -17.454  1.00  0.00     0.019 A 
ATOM      4  C   UNL     1     -16.756   1.707 -16.758  1.00  0.00     0.059 A 
ATOM      5  C   UNL     1     -17.389   1.761 -15.495  1.00  0.00     0.126 A 
ATOM      6  C   UNL     1     -17.982   0.609 -14.957  1.00  0.00     0.047 A 
ATOM      7  C   UNL     1     -17.954  -0.595 -15.659  1.00  0.00     0.007 A 
ENDROOT
BRANCH   4   8
ATOM      8  C   UNL     1     -16.119   2.917 -17.355  1.00  0.00     0.163 C 
ATOM      9  O   UNL     1     -16.824   3.918 -17.659  1.00  0.00    -0.294 OA
ATOM     10  C   UNL     1     -14.648   2.975 -17.642  1.00  0.00     0.093 C 
ENDBRANCH   4   8
BRANCH   5  11
ATOM     11  O   UNL     1     -17.420   2.949 -14.763  1.00  0.00    -0.507 OA
ATOM     12  H   UNL     1     -16.973   3.029 -13.857  1.00  0.00     0.293 HD
ENDBRANCH   5  11
TORSDOF 2
ENDMDL
MODEL 2
REMARK VINA RESULT:    -4.463      3.478      5.113
REMARK INTER + INTRA:          -5.141
REMARK INTER:                  -4.839
REMARK INTRA:                  -0.302
REMARK UNBOUND:                -0.286
REMARK SMILES CC(=O)c1cc(C)ccc1O
REMARK SMILES IDX 7 1 6 2 5 3 4 4 10 5 9 6 8 7 2 8 3 9 1 10 11 11
REMARK H PARENT 11 12
REMARK Flexibility Score: inf
ROOT
ATOM      1  C   UNL     1     -18.902  -2.310 -14.436  1.00  0.00     0.044 C 
ATOM      2  C   UNL     1     -17.859  -2.035 -15.477  1.00  0.00    -0.050 A 
ATOM      3  C   UNL     1     -16.806  -2.940 -15.678  1.00  0.00     0.019 A 
ATOM      4  C   UNL     1     -15.798  -2.682 -16.631  1.00  0.00     0.059 A 
ATOM      5  C   UNL     1     -15.858  -1.479 -17.374  1.00  0.00     0.126 A 
ATOM      6  C   UNL     1     -16.905  -0.572 -17.156  1.00  0.00     0.047 A 
ATOM      7  C   UNL     1     -17.893  -0.844 -16.211  1.00  0.00     0.007 A 
ENDROOT
BRANCH   4   8
ATOM      8  C   UNL     1     -14.697  -3.665 -16.844  1.00  0.00     0.163 C 
ATOM      9  O   UNL     1     -13.497  -3.320 -16.667  1.00  0.00    -0.294 OA
ATOM     10  C   UNL     1     -14.968  -5.068 -17.302  1.00  0.00     0.093 C 
ENDBRANCH   4   8
BRANCH   5  11
ATOM     11  O   UNL     1     -14.876  -1.174 -18.316  1.00  0.00    -0.507 OA
ATOM     12  H   UNL     1     -13.889  -1.201 -18.086  1.00  0.00     0.293 HD
ENDBRANCH   5  11
TORSDOF 2
ENDMDL
MODEL 3
REMARK VINA RESULT:    -4.291      2.360      3.693
REMARK INTER + INTRA:          -4.953
REMARK INTER:                  -4.659
REMARK INTRA:                  -0.294
REMARK UNBOUND:                -0.286
REMARK SMILES CC(=O)c1cc(C)ccc1O
REMARK SMILES IDX 7 1 6 2 5 3 4 4 10 5 9 6 8 7 2 8 3 9 1 10 11 11
REMARK H PARENT 11 12
REMARK Flexibility Score: inf
ROOT
ATOM      1  C   UNL     1     -16.640   4.020 -17.054  1.00  0.00     0.044 C 
ATOM      2  C   UNL     1     -16.998   2.661 -16.529  1.00  0.00    -0.050 A 
ATOM      3  C   UNL     1     -16.771   1.519 -17.313  1.00  0.00     0.019 A 
ATOM      4  C   UNL     1     -17.131   0.237 -16.848  1.00  0.00     0.059 A 
ATOM      5  C   UNL     1     -17.744   0.122 -15.579  1.00  0.00     0.126 A 
ATOM      6  C   UNL     1     -17.982   1.269 -14.808  1.00  0.00     0.047 A 
ATOM      7  C   UNL     1     -17.618   2.529 -15.282  1.00  0.00     0.007 A 
ENDROOT
BRANCH   4   8
ATOM      8  C   UNL     1     -16.864  -0.967 -17.688  1.00  0.00     0.163 C 
ATOM      9  O   UNL     1     -17.823  -1.672 -18.106  1.00  0.00    -0.294 OA
ATOM     10  C   UNL     1     -15.469  -1.397 -18.032  1.00  0.00     0.093 C 
ENDBRANCH   4   8
BRANCH   5  11
ATOM     11  O   UNL     1     -18.131  -1.124 -15.085  1.00  0.00    -0.507 OA
ATOM     12  H   UNL     1     -17.780  -1.481 -14.203  1.00  0.00     0.293 HD
ENDBRANCH   5  11
TORSDOF 2
ENDMDL
MODEL 4
REMARK VINA RESULT:    -4.243      2.717      3.824
REMARK INTER + INTRA:          -4.902
REMARK INTER:                  -4.643
REMARK INTRA:                  -0.259
REMARK UNBOUND:                -0.286
REMARK SMILES CC(=O)c1cc(C)ccc1O
REMARK SMILES IDX 7 1 6 2 5 3 4 4 10 5 9 6 8 7 2 8 3 9 1 10 11 11
REMARK H PARENT 11 12
REMARK Flexibility Score: inf
ROOT
ATOM      1  C   UNL     1     -18.271  -2.386 -13.881  1.00  0.00     0.044 C 
ATOM      2  C   UNL     1     -18.215  -2.180 -15.366  1.00  0.00    -0.050 A 
ATOM      3  C   UNL     1     -17.292  -1.280 -15.919  1.00  0.00     0.019 A 
ATOM      4  C   UNL     1     -17.248  -1.050 -17.311  1.00  0.00     0.059 A 
ATOM      5  C   UNL     1     -18.166  -1.734 -18.142  1.00  0.00     0.126 A 
ATOM      6  C   UNL     1     -19.095  -2.621 -17.579  1.00  0.00     0.047 A 
ATOM      7  C   UNL     1     -19.124  -2.837 -16.202  1.00  0.00     0.007 A 
ENDROOT
BRANCH   4   8
ATOM      8  C   UNL     1     -16.248  -0.102 -17.883  1.00  0.00     0.163 C 
ATOM      9  O   UNL     1     -15.285  -0.538 -18.572  1.00  0.00    -0.294 OA
ATOM     10  C   UNL     1     -16.327   1.375 -17.634  1.00  0.00     0.093 C 
ENDBRANCH   4   8
BRANCH   5  11
ATOM     11  O   UNL     1     -18.170  -1.527 -19.521  1.00  0.00    -0.507 OA
ATOM     12  H   UNL     1     -17.739  -2.185 -20.161  1.00  0.00     0.293 HD
ENDBRANCH   5  11
TORSDOF 2
ENDMDL
MODEL 5
REMARK VINA RESULT:    -4.234      4.238      5.410
REMARK INTER + INTRA:          -4.892
REMARK INTER:                  -4.584
REMARK INTRA:                  -0.308
REMARK UNBOUND:                -0.286
REMARK SMILES CC(=O)c1cc(C)ccc1O
REMARK SMILES IDX 7 1 6 2 5 3 4 4 10 5 9 6 8 7 2 8 3 9 1 10 11 11
REMARK H PARENT 11 12
REMARK Flexibility Score: inf
ROOT
ATOM      1  C   UNL     1     -17.867   0.382 -15.075  1.00  0.00     0.044 C 
ATOM      2  C   UNL     1     -17.772  -1.108 -15.225  1.00  0.00    -0.050 A 
ATOM      3  C   UNL     1     -16.753  -1.675 -16.004  1.00  0.00     0.019 A 
ATOM      4  C   UNL     1     -16.668  -3.072 -16.182  1.00  0.00     0.059 A 
ATOM      5  C   UNL     1     -17.644  -3.895 -15.572  1.00  0.00     0.126 A 
ATOM      6  C   UNL     1     -18.669  -3.319 -14.807  1.00  0.00     0.047 A 
ATOM      7  C   UNL     1     -18.736  -1.936 -14.641  1.00  0.00     0.007 A 
ENDROOT
BRANCH   4   8
ATOM      8  C   UNL     1     -15.566  -3.659 -16.999  1.00  0.00     0.163 C 
ATOM      9  O   UNL     1     -15.832  -4.449 -17.945  1.00  0.00    -0.294 OA
ATOM     10  C   UNL     1     -14.124  -3.364 -16.709  1.00  0.00     0.093 C 
ENDBRANCH   4   8
BRANCH   5  11
ATOM     11  O   UNL     1     -17.610  -5.280 -15.733  1.00  0.00    -0.507 OA
ATOM     12  H   UNL     1     -17.723  -5.912 -14.947  1.00  0.00     0.293 HD
ENDBRANCH   5  11
TORSDOF 2
ENDMDL
MODEL 6
REMARK VINA RESULT:    -4.189      4.246      4.961
REMARK INTER + INTRA:          -4.842
REMARK INTER:                  -4.563
REMARK INTRA:                  -0.280
REMARK UNBOUND:                -0.286
REMARK SMILES CC(=O)c1cc(C)ccc1O
REMARK SMILES IDX 7 1 6 2 5 3 4 4 10 5 9 6 8 7 2 8 3 9 1 10 11 11
REMARK H PARENT 11 12
REMARK Flexibility Score: inf
ROOT
ATOM      1  C   UNL     1     -18.950  -1.630 -19.133  1.00  0.00     0.044 C 
ATOM      2  C   UNL     1     -18.184  -1.899 -17.872  1.00  0.00    -0.050 A 
ATOM      3  C   UNL     1     -16.987  -2.630 -17.916  1.00  0.00     0.019 A 
ATOM      4  C   UNL     1     -16.270  -2.920 -16.736  1.00  0.00     0.059 A 
ATOM      5  C   UNL     1     -16.790  -2.474 -15.499  1.00  0.00     0.126 A 
ATOM      6  C   UNL     1     -17.996  -1.758 -15.461  1.00  0.00     0.047 A 
ATOM      7  C   UNL     1     -18.690  -1.479 -16.637  1.00  0.00     0.007 A 
ENDROOT
BRANCH   4   8
ATOM      8  C   UNL     1     -14.989  -3.682 -16.805  1.00  0.00     0.163 C 
ATOM      9  O   UNL     1     -13.904  -3.125 -16.487  1.00  0.00    -0.294 OA
ATOM     10  C   UNL     1     -14.941  -5.105 -17.279  1.00  0.00     0.093 C 
ENDBRANCH   4   8
BRANCH   5  11
ATOM     11  O   UNL     1     -16.125  -2.751 -14.304  1.00  0.00    -0.507 OA
ATOM     12  H   UNL     1     -15.128  -2.937 -14.279  1.00  0.00     0.293 HD
ENDBRANCH   5  11
TORSDOF 2
ENDMDL
MODEL 7
REMARK VINA RESULT:    -4.048      3.009      3.838
REMARK INTER + INTRA:          -4.689
REMARK INTER:                  -4.412
REMARK INTRA:                  -0.277
REMARK UNBOUND:                -0.286
REMARK SMILES CC(=O)c1cc(C)ccc1O
REMARK SMILES IDX 7 1 6 2 5 3 4 4 10 5 9 6 8 7 2 8 3 9 1 10 11 11
REMARK H PARENT 11 12
REMARK Flexibility Score: inf
ROOT
ATOM      1  C   UNL     1     -18.357  -5.403 -15.462  1.00  0.00     0.044 C 
ATOM      2  C   UNL     1     -18.185  -3.928 -15.669  1.00  0.00    -0.050 A 
ATOM      3  C   UNL     1     -17.228  -3.449 -16.577  1.00  0.00     0.019 A 
ATOM      4  C   UNL     1     -17.032  -2.064 -16.761  1.00  0.00     0.059 A 
ATOM      5  C   UNL     1     -17.807  -1.161 -15.999  1.00  0.00     0.126 A 
ATOM      6  C   UNL     1     -18.751  -1.647 -15.082  1.00  0.00     0.047 A 
ATOM      7  C   UNL     1     -18.933  -3.019 -14.913  1.00  0.00     0.007 A 
ENDROOT
BRANCH   4   8
ATOM      8  C   UNL     1     -16.022  -1.575 -17.745  1.00  0.00     0.163 C 
ATOM      9  O   UNL     1     -16.225  -0.505 -18.381  1.00  0.00    -0.294 OA
ATOM     10  C   UNL     1     -14.766  -2.342 -18.036  1.00  0.00     0.093 C 
ENDBRANCH   4   8
BRANCH   5  11
ATOM     11  O   UNL     1     -17.637   0.217 -16.135  1.00  0.00    -0.507 OA
ATOM     12  H   UNL     1     -18.410   0.864 -16.028  1.00  0.00     0.293 HD
ENDBRANCH   5  11
TORSDOF 2
ENDMDL
MODEL 8
REMARK VINA RESULT:    -4.034      4.052      5.758
REMARK INTER + INTRA:          -4.674
REMARK INTER:                  -4.382
REMARK INTRA:                  -0.292
REMARK UNBOUND:                -0.286
REMARK SMILES CC(=O)c1cc(C)ccc1O
REMARK SMILES IDX 7 1 6 2 5 3 4 4 10 5 9 6 8 7 2 8 3 9 1 10 11 11
REMARK H PARENT 11 12
REMARK Flexibility Score: inf
ROOT
ATOM      1  C   UNL     1     -16.244   0.309 -18.073  1.00  0.00     0.044 C 
ATOM      2  C   UNL     1     -16.334  -1.117 -17.618  1.00  0.00    -0.050 A 
ATOM      3  C   UNL     1     -17.375  -1.523 -16.769  1.00  0.00     0.019 A 
ATOM      4  C   UNL     1     -17.457  -2.852 -16.305  1.00  0.00     0.059 A 
ATOM      5  C   UNL     1     -16.457  -3.772 -16.698  1.00  0.00     0.126 A 
ATOM      6  C   UNL     1     -15.411  -3.355 -17.535  1.00  0.00     0.047 A 
ATOM      7  C   UNL     1     -15.346  -2.038 -17.985  1.00  0.00     0.007 A 
ENDROOT
BRANCH   4   8
ATOM      8  C   UNL     1     -18.582  -3.269 -15.417  1.00  0.00     0.163 C 
ATOM      9  O   UNL     1     -19.123  -4.398 -15.569  1.00  0.00    -0.294 OA
ATOM     10  C   UNL     1     -19.125  -2.363 -14.352  1.00  0.00     0.093 C 
ENDBRANCH   4   8
BRANCH   5  11
ATOM     11  O   UNL     1     -16.488  -5.093 -16.252  1.00  0.00    -0.507 OA
ATOM     12  H   UNL     1     -16.435  -5.875 -16.896  1.00  0.00     0.293 HD
ENDBRANCH   5  11
TORSDOF 2
ENDMDL
MODEL 9
REMARK VINA RESULT:    -4.033      3.778      5.543
REMARK INTER + INTRA:          -4.673
REMARK INTER:                  -4.373
REMARK INTRA:                  -0.299
REMARK UNBOUND:                -0.286
REMARK SMILES CC(=O)c1cc(C)ccc1O
REMARK SMILES IDX 7 1 6 2 5 3 4 4 10 5 9 6 8 7 2 8 3 9 1 10 11 11
REMARK H PARENT 11 12
REMARK Flexibility Score: inf
ROOT
ATOM      1  C   UNL     1     -13.497  -3.482 -16.874  1.00  0.00     0.044 C 
ATOM      2  C   UNL     1     -14.981  -3.672 -16.780  1.00  0.00    -0.050 A 
ATOM      3  C   UNL     1     -15.766  -2.759 -16.060  1.00  0.00     0.019 A 
ATOM      4  C   UNL     1     -17.159  -2.940 -15.934  1.00  0.00     0.059 A 
ATOM      5  C   UNL     1     -17.753  -4.075 -16.535  1.00  0.00     0.126 A 
ATOM      6  C   UNL     1     -16.960  -4.992 -17.239  1.00  0.00     0.047 A 
ATOM      7  C   UNL     1     -15.585  -4.796 -17.355  1.00  0.00     0.007 A 
ENDROOT
BRANCH   4   8
ATOM      8  C   UNL     1     -17.980  -1.948 -15.181  1.00  0.00     0.163 C 
ATOM      9  O   UNL     1     -18.872  -2.341 -14.381  1.00  0.00    -0.294 OA
ATOM     10  C   UNL     1     -17.802  -0.470 -15.369  1.00  0.00     0.093 C 
ENDBRANCH   4   8
BRANCH   5  11
ATOM     11  O   UNL     1     -19.125  -4.304 -16.424  1.00  0.00    -0.507 OA
ATOM     12  H   UNL     1     -19.796  -3.544 -16.442  1.00  0.00     0.293 HD
ENDBRANCH   5  11
TORSDOF 2
ENDMDL
