MODEL 1
REMARK VINA RESULT:    -2.125      0.000      0.000
REMARK INTER + INTRA:          -7.608
REMARK INTER:                  -5.603
REMARK INTRA:                  -2.005
REMARK UNBOUND:                -2.005
REMARK SMILES CCCCCCCCCCCCCCCCCCCCCCCCCCCCCC(=O)[O-]
REMARK SMILES IDX 16 1 17 2 18 3 19 4 20 5 21 6 22 7 23 8 24 9 25 10 26 11
REMARK SMILES IDX 27 12 28 13 29 14 30 15 31 16 32 17 15 18 14 19 13 20 12 21
REMARK SMILES IDX 11 22 10 23 9 24 8 25 7 26 6 27 5 28 4 29 3 30 2 31 1 32
REMARK H PARENT
REMARK Flexibility Score: inf
ROOT
ATOM      1  C   UNL     1      44.154  26.527   3.328  1.00  0.00     0.000 C 
ENDROOT
BRANCH   1   2
ATOM      2  C   UNL     1      45.234  25.883   4.213  1.00  0.00     0.000 C 
BRANCH   2   3
ATOM      3  C   UNL     1      45.731  26.758   5.381  1.00  0.00     0.000 C 
BRANCH   3   4
ATOM      4  C   UNL     1      46.887  27.712   5.008  1.00  0.00     0.000 C 
BRANCH   4   5
ATOM      5  C   UNL     1      46.406  29.160   4.807  1.00  0.00     0.000 C 
BRANCH   5   6
ATOM      6  C   UNL     1      46.735  30.070   6.004  1.00  0.00     0.000 C 
BRANCH   6   7
ATOM      7  C   UNL     1      45.682  29.971   7.123  1.00  0.00     0.000 C 
BRANCH   7   8
ATOM      8  C   UNL     1      46.288  30.123   8.528  1.00  0.00     0.000 C 
BRANCH   8   9
ATOM      9  C   UNL     1      45.476  29.385   9.605  1.00  0.00     0.000 C 
BRANCH   9  10
ATOM     10  C   UNL     1      46.226  28.175  10.195  1.00  0.00     0.000 C 
BRANCH  10  11
ATOM     11  C   UNL     1      47.013  27.328   9.171  1.00  0.00     0.000 C 
BRANCH  11  12
ATOM     12  C   UNL     1      46.989  25.806   9.412  1.00  0.00     0.000 C 
BRANCH  12  13
ATOM     13  C   UNL     1      46.832  25.374  10.884  1.00  0.00     0.006 C 
BRANCH  13  14
ATOM     14  C   UNL     1      47.125  23.884  11.133  1.00  0.00     0.053 C 
BRANCH  14  15
ATOM     15  C   UNL     1      46.587  23.402  12.446  1.00  0.00     0.041 C 
ATOM     16  O   UNL     1      45.721  24.077  13.063  1.00  0.00    -0.550 OA
ATOM     17  O   UNL     1      47.068  22.226  13.007  1.00  0.00    -0.550 OA
ENDBRANCH  14  15
ENDBRANCH  13  14
ENDBRANCH  12  13
ENDBRANCH  11  12
ENDBRANCH  10  11
ENDBRANCH   9  10
ENDBRANCH   8   9
ENDBRANCH   7   8
ENDBRANCH   6   7
ENDBRANCH   5   6
ENDBRANCH   4   5
ENDBRANCH   3   4
ENDBRANCH   2   3
ENDBRANCH   1   2
BRANCH   1  18
ATOM     18  C   UNL     1      44.675  27.162   2.024  1.00  0.00     0.000 C 
BRANCH  18  19
ATOM     19  C   UNL     1      44.168  28.601   1.781  1.00  0.00     0.000 C 
BRANCH  19  20
ATOM     20  C   UNL     1      44.793  29.231   0.524  1.00  0.00     0.000 C 
BRANCH  20  21
ATOM     21  C   UNL     1      46.300  29.492   0.674  1.00  0.00     0.000 C 
BRANCH  21  22
ATOM     22  C   UNL     1      47.043  29.481  -0.677  1.00  0.00     0.000 C 
BRANCH  22  23
ATOM     23  C   UNL     1      46.170  29.998  -1.840  1.00  0.00     0.000 C 
BRANCH  23  24
ATOM     24  C   UNL     1      46.358  29.228  -3.161  1.00  0.00    -0.000 C 
BRANCH  24  25
ATOM     25  C   UNL     1      46.637  27.723  -3.008  1.00  0.00    -0.000 C 
BRANCH  25  26
ATOM     26  C   UNL     1      47.017  26.996  -4.313  1.00  0.00    -0.000 C 
BRANCH  26  27
ATOM     27  C   UNL     1      46.350  27.592  -5.573  1.00  0.00    -0.000 C 
BRANCH  27  28
ATOM     28  C   UNL     1      44.822  27.699  -5.430  1.00  0.00    -0.000 C 
BRANCH  28  29
ATOM     29  C   UNL     1      44.132  28.088  -6.749  1.00  0.00    -0.000 C 
BRANCH  29  30
ATOM     30  C   UNL     1      43.520  29.499  -6.691  1.00  0.00    -0.000 C 
BRANCH  30  31
ATOM     31  C   UNL     1      42.008  29.496  -6.968  1.00  0.00    -0.003 C 
ATOM     32  C   UNL     1      41.226  28.618  -5.990  1.00  0.00     0.004 C 
ENDBRANCH  30  31
ENDBRANCH  29  30
ENDBRANCH  28  29
ENDBRANCH  27  28
ENDBRANCH  26  27
ENDBRANCH  25  26
ENDBRANCH  24  25
ENDBRANCH  23  24
ENDBRANCH  22  23
ENDBRANCH  21  22
ENDBRANCH  20  21
ENDBRANCH  19  20
ENDBRANCH  18  19
ENDBRANCH   1  18
TORSDOF 28
ENDMDL
