MODEL 1
REMARK VINA RESULT:    -3.288      0.000      0.000
REMARK INTER + INTRA:          -5.525
REMARK INTER:                  -5.017
REMARK INTRA:                  -0.507
REMARK UNBOUND:                -0.507
REMARK SMILES O=C([O-])CCCCCCCCC(=O)[O-]
REMARK SMILES IDX 7 1 6 2 5 3 4 4 2 5 1 6 3 7 8 8 9 9 10 10 11 11 12 12 13 13
REMARK SMILES IDX 14 14
REMARK H PARENT
REMARK Flexibility Score: inf
ROOT
ATOM      1  C   UNL     1    -101.552 -28.468 -13.892  1.00  0.00     0.000 C 
ENDROOT
BRANCH   1   2
ATOM      2  C   UNL     1    -100.210 -28.022 -13.283  1.00  0.00     0.000 C 
BRANCH   2   3
ATOM      3  C   UNL     1     -99.412 -29.132 -12.568  1.00  0.00     0.006 C 
BRANCH   3   4
ATOM      4  C   UNL     1     -98.159 -29.604 -13.322  1.00  0.00     0.053 C 
BRANCH   4   5
ATOM      5  C   UNL     1     -98.398 -30.886 -14.059  1.00  0.00     0.041 C 
ATOM      6  O   UNL     1     -99.406 -31.593 -13.791  1.00  0.00    -0.550 OA
ATOM      7  O   UNL     1     -97.491 -31.319 -15.018  1.00  0.00    -0.550 OA
ENDBRANCH   4   5
ENDBRANCH   3   4
ENDBRANCH   2   3
ENDBRANCH   1   2
BRANCH   1   8
ATOM      8  C   UNL     1    -101.408 -29.017 -15.321  1.00  0.00     0.000 C 
BRANCH   8   9
ATOM      9  C   UNL     1    -101.879 -28.015 -16.389  1.00  0.00     0.000 C 
BRANCH   9  10
ATOM     10  C   UNL     1    -102.671 -26.841 -15.790  1.00  0.00     0.006 C 
BRANCH  10  11
ATOM     11  C   UNL     1    -103.520 -26.152 -16.864  1.00  0.00     0.053 C 
BRANCH  11  12
ATOM     12  C   UNL     1    -104.584 -25.312 -16.230  1.00  0.00     0.041 C 
ATOM     13  O   UNL     1    -105.798 -25.546 -16.466  1.00  0.00    -0.550 OA
ATOM     14  O   UNL     1    -104.233 -24.241 -15.418  1.00  0.00    -0.550 OA
ENDBRANCH  11  12
ENDBRANCH  10  11
ENDBRANCH   9  10
ENDBRANCH   8   9
ENDBRANCH   1   8
TORSDOF 9
ENDMDL
MODEL 2
REMARK VINA RESULT:    -3.267      3.074      6.643
REMARK INTER + INTRA:          -5.493
REMARK INTER:                  -4.897
REMARK INTRA:                  -0.596
REMARK UNBOUND:                -0.507
REMARK SMILES O=C([O-])CCCCCCCCC(=O)[O-]
REMARK SMILES IDX 7 1 6 2 5 3 4 4 2 5 1 6 3 7 8 8 9 9 10 10 11 11 12 12 13 13
REMARK SMILES IDX 14 14
REMARK H PARENT
REMARK Flexibility Score: inf
ROOT
ATOM      1  C   UNL     1    -101.561 -27.871 -12.776  1.00  0.00     0.000 C 
ENDROOT
BRANCH   1   2
ATOM      2  C   UNL     1    -102.524 -27.578 -13.940  1.00  0.00     0.000 C 
BRANCH   2   3
ATOM      3  C   UNL     1    -101.849 -27.330 -15.305  1.00  0.00     0.006 C 
BRANCH   3   4
ATOM      4  C   UNL     1    -102.202 -28.360 -16.389  1.00  0.00     0.053 C 
BRANCH   4   5
ATOM      5  C   UNL     1    -101.643 -29.714 -16.081  1.00  0.00     0.041 C 
ATOM      6  O   UNL     1    -100.410 -29.936 -16.213  1.00  0.00    -0.550 OA
ATOM      7  O   UNL     1    -102.486 -30.743 -15.680  1.00  0.00    -0.550 OA
ENDBRANCH   4   5
ENDBRANCH   3   4
ENDBRANCH   2   3
ENDBRANCH   1   2
BRANCH   1   8
ATOM      8  C   UNL     1    -100.098 -28.014 -13.229  1.00  0.00     0.000 C 
BRANCH   8   9
ATOM      9  C   UNL     1     -99.435 -29.292 -12.688  1.00  0.00     0.000 C 
BRANCH   9  10
ATOM     10  C   UNL     1     -97.945 -29.385 -13.051  1.00  0.00     0.006 C 
BRANCH  10  11
ATOM     11  C   UNL     1     -97.264 -30.518 -12.277  1.00  0.00     0.053 C 
BRANCH  11  12
ATOM     12  C   UNL     1     -96.670 -29.999 -11.004  1.00  0.00     0.041 C 
ATOM     13  O   UNL     1     -97.371 -29.934  -9.960  1.00  0.00    -0.550 OA
ATOM     14  O   UNL     1     -95.359 -29.542 -10.985  1.00  0.00    -0.550 OA
ENDBRANCH  11  12
ENDBRANCH  10  11
ENDBRANCH   9  10
ENDBRANCH   8   9
ENDBRANCH   1   8
TORSDOF 9
ENDMDL
MODEL 3
REMARK VINA RESULT:    -3.257      2.050      6.818
REMARK INTER + INTRA:          -5.478
REMARK INTER:                  -4.869
REMARK INTRA:                  -0.609
REMARK UNBOUND:                -0.507
REMARK SMILES O=C([O-])CCCCCCCCC(=O)[O-]
REMARK SMILES IDX 7 1 6 2 5 3 4 4 2 5 1 6 3 7 8 8 9 9 10 10 11 11 12 12 13 13
REMARK SMILES IDX 14 14
REMARK H PARENT
REMARK Flexibility Score: inf
ROOT
ATOM      1  C   UNL     1    -101.513 -30.810 -15.977  1.00  0.00     0.000 C 
ENDROOT
BRANCH   1   2
ATOM      2  C   UNL     1    -102.391 -29.591 -16.310  1.00  0.00     0.000 C 
BRANCH   2   3
ATOM      3  C   UNL     1    -101.655 -28.235 -16.323  1.00  0.00     0.006 C 
BRANCH   3   4
ATOM      4  C   UNL     1    -102.049 -27.283 -15.183  1.00  0.00     0.053 C 
BRANCH   4   5
ATOM      5  C   UNL     1    -103.123 -26.325 -15.599  1.00  0.00     0.041 C 
ATOM      6  O   UNL     1    -103.282 -26.041 -16.815  1.00  0.00    -0.550 OA
ATOM      7  O   UNL     1    -103.926 -25.719 -14.640  1.00  0.00    -0.550 OA
ENDBRANCH   4   5
ENDBRANCH   3   4
ENDBRANCH   2   3
ENDBRANCH   1   2
BRANCH   1   8
ATOM      8  C   UNL     1    -100.052 -30.433 -15.677  1.00  0.00     0.000 C 
BRANCH   8   9
ATOM      9  C   UNL     1     -99.662 -30.702 -14.214  1.00  0.00     0.000 C 
BRANCH   9  10
ATOM     10  C   UNL     1     -99.177 -29.437 -13.488  1.00  0.00     0.006 C 
BRANCH  10  11
ATOM     11  C   UNL     1     -97.747 -29.619 -12.969  1.00  0.00     0.053 C 
BRANCH  11  12
ATOM     12  C   UNL     1     -97.752 -29.854 -11.491  1.00  0.00     0.041 C 
ATOM     13  O   UNL     1     -98.842 -29.924 -10.866  1.00  0.00    -0.550 OA
ATOM     14  O   UNL     1     -96.552 -29.945 -10.798  1.00  0.00    -0.550 OA
ENDBRANCH  11  12
ENDBRANCH  10  11
ENDBRANCH   9  10
ENDBRANCH   8   9
ENDBRANCH   1   8
TORSDOF 9
ENDMDL
MODEL 4
REMARK VINA RESULT:    -3.255      1.485      7.158
REMARK INTER + INTRA:          -5.474
REMARK INTER:                  -4.983
REMARK INTRA:                  -0.491
REMARK UNBOUND:                -0.507
REMARK SMILES O=C([O-])CCCCCCCCC(=O)[O-]
REMARK SMILES IDX 7 1 6 2 5 3 4 4 2 5 1 6 3 7 8 8 9 9 10 10 11 11 12 12 13 13
REMARK SMILES IDX 14 14
REMARK H PARENT
REMARK Flexibility Score: inf
ROOT
ATOM      1  C   UNL     1    -101.631 -27.341 -14.939  1.00  0.00     0.000 C 
ENDROOT
BRANCH   1   2
ATOM      2  C   UNL     1    -102.280 -28.114 -16.102  1.00  0.00     0.000 C 
BRANCH   2   3
ATOM      3  C   UNL     1    -103.548 -27.464 -16.695  1.00  0.00     0.006 C 
BRANCH   3   4
ATOM      4  C   UNL     1    -103.511 -25.930 -16.756  1.00  0.00     0.053 C 
BRANCH   4   5
ATOM      5  C   UNL     1    -104.577 -25.308 -15.906  1.00  0.00     0.041 C 
ATOM      6  O   UNL     1    -104.327 -24.274 -15.233  1.00  0.00    -0.550 OA
ATOM      7  O   UNL     1    -105.836 -25.890 -15.829  1.00  0.00    -0.550 OA
ENDBRANCH   4   5
ENDBRANCH   3   4
ENDBRANCH   2   3
ENDBRANCH   1   2
BRANCH   1   8
ATOM      8  C   UNL     1    -102.289 -27.638 -13.581  1.00  0.00     0.000 C 
BRANCH   8   9
ATOM      9  C   UNL     1    -101.305 -28.254 -12.571  1.00  0.00     0.000 C 
BRANCH   9  10
ATOM     10  C   UNL     1     -99.857 -28.262 -13.084  1.00  0.00     0.006 C 
BRANCH  10  11
ATOM     11  C   UNL     1     -99.280 -29.681 -13.068  1.00  0.00     0.053 C 
BRANCH  11  12
ATOM     12  C   UNL     1     -98.014 -29.722 -12.270  1.00  0.00     0.041 C 
ATOM     13  O   UNL     1     -98.060 -29.804 -11.015  1.00  0.00    -0.550 OA
ATOM     14  O   UNL     1     -96.785 -29.620 -12.910  1.00  0.00    -0.550 OA
ENDBRANCH  11  12
ENDBRANCH  10  11
ENDBRANCH   9  10
ENDBRANCH   8   9
ENDBRANCH   1   8
TORSDOF 9
ENDMDL
MODEL 5
REMARK VINA RESULT:    -3.249      2.088      2.494
REMARK INTER + INTRA:          -5.465
REMARK INTER:                  -4.847
REMARK INTRA:                  -0.619
REMARK UNBOUND:                -0.507
REMARK SMILES O=C([O-])CCCCCCCCC(=O)[O-]
REMARK SMILES IDX 7 1 6 2 5 3 4 4 2 5 1 6 3 7 8 8 9 9 10 10 11 11 12 12 13 13
REMARK SMILES IDX 14 14
REMARK H PARENT
REMARK Flexibility Score: inf
ROOT
ATOM      1  C   UNL     1     -99.921 -30.508 -15.615  1.00  0.00     0.000 C 
ENDROOT
BRANCH   1   2
ATOM      2  C   UNL     1    -100.027 -30.493 -14.080  1.00  0.00     0.000 C 
BRANCH   2   3
ATOM      3  C   UNL     1     -99.265 -29.349 -13.380  1.00  0.00     0.006 C 
BRANCH   3   4
ATOM      4  C   UNL     1     -97.793 -29.658 -13.067  1.00  0.00     0.053 C 
BRANCH   4   5
ATOM      5  C   UNL     1     -97.554 -29.822 -11.597  1.00  0.00     0.041 C 
ATOM      6  O   UNL     1     -98.527 -29.858 -10.798  1.00  0.00    -0.550 OA
ATOM      7  O   UNL     1     -96.258 -29.901 -11.106  1.00  0.00    -0.550 OA
ENDBRANCH   4   5
ENDBRANCH   3   4
ENDBRANCH   2   3
ENDBRANCH   1   2
BRANCH   1   8
ATOM      8  C   UNL     1    -101.272 -30.755 -16.307  1.00  0.00     0.000 C 
BRANCH   8   9
ATOM      9  C   UNL     1    -102.275 -29.614 -16.065  1.00  0.00     0.000 C 
BRANCH   9  10
ATOM     10  C   UNL     1    -101.679 -28.229 -16.358  1.00  0.00     0.006 C 
BRANCH  10  11
ATOM     11  C   UNL     1    -102.049 -27.231 -15.256  1.00  0.00     0.053 C 
BRANCH  11  12
ATOM     12  C   UNL     1    -103.326 -26.528 -15.593  1.00  0.00     0.041 C 
ATOM     13  O   UNL     1    -104.341 -26.675 -14.862  1.00  0.00    -0.550 OA
ATOM     14  O   UNL     1    -103.411 -25.751 -16.741  1.00  0.00    -0.550 OA
ENDBRANCH  11  12
ENDBRANCH  10  11
ENDBRANCH   9  10
ENDBRANCH   8   9
ENDBRANCH   1   8
TORSDOF 9
ENDMDL
MODEL 6
REMARK VINA RESULT:    -3.241      3.167      5.968
REMARK INTER + INTRA:          -5.453
REMARK INTER:                  -4.730
REMARK INTRA:                  -0.723
REMARK UNBOUND:                -0.507
REMARK SMILES O=C([O-])CCCCCCCCC(=O)[O-]
REMARK SMILES IDX 7 1 6 2 5 3 4 4 2 5 1 6 3 7 8 8 9 9 10 10 11 11 12 12 13 13
REMARK SMILES IDX 14 14
REMARK H PARENT
REMARK Flexibility Score: inf
ROOT
ATOM      1  C   UNL     1    -103.010 -27.546 -14.096  1.00  0.00     0.000 C 
ENDROOT
BRANCH   1   2
ATOM      2  C   UNL     1    -102.237 -27.019 -15.318  1.00  0.00     0.000 C 
BRANCH   2   3
ATOM      3  C   UNL     1    -102.205 -27.968 -16.534  1.00  0.00     0.006 C 
BRANCH   3   4
ATOM      4  C   UNL     1    -102.670 -29.402 -16.238  1.00  0.00     0.053 C 
BRANCH   4   5
ATOM      5  C   UNL     1    -101.556 -30.394 -16.381  1.00  0.00     0.041 C 
ATOM      6  O   UNL     1    -101.814 -31.611 -16.578  1.00  0.00    -0.550 OA
ATOM      7  O   UNL     1    -100.235 -29.981 -16.263  1.00  0.00    -0.550 OA
ENDBRANCH   4   5
ENDBRANCH   3   4
ENDBRANCH   2   3
ENDBRANCH   1   2
BRANCH   1   8
ATOM      8  C   UNL     1    -102.093 -27.902 -12.914  1.00  0.00     0.000 C 
BRANCH   8   9
ATOM      9  C   UNL     1    -100.605 -27.914 -13.305  1.00  0.00     0.000 C 
BRANCH   9  10
ATOM     10  C   UNL     1     -99.843 -29.104 -12.699  1.00  0.00     0.006 C 
BRANCH  10  11
ATOM     11  C   UNL     1     -98.439 -29.216 -13.301  1.00  0.00     0.053 C 
BRANCH  11  12
ATOM     12  C   UNL     1     -97.481 -29.773 -12.295  1.00  0.00     0.041 C 
ATOM     13  O   UNL     1     -96.364 -30.221 -12.666  1.00  0.00    -0.550 OA
ATOM     14  O   UNL     1     -97.841 -29.842 -10.956  1.00  0.00    -0.550 OA
ENDBRANCH  11  12
ENDBRANCH  10  11
ENDBRANCH   9  10
ENDBRANCH   8   9
ENDBRANCH   1   8
TORSDOF 9
ENDMDL
MODEL 7
REMARK VINA RESULT:    -3.223      1.625      1.721
REMARK INTER + INTRA:          -5.426
REMARK INTER:                  -4.929
REMARK INTRA:                  -0.497
REMARK UNBOUND:                -0.507
REMARK SMILES O=C([O-])CCCCCCCCC(=O)[O-]
REMARK SMILES IDX 7 1 6 2 5 3 4 4 2 5 1 6 3 7 8 8 9 9 10 10 11 11 12 12 13 13
REMARK SMILES IDX 14 14
REMARK H PARENT
REMARK Flexibility Score: inf
ROOT
ATOM      1  C   UNL     1    -102.308 -28.123 -13.820  1.00  0.00     0.000 C 
ENDROOT
BRANCH   1   2
ATOM      2  C   UNL     1    -101.199 -28.172 -12.754  1.00  0.00     0.000 C 
BRANCH   2   3
ATOM      3  C   UNL     1     -99.759 -28.095 -13.300  1.00  0.00     0.006 C 
BRANCH   3   4
ATOM      4  C   UNL     1     -99.059 -29.455 -13.454  1.00  0.00     0.053 C 
BRANCH   4   5
ATOM      5  C   UNL     1     -98.008 -29.666 -12.408  1.00  0.00     0.041 C 
ATOM      6  O   UNL     1     -98.332 -29.761 -11.195  1.00  0.00    -0.550 OA
ATOM      7  O   UNL     1     -96.668 -29.724 -12.768  1.00  0.00    -0.550 OA
ENDBRANCH   4   5
ENDBRANCH   3   4
ENDBRANCH   2   3
ENDBRANCH   1   2
BRANCH   1   8
ATOM      8  C   UNL     1    -101.964 -27.199 -15.001  1.00  0.00     0.000 C 
BRANCH   8   9
ATOM      9  C   UNL     1    -102.407 -27.780 -16.354  1.00  0.00     0.000 C 
BRANCH   9  10
ATOM     10  C   UNL     1    -103.455 -26.906 -17.060  1.00  0.00     0.006 C 
BRANCH  10  11
ATOM     11  C   UNL     1    -103.714 -25.619 -16.269  1.00  0.00     0.053 C 
BRANCH  11  12
ATOM     12  C   UNL     1    -105.152 -25.535 -15.863  1.00  0.00     0.041 C 
ATOM     13  O   UNL     1    -106.008 -25.069 -16.660  1.00  0.00    -0.550 OA
ATOM     14  O   UNL     1    -105.539 -25.926 -14.588  1.00  0.00    -0.550 OA
ENDBRANCH  11  12
ENDBRANCH  10  11
ENDBRANCH   9  10
ENDBRANCH   8   9
ENDBRANCH   1   8
TORSDOF 9
ENDMDL
MODEL 8
REMARK VINA RESULT:    -3.192      1.724      6.890
REMARK INTER + INTRA:          -5.379
REMARK INTER:                  -4.798
REMARK INTRA:                  -0.581
REMARK UNBOUND:                -0.507
REMARK SMILES O=C([O-])CCCCCCCCC(=O)[O-]
REMARK SMILES IDX 7 1 6 2 5 3 4 4 2 5 1 6 3 7 8 8 9 9 10 10 11 11 12 12 13 13
REMARK SMILES IDX 14 14
REMARK H PARENT
REMARK Flexibility Score: inf
ROOT
ATOM      1  C   UNL     1    -103.282 -27.611 -16.776  1.00  0.00     0.000 C 
ENDROOT
BRANCH   1   2
ATOM      2  C   UNL     1    -103.446 -26.080 -16.758  1.00  0.00     0.000 C 
BRANCH   2   3
ATOM      3  C   UNL     1    -104.664 -25.560 -15.967  1.00  0.00     0.006 C 
BRANCH   3   4
ATOM      4  C   UNL     1    -104.356 -24.394 -15.014  1.00  0.00     0.053 C 
BRANCH   4   5
ATOM      5  C   UNL     1    -104.680 -24.732 -13.591  1.00  0.00     0.041 C 
ATOM      6  O   UNL     1    -104.204 -25.772 -13.063  1.00  0.00    -0.550 OA
ATOM      7  O   UNL     1    -105.534 -23.918 -12.858  1.00  0.00    -0.550 OA
ENDBRANCH   4   5
ENDBRANCH   3   4
ENDBRANCH   2   3
ENDBRANCH   1   2
BRANCH   1   8
ATOM      8  C   UNL     1    -101.937 -28.077 -16.193  1.00  0.00     0.000 C 
BRANCH   8   9
ATOM      9  C   UNL     1    -101.606 -27.393 -14.855  1.00  0.00     0.000 C 
BRANCH   9  10
ATOM     10  C   UNL     1    -101.347 -28.401 -13.724  1.00  0.00     0.006 C 
BRANCH  10  11
ATOM     11  C   UNL     1     -99.959 -28.186 -13.110  1.00  0.00     0.053 C 
BRANCH  11  12
ATOM     12  C   UNL     1     -99.029 -29.284 -13.521  1.00  0.00     0.041 C 
ATOM     13  O   UNL     1     -97.870 -29.346 -13.035  1.00  0.00    -0.550 OA
ATOM     14  O   UNL     1     -99.426 -30.209 -14.478  1.00  0.00    -0.550 OA
ENDBRANCH  11  12
ENDBRANCH  10  11
ENDBRANCH   9  10
ENDBRANCH   8   9
ENDBRANCH   1   8
TORSDOF 9
ENDMDL
MODEL 9
REMARK VINA RESULT:    -3.176      0.478      7.218
REMARK INTER + INTRA:          -5.355
REMARK INTER:                  -4.919
REMARK INTRA:                  -0.436
REMARK UNBOUND:                -0.507
REMARK SMILES O=C([O-])CCCCCCCCC(=O)[O-]
REMARK SMILES IDX 7 1 6 2 5 3 4 4 2 5 1 6 3 7 8 8 9 9 10 10 11 11 12 12 13 13
REMARK SMILES IDX 14 14
REMARK H PARENT
REMARK Flexibility Score: inf
ROOT
ATOM      1  C   UNL     1    -101.411 -28.928 -15.046  1.00  0.00     0.000 C 
ENDROOT
BRANCH   1   2
ATOM      2  C   UNL     1    -102.056 -28.241 -16.263  1.00  0.00     0.000 C 
BRANCH   2   3
ATOM      3  C   UNL     1    -102.684 -26.860 -15.980  1.00  0.00     0.006 C 
BRANCH   3   4
ATOM      4  C   UNL     1    -103.766 -26.433 -16.984  1.00  0.00     0.053 C 
BRANCH   4   5
ATOM      5  C   UNL     1    -104.679 -25.390 -16.416  1.00  0.00     0.041 C 
ATOM      6  O   UNL     1    -105.883 -25.335 -16.781  1.00  0.00    -0.550 OA
ATOM      7  O   UNL     1    -104.193 -24.457 -15.508  1.00  0.00    -0.550 OA
ENDBRANCH   4   5
ENDBRANCH   3   4
ENDBRANCH   2   3
ENDBRANCH   1   2
BRANCH   1   8
ATOM      8  C   UNL     1    -101.262 -27.990 -13.836  1.00  0.00     0.000 C 
BRANCH   8   9
ATOM      9  C   UNL     1     -99.838 -27.996 -13.256  1.00  0.00     0.000 C 
BRANCH   9  10
ATOM     10  C   UNL     1     -99.392 -29.392 -12.795  1.00  0.00     0.006 C 
BRANCH  10  11
ATOM     11  C   UNL     1     -97.947 -29.672 -13.221  1.00  0.00     0.053 C 
BRANCH  11  12
ATOM     12  C   UNL     1     -97.887 -30.875 -14.109  1.00  0.00     0.041 C 
ATOM     13  O   UNL     1     -98.948 -31.446 -14.474  1.00  0.00    -0.550 OA
ATOM     14  O   UNL     1     -96.657 -31.394 -14.494  1.00  0.00    -0.550 OA
ENDBRANCH  11  12
ENDBRANCH  10  11
ENDBRANCH   9  10
ENDBRANCH   8   9
ENDBRANCH   1   8
TORSDOF 9
ENDMDL
