MODEL 1
REMARK VINA RESULT:    -0.069      0.000      0.000
REMARK INTER + INTRA:          -1.626
REMARK INTER:                  -0.093
REMARK INTRA:                  -1.533
REMARK UNBOUND:                -1.533
REMARK SMILES CC(=O)CCC=C(C)CCC=C(C)C
REMARK SMILES IDX 7 1 6 2 8 3 9 4 10 5 11 6 13 7 12 8 14 9 5 10 4 11 2 12 3 13
REMARK SMILES IDX 1 14
REMARK H PARENT
REMARK Flexibility Score: inf
ROOT
ATOM      1  C   UNL     1     138.860 122.528 127.421  1.00  0.00    -0.077 C 
ATOM      2  C   UNL     1     139.141 121.224 127.196  1.00  0.00    -0.028 C 
ATOM      3  C   UNL     1     139.369 123.625 126.520  1.00  0.00     0.039 C 
ENDROOT
BRANCH   1   4
ATOM      4  C   UNL     1     137.968 122.901 128.587  1.00  0.00     0.034 C 
BRANCH   4   5
ATOM      5  C   UNL     1     136.587 122.240 128.481  1.00  0.00     0.032 C 
BRANCH   5   6
ATOM      6  C   UNL     1     135.791 122.774 127.313  1.00  0.00    -0.028 C 
ATOM      7  C   UNL     1     134.645 122.722 125.141  1.00  0.00     0.039 C 
ATOM      8  C   UNL     1     135.389 122.034 126.257  1.00  0.00    -0.080 C 
ATOM      9  C   UNL     1     135.645 120.548 126.175  1.00  0.00     0.039 C 
ENDBRANCH   5   6
ENDBRANCH   4   5
ENDBRANCH   1   4
BRANCH   2  10
ATOM     10  C   UNL     1     140.043 120.711 126.096  1.00  0.00     0.035 C 
BRANCH  10  11
ATOM     11  C   UNL     1     139.222 120.127 124.942  1.00  0.00     0.079 C 
BRANCH  11  12
ATOM     12  C   UNL     1     139.165 121.071 123.771  1.00  0.00     0.130 C 
ATOM     13  O   UNL     1     140.124 121.157 123.020  1.00  0.00    -0.300 OA
ATOM     14  C   UNL     1     137.949 121.908 123.503  1.00  0.00     0.087 C 
ENDBRANCH  11  12
ENDBRANCH  10  11
ENDBRANCH   2  10
TORSDOF 6
ENDMDL
MODEL 2
REMARK VINA RESULT:    -0.069     20.193     22.512
REMARK INTER + INTRA:          -1.626
REMARK INTER:                  -0.078
REMARK INTRA:                  -1.548
REMARK UNBOUND:                -1.533
REMARK SMILES CC(=O)CCC=C(C)CCC=C(C)C
REMARK SMILES IDX 7 1 6 2 8 3 9 4 10 5 11 6 13 7 12 8 14 9 5 10 4 11 2 12 3 13
REMARK SMILES IDX 1 14
REMARK H PARENT
REMARK Flexibility Score: inf
ROOT
ATOM      1  C   UNL     1     123.817 136.675 124.384  1.00  0.00    -0.077 C 
ATOM      2  C   UNL     1     123.843 137.860 123.730  1.00  0.00    -0.028 C 
ATOM      3  C   UNL     1     122.893 135.555 123.976  1.00  0.00     0.039 C 
ENDROOT
BRANCH   1   4
ATOM      4  C   UNL     1     124.774 136.444 125.535  1.00  0.00     0.034 C 
BRANCH   4   5
ATOM      5  C   UNL     1     124.538 137.439 126.679  1.00  0.00     0.032 C 
BRANCH   5   6
ATOM      6  C   UNL     1     123.183 137.256 127.320  1.00  0.00    -0.028 C 
ATOM      7  C   UNL     1     120.944 137.891 128.104  1.00  0.00     0.039 C 
ATOM      8  C   UNL     1     122.229 138.210 127.384  1.00  0.00    -0.080 C 
ATOM      9  C   UNL     1     122.407 139.566 126.744  1.00  0.00     0.039 C 
ENDBRANCH   5   6
ENDBRANCH   4   5
ENDBRANCH   1   4
BRANCH   2  10
ATOM     10  C   UNL     1     122.924 138.240 122.592  1.00  0.00     0.035 C 
BRANCH  10  11
ATOM     11  C   UNL     1     121.756 139.095 123.093  1.00  0.00     0.079 C 
BRANCH  11  12
ATOM     12  C   UNL     1     120.478 138.301 123.156  1.00  0.00     0.130 C 
ATOM     13  O   UNL     1     119.875 138.047 122.125  1.00  0.00    -0.300 OA
ATOM     14  C   UNL     1     119.930 137.810 124.464  1.00  0.00     0.087 C 
ENDBRANCH  11  12
ENDBRANCH  10  11
ENDBRANCH   2  10
TORSDOF 6
ENDMDL
MODEL 3
REMARK VINA RESULT:    -0.065      2.246      3.353
REMARK INTER + INTRA:          -1.620
REMARK INTER:                  -0.073
REMARK INTRA:                  -1.547
REMARK UNBOUND:                -1.533
REMARK SMILES CC(=O)CCC=C(C)CCC=C(C)C
REMARK SMILES IDX 7 1 6 2 8 3 9 4 10 5 11 6 13 7 12 8 14 9 5 10 4 11 2 12 3 13
REMARK SMILES IDX 1 14
REMARK H PARENT
REMARK Flexibility Score: inf
ROOT
ATOM      1  C   UNL     1     137.918 124.590 126.034  1.00  0.00    -0.077 C 
ATOM      2  C   UNL     1     139.082 124.551 125.344  1.00  0.00    -0.028 C 
ATOM      3  C   UNL     1     137.575 123.563 127.083  1.00  0.00     0.039 C 
ENDROOT
BRANCH   1   4
ATOM      4  C   UNL     1     136.946 125.723 125.781  1.00  0.00     0.034 C 
BRANCH   4   5
ATOM      5  C   UNL     1     136.454 125.736 124.327  1.00  0.00     0.032 C 
BRANCH   5   6
ATOM      6  C   UNL     1     135.642 124.507 123.992  1.00  0.00    -0.028 C 
ATOM      7  C   UNL     1     135.015 122.471 122.771  1.00  0.00     0.039 C 
ATOM      8  C   UNL     1     135.954 123.624 123.020  1.00  0.00    -0.080 C 
ATOM      9  C   UNL     1     137.215 123.748 122.198  1.00  0.00     0.039 C 
ENDBRANCH   5   6
ENDBRANCH   4   5
ENDBRANCH   1   4
BRANCH   2  10
ATOM     10  C   UNL     1     140.125 123.464 125.467  1.00  0.00     0.035 C 
BRANCH  10  11
ATOM     11  C   UNL     1     139.992 122.446 124.330  1.00  0.00     0.079 C 
BRANCH  11  12
ATOM     12  C   UNL     1     139.371 121.161 124.810  1.00  0.00     0.130 C 
ATOM     13  O   UNL     1     140.048 120.363 125.440  1.00  0.00    -0.300 OA
ATOM     14  C   UNL     1     137.932 120.840 124.531  1.00  0.00     0.087 C 
ENDBRANCH  11  12
ENDBRANCH  10  11
ENDBRANCH   2  10
TORSDOF 6
ENDMDL
MODEL 4
REMARK VINA RESULT:    -0.063     20.135     22.199
REMARK INTER + INTRA:          -1.618
REMARK INTER:                  -0.070
REMARK INTRA:                  -1.548
REMARK UNBOUND:                -1.533
REMARK SMILES CC(=O)CCC=C(C)CCC=C(C)C
REMARK SMILES IDX 7 1 6 2 8 3 9 4 10 5 11 6 13 7 12 8 14 9 5 10 4 11 2 12 3 13
REMARK SMILES IDX 1 14
REMARK H PARENT
REMARK Flexibility Score: inf
ROOT
ATOM      1  C   UNL     1     123.812 137.086 125.266  1.00  0.00    -0.077 C 
ATOM      2  C   UNL     1     123.099 138.005 125.958  1.00  0.00    -0.028 C 
ATOM      3  C   UNL     1     124.220 137.305 123.830  1.00  0.00     0.039 C 
ENDROOT
BRANCH   1   4
ATOM      4  C   UNL     1     124.256 135.817 125.962  1.00  0.00     0.034 C 
BRANCH   4   5
ATOM      5  C   UNL     1     123.060 134.989 126.453  1.00  0.00     0.032 C 
BRANCH   5   6
ATOM      6  C   UNL     1     122.220 134.474 125.308  1.00  0.00    -0.028 C 
ATOM      7  C   UNL     1     120.193 134.121 123.966  1.00  0.00     0.039 C 
ATOM      8  C   UNL     1     120.910 134.752 125.132  1.00  0.00    -0.080 C 
ATOM      9  C   UNL     1     120.159 135.687 126.050  1.00  0.00     0.039 C 
ENDBRANCH   5   6
ENDBRANCH   4   5
ENDBRANCH   1   4
BRANCH   2  10
ATOM     10  C   UNL     1     122.560 139.295 125.383  1.00  0.00     0.035 C 
BRANCH  10  11
ATOM     11  C   UNL     1     121.081 139.155 125.013  1.00  0.00     0.079 C 
BRANCH  11  12
ATOM     12  C   UNL     1     120.892 139.039 123.523  1.00  0.00     0.130 C 
ATOM     13  O   UNL     1     120.959 140.041 122.828  1.00  0.00    -0.300 OA
ATOM     14  C   UNL     1     120.625 137.714 122.873  1.00  0.00     0.087 C 
ENDBRANCH  11  12
ENDBRANCH  10  11
ENDBRANCH   2  10
TORSDOF 6
ENDMDL
MODEL 5
REMARK VINA RESULT:    -0.050      2.267      4.491
REMARK INTER + INTRA:          -1.600
REMARK INTER:                  -0.053
REMARK INTRA:                  -1.547
REMARK UNBOUND:                -1.533
REMARK SMILES CC(=O)CCC=C(C)CCC=C(C)C
REMARK SMILES IDX 7 1 6 2 8 3 9 4 10 5 11 6 13 7 12 8 14 9 5 10 4 11 2 12 3 13
REMARK SMILES IDX 1 14
REMARK H PARENT
REMARK Flexibility Score: inf
ROOT
ATOM      1  C   UNL     1     135.839 122.825 126.655  1.00  0.00    -0.077 C 
ATOM      2  C   UNL     1     135.925 123.565 125.525  1.00  0.00    -0.028 C 
ATOM      3  C   UNL     1     136.169 123.394 128.013  1.00  0.00     0.039 C 
ENDROOT
BRANCH   1   4
ATOM      4  C   UNL     1     135.355 121.393 126.567  1.00  0.00     0.034 C 
BRANCH   4   5
ATOM      5  C   UNL     1     136.279 120.533 125.693  1.00  0.00     0.032 C 
BRANCH   5   6
ATOM      6  C   UNL     1     137.657 120.390 126.295  1.00  0.00    -0.028 C 
ATOM      7  C   UNL     1     140.107 120.525 126.400  1.00  0.00     0.039 C 
ATOM      8  C   UNL     1     138.801 120.782 125.693  1.00  0.00    -0.080 C 
ATOM      9  C   UNL     1     138.804 121.482 124.355  1.00  0.00     0.039 C 
ENDBRANCH   5   6
ENDBRANCH   4   5
ENDBRANCH   1   4
BRANCH   2  10
ATOM     10  C   UNL     1     136.424 124.990 125.460  1.00  0.00     0.035 C 
BRANCH  10  11
ATOM     11  C   UNL     1     137.886 125.038 125.005  1.00  0.00     0.079 C 
BRANCH  11  12
ATOM     12  C   UNL     1     138.813 125.338 126.153  1.00  0.00     0.130 C 
ATOM     13  O   UNL     1     138.917 126.486 126.559  1.00  0.00    -0.300 OA
ATOM     14  C   UNL     1     139.611 124.254 126.814  1.00  0.00     0.087 C 
ENDBRANCH  11  12
ENDBRANCH  10  11
ENDBRANCH   2  10
TORSDOF 6
ENDMDL
MODEL 6
REMARK VINA RESULT:    -0.035     19.750     21.586
REMARK INTER + INTRA:          -1.580
REMARK INTER:                  -0.048
REMARK INTRA:                  -1.532
REMARK UNBOUND:                -1.533
REMARK SMILES CC(=O)CCC=C(C)CCC=C(C)C
REMARK SMILES IDX 7 1 6 2 8 3 9 4 10 5 11 6 13 7 12 8 14 9 5 10 4 11 2 12 3 13
REMARK SMILES IDX 1 14
REMARK H PARENT
REMARK Flexibility Score: inf
ROOT
ATOM      1  C   UNL     1     122.605 135.092 126.852  1.00  0.00    -0.077 C 
ATOM      2  C   UNL     1     121.682 136.002 127.242  1.00  0.00    -0.028 C 
ATOM      3  C   UNL     1     122.508 134.367 125.533  1.00  0.00     0.039 C 
ENDROOT
BRANCH   1   4
ATOM      4  C   UNL     1     123.800 134.823 127.743  1.00  0.00     0.034 C 
BRANCH   4   5
ATOM      5  C   UNL     1     124.615 136.097 128.002  1.00  0.00     0.032 C 
BRANCH   5   6
ATOM      6  C   UNL     1     125.295 136.599 126.750  1.00  0.00    -0.028 C 
ATOM      7  C   UNL     1     125.763 138.126 124.884  1.00  0.00     0.039 C 
ATOM      8  C   UNL     1     125.038 137.787 126.161  1.00  0.00    -0.080 C 
ATOM      9  C   UNL     1     124.069 138.783 126.754  1.00  0.00     0.039 C 
ENDBRANCH   5   6
ENDBRANCH   4   5
ENDBRANCH   1   4
BRANCH   2  10
ATOM     10  C   UNL     1     120.426 136.343 126.473  1.00  0.00     0.035 C 
BRANCH  10  11
ATOM     11  C   UNL     1     120.571 137.688 125.755  1.00  0.00     0.079 C 
BRANCH  11  12
ATOM     12  C   UNL     1     120.817 137.504 124.281  1.00  0.00     0.130 C 
ATOM     13  O   UNL     1     119.875 137.268 123.539  1.00  0.00    -0.300 OA
ATOM     14  C   UNL     1     122.197 137.608 123.702  1.00  0.00     0.087 C 
ENDBRANCH  11  12
ENDBRANCH  10  11
ENDBRANCH   2  10
TORSDOF 6
ENDMDL
MODEL 7
REMARK VINA RESULT:    -0.031      1.893      3.804
REMARK INTER + INTRA:          -1.574
REMARK INTER:                  -0.026
REMARK INTRA:                  -1.548
REMARK UNBOUND:                -1.533
REMARK SMILES CC(=O)CCC=C(C)CCC=C(C)C
REMARK SMILES IDX 7 1 6 2 8 3 9 4 10 5 11 6 13 7 12 8 14 9 5 10 4 11 2 12 3 13
REMARK SMILES IDX 1 14
REMARK H PARENT
REMARK Flexibility Score: inf
ROOT
ATOM      1  C   UNL     1     135.234 124.731 124.716  1.00  0.00    -0.077 C 
ATOM      2  C   UNL     1     134.875 123.489 124.317  1.00  0.00    -0.028 C 
ATOM      3  C   UNL     1     136.420 125.452 124.124  1.00  0.00     0.039 C 
ENDROOT
BRANCH   1   4
ATOM      4  C   UNL     1     134.396 125.445 125.757  1.00  0.00     0.034 C 
BRANCH   4   5
ATOM      5  C   UNL     1     134.373 124.682 127.088  1.00  0.00     0.032 C 
BRANCH   5   6
ATOM      6  C   UNL     1     135.738 124.624 127.732  1.00  0.00    -0.028 C 
ATOM      7  C   UNL     1     137.737 123.588 128.714  1.00  0.00     0.039 C 
ATOM      8  C   UNL     1     136.402 123.484 128.023  1.00  0.00    -0.080 C 
ATOM      9  C   UNL     1     135.856 122.124 127.659  1.00  0.00     0.039 C 
ENDBRANCH   5   6
ENDBRANCH   4   5
ENDBRANCH   1   4
BRANCH   2  10
ATOM     10  C   UNL     1     135.636 122.648 123.318  1.00  0.00     0.035 C 
BRANCH  10  11
ATOM     11  C   UNL     1     136.527 121.624 124.029  1.00  0.00     0.079 C 
BRANCH  11  12
ATOM     12  C   UNL     1     137.978 122.024 123.976  1.00  0.00     0.130 C 
ATOM     13  O   UNL     1     138.612 121.856 122.946  1.00  0.00    -0.300 OA
ATOM     14  C   UNL     1     138.663 122.631 125.165  1.00  0.00     0.087 C 
ENDBRANCH  11  12
ENDBRANCH  10  11
ENDBRANCH   2  10
TORSDOF 6
ENDMDL
MODEL 8
REMARK VINA RESULT:    -0.026     18.889     21.041
REMARK INTER + INTRA:          -1.567
REMARK INTER:                  -0.021
REMARK INTRA:                  -1.547
REMARK UNBOUND:                -1.533
REMARK SMILES CC(=O)CCC=C(C)CCC=C(C)C
REMARK SMILES IDX 7 1 6 2 8 3 9 4 10 5 11 6 13 7 12 8 14 9 5 10 4 11 2 12 3 13
REMARK SMILES IDX 1 14
REMARK H PARENT
REMARK Flexibility Score: inf
ROOT
ATOM      1  C   UNL     1     123.593 134.706 127.408  1.00  0.00    -0.077 C 
ATOM      2  C   UNL     1     123.798 135.029 126.110  1.00  0.00    -0.028 C 
ATOM      3  C   UNL     1     122.209 134.597 127.997  1.00  0.00     0.039 C 
ENDROOT
BRANCH   1   4
ATOM      4  C   UNL     1     124.784 134.399 128.291  1.00  0.00     0.034 C 
BRANCH   4   5
ATOM      5  C   UNL     1     125.727 135.604 128.413  1.00  0.00     0.032 C 
BRANCH   5   6
ATOM      6  C   UNL     1     125.070 136.770 129.114  1.00  0.00    -0.028 C 
ATOM      7  C   UNL     1     124.270 139.072 129.415  1.00  0.00     0.039 C 
ATOM      8  C   UNL     1     124.899 137.994 128.570  1.00  0.00    -0.080 C 
ATOM      9  C   UNL     1     125.298 138.303 127.147  1.00  0.00     0.039 C 
ENDBRANCH   5   6
ENDBRANCH   4   5
ENDBRANCH   1   4
BRANCH   2  10
ATOM     10  C   UNL     1     122.710 135.394 125.126  1.00  0.00     0.035 C 
BRANCH  10  11
ATOM     11  C   UNL     1     122.596 136.913 124.973  1.00  0.00     0.079 C 
BRANCH  11  12
ATOM     12  C   UNL     1     121.386 137.452 125.689  1.00  0.00     0.130 C 
ATOM     13  O   UNL     1     120.279 137.305 125.194  1.00  0.00    -0.300 OA
ATOM     14  C   UNL     1     121.511 138.163 127.004  1.00  0.00     0.087 C 
ENDBRANCH  11  12
ENDBRANCH  10  11
ENDBRANCH   2  10
TORSDOF 6
ENDMDL
MODEL 9
REMARK VINA RESULT:    -0.024     17.415     19.404
REMARK INTER + INTRA:          -1.565
REMARK INTER:                  -0.032
REMARK INTRA:                  -1.532
REMARK UNBOUND:                -1.533
REMARK SMILES CC(=O)CCC=C(C)CCC=C(C)C
REMARK SMILES IDX 7 1 6 2 8 3 9 4 10 5 11 6 13 7 12 8 14 9 5 10 4 11 2 12 3 13
REMARK SMILES IDX 1 14
REMARK H PARENT
REMARK Flexibility Score: inf
ROOT
ATOM      1  C   UNL     1     136.496 135.344 140.591  1.00  0.00    -0.077 C 
ATOM      2  C   UNL     1     136.006 134.095 140.770  1.00  0.00    -0.028 C 
ATOM      3  C   UNL     1     137.115 135.783 139.287  1.00  0.00     0.039 C 
ENDROOT
BRANCH   1   4
ATOM      4  C   UNL     1     136.384 136.351 141.716  1.00  0.00     0.034 C 
BRANCH   4   5
ATOM      5  C   UNL     1     134.923 136.586 142.125  1.00  0.00     0.032 C 
BRANCH   5   6
ATOM      6  C   UNL     1     134.130 137.263 141.032  1.00  0.00    -0.028 C 
ATOM      7  C   UNL     1     132.415 137.494 139.290  1.00  0.00     0.039 C 
ATOM      8  C   UNL     1     133.073 136.712 140.397  1.00  0.00    -0.080 C 
ATOM      9  C   UNL     1     132.527 135.356 140.778  1.00  0.00     0.039 C 
ENDBRANCH   5   6
ENDBRANCH   4   5
ENDBRANCH   1   4
BRANCH   2  10
ATOM     10  C   UNL     1     136.082 132.982 139.751  1.00  0.00     0.035 C 
BRANCH  10  11
ATOM     11  C   UNL     1     134.732 132.781 139.056  1.00  0.00     0.079 C 
BRANCH  11  12
ATOM     12  C   UNL     1     134.730 133.371 137.670  1.00  0.00     0.130 C 
ATOM     13  O   UNL     1     135.278 132.769 136.759  1.00  0.00    -0.300 OA
ATOM     14  C   UNL     1     134.065 134.685 137.384  1.00  0.00     0.087 C 
ENDBRANCH  11  12
ENDBRANCH  10  11
ENDBRANCH   2  10
TORSDOF 6
ENDMDL
