MODEL 1
REMARK VINA RESULT:    -4.876      0.000      0.000
REMARK INTER + INTRA:          -6.889
REMARK INTER:                  -6.729
REMARK INTRA:                  -0.160
REMARK UNBOUND:                -0.160
REMARK SMILES OC[C@@H](O)C(O)[C@H](O)CO
REMARK SMILES IDX 5 1 7 2 9 3 10 4 8 6 3 8 2 9 1 10 4 12 6 14
REMARK H PARENT 10 5 8 7 1 11 4 13 6 15
REMARK Flexibility Score: inf
ROOT
ATOM      1  C   UNL     1      13.807   5.095  45.077  1.00  0.00     0.176 C 
ENDROOT
BRANCH   1   2
ATOM      2  C   UNL     1      13.923   3.937  46.108  1.00  0.00     0.171 C 
BRANCH   2   3
ATOM      3  C   UNL     1      15.066   4.108  47.130  1.00  0.00     0.190 C 
BRANCH   3   4
ATOM      4  O   UNL     1      15.621   2.875  47.502  1.00  0.00    -0.394 OA
ATOM      5  H   UNL     1      15.154   2.585  48.328  1.00  0.00     0.210 HD
ENDBRANCH   3   4
ENDBRANCH   2   3
BRANCH   2   6
ATOM      6  O   UNL     1      12.693   3.716  46.752  1.00  0.00    -0.388 OA
ATOM      7  H   UNL     1      12.855   3.034  47.455  1.00  0.00     0.211 HD
ENDBRANCH   2   6
ENDBRANCH   1   2
BRANCH   1   8
ATOM      8  C   UNL     1      13.799   6.545  45.638  1.00  0.00     0.171 C 
BRANCH   8   9
ATOM      9  C   UNL     1      14.886   7.472  45.064  1.00  0.00     0.190 C 
BRANCH   9  10
ATOM     10  O   UNL     1      16.157   6.914  45.249  1.00  0.00    -0.394 OA
ATOM     11  H   UNL     1      16.684   7.154  44.443  1.00  0.00     0.210 HD
ENDBRANCH   9  10
ENDBRANCH   8   9
BRANCH   8  12
ATOM     12  O   UNL     1      12.530   7.120  45.457  1.00  0.00    -0.388 OA
ATOM     13  H   UNL     1      12.482   7.914  46.053  1.00  0.00     0.211 HD
ENDBRANCH   8  12
ENDBRANCH   1   8
BRANCH   1  14
ATOM     14  O   UNL     1      12.656   4.906  44.291  1.00  0.00    -0.388 OA
ATOM     15  H   UNL     1      11.878   5.195  44.837  1.00  0.00     0.211 HD
ENDBRANCH   1  14
TORSDOF 9
ENDMDL
MODEL 2
REMARK VINA RESULT:    -4.866      1.708      4.103
REMARK INTER + INTRA:          -6.875
REMARK INTER:                  -6.047
REMARK INTRA:                  -0.828
REMARK UNBOUND:                -0.160
REMARK SMILES OC[C@@H](O)C(O)[C@H](O)CO
REMARK SMILES IDX 5 1 7 2 9 3 10 4 8 6 3 8 2 9 1 10 4 12 6 14
REMARK H PARENT 10 5 8 7 1 11 4 13 6 15
REMARK Flexibility Score: inf
ROOT
ATOM      1  C   UNL     1      14.103   6.775  45.472  1.00  0.00     0.176 C 
ENDROOT
BRANCH   1   2
ATOM      2  C   UNL     1      12.910   7.744  45.228  1.00  0.00     0.171 C 
BRANCH   2   3
ATOM      3  C   UNL     1      12.170   8.176  46.511  1.00  0.00     0.190 C 
BRANCH   3   4
ATOM      4  O   UNL     1      11.481   7.105  47.100  1.00  0.00    -0.394 OA
ATOM      5  H   UNL     1      11.136   6.541  46.359  1.00  0.00     0.210 HD
ENDBRANCH   3   4
ENDBRANCH   2   3
BRANCH   2   6
ATOM      6  O   UNL     1      13.318   8.858  44.475  1.00  0.00    -0.388 OA
ATOM      7  H   UNL     1      14.092   9.259  44.950  1.00  0.00     0.211 HD
ENDBRANCH   2   6
ENDBRANCH   1   2
BRANCH   1   8
ATOM      8  C   UNL     1      13.938   5.310  44.977  1.00  0.00     0.171 C 
BRANCH   8   9
ATOM      9  C   UNL     1      13.657   4.276  46.083  1.00  0.00     0.190 C 
BRANCH   9  10
ATOM     10  O   UNL     1      12.320   4.344  46.492  1.00  0.00    -0.394 OA
ATOM     11  H   UNL     1      11.923   3.457  46.289  1.00  0.00     0.210 HD
ENDBRANCH   9  10
ENDBRANCH   8   9
BRANCH   8  12
ATOM     12  O   UNL     1      12.937   5.248  43.993  1.00  0.00    -0.388 OA
ATOM     13  H   UNL     1      12.459   6.119  44.009  1.00  0.00     0.211 HD
ENDBRANCH   8  12
ENDBRANCH   1   8
BRANCH   1  14
ATOM     14  O   UNL     1      14.416   6.759  46.842  1.00  0.00    -0.388 OA
ATOM     15  H   UNL     1      14.728   7.672  47.082  1.00  0.00     0.211 HD
ENDBRANCH   1  14
TORSDOF 9
ENDMDL
MODEL 3
REMARK VINA RESULT:    -4.865      1.921      3.203
REMARK INTER + INTRA:          -6.873
REMARK INTER:                  -6.123
REMARK INTRA:                  -0.749
REMARK UNBOUND:                -0.160
REMARK SMILES OC[C@@H](O)C(O)[C@H](O)CO
REMARK SMILES IDX 5 1 7 2 9 3 10 4 8 6 3 8 2 9 1 10 4 12 6 14
REMARK H PARENT 10 5 8 7 1 11 4 13 6 15
REMARK Flexibility Score: inf
ROOT
ATOM      1  C   UNL     1      13.310   7.263  46.052  1.00  0.00     0.176 C 
ENDROOT
BRANCH   1   2
ATOM      2  C   UNL     1      14.091   5.957  46.376  1.00  0.00     0.171 C 
BRANCH   2   3
ATOM      3  C   UNL     1      13.448   4.675  45.808  1.00  0.00     0.190 C 
BRANCH   3   4
ATOM      4  O   UNL     1      12.185   4.435  46.368  1.00  0.00    -0.394 OA
ATOM      5  H   UNL     1      11.544   5.033  45.902  1.00  0.00     0.210 HD
ENDBRANCH   3   4
ENDBRANCH   2   3
BRANCH   2   6
ATOM      6  O   UNL     1      15.436   6.070  45.983  1.00  0.00    -0.388 OA
ATOM      7  H   UNL     1      15.926   5.323  46.417  1.00  0.00     0.211 HD
ENDBRANCH   2   6
ENDBRANCH   1   2
BRANCH   1   8
ATOM      8  C   UNL     1      12.441   7.869  47.191  1.00  0.00     0.171 C 
BRANCH   8   9
ATOM      9  C   UNL     1      12.169   9.380  47.068  1.00  0.00     0.190 C 
BRANCH   9  10
ATOM     10  O   UNL     1      11.745   9.701  45.773  1.00  0.00    -0.394 OA
ATOM     11  H   UNL     1      11.546   8.837  45.326  1.00  0.00     0.210 HD
ENDBRANCH   9  10
ENDBRANCH   8   9
BRANCH   8  12
ATOM     12  O   UNL     1      11.229   7.168  47.292  1.00  0.00    -0.388 OA
ATOM     13  H   UNL     1      10.510   7.782  46.989  1.00  0.00     0.211 HD
ENDBRANCH   8  12
ENDBRANCH   1   8
BRANCH   1  14
ATOM     14  O   UNL     1      12.497   7.052  44.924  1.00  0.00    -0.388 OA
ATOM     15  H   UNL     1      12.471   6.071  44.762  1.00  0.00     0.211 HD
ENDBRANCH   1  14
TORSDOF 9
ENDMDL
MODEL 4
REMARK VINA RESULT:    -4.860      1.277      3.865
REMARK INTER + INTRA:          -6.866
REMARK INTER:                  -6.228
REMARK INTRA:                  -0.638
REMARK UNBOUND:                -0.160
REMARK SMILES OC[C@@H](O)C(O)[C@H](O)CO
REMARK SMILES IDX 5 1 7 2 9 3 10 4 8 6 3 8 2 9 1 10 4 12 6 14
REMARK H PARENT 10 5 8 7 1 11 4 13 6 15
REMARK Flexibility Score: inf
ROOT
ATOM      1  C   UNL     1      14.164   6.335  45.434  1.00  0.00     0.176 C 
ENDROOT
BRANCH   1   2
ATOM      2  C   UNL     1      13.482   6.960  46.685  1.00  0.00     0.171 C 
BRANCH   2   3
ATOM      3  C   UNL     1      13.619   8.494  46.783  1.00  0.00     0.190 C 
BRANCH   3   4
ATOM      4  O   UNL     1      14.016   9.060  45.562  1.00  0.00    -0.394 OA
ATOM      5  H   UNL     1      13.469   8.630  44.854  1.00  0.00     0.210 HD
ENDBRANCH   3   4
ENDBRANCH   2   3
BRANCH   2   6
ATOM      6  O   UNL     1      12.137   6.563  46.771  1.00  0.00    -0.388 OA
ATOM      7  H   UNL     1      11.611   7.203  46.222  1.00  0.00     0.211 HD
ENDBRANCH   2   6
ENDBRANCH   1   2
BRANCH   1   8
ATOM      8  C   UNL     1      13.888   4.830  45.155  1.00  0.00     0.171 C 
BRANCH   8   9
ATOM      9  C   UNL     1      13.994   3.909  46.385  1.00  0.00     0.190 C 
BRANCH   9  10
ATOM     10  O   UNL     1      12.720   3.535  46.830  1.00  0.00    -0.394 OA
ATOM     11  H   UNL     1      12.139   3.522  46.026  1.00  0.00     0.210 HD
ENDBRANCH   9  10
ENDBRANCH   8   9
BRANCH   8  12
ATOM     12  O   UNL     1      12.632   4.680  44.546  1.00  0.00    -0.388 OA
ATOM     13  H   UNL     1      12.134   5.527  44.693  1.00  0.00     0.211 HD
ENDBRANCH   8  12
ENDBRANCH   1   8
BRANCH   1  14
ATOM     14  O   UNL     1      15.554   6.535  45.513  1.00  0.00    -0.388 OA
ATOM     15  H   UNL     1      15.933   6.308  44.623  1.00  0.00     0.211 HD
ENDBRANCH   1  14
TORSDOF 9
ENDMDL
MODEL 5
REMARK VINA RESULT:    -4.838     16.062     17.326
REMARK INTER + INTRA:          -6.836
REMARK INTER:                  -6.531
REMARK INTRA:                  -0.305
REMARK UNBOUND:                -0.160
REMARK SMILES OC[C@@H](O)C(O)[C@H](O)CO
REMARK SMILES IDX 5 1 7 2 9 3 10 4 8 6 3 8 2 9 1 10 4 12 6 14
REMARK H PARENT 10 5 8 7 1 11 4 13 6 15
REMARK Flexibility Score: inf
ROOT
ATOM      1  C   UNL     1       5.545  14.603  56.718  1.00  0.00     0.176 C 
ENDROOT
BRANCH   1   2
ATOM      2  C   UNL     1       6.269  15.774  55.994  1.00  0.00     0.171 C 
BRANCH   2   3
ATOM      3  C   UNL     1       7.602  15.379  55.323  1.00  0.00     0.190 C 
BRANCH   3   4
ATOM      4  O   UNL     1       8.477  14.761  56.229  1.00  0.00    -0.394 OA
ATOM      5  H   UNL     1       9.321  15.283  56.217  1.00  0.00     0.210 HD
ENDBRANCH   3   4
ENDBRANCH   2   3
BRANCH   2   6
ATOM      6  O   UNL     1       5.408  16.406  55.081  1.00  0.00    -0.388 OA
ATOM      7  H   UNL     1       5.207  15.744  54.368  1.00  0.00     0.211 HD
ENDBRANCH   2   6
ENDBRANCH   1   2
BRANCH   1   8
ATOM      8  C   UNL     1       5.481  14.662  58.270  1.00  0.00     0.171 C 
BRANCH   8   9
ATOM      9  C   UNL     1       4.198  15.290  58.846  1.00  0.00     0.190 C 
BRANCH   9  10
ATOM     10  O   UNL     1       4.396  16.648  59.124  1.00  0.00    -0.394 OA
ATOM     11  H   UNL     1       5.155  16.691  59.763  1.00  0.00     0.210 HD
ENDBRANCH   9  10
ENDBRANCH   8   9
BRANCH   8  12
ATOM     12  O   UNL     1       5.672  13.377  58.806  1.00  0.00    -0.388 OA
ATOM     13  H   UNL     1       6.637  13.294  59.026  1.00  0.00     0.211 HD
ENDBRANCH   8  12
ENDBRANCH   1   8
BRANCH   1  14
ATOM     14  O   UNL     1       6.131  13.384  56.333  1.00  0.00    -0.388 OA
ATOM     15  H   UNL     1       5.421  12.842  55.898  1.00  0.00     0.211 HD
ENDBRANCH   1  14
TORSDOF 9
ENDMDL
MODEL 6
REMARK VINA RESULT:    -4.824      1.216      3.669
REMARK INTER + INTRA:          -6.816
REMARK INTER:                  -6.137
REMARK INTRA:                  -0.680
REMARK UNBOUND:                -0.160
REMARK SMILES OC[C@@H](O)C(O)[C@H](O)CO
REMARK SMILES IDX 5 1 7 2 9 3 10 4 8 6 3 8 2 9 1 10 4 12 6 14
REMARK H PARENT 10 5 8 7 1 11 4 13 6 15
REMARK Flexibility Score: inf
ROOT
ATOM      1  C   UNL     1      14.531   5.225  45.951  1.00  0.00     0.176 C 
ENDROOT
BRANCH   1   2
ATOM      2  C   UNL     1      14.109   6.107  44.741  1.00  0.00     0.171 C 
BRANCH   2   3
ATOM      3  C   UNL     1      15.284   6.797  44.018  1.00  0.00     0.190 C 
BRANCH   3   4
ATOM      4  O   UNL     1      16.375   7.001  44.875  1.00  0.00    -0.394 OA
ATOM      5  H   UNL     1      16.749   7.895  44.659  1.00  0.00     0.210 HD
ENDBRANCH   3   4
ENDBRANCH   2   3
BRANCH   2   6
ATOM      6  O   UNL     1      13.316   5.374  43.841  1.00  0.00    -0.388 OA
ATOM      7  H   UNL     1      13.313   5.876  42.985  1.00  0.00     0.211 HD
ENDBRANCH   2   6
ENDBRANCH   1   2
BRANCH   1   8
ATOM      8  C   UNL     1      13.725   3.917  46.190  1.00  0.00     0.171 C 
BRANCH   8   9
ATOM      9  C   UNL     1      14.243   3.032  47.338  1.00  0.00     0.190 C 
BRANCH   9  10
ATOM     10  O   UNL     1      15.625   3.195  47.500  1.00  0.00    -0.394 OA
ATOM     11  H   UNL     1      16.051   2.443  47.012  1.00  0.00     0.210 HD
ENDBRANCH   9  10
ENDBRANCH   8   9
BRANCH   8  12
ATOM     12  O   UNL     1      12.368   4.222  46.390  1.00  0.00    -0.388 OA
ATOM     13  H   UNL     1      11.854   3.391  46.212  1.00  0.00     0.211 HD
ENDBRANCH   8  12
ENDBRANCH   1   8
BRANCH   1  14
ATOM     14  O   UNL     1      14.499   5.999  47.125  1.00  0.00    -0.388 OA
ATOM     15  H   UNL     1      13.714   5.696  47.654  1.00  0.00     0.211 HD
ENDBRANCH   1  14
TORSDOF 9
ENDMDL
MODEL 7
REMARK VINA RESULT:    -4.805     15.588     16.985
REMARK INTER + INTRA:          -6.790
REMARK INTER:                  -6.134
REMARK INTRA:                  -0.655
REMARK UNBOUND:                -0.160
REMARK SMILES OC[C@@H](O)C(O)[C@H](O)CO
REMARK SMILES IDX 5 1 7 2 9 3 10 4 8 6 3 8 2 9 1 10 4 12 6 14
REMARK H PARENT 10 5 8 7 1 11 4 13 6 15
REMARK Flexibility Score: inf
ROOT
ATOM      1  C   UNL     1       6.266  15.678  56.459  1.00  0.00     0.176 C 
ENDROOT
BRANCH   1   2
ATOM      2  C   UNL     1       7.350  15.107  55.501  1.00  0.00     0.171 C 
BRANCH   2   3
ATOM      3  C   UNL     1       7.794  16.082  54.390  1.00  0.00     0.190 C 
BRANCH   3   4
ATOM      4  O   UNL     1       6.778  16.292  53.447  1.00  0.00    -0.394 OA
ATOM      5  H   UNL     1       6.040  15.667  53.673  1.00  0.00     0.210 HD
ENDBRANCH   3   4
ENDBRANCH   2   3
BRANCH   2   6
ATOM      6  O   UNL     1       8.453  14.625  56.226  1.00  0.00    -0.388 OA
ATOM      7  H   UNL     1       8.094  14.196  57.047  1.00  0.00     0.211 HD
ENDBRANCH   2   6
ENDBRANCH   1   2
BRANCH   1   8
ATOM      8  C   UNL     1       5.816  14.773  57.640  1.00  0.00     0.171 C 
BRANCH   8   9
ATOM      9  C   UNL     1       4.448  15.129  58.251  1.00  0.00     0.190 C 
BRANCH   9  10
ATOM     10  O   UNL     1       4.446  16.450  58.717  1.00  0.00    -0.394 OA
ATOM     11  H   UNL     1       4.583  17.025  57.920  1.00  0.00     0.210 HD
ENDBRANCH   9  10
ENDBRANCH   8   9
BRANCH   8  12
ATOM     12  O   UNL     1       5.831  13.426  57.243  1.00  0.00    -0.388 OA
ATOM     13  H   UNL     1       6.561  13.327  56.577  1.00  0.00     0.211 HD
ENDBRANCH   8  12
ENDBRANCH   1   8
BRANCH   1  14
ATOM     14  O   UNL     1       5.133  16.047  55.712  1.00  0.00    -0.388 OA
ATOM     15  H   UNL     1       5.408  16.075  54.757  1.00  0.00     0.211 HD
ENDBRANCH   1  14
TORSDOF 9
ENDMDL
MODEL 8
REMARK VINA RESULT:    -4.782     14.459     15.720
REMARK INTER + INTRA:          -6.758
REMARK INTER:                  -6.498
REMARK INTRA:                  -0.260
REMARK UNBOUND:                -0.160
REMARK SMILES OC[C@@H](O)C(O)[C@H](O)CO
REMARK SMILES IDX 5 1 7 2 9 3 10 4 8 6 3 8 2 9 1 10 4 12 6 14
REMARK H PARENT 10 5 8 7 1 11 4 13 6 15
REMARK Flexibility Score: inf
ROOT
ATOM      1  C   UNL     1       6.549  15.836  54.704  1.00  0.00     0.176 C 
ENDROOT
BRANCH   1   2
ATOM      2  C   UNL     1       6.905  15.181  56.069  1.00  0.00     0.171 C 
BRANCH   2   3
ATOM      3  C   UNL     1       5.853  14.178  56.586  1.00  0.00     0.190 C 
BRANCH   3   4
ATOM      4  O   UNL     1       4.551  14.689  56.481  1.00  0.00    -0.394 OA
ATOM      5  H   UNL     1       4.629  15.679  56.471  1.00  0.00     0.210 HD
ENDBRANCH   3   4
ENDBRANCH   2   3
BRANCH   2   6
ATOM      6  O   UNL     1       8.184  14.601  56.027  1.00  0.00    -0.388 OA
ATOM      7  H   UNL     1       8.831  15.339  55.879  1.00  0.00     0.211 HD
ENDBRANCH   2   6
ENDBRANCH   1   2
BRANCH   1   8
ATOM      8  C   UNL     1       7.684  16.608  53.972  1.00  0.00     0.171 C 
BRANCH   8   9
ATOM      9  C   UNL     1       7.741  16.392  52.449  1.00  0.00     0.190 C 
BRANCH   9  10
ATOM     10  O   UNL     1       8.870  15.639  52.100  1.00  0.00    -0.394 OA
ATOM     11  H   UNL     1       9.327  16.146  51.379  1.00  0.00     0.210 HD
ENDBRANCH   9  10
ENDBRANCH   8   9
BRANCH   8  12
ATOM     12  O   UNL     1       7.592  17.980  54.261  1.00  0.00    -0.388 OA
ATOM     13  H   UNL     1       6.815  18.333  53.752  1.00  0.00     0.211 HD
ENDBRANCH   8  12
ENDBRANCH   1   8
BRANCH   1  14
ATOM     14  O   UNL     1       5.450  16.696  54.873  1.00  0.00    -0.388 OA
ATOM     15  H   UNL     1       5.398  16.919  55.840  1.00  0.00     0.211 HD
ENDBRANCH   1  14
TORSDOF 9
ENDMDL
MODEL 9
REMARK VINA RESULT:    -4.673      1.200      2.022
REMARK INTER + INTRA:          -6.608
REMARK INTER:                  -6.208
REMARK INTRA:                  -0.399
REMARK UNBOUND:                -0.160
REMARK SMILES OC[C@@H](O)C(O)[C@H](O)CO
REMARK SMILES IDX 5 1 7 2 9 3 10 4 8 6 3 8 2 9 1 10 4 12 6 14
REMARK H PARENT 10 5 8 7 1 11 4 13 6 15
REMARK Flexibility Score: inf
ROOT
ATOM      1  C   UNL     1      14.485   5.890  46.381  1.00  0.00     0.176 C 
ENDROOT
BRANCH   1   2
ATOM      2  C   UNL     1      14.211   4.442  45.884  1.00  0.00     0.171 C 
BRANCH   2   3
ATOM      3  C   UNL     1      14.247   3.371  46.994  1.00  0.00     0.190 C 
BRANCH   3   4
ATOM      4  O   UNL     1      15.545   3.181  47.491  1.00  0.00    -0.394 OA
ATOM      5  H   UNL     1      16.172   3.476  46.781  1.00  0.00     0.210 HD
ENDBRANCH   3   4
ENDBRANCH   2   3
BRANCH   2   6
ATOM      6  O   UNL     1      13.009   4.382  45.158  1.00  0.00    -0.388 OA
ATOM      7  H   UNL     1      13.236   4.564  44.208  1.00  0.00     0.211 HD
ENDBRANCH   2   6
ENDBRANCH   1   2
BRANCH   1   8
ATOM      8  C   UNL     1      13.261   6.842  46.497  1.00  0.00     0.171 C 
BRANCH   8   9
ATOM      9  C   UNL     1      13.015   7.739  45.270  1.00  0.00     0.190 C 
BRANCH   9  10
ATOM     10  O   UNL     1      12.629   6.969  44.166  1.00  0.00    -0.394 OA
ATOM     11  H   UNL     1      13.430   6.446  43.900  1.00  0.00     0.210 HD
ENDBRANCH   9  10
ENDBRANCH   8   9
BRANCH   8  12
ATOM     12  O   UNL     1      12.105   6.101  46.792  1.00  0.00    -0.388 OA
ATOM     13  H   UNL     1      12.347   5.141  46.715  1.00  0.00     0.211 HD
ENDBRANCH   8  12
ENDBRANCH   1   8
BRANCH   1  14
ATOM     14  O   UNL     1      15.452   6.491  45.557  1.00  0.00    -0.388 OA
ATOM     15  H   UNL     1      15.730   5.810  44.888  1.00  0.00     0.211 HD
ENDBRANCH   1  14
TORSDOF 9
ENDMDL
