MODEL 1
REMARK VINA RESULT:    -3.486      0.000      0.000
REMARK INTER + INTRA:          -4.200
REMARK INTER:                  -4.097
REMARK INTRA:                  -0.103
REMARK UNBOUND:                -0.103
REMARK SMILES O=C([O-])CCC(=O)[O-]
REMARK SMILES IDX 4 1 2 2 1 3 3 4 5 5 6 6 7 7 8 8
REMARK H PARENT
REMARK Flexibility Score: inf
ROOT
ATOM      1  C   UNL     1      -9.743  -2.872   7.805  1.00  0.00     0.059 C 
ENDROOT
BRANCH   1   2
ATOM      2  C   UNL     1      -8.939  -3.349   6.634  1.00  0.00     0.042 C 
ATOM      3  O   UNL     1      -8.259  -4.405   6.720  1.00  0.00    -0.550 OA
ATOM      4  O   UNL     1      -8.911  -2.604   5.462  1.00  0.00    -0.550 OA
ENDBRANCH   1   2
BRANCH   1   5
ATOM      5  C   UNL     1      -9.326  -1.463   8.239  1.00  0.00     0.059 C 
BRANCH   5   6
ATOM      6  C   UNL     1      -7.891  -1.417   8.663  1.00  0.00     0.042 C 
ATOM      7  O   UNL     1      -7.011  -0.979   7.874  1.00  0.00    -0.550 OA
ATOM      8  O   UNL     1      -7.529  -1.817   9.943  1.00  0.00    -0.550 OA
ENDBRANCH   5   6
ENDBRANCH   1   5
TORSDOF 3
ENDMDL
MODEL 2
REMARK VINA RESULT:    -3.460      0.100      3.350
REMARK INTER + INTRA:          -4.169
REMARK INTER:                  -4.054
REMARK INTRA:                  -0.116
REMARK UNBOUND:                -0.103
REMARK SMILES O=C([O-])CCC(=O)[O-]
REMARK SMILES IDX 4 1 2 2 1 3 3 4 5 5 6 6 7 7 8 8
REMARK H PARENT
REMARK Flexibility Score: inf
ROOT
ATOM      1  C   UNL     1      -9.306  -1.453   8.275  1.00  0.00     0.059 C 
ENDROOT
BRANCH   1   2
ATOM      2  C   UNL     1      -7.866  -1.448   8.686  1.00  0.00     0.042 C 
ATOM      3  O   UNL     1      -6.990  -0.967   7.919  1.00  0.00    -0.550 OA
ATOM      4  O   UNL     1      -7.487  -2.010   9.898  1.00  0.00    -0.550 OA
ENDBRANCH   1   2
BRANCH   1   5
ATOM      5  C   UNL     1      -9.752  -2.839   7.799  1.00  0.00     0.059 C 
BRANCH   5   6
ATOM      6  C   UNL     1      -8.984  -3.284   6.593  1.00  0.00     0.042 C 
ATOM      7  O   UNL     1      -8.974  -2.576   5.551  1.00  0.00    -0.550 OA
ATOM      8  O   UNL     1      -8.242  -4.458   6.634  1.00  0.00    -0.550 OA
ENDBRANCH   5   6
ENDBRANCH   1   5
TORSDOF 3
ENDMDL
MODEL 3
REMARK VINA RESULT:    -3.387     19.647     20.712
REMARK INTER + INTRA:          -4.084
REMARK INTER:                  -3.985
REMARK INTRA:                  -0.099
REMARK UNBOUND:                -0.103
REMARK SMILES O=C([O-])CCC(=O)[O-]
REMARK SMILES IDX 4 1 2 2 1 3 3 4 5 5 6 6 7 7 8 8
REMARK H PARENT
REMARK Flexibility Score: inf
ROOT
ATOM      1  C   UNL     1       5.470  -5.705  -7.606  1.00  0.00     0.059 C 
ENDROOT
BRANCH   1   2
ATOM      2  C   UNL     1       5.284  -5.476  -6.138  1.00  0.00     0.042 C 
ATOM      3  O   UNL     1       5.570  -4.361  -5.628  1.00  0.00    -0.550 OA
ATOM      4  O   UNL     1       4.832  -6.508  -5.326  1.00  0.00    -0.550 OA
ENDBRANCH   1   2
BRANCH   1   5
ATOM      5  C   UNL     1       5.726  -4.393  -8.354  1.00  0.00     0.059 C 
BRANCH   5   6
ATOM      6  C   UNL     1       4.509  -3.934  -9.098  1.00  0.00     0.042 C 
ATOM      7  O   UNL     1       4.123  -4.553 -10.124  1.00  0.00    -0.550 OA
ATOM      8  O   UNL     1       3.778  -2.848  -8.634  1.00  0.00    -0.550 OA
ENDBRANCH   5   6
ENDBRANCH   1   5
TORSDOF 3
ENDMDL
MODEL 4
REMARK VINA RESULT:    -3.324      1.626      3.493
REMARK INTER + INTRA:          -4.010
REMARK INTER:                  -3.867
REMARK INTRA:                  -0.143
REMARK UNBOUND:                -0.103
REMARK SMILES O=C([O-])CCC(=O)[O-]
REMARK SMILES IDX 4 1 2 2 1 3 3 4 5 5 6 6 7 7 8 8
REMARK H PARENT
REMARK Flexibility Score: inf
ROOT
ATOM      1  C   UNL     1      -9.485  -3.443   7.712  1.00  0.00     0.059 C 
ENDROOT
BRANCH   1   2
ATOM      2  C   UNL     1      -8.750  -2.496   6.814  1.00  0.00     0.042 C 
ATOM      3  O   UNL     1      -8.957  -2.510   5.572  1.00  0.00    -0.550 OA
ATOM      4  O   UNL     1      -7.806  -1.626   7.345  1.00  0.00    -0.550 OA
ENDBRANCH   1   2
BRANCH   1   5
ATOM      5  C   UNL     1      -8.567  -4.552   8.235  1.00  0.00     0.059 C 
BRANCH   5   6
ATOM      6  C   UNL     1      -8.150  -5.487   7.142  1.00  0.00     0.042 C 
ATOM      7  O   UNL     1      -6.948  -5.525   6.766  1.00  0.00    -0.550 OA
ATOM      8  O   UNL     1      -9.078  -6.346   6.568  1.00  0.00    -0.550 OA
ENDBRANCH   5   6
ENDBRANCH   1   5
TORSDOF 3
ENDMDL
MODEL 5
REMARK VINA RESULT:    -3.283      1.734      2.890
REMARK INTER + INTRA:          -3.961
REMARK INTER:                  -3.902
REMARK INTRA:                  -0.059
REMARK UNBOUND:                -0.103
REMARK SMILES O=C([O-])CCC(=O)[O-]
REMARK SMILES IDX 4 1 2 2 1 3 3 4 5 5 6 6 7 7 8 8
REMARK H PARENT
REMARK Flexibility Score: inf
ROOT
ATOM      1  C   UNL     1      -9.294  -5.033   6.768  1.00  0.00     0.059 C 
ENDROOT
BRANCH   1   2
ATOM      2  C   UNL     1      -8.069  -5.879   6.938  1.00  0.00     0.042 C 
ATOM      3  O   UNL     1      -8.056  -7.067   6.520  1.00  0.00    -0.550 OA
ATOM      4  O   UNL     1      -6.957  -5.367   7.594  1.00  0.00    -0.550 OA
ENDBRANCH   1   2
BRANCH   1   5
ATOM      5  C   UNL     1      -9.198  -3.734   7.574  1.00  0.00     0.059 C 
BRANCH   5   6
ATOM      6  C   UNL     1      -8.697  -2.598   6.736  1.00  0.00     0.042 C 
ATOM      7  O   UNL     1      -9.012  -2.522   5.519  1.00  0.00    -0.550 OA
ATOM      8  O   UNL     1      -7.917  -1.601   7.308  1.00  0.00    -0.550 OA
ENDBRANCH   5   6
ENDBRANCH   1   5
TORSDOF 3
ENDMDL
MODEL 6
REMARK VINA RESULT:    -3.254     14.481     15.073
REMARK INTER + INTRA:          -3.928
REMARK INTER:                  -3.806
REMARK INTRA:                  -0.122
REMARK UNBOUND:                -0.103
REMARK SMILES O=C([O-])CCC(=O)[O-]
REMARK SMILES IDX 4 1 2 2 1 3 3 4 5 5 6 6 7 7 8 8
REMARK H PARENT
REMARK Flexibility Score: inf
ROOT
ATOM      1  C   UNL     1       4.618  -7.111   2.337  1.00  0.00     0.059 C 
ENDROOT
BRANCH   1   2
ATOM      2  C   UNL     1       3.742  -8.214   1.828  1.00  0.00     0.042 C 
ATOM      3  O   UNL     1       3.915  -8.678   0.671  1.00  0.00    -0.550 OA
ATOM      4  O   UNL     1       2.709  -8.701   2.619  1.00  0.00    -0.550 OA
ENDBRANCH   1   2
BRANCH   1   5
ATOM      5  C   UNL     1       5.853  -7.658   3.061  1.00  0.00     0.059 C 
BRANCH   5   6
ATOM      6  C   UNL     1       5.708  -7.568   4.549  1.00  0.00     0.042 C 
ATOM      7  O   UNL     1       6.307  -6.665   5.190  1.00  0.00    -0.550 OA
ATOM      8  O   UNL     1       4.877  -8.456   5.222  1.00  0.00    -0.550 OA
ENDBRANCH   5   6
ENDBRANCH   1   5
TORSDOF 3
ENDMDL
MODEL 7
REMARK VINA RESULT:    -3.031     19.811     20.694
REMARK INTER + INTRA:          -3.665
REMARK INTER:                  -3.544
REMARK INTRA:                  -0.121
REMARK UNBOUND:                -0.103
REMARK SMILES O=C([O-])CCC(=O)[O-]
REMARK SMILES IDX 4 1 2 2 1 3 3 4 5 5 6 6 7 7 8 8
REMARK H PARENT
REMARK Flexibility Score: inf
ROOT
ATOM      1  C   UNL     1       6.007  -6.202  -7.327  1.00  0.00     0.059 C 
ENDROOT
BRANCH   1   2
ATOM      2  C   UNL     1       5.296  -4.942  -6.939  1.00  0.00     0.042 C 
ATOM      3  O   UNL     1       4.788  -4.202  -7.822  1.00  0.00    -0.550 OA
ATOM      4  O   UNL     1       5.231  -4.566  -5.603  1.00  0.00    -0.550 OA
ENDBRANCH   1   2
BRANCH   1   5
ATOM      5  C   UNL     1       7.102  -6.566  -6.320  1.00  0.00     0.059 C 
BRANCH   5   6
ATOM      6  C   UNL     1       6.747  -7.791  -5.535  1.00  0.00     0.042 C 
ATOM      7  O   UNL     1       7.422  -8.846  -5.668  1.00  0.00    -0.550 OA
ATOM      8  O   UNL     1       5.698  -7.755  -4.625  1.00  0.00    -0.550 OA
ENDBRANCH   5   6
ENDBRANCH   1   5
TORSDOF 3
ENDMDL
