MODEL 1
REMARK VINA RESULT:    -4.675      0.000      0.000
REMARK INTER + INTRA:         -14.952
REMARK INTER:                 -11.782
REMARK INTRA:                  -3.170
REMARK UNBOUND:                -3.170
REMARK SMILES CCCCCCCCCCCCCCCCCCCCCCCCCCCC(=O)[O-]
REMARK SMILES IDX 15 1 16 2 17 3 18 4 19 5 20 6 21 7 22 8 23 9 24 10 25 11
REMARK SMILES IDX 26 12 27 13 28 14 29 15 30 16 14 17 13 18 12 19 11 20 10 21
REMARK SMILES IDX 9 22 8 23 7 24 6 25 5 26 4 27 3 28 2 29 1 30
REMARK H PARENT
REMARK Flexibility Score: inf
ROOT
ATOM      1  C   UNL     1       8.273  61.097  53.599  1.00  0.00     0.000 C 
ENDROOT
BRANCH   1   2
ATOM      2  C   UNL     1       6.975  61.534  52.898  1.00  0.00     0.000 C 
BRANCH   2   3
ATOM      3  C   UNL     1       7.200  62.012  51.451  1.00  0.00     0.000 C 
BRANCH   3   4
ATOM      4  C   UNL     1       8.656  62.362  51.086  1.00  0.00     0.000 C 
BRANCH   4   5
ATOM      5  C   UNL     1       9.087  61.813  49.716  1.00  0.00     0.000 C 
BRANCH   5   6
ATOM      6  C   UNL     1       8.616  62.691  48.545  1.00  0.00     0.000 C 
BRANCH   6   7
ATOM      7  C   UNL     1       9.762  63.215  47.654  1.00  0.00     0.000 C 
BRANCH   7   8
ATOM      8  C   UNL     1      10.440  64.458  48.257  1.00  0.00     0.000 C 
BRANCH   8   9
ATOM      9  C   UNL     1       9.444  65.593  48.544  1.00  0.00     0.000 C 
BRANCH   9  10
ATOM     10  C   UNL     1       9.621  66.192  49.948  1.00  0.00     0.000 C 
BRANCH  10  11
ATOM     11  C   UNL     1      10.991  65.823  50.534  1.00  0.00     0.000 C 
BRANCH  11  12
ATOM     12  C   UNL     1      11.984  67.001  50.524  1.00  0.00     0.006 C 
BRANCH  12  13
ATOM     13  C   UNL     1      11.324  68.390  50.491  1.00  0.00     0.053 C 
BRANCH  13  14
ATOM     14  C   UNL     1      11.589  69.170  51.742  1.00  0.00     0.041 C 
ATOM     15  O   UNL     1      12.714  69.106  52.302  1.00  0.00    -0.550 OA
ATOM     16  O   UNL     1      10.581  69.939  52.309  1.00  0.00    -0.550 OA
ENDBRANCH  13  14
ENDBRANCH  12  13
ENDBRANCH  11  12
ENDBRANCH  10  11
ENDBRANCH   9  10
ENDBRANCH   8   9
ENDBRANCH   7   8
ENDBRANCH   6   7
ENDBRANCH   5   6
ENDBRANCH   4   5
ENDBRANCH   3   4
ENDBRANCH   2   3
ENDBRANCH   1   2
BRANCH   1  17
ATOM     17  C   UNL     1       8.060  60.758  55.083  1.00  0.00     0.000 C 
BRANCH  17  18
ATOM     18  C   UNL     1       7.937  59.245  55.336  1.00  0.00     0.000 C 
BRANCH  18  19
ATOM     19  C   UNL     1       7.284  58.931  56.693  1.00  0.00     0.000 C 
BRANCH  19  20
ATOM     20  C   UNL     1       6.233  59.981  57.097  1.00  0.00     0.000 C 
BRANCH  20  21
ATOM     21  C   UNL     1       5.697  59.765  58.522  1.00  0.00     0.000 C 
BRANCH  21  22
ATOM     22  C   UNL     1       5.272  61.082  59.196  1.00  0.00    -0.000 C 
BRANCH  22  23
ATOM     23  C   UNL     1       6.310  62.201  59.018  1.00  0.00    -0.000 C 
BRANCH  23  24
ATOM     24  C   UNL     1       7.530  62.021  59.939  1.00  0.00    -0.000 C 
BRANCH  24  25
ATOM     25  C   UNL     1       8.859  62.023  59.166  1.00  0.00    -0.000 C 
BRANCH  25  26
ATOM     26  C   UNL     1       8.814  62.928  57.922  1.00  0.00    -0.000 C 
BRANCH  26  27
ATOM     27  C   UNL     1       9.964  63.949  57.885  1.00  0.00    -0.000 C 
BRANCH  27  28
ATOM     28  C   UNL     1      10.380  64.414  56.477  1.00  0.00    -0.000 C 
BRANCH  28  29
ATOM     29  C   UNL     1      10.644  63.256  55.491  1.00  0.00    -0.003 C 
ATOM     30  C   UNL     1      11.053  63.751  54.104  1.00  0.00     0.004 C 
ENDBRANCH  28  29
ENDBRANCH  27  28
ENDBRANCH  26  27
ENDBRANCH  25  26
ENDBRANCH  24  25
ENDBRANCH  23  24
ENDBRANCH  22  23
ENDBRANCH  21  22
ENDBRANCH  20  21
ENDBRANCH  19  20
ENDBRANCH  18  19
ENDBRANCH  17  18
ENDBRANCH   1  17
TORSDOF 26
ENDMDL
MODEL 2
REMARK VINA RESULT:    -4.669      2.445      9.134
REMARK INTER + INTRA:         -14.936
REMARK INTER:                 -11.874
REMARK INTRA:                  -3.062
REMARK UNBOUND:                -3.170
REMARK SMILES CCCCCCCCCCCCCCCCCCCCCCCCCCCC(=O)[O-]
REMARK SMILES IDX 15 1 16 2 17 3 18 4 19 5 20 6 21 7 22 8 23 9 24 10 25 11
REMARK SMILES IDX 26 12 27 13 28 14 29 15 30 16 14 17 13 18 12 19 11 20 10 21
REMARK SMILES IDX 9 22 8 23 7 24 6 25 5 26 4 27 3 28 2 29 1 30
REMARK H PARENT
REMARK Flexibility Score: inf
ROOT
ATOM      1  C   UNL     1       8.210  60.686  53.951  1.00  0.00     0.000 C 
ENDROOT
BRANCH   1   2
ATOM      2  C   UNL     1       7.933  60.976  55.435  1.00  0.00     0.000 C 
BRANCH   2   3
ATOM      3  C   UNL     1       7.771  59.699  56.282  1.00  0.00     0.000 C 
BRANCH   3   4
ATOM      4  C   UNL     1       6.406  59.531  56.976  1.00  0.00     0.000 C 
BRANCH   4   5
ATOM      5  C   UNL     1       5.437  60.692  56.698  1.00  0.00     0.000 C 
BRANCH   5   6
ATOM      6  C   UNL     1       4.318  60.800  57.748  1.00  0.00     0.000 C 
BRANCH   6   7
ATOM      7  C   UNL     1       4.058  62.239  58.241  1.00  0.00     0.000 C 
BRANCH   7   8
ATOM      8  C   UNL     1       5.279  62.829  58.969  1.00  0.00     0.000 C 
BRANCH   8   9
ATOM      9  C   UNL     1       5.800  61.912  60.087  1.00  0.00     0.000 C 
BRANCH   9  10
ATOM     10  C   UNL     1       7.335  61.873  60.151  1.00  0.00     0.000 C 
BRANCH  10  11
ATOM     11  C   UNL     1       7.951  62.332  58.821  1.00  0.00     0.000 C 
BRANCH  11  12
ATOM     12  C   UNL     1       9.462  62.615  58.928  1.00  0.00     0.006 C 
BRANCH  12  13
ATOM     13  C   UNL     1       9.862  64.066  58.613  1.00  0.00     0.053 C 
BRANCH  13  14
ATOM     14  C   UNL     1      10.050  64.293  57.144  1.00  0.00     0.041 C 
ATOM     15  O   UNL     1      10.392  63.342  56.395  1.00  0.00    -0.550 OA
ATOM     16  O   UNL     1       9.882  65.563  56.610  1.00  0.00    -0.550 OA
ENDBRANCH  13  14
ENDBRANCH  12  13
ENDBRANCH  11  12
ENDBRANCH  10  11
ENDBRANCH   9  10
ENDBRANCH   8   9
ENDBRANCH   7   8
ENDBRANCH   6   7
ENDBRANCH   5   6
ENDBRANCH   4   5
ENDBRANCH   3   4
ENDBRANCH   2   3
ENDBRANCH   1   2
BRANCH   1  17
ATOM     17  C   UNL     1       9.133  61.732  53.304  1.00  0.00     0.000 C 
BRANCH  17  18
ATOM     18  C   UNL     1       8.874  61.905  51.798  1.00  0.00     0.000 C 
BRANCH  18  19
ATOM     19  C   UNL     1       7.413  62.276  51.495  1.00  0.00     0.000 C 
BRANCH  19  20
ATOM     20  C   UNL     1       7.097  62.241  49.988  1.00  0.00     0.000 C 
BRANCH  20  21
ATOM     21  C   UNL     1       6.202  63.409  49.542  1.00  0.00     0.000 C 
BRANCH  21  22
ATOM     22  C   UNL     1       6.843  64.245  48.421  1.00  0.00    -0.000 C 
BRANCH  22  23
ATOM     23  C   UNL     1       7.390  65.591  48.924  1.00  0.00    -0.000 C 
BRANCH  23  24
ATOM     24  C   UNL     1       8.917  65.571  49.110  1.00  0.00    -0.000 C 
BRANCH  24  25
ATOM     25  C   UNL     1       9.642  64.844  47.965  1.00  0.00    -0.000 C 
BRANCH  25  26
ATOM     26  C   UNL     1      10.130  63.443  48.375  1.00  0.00    -0.000 C 
BRANCH  26  27
ATOM     27  C   UNL     1       9.984  62.408  47.247  1.00  0.00    -0.000 C 
BRANCH  27  28
ATOM     28  C   UNL     1       9.929  62.995  45.824  1.00  0.00    -0.000 C 
BRANCH  28  29
ATOM     29  C   UNL     1      10.664  62.142  44.768  1.00  0.00    -0.003 C 
ATOM     30  C   UNL     1      11.308  60.895  45.372  1.00  0.00     0.004 C 
ENDBRANCH  28  29
ENDBRANCH  27  28
ENDBRANCH  26  27
ENDBRANCH  25  26
ENDBRANCH  24  25
ENDBRANCH  23  24
ENDBRANCH  22  23
ENDBRANCH  21  22
ENDBRANCH  20  21
ENDBRANCH  19  20
ENDBRANCH  18  19
ENDBRANCH  17  18
ENDBRANCH   1  17
TORSDOF 26
ENDMDL
MODEL 3
REMARK VINA RESULT:    -4.638      1.457      2.531
REMARK INTER + INTRA:         -14.857
REMARK INTER:                 -11.860
REMARK INTRA:                  -2.997
REMARK UNBOUND:                -3.170
REMARK SMILES CCCCCCCCCCCCCCCCCCCCCCCCCCCC(=O)[O-]
REMARK SMILES IDX 15 1 16 2 17 3 18 4 19 5 20 6 21 7 22 8 23 9 24 10 25 11
REMARK SMILES IDX 26 12 27 13 28 14 29 15 30 16 14 17 13 18 12 19 11 20 10 21
REMARK SMILES IDX 9 22 8 23 7 24 6 25 5 26 4 27 3 28 2 29 1 30
REMARK H PARENT
REMARK Flexibility Score: inf
ROOT
ATOM      1  C   UNL     1       8.060  61.125  56.574  1.00  0.00     0.000 C 
ENDROOT
BRANCH   1   2
ATOM      2  C   UNL     1       8.775  61.408  55.242  1.00  0.00     0.000 C 
BRANCH   2   3
ATOM      3  C   UNL     1       8.235  60.562  54.073  1.00  0.00     0.000 C 
BRANCH   3   4
ATOM      4  C   UNL     1       7.603  61.358  52.914  1.00  0.00     0.000 C 
BRANCH   4   5
ATOM      5  C   UNL     1       8.642  62.007  51.985  1.00  0.00     0.000 C 
BRANCH   5   6
ATOM      6  C   UNL     1       8.019  62.583  50.702  1.00  0.00     0.000 C 
BRANCH   6   7
ATOM      7  C   UNL     1       8.314  61.753  49.435  1.00  0.00     0.000 C 
BRANCH   7   8
ATOM      8  C   UNL     1       9.412  62.394  48.568  1.00  0.00     0.000 C 
BRANCH   8   9
ATOM      9  C   UNL     1       8.853  63.426  47.575  1.00  0.00     0.000 C 
BRANCH   9  10
ATOM     10  C   UNL     1       9.428  64.833  47.801  1.00  0.00     0.000 C 
BRANCH  10  11
ATOM     11  C   UNL     1      10.190  64.908  49.133  1.00  0.00     0.000 C 
BRANCH  11  12
ATOM     12  C   UNL     1      11.715  65.004  48.945  1.00  0.00     0.006 C 
BRANCH  12  13
ATOM     13  C   UNL     1      12.455  65.716  50.091  1.00  0.00     0.053 C 
BRANCH  13  14
ATOM     14  C   UNL     1      11.947  67.109  50.310  1.00  0.00     0.041 C 
ATOM     15  O   UNL     1      11.366  67.409  51.385  1.00  0.00    -0.550 OA
ATOM     16  O   UNL     1      12.085  68.064  49.312  1.00  0.00    -0.550 OA
ENDBRANCH  13  14
ENDBRANCH  12  13
ENDBRANCH  11  12
ENDBRANCH  10  11
ENDBRANCH   9  10
ENDBRANCH   8   9
ENDBRANCH   7   8
ENDBRANCH   6   7
ENDBRANCH   5   6
ENDBRANCH   4   5
ENDBRANCH   3   4
ENDBRANCH   2   3
ENDBRANCH   1   2
BRANCH   1  17
ATOM     17  C   UNL     1       7.548  59.679  56.675  1.00  0.00     0.000 C 
BRANCH  17  18
ATOM     18  C   UNL     1       6.088  59.597  57.156  1.00  0.00     0.000 C 
BRANCH  18  19
ATOM     19  C   UNL     1       5.266  60.829  56.740  1.00  0.00     0.000 C 
BRANCH  19  20
ATOM     20  C   UNL     1       4.134  61.143  57.734  1.00  0.00     0.000 C 
BRANCH  20  21
ATOM     21  C   UNL     1       4.237  62.561  58.321  1.00  0.00     0.000 C 
BRANCH  21  22
ATOM     22  C   UNL     1       5.517  62.762  59.150  1.00  0.00    -0.000 C 
BRANCH  22  23
ATOM     23  C   UNL     1       5.678  61.710  60.259  1.00  0.00    -0.000 C 
BRANCH  23  24
ATOM     24  C   UNL     1       7.123  61.623  60.780  1.00  0.00    -0.000 C 
BRANCH  24  25
ATOM     25  C   UNL     1       8.151  62.145  59.762  1.00  0.00    -0.000 C 
BRANCH  25  26
ATOM     26  C   UNL     1       9.560  62.275  60.366  1.00  0.00    -0.000 C 
BRANCH  26  27
ATOM     27  C   UNL     1      10.404  63.364  59.682  1.00  0.00    -0.000 C 
BRANCH  27  28
ATOM     28  C   UNL     1      10.928  62.999  58.279  1.00  0.00    -0.000 C 
BRANCH  28  29
ATOM     29  C   UNL     1      10.549  64.022  57.187  1.00  0.00    -0.003 C 
ATOM     30  C   UNL     1       9.470  64.999  57.652  1.00  0.00     0.004 C 
ENDBRANCH  28  29
ENDBRANCH  27  28
ENDBRANCH  26  27
ENDBRANCH  25  26
ENDBRANCH  24  25
ENDBRANCH  23  24
ENDBRANCH  22  23
ENDBRANCH  21  22
ENDBRANCH  20  21
ENDBRANCH  19  20
ENDBRANCH  18  19
ENDBRANCH  17  18
ENDBRANCH   1  17
TORSDOF 26
ENDMDL
MODEL 4
REMARK VINA RESULT:    -4.611      2.108      8.685
REMARK INTER + INTRA:         -14.790
REMARK INTER:                 -11.665
REMARK INTRA:                  -3.125
REMARK UNBOUND:                -3.170
REMARK SMILES CCCCCCCCCCCCCCCCCCCCCCCCCCCC(=O)[O-]
REMARK SMILES IDX 15 1 16 2 17 3 18 4 19 5 20 6 21 7 22 8 23 9 24 10 25 11
REMARK SMILES IDX 26 12 27 13 28 14 29 15 30 16 14 17 13 18 12 19 11 20 10 21
REMARK SMILES IDX 9 22 8 23 7 24 6 25 5 26 4 27 3 28 2 29 1 30
REMARK H PARENT
REMARK Flexibility Score: inf
ROOT
ATOM      1  C   UNL     1       8.077  60.564  53.966  1.00  0.00     0.000 C 
ENDROOT
BRANCH   1   2
ATOM      2  C   UNL     1       7.728  61.090  55.368  1.00  0.00     0.000 C 
BRANCH   2   3
ATOM      3  C   UNL     1       7.877  60.022  56.469  1.00  0.00     0.000 C 
BRANCH   3   4
ATOM      4  C   UNL     1       6.636  59.141  56.712  1.00  0.00     0.000 C 
BRANCH   4   5
ATOM      5  C   UNL     1       5.812  59.577  57.935  1.00  0.00     0.000 C 
BRANCH   5   6
ATOM      6  C   UNL     1       4.991  60.852  57.678  1.00  0.00     0.000 C 
BRANCH   6   7
ATOM      7  C   UNL     1       5.412  62.054  58.551  1.00  0.00     0.000 C 
BRANCH   7   8
ATOM      8  C   UNL     1       5.675  61.643  60.011  1.00  0.00     0.000 C 
BRANCH   8   9
ATOM      9  C   UNL     1       7.162  61.735  60.391  1.00  0.00     0.000 C 
BRANCH   9  10
ATOM     10  C   UNL     1       8.030  62.284  59.249  1.00  0.00     0.000 C 
BRANCH  10  11
ATOM     11  C   UNL     1       9.511  62.320  59.653  1.00  0.00     0.000 C 
BRANCH  11  12
ATOM     12  C   UNL     1      10.258  63.541  59.084  1.00  0.00     0.006 C 
BRANCH  12  13
ATOM     13  C   UNL     1       9.493  64.301  57.987  1.00  0.00     0.053 C 
BRANCH  13  14
ATOM     14  C   UNL     1      10.301  64.443  56.732  1.00  0.00     0.041 C 
ATOM     15  O   UNL     1      10.838  65.544  56.447  1.00  0.00    -0.550 OA
ATOM     16  O   UNL     1      10.428  63.369  55.861  1.00  0.00    -0.550 OA
ENDBRANCH  13  14
ENDBRANCH  12  13
ENDBRANCH  11  12
ENDBRANCH  10  11
ENDBRANCH   9  10
ENDBRANCH   8   9
ENDBRANCH   7   8
ENDBRANCH   6   7
ENDBRANCH   5   6
ENDBRANCH   4   5
ENDBRANCH   3   4
ENDBRANCH   2   3
ENDBRANCH   1   2
BRANCH   1  17
ATOM     17  C   UNL     1       9.047  61.488  53.211  1.00  0.00     0.000 C 
BRANCH  17  18
ATOM     18  C   UNL     1       8.457  62.024  51.896  1.00  0.00     0.000 C 
BRANCH  18  19
ATOM     19  C   UNL     1       6.933  61.833  51.818  1.00  0.00     0.000 C 
BRANCH  19  20
ATOM     20  C   UNL     1       6.250  62.901  50.944  1.00  0.00     0.000 C 
BRANCH  20  21
ATOM     21  C   UNL     1       5.873  62.374  49.550  1.00  0.00     0.000 C 
BRANCH  21  22
ATOM     22  C   UNL     1       5.741  63.502  48.512  1.00  0.00    -0.000 C 
BRANCH  22  23
ATOM     23  C   UNL     1       6.352  63.131  47.151  1.00  0.00    -0.000 C 
BRANCH  23  24
ATOM     24  C   UNL     1       7.837  63.520  47.049  1.00  0.00    -0.000 C 
BRANCH  24  25
ATOM     25  C   UNL     1       8.775  62.406  47.544  1.00  0.00    -0.000 C 
BRANCH  25  26
ATOM     26  C   UNL     1       9.785  62.912  48.590  1.00  0.00    -0.000 C 
BRANCH  26  27
ATOM     27  C   UNL     1       9.625  64.410  48.897  1.00  0.00    -0.000 C 
BRANCH  27  28
ATOM     28  C   UNL     1      10.943  65.206  48.968  1.00  0.00    -0.000 C 
BRANCH  28  29
ATOM     29  C   UNL     1      11.472  65.409  50.403  1.00  0.00    -0.003 C 
ATOM     30  C   UNL     1      10.392  65.183  51.460  1.00  0.00     0.004 C 
ENDBRANCH  28  29
ENDBRANCH  27  28
ENDBRANCH  26  27
ENDBRANCH  25  26
ENDBRANCH  24  25
ENDBRANCH  23  24
ENDBRANCH  22  23
ENDBRANCH  21  22
ENDBRANCH  20  21
ENDBRANCH  19  20
ENDBRANCH  18  19
ENDBRANCH  17  18
ENDBRANCH   1  17
TORSDOF 26
ENDMDL
MODEL 5
REMARK VINA RESULT:    -4.604      3.319      8.190
REMARK INTER + INTRA:         -14.773
REMARK INTER:                 -11.698
REMARK INTRA:                  -3.075
REMARK UNBOUND:                -3.170
REMARK SMILES CCCCCCCCCCCCCCCCCCCCCCCCCCCC(=O)[O-]
REMARK SMILES IDX 15 1 16 2 17 3 18 4 19 5 20 6 21 7 22 8 23 9 24 10 25 11
REMARK SMILES IDX 26 12 27 13 28 14 29 15 30 16 14 17 13 18 12 19 11 20 10 21
REMARK SMILES IDX 9 22 8 23 7 24 6 25 5 26 4 27 3 28 2 29 1 30
REMARK H PARENT
REMARK Flexibility Score: inf
ROOT
ATOM      1  C   UNL     1       6.268  63.719  48.573  1.00  0.00     0.000 C 
ENDROOT
BRANCH   1   2
ATOM      2  C   UNL     1       5.653  62.529  49.329  1.00  0.00     0.000 C 
BRANCH   2   3
ATOM      3  C   UNL     1       5.558  62.762  50.849  1.00  0.00     0.000 C 
BRANCH   3   4
ATOM      4  C   UNL     1       6.522  61.924  51.711  1.00  0.00     0.000 C 
BRANCH   4   5
ATOM      5  C   UNL     1       7.986  62.384  51.606  1.00  0.00     0.000 C 
BRANCH   5   6
ATOM      6  C   UNL     1       8.949  61.503  52.419  1.00  0.00     0.000 C 
BRANCH   6   7
ATOM      7  C   UNL     1       8.651  61.481  53.933  1.00  0.00     0.000 C 
BRANCH   7   8
ATOM      8  C   UNL     1       8.393  60.055  54.451  1.00  0.00     0.000 C 
BRANCH   8   9
ATOM      9  C   UNL     1       7.915  60.033  55.911  1.00  0.00     0.000 C 
BRANCH   9  10
ATOM     10  C   UNL     1       7.265  58.696  56.299  1.00  0.00     0.000 C 
BRANCH  10  11
ATOM     11  C   UNL     1       6.087  58.916  57.259  1.00  0.00     0.000 C 
BRANCH  11  12
ATOM     12  C   UNL     1       6.049  60.340  57.845  1.00  0.00     0.006 C 
BRANCH  12  13
ATOM     13  C   UNL     1       4.752  61.114  57.556  1.00  0.00     0.053 C 
BRANCH  13  14
ATOM     14  C   UNL     1       4.579  62.286  58.474  1.00  0.00     0.041 C 
ATOM     15  O   UNL     1       3.803  63.226  58.161  1.00  0.00    -0.550 OA
ATOM     16  O   UNL     1       5.302  62.356  59.657  1.00  0.00    -0.550 OA
ENDBRANCH  13  14
ENDBRANCH  12  13
ENDBRANCH  11  12
ENDBRANCH  10  11
ENDBRANCH   9  10
ENDBRANCH   8   9
ENDBRANCH   7   8
ENDBRANCH   6   7
ENDBRANCH   5   6
ENDBRANCH   4   5
ENDBRANCH   3   4
ENDBRANCH   2   3
ENDBRANCH   1   2
BRANCH   1  17
ATOM     17  C   UNL     1       7.281  63.282  47.503  1.00  0.00     0.000 C 
BRANCH  17  18
ATOM     18  C   UNL     1       8.664  62.954  48.092  1.00  0.00     0.000 C 
BRANCH  18  19
ATOM     19  C   UNL     1       9.551  64.202  48.230  1.00  0.00     0.000 C 
BRANCH  19  20
ATOM     20  C   UNL     1       9.861  64.545  49.699  1.00  0.00     0.000 C 
BRANCH  20  21
ATOM     21  C   UNL     1      11.055  65.503  49.846  1.00  0.00     0.000 C 
BRANCH  21  22
ATOM     22  C   UNL     1      11.528  65.633  51.304  1.00  0.00    -0.000 C 
BRANCH  22  23
ATOM     23  C   UNL     1      10.614  64.890  52.292  1.00  0.00    -0.000 C 
BRANCH  23  24
ATOM     24  C   UNL     1      11.409  64.148  53.381  1.00  0.00    -0.000 C 
BRANCH  24  25
ATOM     25  C   UNL     1      11.650  65.011  54.630  1.00  0.00    -0.000 C 
BRANCH  25  26
ATOM     26  C   UNL     1      10.463  64.970  55.609  1.00  0.00    -0.000 C 
BRANCH  26  27
ATOM     27  C   UNL     1      10.375  63.644  56.383  1.00  0.00    -0.000 C 
BRANCH  27  28
ATOM     28  C   UNL     1      10.843  63.711  57.850  1.00  0.00    -0.000 C 
BRANCH  28  29
ATOM     29  C   UNL     1      10.052  62.787  58.800  1.00  0.00    -0.003 C 
ATOM     30  C   UNL     1       8.566  62.723  58.448  1.00  0.00     0.004 C 
ENDBRANCH  28  29
ENDBRANCH  27  28
ENDBRANCH  26  27
ENDBRANCH  25  26
ENDBRANCH  24  25
ENDBRANCH  23  24
ENDBRANCH  22  23
ENDBRANCH  21  22
ENDBRANCH  20  21
ENDBRANCH  19  20
ENDBRANCH  18  19
ENDBRANCH  17  18
ENDBRANCH   1  17
TORSDOF 26
ENDMDL
MODEL 6
REMARK VINA RESULT:    -4.547      1.641      2.271
REMARK INTER + INTRA:         -14.629
REMARK INTER:                 -11.158
REMARK INTRA:                  -3.470
REMARK UNBOUND:                -3.170
REMARK SMILES CCCCCCCCCCCCCCCCCCCCCCCCCCCC(=O)[O-]
REMARK SMILES IDX 15 1 16 2 17 3 18 4 19 5 20 6 21 7 22 8 23 9 24 10 25 11
REMARK SMILES IDX 26 12 27 13 28 14 29 15 30 16 14 17 13 18 12 19 11 20 10 21
REMARK SMILES IDX 9 22 8 23 7 24 6 25 5 26 4 27 3 28 2 29 1 30
REMARK H PARENT
REMARK Flexibility Score: inf
ROOT
ATOM      1  C   UNL     1       8.605  60.708  54.506  1.00  0.00     0.000 C 
ENDROOT
BRANCH   1   2
ATOM      2  C   UNL     1       8.029  61.291  53.205  1.00  0.00     0.000 C 
BRANCH   2   3
ATOM      3  C   UNL     1       9.108  61.881  52.276  1.00  0.00     0.000 C 
BRANCH   3   4
ATOM      4  C   UNL     1       8.581  62.602  51.020  1.00  0.00     0.000 C 
BRANCH   4   5
ATOM      5  C   UNL     1       9.010  61.925  49.708  1.00  0.00     0.000 C 
BRANCH   5   6
ATOM      6  C   UNL     1       8.057  62.230  48.539  1.00  0.00     0.000 C 
BRANCH   6   7
ATOM      7  C   UNL     1       6.632  62.627  48.980  1.00  0.00     0.000 C 
BRANCH   7   8
ATOM      8  C   UNL     1       6.282  64.068  48.569  1.00  0.00     0.000 C 
BRANCH   8   9
ATOM      9  C   UNL     1       7.084  64.546  47.348  1.00  0.00     0.000 C 
BRANCH   9  10
ATOM     10  C   UNL     1       7.956  65.773  47.658  1.00  0.00     0.000 C 
BRANCH  10  11
ATOM     11  C   UNL     1       7.914  66.112  49.155  1.00  0.00     0.000 C 
BRANCH  11  12
ATOM     12  C   UNL     1       9.297  66.483  49.723  1.00  0.00     0.006 C 
BRANCH  12  13
ATOM     13  C   UNL     1      10.412  65.477  49.394  1.00  0.00     0.053 C 
BRANCH  13  14
ATOM     14  C   UNL     1      11.564  65.580  50.347  1.00  0.00     0.041 C 
ATOM     15  O   UNL     1      12.740  65.392  49.941  1.00  0.00    -0.550 OA
ATOM     16  O   UNL     1      11.334  65.848  51.690  1.00  0.00    -0.550 OA
ENDBRANCH  13  14
ENDBRANCH  12  13
ENDBRANCH  11  12
ENDBRANCH  10  11
ENDBRANCH   9  10
ENDBRANCH   8   9
ENDBRANCH   7   8
ENDBRANCH   6   7
ENDBRANCH   5   6
ENDBRANCH   4   5
ENDBRANCH   3   4
ENDBRANCH   2   3
ENDBRANCH   1   2
BRANCH   1  17
ATOM     17  C   UNL     1       7.576  60.679  55.648  1.00  0.00     0.000 C 
BRANCH  17  18
ATOM     18  C   UNL     1       7.497  59.309  56.344  1.00  0.00     0.000 C 
BRANCH  18  19
ATOM     19  C   UNL     1       6.281  59.198  57.279  1.00  0.00     0.000 C 
BRANCH  19  20
ATOM     20  C   UNL     1       5.305  60.378  57.118  1.00  0.00     0.000 C 
BRANCH  20  21
ATOM     21  C   UNL     1       5.033  61.109  58.443  1.00  0.00     0.000 C 
BRANCH  21  22
ATOM     22  C   UNL     1       5.885  60.562  59.601  1.00  0.00    -0.000 C 
BRANCH  22  23
ATOM     23  C   UNL     1       6.970  61.551  60.059  1.00  0.00    -0.000 C 
BRANCH  23  24
ATOM     24  C   UNL     1       7.309  62.591  58.977  1.00  0.00    -0.000 C 
BRANCH  24  25
ATOM     25  C   UNL     1       8.789  62.548  58.559  1.00  0.00    -0.000 C 
BRANCH  25  26
ATOM     26  C   UNL     1       9.453  63.935  58.610  1.00  0.00    -0.000 C 
BRANCH  26  27
ATOM     27  C   UNL     1      10.519  64.126  57.518  1.00  0.00    -0.000 C 
BRANCH  27  28
ATOM     28  C   UNL     1      10.297  63.301  56.236  1.00  0.00    -0.000 C 
BRANCH  28  29
ATOM     29  C   UNL     1      10.836  63.977  54.958  1.00  0.00    -0.003 C 
ATOM     30  C   UNL     1      11.369  65.385  55.223  1.00  0.00     0.004 C 
ENDBRANCH  28  29
ENDBRANCH  27  28
ENDBRANCH  26  27
ENDBRANCH  25  26
ENDBRANCH  24  25
ENDBRANCH  23  24
ENDBRANCH  22  23
ENDBRANCH  21  22
ENDBRANCH  20  21
ENDBRANCH  19  20
ENDBRANCH  18  19
ENDBRANCH  17  18
ENDBRANCH   1  17
TORSDOF 26
ENDMDL
MODEL 7
REMARK VINA RESULT:    -4.524      2.231      8.116
REMARK INTER + INTRA:         -14.570
REMARK INTER:                 -11.553
REMARK INTRA:                  -3.017
REMARK UNBOUND:                -3.170
REMARK SMILES CCCCCCCCCCCCCCCCCCCCCCCCCCCC(=O)[O-]
REMARK SMILES IDX 15 1 16 2 17 3 18 4 19 5 20 6 21 7 22 8 23 9 24 10 25 11
REMARK SMILES IDX 26 12 27 13 28 14 29 15 30 16 14 17 13 18 12 19 11 20 10 21
REMARK SMILES IDX 9 22 8 23 7 24 6 25 5 26 4 27 3 28 2 29 1 30
REMARK H PARENT
REMARK Flexibility Score: inf
ROOT
ATOM      1  C   UNL     1       7.878  59.735  55.245  1.00  0.00     0.000 C 
ENDROOT
BRANCH   1   2
ATOM      2  C   UNL     1       7.798  59.307  56.720  1.00  0.00     0.000 C 
BRANCH   2   3
ATOM      3  C   UNL     1       6.353  59.092  57.210  1.00  0.00     0.000 C 
BRANCH   3   4
ATOM      4  C   UNL     1       5.362  60.224  56.875  1.00  0.00     0.000 C 
BRANCH   4   5
ATOM      5  C   UNL     1       5.572  61.486  57.728  1.00  0.00     0.000 C 
BRANCH   5   6
ATOM      6  C   UNL     1       5.798  61.170  59.216  1.00  0.00     0.000 C 
BRANCH   6   7
ATOM      7  C   UNL     1       7.094  61.776  59.795  1.00  0.00     0.000 C 
BRANCH   7   8
ATOM      8  C   UNL     1       7.998  62.363  58.696  1.00  0.00     0.000 C 
BRANCH   8   9
ATOM      9  C   UNL     1       9.255  63.041  59.265  1.00  0.00     0.000 C 
BRANCH   9  10
ATOM     10  C   UNL     1      10.410  63.086  58.253  1.00  0.00     0.000 C 
BRANCH  10  11
ATOM     11  C   UNL     1      10.157  64.151  57.176  1.00  0.00     0.000 C 
BRANCH  11  12
ATOM     12  C   UNL     1      10.840  63.821  55.835  1.00  0.00     0.006 C 
BRANCH  12  13
ATOM     13  C   UNL     1      10.839  64.974  54.818  1.00  0.00     0.053 C 
BRANCH  13  14
ATOM     14  C   UNL     1      11.428  64.566  53.502  1.00  0.00     0.041 C 
ATOM     15  O   UNL     1      12.505  63.917  53.465  1.00  0.00    -0.550 OA
ATOM     16  O   UNL     1      10.806  64.936  52.317  1.00  0.00    -0.550 OA
ENDBRANCH  13  14
ENDBRANCH  12  13
ENDBRANCH  11  12
ENDBRANCH  10  11
ENDBRANCH   9  10
ENDBRANCH   8   9
ENDBRANCH   7   8
ENDBRANCH   6   7
ENDBRANCH   5   6
ENDBRANCH   4   5
ENDBRANCH   3   4
ENDBRANCH   2   3
ENDBRANCH   1   2
BRANCH   1  17
ATOM     17  C   UNL     1       8.525  61.117  55.063  1.00  0.00     0.000 C 
BRANCH  17  18
ATOM     18  C   UNL     1       8.754  61.478  53.585  1.00  0.00     0.000 C 
BRANCH  18  19
ATOM     19  C   UNL     1       7.548  61.115  52.701  1.00  0.00     0.000 C 
BRANCH  19  20
ATOM     20  C   UNL     1       7.382  62.075  51.509  1.00  0.00     0.000 C 
BRANCH  20  21
ATOM     21  C   UNL     1       6.026  62.802  51.518  1.00  0.00     0.000 C 
BRANCH  21  22
ATOM     22  C   UNL     1       5.209  62.535  50.242  1.00  0.00    -0.000 C 
BRANCH  22  23
ATOM     23  C   UNL     1       5.420  63.613  49.166  1.00  0.00    -0.000 C 
BRANCH  23  24
ATOM     24  C   UNL     1       6.310  63.123  48.011  1.00  0.00    -0.000 C 
BRANCH  24  25
ATOM     25  C   UNL     1       7.299  64.197  47.529  1.00  0.00    -0.000 C 
BRANCH  25  26
ATOM     26  C   UNL     1       8.216  64.699  48.658  1.00  0.00    -0.000 C 
BRANCH  26  27
ATOM     27  C   UNL     1       9.367  63.727  48.969  1.00  0.00    -0.000 C 
BRANCH  27  28
ATOM     28  C   UNL     1      10.240  63.342  47.759  1.00  0.00    -0.000 C 
BRANCH  28  29
ATOM     29  C   UNL     1       9.852  61.994  47.114  1.00  0.00    -0.003 C 
ATOM     30  C   UNL     1      10.578  61.751  45.791  1.00  0.00     0.004 C 
ENDBRANCH  28  29
ENDBRANCH  27  28
ENDBRANCH  26  27
ENDBRANCH  25  26
ENDBRANCH  24  25
ENDBRANCH  23  24
ENDBRANCH  22  23
ENDBRANCH  21  22
ENDBRANCH  20  21
ENDBRANCH  19  20
ENDBRANCH  18  19
ENDBRANCH  17  18
ENDBRANCH   1  17
TORSDOF 26
ENDMDL
MODEL 8
REMARK VINA RESULT:    -4.520      1.462      7.083
REMARK INTER + INTRA:         -14.561
REMARK INTER:                 -11.844
REMARK INTRA:                  -2.717
REMARK UNBOUND:                -3.170
REMARK SMILES CCCCCCCCCCCCCCCCCCCCCCCCCCCC(=O)[O-]
REMARK SMILES IDX 15 1 16 2 17 3 18 4 19 5 20 6 21 7 22 8 23 9 24 10 25 11
REMARK SMILES IDX 26 12 27 13 28 14 29 15 30 16 14 17 13 18 12 19 11 20 10 21
REMARK SMILES IDX 9 22 8 23 7 24 6 25 5 26 4 27 3 28 2 29 1 30
REMARK H PARENT
REMARK Flexibility Score: inf
ROOT
ATOM      1  C   UNL     1       4.862  60.875  58.033  1.00  0.00     0.000 C 
ENDROOT
BRANCH   1   2
ATOM      2  C   UNL     1       5.621  60.545  59.330  1.00  0.00     0.000 C 
BRANCH   2   3
ATOM      3  C   UNL     1       6.212  61.790  60.019  1.00  0.00     0.000 C 
BRANCH   3   4
ATOM      4  C   UNL     1       7.750  61.880  60.023  1.00  0.00     0.000 C 
BRANCH   4   5
ATOM      5  C   UNL     1       8.338  62.308  58.668  1.00  0.00     0.000 C 
BRANCH   5   6
ATOM      6  C   UNL     1       9.367  63.443  58.796  1.00  0.00     0.000 C 
BRANCH   6   7
ATOM      7  C   UNL     1      10.650  63.223  57.967  1.00  0.00     0.000 C 
BRANCH   7   8
ATOM      8  C   UNL     1      10.429  63.518  56.472  1.00  0.00     0.000 C 
BRANCH   8   9
ATOM      9  C   UNL     1      10.476  65.020  56.154  1.00  0.00     0.000 C 
BRANCH   9  10
ATOM     10  C   UNL     1      11.422  65.347  54.988  1.00  0.00     0.000 C 
BRANCH  10  11
ATOM     11  C   UNL     1      10.953  64.668  53.693  1.00  0.00     0.000 C 
BRANCH  11  12
ATOM     12  C   UNL     1      11.654  65.222  52.439  1.00  0.00     0.006 C 
BRANCH  12  13
ATOM     13  C   UNL     1      10.733  65.399  51.220  1.00  0.00     0.053 C 
BRANCH  13  14
ATOM     14  C   UNL     1      10.984  66.693  50.506  1.00  0.00     0.041 C 
ATOM     15  O   UNL     1      12.018  67.364  50.757  1.00  0.00    -0.550 OA
ATOM     16  O   UNL     1      10.056  67.173  49.592  1.00  0.00    -0.550 OA
ENDBRANCH  13  14
ENDBRANCH  12  13
ENDBRANCH  11  12
ENDBRANCH  10  11
ENDBRANCH   9  10
ENDBRANCH   8   9
ENDBRANCH   7   8
ENDBRANCH   6   7
ENDBRANCH   5   6
ENDBRANCH   4   5
ENDBRANCH   3   4
ENDBRANCH   2   3
ENDBRANCH   1   2
BRANCH   1  17
ATOM     17  C   UNL     1       5.675  60.545  56.771  1.00  0.00     0.000 C 
BRANCH  17  18
ATOM     18  C   UNL     1       6.610  59.339  56.963  1.00  0.00     0.000 C 
BRANCH  18  19
ATOM     19  C   UNL     1       7.784  59.346  55.969  1.00  0.00     0.000 C 
BRANCH  19  20
ATOM     20  C   UNL     1       8.054  60.745  55.386  1.00  0.00     0.000 C 
BRANCH  20  21
ATOM     21  C   UNL     1       8.191  60.733  53.854  1.00  0.00     0.000 C 
BRANCH  21  22
ATOM     22  C   UNL     1       9.270  61.709  53.354  1.00  0.00    -0.000 C 
BRANCH  22  23
ATOM     23  C   UNL     1       9.063  62.123  51.888  1.00  0.00    -0.000 C 
BRANCH  23  24
ATOM     24  C   UNL     1       7.597  61.985  51.442  1.00  0.00    -0.000 C 
BRANCH  24  25
ATOM     25  C   UNL     1       7.384  62.392  49.975  1.00  0.00    -0.000 C 
BRANCH  25  26
ATOM     26  C   UNL     1       8.640  63.031  49.355  1.00  0.00    -0.000 C 
BRANCH  26  27
ATOM     27  C   UNL     1       9.355  62.099  48.363  1.00  0.00    -0.000 C 
BRANCH  27  28
ATOM     28  C   UNL     1       9.408  62.609  46.909  1.00  0.00    -0.000 C 
BRANCH  28  29
ATOM     29  C   UNL     1      10.480  61.915  46.044  1.00  0.00    -0.003 C 
ATOM     30  C   UNL     1      10.424  62.355  44.581  1.00  0.00     0.004 C 
ENDBRANCH  28  29
ENDBRANCH  27  28
ENDBRANCH  26  27
ENDBRANCH  25  26
ENDBRANCH  24  25
ENDBRANCH  23  24
ENDBRANCH  22  23
ENDBRANCH  21  22
ENDBRANCH  20  21
ENDBRANCH  19  20
ENDBRANCH  18  19
ENDBRANCH  17  18
ENDBRANCH   1  17
TORSDOF 26
ENDMDL
MODEL 9
REMARK VINA RESULT:    -4.485      9.032     11.988
REMARK INTER + INTRA:         -14.472
REMARK INTER:                 -11.103
REMARK INTRA:                  -3.369
REMARK UNBOUND:                -3.170
REMARK SMILES CCCCCCCCCCCCCCCCCCCCCCCCCCCC(=O)[O-]
REMARK SMILES IDX 15 1 16 2 17 3 18 4 19 5 20 6 21 7 22 8 23 9 24 10 25 11
REMARK SMILES IDX 26 12 27 13 28 14 29 15 30 16 14 17 13 18 12 19 11 20 10 21
REMARK SMILES IDX 9 22 8 23 7 24 6 25 5 26 4 27 3 28 2 29 1 30
REMARK H PARENT
REMARK Flexibility Score: inf
ROOT
ATOM      1  C   UNL     1       0.671  60.058  44.313  1.00  0.00     0.000 C 
ENDROOT
BRANCH   1   2
ATOM      2  C   UNL     1       0.407  60.882  45.585  1.00  0.00     0.000 C 
BRANCH   2   3
ATOM      3  C   UNL     1       1.495  61.939  45.857  1.00  0.00     0.000 C 
BRANCH   3   4
ATOM      4  C   UNL     1       1.246  63.324  45.228  1.00  0.00     0.000 C 
BRANCH   4   5
ATOM      5  C   UNL     1       2.223  64.402  45.726  1.00  0.00     0.000 C 
BRANCH   5   6
ATOM      6  C   UNL     1       2.217  64.553  47.256  1.00  0.00     0.000 C 
BRANCH   6   7
ATOM      7  C   UNL     1       3.624  64.584  47.889  1.00  0.00     0.000 C 
BRANCH   7   8
ATOM      8  C   UNL     1       4.589  63.603  47.200  1.00  0.00     0.000 C 
BRANCH   8   9
ATOM      9  C   UNL     1       5.859  63.345  48.027  1.00  0.00     0.000 C 
BRANCH   9  10
ATOM     10  C   UNL     1       5.671  63.675  49.515  1.00  0.00     0.000 C 
BRANCH  10  11
ATOM     11  C   UNL     1       6.667  62.890  50.382  1.00  0.00     0.000 C 
BRANCH  11  12
ATOM     12  C   UNL     1       7.634  62.028  49.549  1.00  0.00     0.006 C 
BRANCH  12  13
ATOM     13  C   UNL     1       9.110  62.450  49.648  1.00  0.00     0.053 C 
BRANCH  13  14
ATOM     14  C   UNL     1       9.652  62.917  48.331  1.00  0.00     0.041 C 
ATOM     15  O   UNL     1      10.485  63.859  48.288  1.00  0.00    -0.550 OA
ATOM     16  O   UNL     1       9.207  62.336  47.151  1.00  0.00    -0.550 OA
ENDBRANCH  13  14
ENDBRANCH  12  13
ENDBRANCH  11  12
ENDBRANCH  10  11
ENDBRANCH   9  10
ENDBRANCH   8   9
ENDBRANCH   7   8
ENDBRANCH   6   7
ENDBRANCH   5   6
ENDBRANCH   4   5
ENDBRANCH   3   4
ENDBRANCH   2   3
ENDBRANCH   1   2
BRANCH   1  17
ATOM     17  C   UNL     1      -0.132  58.747  44.279  1.00  0.00     0.000 C 
BRANCH  17  18
ATOM     18  C   UNL     1      -1.163  58.651  45.417  1.00  0.00     0.000 C 
BRANCH  18  19
ATOM     19  C   UNL     1      -2.403  57.836  45.013  1.00  0.00     0.000 C 
BRANCH  19  20
ATOM     20  C   UNL     1      -2.890  56.908  46.141  1.00  0.00     0.000 C 
BRANCH  20  21
ATOM     21  C   UNL     1      -1.733  56.311  46.959  1.00  0.00     0.000 C 
BRANCH  21  22
ATOM     22  C   UNL     1      -1.948  56.459  48.475  1.00  0.00    -0.000 C 
BRANCH  22  23
ATOM     23  C   UNL     1      -2.963  57.558  48.826  1.00  0.00    -0.000 C 
BRANCH  23  24
ATOM     24  C   UNL     1      -2.305  58.942  48.962  1.00  0.00    -0.000 C 
BRANCH  24  25
ATOM     25  C   UNL     1      -3.315  60.094  48.829  1.00  0.00    -0.000 C 
BRANCH  25  26
ATOM     26  C   UNL     1      -3.881  60.215  47.403  1.00  0.00    -0.000 C 
BRANCH  26  27
ATOM     27  C   UNL     1      -3.712  61.626  46.813  1.00  0.00    -0.000 C 
BRANCH  27  28
ATOM     28  C   UNL     1      -3.281  61.668  45.334  1.00  0.00    -0.000 C 
BRANCH  28  29
ATOM     29  C   UNL     1      -2.568  62.976  44.930  1.00  0.00    -0.003 C 
ATOM     30  C   UNL     1      -1.978  62.908  43.522  1.00  0.00     0.004 C 
ENDBRANCH  28  29
ENDBRANCH  27  28
ENDBRANCH  26  27
ENDBRANCH  25  26
ENDBRANCH  24  25
ENDBRANCH  23  24
ENDBRANCH  22  23
ENDBRANCH  21  22
ENDBRANCH  20  21
ENDBRANCH  19  20
ENDBRANCH  18  19
ENDBRANCH  17  18
ENDBRANCH   1  17
TORSDOF 26
ENDMDL
