MODEL 1
REMARK VINA RESULT:    -5.723      0.000      0.000
REMARK INTER + INTRA:          -8.639
REMARK INTER:                  -7.731
REMARK INTRA:                  -0.908
REMARK UNBOUND:                -0.908
REMARK SMILES CC(=O)CCC=C(C)CCC=C(C)C
REMARK SMILES IDX 7 1 6 2 8 3 9 4 10 5 11 6 13 7 12 8 14 9 5 10 4 11 2 12 3 13
REMARK SMILES IDX 1 14
REMARK H PARENT
REMARK Flexibility Score: inf
ROOT
ATOM      1  C   UNL     1     140.815 141.779 115.320  1.00  0.00    -0.077 C 
ATOM      2  C   UNL     1     141.690 141.428 116.288  1.00  0.00    -0.028 C 
ATOM      3  C   UNL     1     139.554 140.984 115.074  1.00  0.00     0.039 C 
ENDROOT
BRANCH   1   4
ATOM      4  C   UNL     1     141.102 142.995 114.464  1.00  0.00     0.034 C 
BRANCH   4   5
ATOM      5  C   UNL     1     142.418 142.851 113.686  1.00  0.00     0.032 C 
BRANCH   5   6
ATOM      6  C   UNL     1     142.413 141.627 112.800  1.00  0.00    -0.028 C 
ATOM      7  C   UNL     1     143.129 139.431 111.966  1.00  0.00     0.039 C 
ATOM      8  C   UNL     1     143.295 140.609 112.890  1.00  0.00    -0.080 C 
ATOM      9  C   UNL     1     144.445 140.629 113.872  1.00  0.00     0.039 C 
ENDBRANCH   5   6
ENDBRANCH   4   5
ENDBRANCH   1   4
BRANCH   2  10
ATOM     10  C   UNL     1     141.483 140.239 117.194  1.00  0.00     0.035 C 
BRANCH  10  11
ATOM     11  C   UNL     1     141.665 140.623 118.666  1.00  0.00     0.079 C 
BRANCH  11  12
ATOM     12  C   UNL     1     140.331 140.801 119.340  1.00  0.00     0.130 C 
ATOM     13  O   UNL     1     139.353 141.098 118.670  1.00  0.00    -0.300 OA
ATOM     14  C   UNL     1     140.176 140.632 120.823  1.00  0.00     0.087 C 
ENDBRANCH  11  12
ENDBRANCH  10  11
ENDBRANCH   2  10
TORSDOF 6
ENDMDL
MODEL 2
REMARK VINA RESULT:    -5.670      7.453      9.216
REMARK INTER + INTRA:          -8.568
REMARK INTER:                  -7.140
REMARK INTRA:                  -1.427
REMARK UNBOUND:                -0.908
REMARK SMILES CC(=O)CCC=C(C)CCC=C(C)C
REMARK SMILES IDX 7 1 6 2 8 3 9 4 10 5 11 6 13 7 12 8 14 9 5 10 4 11 2 12 3 13
REMARK SMILES IDX 1 14
REMARK H PARENT
REMARK Flexibility Score: inf
ROOT
ATOM      1  C   UNL     1     136.409 136.129 113.527  1.00  0.00    -0.077 C 
ATOM      2  C   UNL     1     136.796 135.293 114.516  1.00  0.00    -0.028 C 
ATOM      3  C   UNL     1     136.234 137.609 113.771  1.00  0.00     0.039 C 
ENDROOT
BRANCH   1   4
ATOM      4  C   UNL     1     136.149 135.571 112.142  1.00  0.00     0.034 C 
BRANCH   4   5
ATOM      5  C   UNL     1     134.981 134.574 112.137  1.00  0.00     0.032 C 
BRANCH   5   6
ATOM      6  C   UNL     1     133.672 135.244 112.486  1.00  0.00    -0.028 C 
ATOM      7  C   UNL     1     131.702 135.797 113.844  1.00  0.00     0.039 C 
ATOM      8  C   UNL     1     132.966 135.011 113.613  1.00  0.00    -0.080 C 
ATOM      9  C   UNL     1     133.398 133.979 114.631  1.00  0.00     0.039 C 
ENDBRANCH   5   6
ENDBRANCH   4   5
ENDBRANCH   1   4
BRANCH   2  10
ATOM     10  C   UNL     1     137.086 135.760 115.922  1.00  0.00     0.035 C 
BRANCH  10  11
ATOM     11  C   UNL     1     136.207 135.029 116.941  1.00  0.00     0.079 C 
BRANCH  11  12
ATOM     12  C   UNL     1     135.255 135.986 117.608  1.00  0.00     0.130 C 
ATOM     13  O   UNL     1     135.336 136.173 118.813  1.00  0.00    -0.300 OA
ATOM     14  C   UNL     1     134.196 136.707 116.827  1.00  0.00     0.087 C 
ENDBRANCH  11  12
ENDBRANCH  10  11
ENDBRANCH   2  10
TORSDOF 6
ENDMDL
MODEL 3
REMARK VINA RESULT:    -5.592      1.501      2.303
REMARK INTER + INTRA:          -8.462
REMARK INTER:                  -7.111
REMARK INTRA:                  -1.351
REMARK UNBOUND:                -0.908
REMARK SMILES CC(=O)CCC=C(C)CCC=C(C)C
REMARK SMILES IDX 7 1 6 2 8 3 9 4 10 5 11 6 13 7 12 8 14 9 5 10 4 11 2 12 3 13
REMARK SMILES IDX 1 14
REMARK H PARENT
REMARK Flexibility Score: inf
ROOT
ATOM      1  C   UNL     1     139.784 140.684 114.251  1.00  0.00    -0.077 C 
ATOM      2  C   UNL     1     139.838 141.788 115.028  1.00  0.00    -0.028 C 
ATOM      3  C   UNL     1     139.372 139.345 114.815  1.00  0.00     0.039 C 
ENDROOT
BRANCH   1   4
ATOM      4  C   UNL     1     140.142 140.790 112.783  1.00  0.00     0.034 C 
BRANCH   4   5
ATOM      5  C   UNL     1     141.303 141.768 112.546  1.00  0.00     0.032 C 
BRANCH   5   6
ATOM      6  C   UNL     1     142.644 141.097 112.730  1.00  0.00    -0.028 C 
ATOM      7  C   UNL     1     144.786 140.576 113.812  1.00  0.00     0.039 C 
ATOM      8  C   UNL     1     143.506 141.366 113.734  1.00  0.00    -0.080 C 
ATOM      9  C   UNL     1     143.230 142.441 114.761  1.00  0.00     0.039 C 
ENDBRANCH   5   6
ENDBRANCH   4   5
ENDBRANCH   1   4
BRANCH   2  10
ATOM     10  C   UNL     1     139.492 141.779 116.497  1.00  0.00     0.035 C 
BRANCH  10  11
ATOM     11  C   UNL     1     140.746 141.927 117.364  1.00  0.00     0.079 C 
BRANCH  11  12
ATOM     12  C   UNL     1     141.216 140.584 117.857  1.00  0.00     0.130 C 
ATOM     13  O   UNL     1     140.760 140.131 118.896  1.00  0.00    -0.300 OA
ATOM     14  C   UNL     1     142.244 139.791 117.104  1.00  0.00     0.087 C 
ENDBRANCH  11  12
ENDBRANCH  10  11
ENDBRANCH   2  10
TORSDOF 6
ENDMDL
MODEL 4
REMARK VINA RESULT:    -5.575      8.134     10.358
REMARK INTER + INTRA:          -8.439
REMARK INTER:                  -7.471
REMARK INTRA:                  -0.968
REMARK UNBOUND:                -0.908
REMARK SMILES CC(=O)CCC=C(C)CCC=C(C)C
REMARK SMILES IDX 7 1 6 2 8 3 9 4 10 5 11 6 13 7 12 8 14 9 5 10 4 11 2 12 3 13
REMARK SMILES IDX 1 14
REMARK H PARENT
REMARK Flexibility Score: inf
ROOT
ATOM      1  C   UNL     1     135.481 133.908 115.374  1.00  0.00    -0.077 C 
ATOM      2  C   UNL     1     134.285 134.484 115.628  1.00  0.00    -0.028 C 
ATOM      3  C   UNL     1     135.744 133.178 114.079  1.00  0.00     0.039 C 
ENDROOT
BRANCH   1   4
ATOM      4  C   UNL     1     136.583 133.999 116.410  1.00  0.00     0.034 C 
BRANCH   4   5
ATOM      5  C   UNL     1     136.797 135.440 116.895  1.00  0.00     0.032 C 
BRANCH   5   6
ATOM      6  C   UNL     1     136.959 135.506 118.396  1.00  0.00    -0.028 C 
ATOM      7  C   UNL     1     136.270 135.768 120.739  1.00  0.00     0.039 C 
ATOM      8  C   UNL     1     135.963 135.789 119.264  1.00  0.00    -0.080 C 
ATOM      9  C   UNL     1     134.569 136.139 118.799  1.00  0.00     0.039 C 
ENDBRANCH   5   6
ENDBRANCH   4   5
ENDBRANCH   1   4
BRANCH   2  10
ATOM     10  C   UNL     1     133.133 134.452 114.652  1.00  0.00     0.035 C 
BRANCH  10  11
ATOM     11  C   UNL     1     132.768 135.862 114.178  1.00  0.00     0.079 C 
BRANCH  11  12
ATOM     12  C   UNL     1     133.716 136.325 113.103  1.00  0.00     0.130 C 
ATOM     13  O   UNL     1     133.577 135.915 111.961  1.00  0.00    -0.300 OA
ATOM     14  C   UNL     1     134.839 137.273 113.407  1.00  0.00     0.087 C 
ENDBRANCH  11  12
ENDBRANCH  10  11
ENDBRANCH   2  10
TORSDOF 6
ENDMDL
MODEL 5
REMARK VINA RESULT:    -5.455      8.201      9.129
REMARK INTER + INTRA:          -8.277
REMARK INTER:                  -7.375
REMARK INTRA:                  -0.902
REMARK UNBOUND:                -0.908
REMARK SMILES CC(=O)CCC=C(C)CCC=C(C)C
REMARK SMILES IDX 7 1 6 2 8 3 9 4 10 5 11 6 13 7 12 8 14 9 5 10 4 11 2 12 3 13
REMARK SMILES IDX 1 14
REMARK H PARENT
REMARK Flexibility Score: inf
ROOT
ATOM      1  C   UNL     1     134.273 136.261 114.492  1.00  0.00    -0.077 C 
ATOM      2  C   UNL     1     135.063 136.466 115.569  1.00  0.00    -0.028 C 
ATOM      3  C   UNL     1     132.784 136.051 114.637  1.00  0.00     0.039 C 
ENDROOT
BRANCH   1   4
ATOM      4  C   UNL     1     134.892 136.243 113.110  1.00  0.00     0.034 C 
BRANCH   4   5
ATOM      5  C   UNL     1     135.081 134.813 112.585  1.00  0.00     0.032 C 
BRANCH   5   6
ATOM      6  C   UNL     1     136.036 134.022 113.449  1.00  0.00    -0.028 C 
ATOM      7  C   UNL     1     136.740 132.326 115.080  1.00  0.00     0.039 C 
ATOM      8  C   UNL     1     135.665 133.064 114.326  1.00  0.00    -0.080 C 
ATOM      9  C   UNL     1     134.213 132.728 114.580  1.00  0.00     0.039 C 
ENDBRANCH   5   6
ENDBRANCH   4   5
ENDBRANCH   1   4
BRANCH   2  10
ATOM     10  C   UNL     1     134.534 136.508 116.982  1.00  0.00     0.035 C 
BRANCH  10  11
ATOM     11  C   UNL     1     134.907 135.238 117.753  1.00  0.00     0.079 C 
BRANCH  11  12
ATOM     12  C   UNL     1     136.175 135.445 118.539  1.00  0.00     0.130 C 
ATOM     13  O   UNL     1     137.255 135.249 118.002  1.00  0.00    -0.300 OA
ATOM     14  C   UNL     1     136.142 135.875 119.976  1.00  0.00     0.087 C 
ENDBRANCH  11  12
ENDBRANCH  10  11
ENDBRANCH   2  10
TORSDOF 6
ENDMDL
MODEL 6
REMARK VINA RESULT:    -5.370      7.617      9.287
REMARK INTER + INTRA:          -8.161
REMARK INTER:                  -7.197
REMARK INTRA:                  -0.964
REMARK UNBOUND:                -0.908
REMARK SMILES CC(=O)CCC=C(C)CCC=C(C)C
REMARK SMILES IDX 7 1 6 2 8 3 9 4 10 5 11 6 13 7 12 8 14 9 5 10 4 11 2 12 3 13
REMARK SMILES IDX 1 14
REMARK H PARENT
REMARK Flexibility Score: inf
ROOT
ATOM      1  C   UNL     1     136.523 134.428 115.594  1.00  0.00    -0.077 C 
ATOM      2  C   UNL     1     136.347 134.242 116.921  1.00  0.00    -0.028 C 
ATOM      3  C   UNL     1     137.088 135.719 115.049  1.00  0.00     0.039 C 
ENDROOT
BRANCH   1   4
ATOM      4  C   UNL     1     136.148 133.319 114.633  1.00  0.00     0.034 C 
BRANCH   4   5
ATOM      5  C   UNL     1     134.633 133.261 114.388  1.00  0.00     0.032 C 
BRANCH   5   6
ATOM      6  C   UNL     1     134.203 134.229 113.310  1.00  0.00    -0.028 C 
ATOM      7  C   UNL     1     133.277 136.296 112.361  1.00  0.00     0.039 C 
ATOM      8  C   UNL     1     133.599 135.415 113.540  1.00  0.00    -0.080 C 
ATOM      9  C   UNL     1     133.226 135.868 114.933  1.00  0.00     0.039 C 
ENDBRANCH   5   6
ENDBRANCH   4   5
ENDBRANCH   1   4
BRANCH   2  10
ATOM     10  C   UNL     1     136.699 135.287 117.953  1.00  0.00     0.035 C 
BRANCH  10  11
ATOM     11  C   UNL     1     135.439 135.901 118.573  1.00  0.00     0.079 C 
BRANCH  11  12
ATOM     12  C   UNL     1     135.554 135.950 120.074  1.00  0.00     0.130 C 
ATOM     13  O   UNL     1     136.641 135.769 120.601  1.00  0.00    -0.300 OA
ATOM     14  C   UNL     1     134.356 136.206 120.941  1.00  0.00     0.087 C 
ENDBRANCH  11  12
ENDBRANCH  10  11
ENDBRANCH   2  10
TORSDOF 6
ENDMDL
MODEL 7
REMARK VINA RESULT:    -5.309      1.875      2.860
REMARK INTER + INTRA:          -8.079
REMARK INTER:                  -6.894
REMARK INTRA:                  -1.185
REMARK UNBOUND:                -0.908
REMARK SMILES CC(=O)CCC=C(C)CCC=C(C)C
REMARK SMILES IDX 7 1 6 2 8 3 9 4 10 5 11 6 13 7 12 8 14 9 5 10 4 11 2 12 3 13
REMARK SMILES IDX 1 14
REMARK H PARENT
REMARK Flexibility Score: inf
ROOT
ATOM      1  C   UNL     1     141.346 142.538 114.327  1.00  0.00    -0.077 C 
ATOM      2  C   UNL     1     140.153 142.601 114.958  1.00  0.00    -0.028 C 
ATOM      3  C   UNL     1     142.644 142.507 115.099  1.00  0.00     0.039 C 
ENDROOT
BRANCH   1   4
ATOM      4  C   UNL     1     141.384 142.495 112.813  1.00  0.00     0.034 C 
BRANCH   4   5
ATOM      5  C   UNL     1     141.745 141.097 112.288  1.00  0.00     0.032 C 
BRANCH   5   6
ATOM      6  C   UNL     1     140.513 140.300 111.930  1.00  0.00    -0.028 C 
ATOM      7  C   UNL     1     138.661 138.720 112.262  1.00  0.00     0.039 C 
ATOM      8  C   UNL     1     139.916 139.401 112.743  1.00  0.00    -0.080 C 
ATOM      9  C   UNL     1     140.479 139.051 114.101  1.00  0.00     0.039 C 
ENDBRANCH   5   6
ENDBRANCH   4   5
ENDBRANCH   1   4
BRANCH   2  10
ATOM     10  C   UNL     1     140.018 142.639 116.461  1.00  0.00     0.035 C 
BRANCH  10  11
ATOM     11  C   UNL     1     139.476 141.313 117.004  1.00  0.00     0.079 C 
BRANCH  11  12
ATOM     12  C   UNL     1     140.293 140.843 118.178  1.00  0.00     0.130 C 
ATOM     13  O   UNL     1     139.846 140.962 119.308  1.00  0.00    -0.300 OA
ATOM     14  C   UNL     1     141.655 140.241 117.991  1.00  0.00     0.087 C 
ENDBRANCH  11  12
ENDBRANCH  10  11
ENDBRANCH   2  10
TORSDOF 6
ENDMDL
MODEL 8
REMARK VINA RESULT:    -5.308      7.656      8.967
REMARK INTER + INTRA:          -8.078
REMARK INTER:                  -7.055
REMARK INTRA:                  -1.023
REMARK UNBOUND:                -0.908
REMARK SMILES CC(=O)CCC=C(C)CCC=C(C)C
REMARK SMILES IDX 7 1 6 2 8 3 9 4 10 5 11 6 13 7 12 8 14 9 5 10 4 11 2 12 3 13
REMARK SMILES IDX 1 14
REMARK H PARENT
REMARK Flexibility Score: inf
ROOT
ATOM      1  C   UNL     1     133.499 134.921 113.387  1.00  0.00    -0.077 C 
ATOM      2  C   UNL     1     134.214 134.115 114.203  1.00  0.00    -0.028 C 
ATOM      3  C   UNL     1     132.353 135.755 113.911  1.00  0.00     0.039 C 
ENDROOT
BRANCH   1   4
ATOM      4  C   UNL     1     133.854 134.992 111.916  1.00  0.00     0.034 C 
BRANCH   4   5
ATOM      5  C   UNL     1     135.342 134.700 111.671  1.00  0.00     0.032 C 
BRANCH   5   6
ATOM      6  C   UNL     1     136.097 135.945 111.270  1.00  0.00    -0.028 C 
ATOM      7  C   UNL     1     137.578 137.885 111.549  1.00  0.00     0.039 C 
ATOM      8  C   UNL     1     136.840 136.697 112.111  1.00  0.00    -0.080 C 
ATOM      9  C   UNL     1     136.934 136.393 113.588  1.00  0.00     0.039 C 
ENDBRANCH   5   6
ENDBRANCH   4   5
ENDBRANCH   1   4
BRANCH   2  10
ATOM     10  C   UNL     1     133.937 133.987 115.682  1.00  0.00     0.035 C 
BRANCH  10  11
ATOM     11  C   UNL     1     135.146 134.430 116.512  1.00  0.00     0.079 C 
BRANCH  11  12
ATOM     12  C   UNL     1     134.885 135.763 117.163  1.00  0.00     0.130 C 
ATOM     13  O   UNL     1     134.542 136.712 116.475  1.00  0.00    -0.300 OA
ATOM     14  C   UNL     1     135.051 135.957 118.642  1.00  0.00     0.087 C 
ENDBRANCH  11  12
ENDBRANCH  10  11
ENDBRANCH   2  10
TORSDOF 6
ENDMDL
MODEL 9
REMARK VINA RESULT:    -5.307      1.920      3.314
REMARK INTER + INTRA:          -8.077
REMARK INTER:                  -6.815
REMARK INTRA:                  -1.262
REMARK UNBOUND:                -0.908
REMARK SMILES CC(=O)CCC=C(C)CCC=C(C)C
REMARK SMILES IDX 7 1 6 2 8 3 9 4 10 5 11 6 13 7 12 8 14 9 5 10 4 11 2 12 3 13
REMARK SMILES IDX 1 14
REMARK H PARENT
REMARK Flexibility Score: inf
ROOT
ATOM      1  C   UNL     1     143.014 141.299 115.066  1.00  0.00    -0.077 C 
ATOM      2  C   UNL     1     142.351 140.579 115.997  1.00  0.00    -0.028 C 
ATOM      3  C   UNL     1     142.879 142.802 114.989  1.00  0.00     0.039 C 
ENDROOT
BRANCH   1   4
ATOM      4  C   UNL     1     143.915 140.586 114.078  1.00  0.00     0.034 C 
BRANCH   4   5
ATOM      5  C   UNL     1     143.527 140.892 112.624  1.00  0.00     0.032 C 
BRANCH   5   6
ATOM      6  C   UNL     1     142.330 140.082 112.182  1.00  0.00    -0.028 C 
ATOM      7  C   UNL     1     140.064 139.669 111.329  1.00  0.00     0.039 C 
ATOM      8  C   UNL     1     141.149 140.608 111.792  1.00  0.00    -0.080 C 
ATOM      9  C   UNL     1     140.883 142.095 111.823  1.00  0.00     0.039 C 
ENDBRANCH   5   6
ENDBRANCH   4   5
ENDBRANCH   1   4
BRANCH   2  10
ATOM     10  C   UNL     1     141.440 141.204 117.026  1.00  0.00     0.035 C 
BRANCH  10  11
ATOM     11  C   UNL     1     140.016 140.649 116.916  1.00  0.00     0.079 C 
BRANCH  11  12
ATOM     12  C   UNL     1     139.464 140.866 115.532  1.00  0.00     0.130 C 
ATOM     13  O   UNL     1     139.458 141.991 115.057  1.00  0.00    -0.300 OA
ATOM     14  C   UNL     1     138.908 139.730 114.725  1.00  0.00     0.087 C 
ENDBRANCH  11  12
ENDBRANCH  10  11
ENDBRANCH   2  10
TORSDOF 6
ENDMDL
