MODEL 1
REMARK VINA RESULT:    -3.481      0.000      0.000
REMARK INTER + INTRA:          -4.404
REMARK INTER:                  -4.295
REMARK INTRA:                  -0.109
REMARK UNBOUND:                -0.109
REMARK SMILES CCCCCC(=O)[O-]
REMARK SMILES IDX 4 1 5 2 6 3 7 4 8 5 3 6 2 7 1 8
REMARK H PARENT
REMARK Flexibility Score: inf
ROOT
ATOM      1  C   UNL     1     -44.160  26.542 -18.806  1.00  0.00     0.006 C 
ENDROOT
BRANCH   1   2
ATOM      2  C   UNL     1     -45.282  25.502 -18.869  1.00  0.00     0.053 C 
BRANCH   2   3
ATOM      3  C   UNL     1     -46.518  26.022 -18.206  1.00  0.00     0.041 C 
ATOM      4  O   UNL     1     -47.431  25.230 -17.856  1.00  0.00    -0.550 OA
ATOM      5  O   UNL     1     -46.640  27.379 -17.930  1.00  0.00    -0.550 OA
ENDBRANCH   2   3
ENDBRANCH   1   2
BRANCH   1   6
ATOM      6  C   UNL     1     -43.675  26.913 -20.215  1.00  0.00     0.000 C 
BRANCH   6   7
ATOM      7  C   UNL     1     -43.043  28.313 -20.273  1.00  0.00    -0.003 C 
ATOM      8  C   UNL     1     -42.578  28.808 -18.903  1.00  0.00     0.004 C 
ENDBRANCH   6   7
ENDBRANCH   1   6
TORSDOF 4
ENDMDL
MODEL 2
REMARK VINA RESULT:    -3.478      1.308      1.957
REMARK INTER + INTRA:          -4.400
REMARK INTER:                  -4.163
REMARK INTRA:                  -0.237
REMARK UNBOUND:                -0.109
REMARK SMILES CCCCCC(=O)[O-]
REMARK SMILES IDX 4 1 5 2 6 3 7 4 8 5 3 6 2 7 1 8
REMARK H PARENT
REMARK Flexibility Score: inf
ROOT
ATOM      1  C   UNL     1     -44.572  27.215 -17.444  1.00  0.00     0.006 C 
ENDROOT
BRANCH   1   2
ATOM      2  C   UNL     1     -46.039  27.097 -17.866  1.00  0.00     0.053 C 
BRANCH   2   3
ATOM      3  C   UNL     1     -46.352  25.697 -18.292  1.00  0.00     0.041 C 
ATOM      4  O   UNL     1     -45.507  25.029 -18.944  1.00  0.00    -0.550 OA
ATOM      5  O   UNL     1     -47.558  25.112 -17.926  1.00  0.00    -0.550 OA
ENDBRANCH   2   3
ENDBRANCH   1   2
BRANCH   1   6
ATOM      6  C   UNL     1     -43.828  28.231 -18.324  1.00  0.00     0.000 C 
BRANCH   6   7
ATOM      7  C   UNL     1     -42.849  27.560 -19.301  1.00  0.00    -0.003 C 
ATOM      8  C   UNL     1     -43.455  27.342 -20.688  1.00  0.00     0.004 C 
ENDBRANCH   6   7
ENDBRANCH   1   6
TORSDOF 4
ENDMDL
MODEL 3
REMARK VINA RESULT:    -3.425      6.520      9.119
REMARK INTER + INTRA:          -4.335
REMARK INTER:                  -4.220
REMARK INTRA:                  -0.115
REMARK UNBOUND:                -0.109
REMARK SMILES CCCCCC(=O)[O-]
REMARK SMILES IDX 4 1 5 2 6 3 7 4 8 5 3 6 2 7 1 8
REMARK H PARENT
REMARK Flexibility Score: inf
ROOT
ATOM      1  C   UNL     1     -51.906  24.933 -14.825  1.00  0.00     0.006 C 
ENDROOT
BRANCH   1   2
ATOM      2  C   UNL     1     -50.702  23.988 -14.872  1.00  0.00     0.053 C 
BRANCH   2   3
ATOM      3  C   UNL     1     -49.476  24.721 -15.319  1.00  0.00     0.041 C 
ATOM      4  O   UNL     1     -48.637  24.155 -16.067  1.00  0.00    -0.550 OA
ATOM      5  O   UNL     1     -49.287  26.047 -14.950  1.00  0.00    -0.550 OA
ENDBRANCH   2   3
ENDBRANCH   1   2
BRANCH   1   6
ATOM      6  C   UNL     1     -53.034  24.343 -13.965  1.00  0.00     0.000 C 
BRANCH   6   7
ATOM      7  C   UNL     1     -52.555  23.181 -13.080  1.00  0.00    -0.003 C 
ATOM      8  C   UNL     1     -53.146  23.230 -11.670  1.00  0.00     0.004 C 
ENDBRANCH   6   7
ENDBRANCH   1   6
TORSDOF 4
ENDMDL
MODEL 4
REMARK VINA RESULT:    -3.334      1.081      1.957
REMARK INTER + INTRA:          -4.224
REMARK INTER:                  -4.140
REMARK INTRA:                  -0.084
REMARK UNBOUND:                -0.109
REMARK SMILES CCCCCC(=O)[O-]
REMARK SMILES IDX 4 1 5 2 6 3 7 4 8 5 3 6 2 7 1 8
REMARK H PARENT
REMARK Flexibility Score: inf
ROOT
ATOM      1  C   UNL     1     -45.586  25.806 -18.602  1.00  0.00     0.006 C 
ENDROOT
BRANCH   1   2
ATOM      2  C   UNL     1     -46.690  26.753 -18.125  1.00  0.00     0.053 C 
BRANCH   2   3
ATOM      3  C   UNL     1     -47.638  26.038 -17.215  1.00  0.00     0.041 C 
ATOM      4  O   UNL     1     -48.146  26.637 -16.231  1.00  0.00    -0.550 OA
ATOM      5  O   UNL     1     -48.001  24.723 -17.483  1.00  0.00    -0.550 OA
ENDBRANCH   2   3
ENDBRANCH   1   2
BRANCH   1   6
ATOM      6  C   UNL     1     -44.219  26.507 -18.595  1.00  0.00     0.000 C 
BRANCH   6   7
ATOM      7  C   UNL     1     -43.776  26.950 -19.999  1.00  0.00    -0.003 C 
ATOM      8  C   UNL     1     -43.242  28.382 -20.026  1.00  0.00     0.004 C 
ENDBRANCH   6   7
ENDBRANCH   1   6
TORSDOF 4
ENDMDL
MODEL 5
REMARK VINA RESULT:    -3.276      2.728      3.525
REMARK INTER + INTRA:          -4.152
REMARK INTER:                  -3.905
REMARK INTRA:                  -0.247
REMARK UNBOUND:                -0.109
REMARK SMILES CCCCCC(=O)[O-]
REMARK SMILES IDX 4 1 5 2 6 3 7 4 8 5 3 6 2 7 1 8
REMARK H PARENT
REMARK Flexibility Score: inf
ROOT
ATOM      1  C   UNL     1     -46.855  26.663 -17.987  1.00  0.00     0.006 C 
ENDROOT
BRANCH   1   2
ATOM      2  C   UNL     1     -47.632  25.361 -17.776  1.00  0.00     0.053 C 
BRANCH   2   3
ATOM      3  C   UNL     1     -48.293  25.356 -16.434  1.00  0.00     0.041 C 
ATOM      4  O   UNL     1     -48.509  26.438 -15.829  1.00  0.00    -0.550 OA
ATOM      5  O   UNL     1     -48.719  24.158 -15.873  1.00  0.00    -0.550 OA
ENDBRANCH   2   3
ENDBRANCH   1   2
BRANCH   1   6
ATOM      6  C   UNL     1     -45.367  26.475 -17.658  1.00  0.00     0.000 C 
BRANCH   6   7
ATOM      7  C   UNL     1     -44.892  27.395 -16.522  1.00  0.00    -0.003 C 
ATOM      8  C   UNL     1     -45.025  26.749 -15.142  1.00  0.00     0.004 C 
ENDBRANCH   6   7
ENDBRANCH   1   6
TORSDOF 4
ENDMDL
MODEL 6
REMARK VINA RESULT:    -3.235      3.139      4.573
REMARK INTER + INTRA:          -4.101
REMARK INTER:                  -4.041
REMARK INTRA:                  -0.060
REMARK UNBOUND:                -0.109
REMARK SMILES CCCCCC(=O)[O-]
REMARK SMILES IDX 4 1 5 2 6 3 7 4 8 5 3 6 2 7 1 8
REMARK H PARENT
REMARK Flexibility Score: inf
ROOT
ATOM      1  C   UNL     1     -45.533  26.807 -16.655  1.00  0.00     0.006 C 
ENDROOT
BRANCH   1   2
ATOM      2  C   UNL     1     -44.567  27.294 -17.739  1.00  0.00     0.053 C 
BRANCH   2   3
ATOM      3  C   UNL     1     -44.563  26.350 -18.901  1.00  0.00     0.041 C 
ATOM      4  O   UNL     1     -43.836  26.580 -19.902  1.00  0.00    -0.550 OA
ATOM      5  O   UNL     1     -45.326  25.189 -18.856  1.00  0.00    -0.550 OA
ENDBRANCH   2   3
ENDBRANCH   1   2
BRANCH   1   6
ATOM      6  C   UNL     1     -44.912  26.959 -15.259  1.00  0.00     0.000 C 
BRANCH   6   7
ATOM      7  C   UNL     1     -45.668  26.158 -14.186  1.00  0.00    -0.003 C 
ATOM      8  C   UNL     1     -46.449  27.052 -13.223  1.00  0.00     0.004 C 
ENDBRANCH   6   7
ENDBRANCH   1   6
TORSDOF 4
ENDMDL
MODEL 7
REMARK VINA RESULT:    -3.210      4.635      7.299
REMARK INTER + INTRA:          -4.070
REMARK INTER:                  -3.926
REMARK INTRA:                  -0.144
REMARK UNBOUND:                -0.109
REMARK SMILES CCCCCC(=O)[O-]
REMARK SMILES IDX 4 1 5 2 6 3 7 4 8 5 3 6 2 7 1 8
REMARK H PARENT
REMARK Flexibility Score: inf
ROOT
ATOM      1  C   UNL     1     -49.698  24.469 -15.128  1.00  0.00     0.006 C 
ENDROOT
BRANCH   1   2
ATOM      2  C   UNL     1     -48.321  25.138 -15.141  1.00  0.00     0.053 C 
BRANCH   2   3
ATOM      3  C   UNL     1     -48.009  25.672 -16.503  1.00  0.00     0.041 C 
ATOM      4  O   UNL     1     -48.036  24.909 -17.504  1.00  0.00    -0.550 OA
ATOM      5  O   UNL     1     -47.738  27.024 -16.675  1.00  0.00    -0.550 OA
ENDBRANCH   2   3
ENDBRANCH   1   2
BRANCH   1   6
ATOM      6  C   UNL     1     -50.819  25.519 -15.119  1.00  0.00     0.000 C 
BRANCH   6   7
ATOM      7  C   UNL     1     -52.176  24.930 -14.701  1.00  0.00    -0.003 C 
ATOM      8  C   UNL     1     -52.048  23.550 -14.055  1.00  0.00     0.004 C 
ENDBRANCH   6   7
ENDBRANCH   1   6
TORSDOF 4
ENDMDL
MODEL 8
REMARK VINA RESULT:    -3.178      1.958      2.374
REMARK INTER + INTRA:          -4.031
REMARK INTER:                  -3.782
REMARK INTRA:                  -0.249
REMARK UNBOUND:                -0.109
REMARK SMILES CCCCCC(=O)[O-]
REMARK SMILES IDX 4 1 5 2 6 3 7 4 8 5 3 6 2 7 1 8
REMARK H PARENT
REMARK Flexibility Score: inf
ROOT
ATOM      1  C   UNL     1     -44.623  26.500 -17.787  1.00  0.00     0.006 C 
ENDROOT
BRANCH   1   2
ATOM      2  C   UNL     1     -45.909  26.048 -18.484  1.00  0.00     0.053 C 
BRANCH   2   3
ATOM      3  C   UNL     1     -47.110  26.564 -17.757  1.00  0.00     0.041 C 
ATOM      4  O   UNL     1     -47.403  26.116 -16.618  1.00  0.00    -0.550 OA
ATOM      5  O   UNL     1     -47.878  27.578 -18.316  1.00  0.00    -0.550 OA
ENDBRANCH   2   3
ENDBRANCH   1   2
BRANCH   1   6
ATOM      6  C   UNL     1     -44.411  28.012 -17.954  1.00  0.00     0.000 C 
BRANCH   6   7
ATOM      7  C   UNL     1     -44.007  28.701 -16.640  1.00  0.00    -0.003 C 
ATOM      8  C   UNL     1     -44.614  28.026 -15.409  1.00  0.00     0.004 C 
ENDBRANCH   6   7
ENDBRANCH   1   6
TORSDOF 4
ENDMDL
MODEL 9
REMARK VINA RESULT:    -3.167      2.190      2.648
REMARK INTER + INTRA:          -4.017
REMARK INTER:                  -3.944
REMARK INTRA:                  -0.073
REMARK UNBOUND:                -0.109
REMARK SMILES CCCCCC(=O)[O-]
REMARK SMILES IDX 4 1 5 2 6 3 7 4 8 5 3 6 2 7 1 8
REMARK H PARENT
REMARK Flexibility Score: inf
ROOT
ATOM      1  C   UNL     1     -45.648  26.588 -17.875  1.00  0.00     0.006 C 
ENDROOT
BRANCH   1   2
ATOM      2  C   UNL     1     -44.985  26.871 -16.524  1.00  0.00     0.053 C 
BRANCH   2   3
ATOM      3  C   UNL     1     -45.998  26.832 -15.423  1.00  0.00     0.041 C 
ATOM      4  O   UNL     1     -45.632  26.916 -14.222  1.00  0.00    -0.550 OA
ATOM      5  O   UNL     1     -47.351  26.754 -15.727  1.00  0.00    -0.550 OA
ENDBRANCH   2   3
ENDBRANCH   1   2
BRANCH   1   6
ATOM      6  C   UNL     1     -44.618  26.084 -18.897  1.00  0.00     0.000 C 
BRANCH   6   7
ATOM      7  C   UNL     1     -43.506  27.110 -19.169  1.00  0.00    -0.003 C 
ATOM      8  C   UNL     1     -43.303  27.379 -20.661  1.00  0.00     0.004 C 
ENDBRANCH   6   7
ENDBRANCH   1   6
TORSDOF 4
ENDMDL
