MODEL 1
REMARK VINA RESULT:    -4.170      0.000      0.000
REMARK INTER + INTRA:          -7.147
REMARK INTER:                  -6.609
REMARK INTRA:                  -0.538
REMARK UNBOUND:                -0.538
REMARK SMILES CCCCCCCCCCCC(=O)[O-]
REMARK SMILES IDX 7 1 8 2 9 3 10 4 11 5 12 6 13 7 14 8 6 9 5 10 4 11 3 12 2 13
REMARK SMILES IDX 1 14
REMARK H PARENT
REMARK Flexibility Score: inf
ROOT
ATOM      1  C   UNL     1      -7.266  18.057 -10.486  1.00  0.00     0.000 C 
ENDROOT
BRANCH   1   2
ATOM      2  C   UNL     1      -8.704  18.126 -11.041  1.00  0.00     0.000 C 
BRANCH   2   3
ATOM      3  C   UNL     1      -9.573  16.891 -10.745  1.00  0.00     0.000 C 
BRANCH   3   4
ATOM      4  C   UNL     1     -10.583  16.592 -11.862  1.00  0.00     0.006 C 
BRANCH   4   5
ATOM      5  C   UNL     1     -10.629  17.736 -12.880  1.00  0.00     0.053 C 
BRANCH   5   6
ATOM      6  C   UNL     1     -11.978  18.383 -12.881  1.00  0.00     0.041 C 
ATOM      7  O   UNL     1     -12.983  17.751 -13.301  1.00  0.00    -0.550 OA
ATOM      8  O   UNL     1     -12.134  19.667 -12.375  1.00  0.00    -0.550 OA
ENDBRANCH   5   6
ENDBRANCH   4   5
ENDBRANCH   3   4
ENDBRANCH   2   3
ENDBRANCH   1   2
BRANCH   1   9
ATOM      9  C   UNL     1      -6.995  16.894  -9.512  1.00  0.00     0.000 C 
BRANCH   9  10
ATOM     10  C   UNL     1      -5.581  16.292  -9.594  1.00  0.00    -0.000 C 
BRANCH  10  11
ATOM     11  C   UNL     1      -4.633  16.849  -8.520  1.00  0.00    -0.000 C 
BRANCH  11  12
ATOM     12  C   UNL     1      -5.420  17.375  -7.315  1.00  0.00    -0.000 C 
BRANCH  12  13
ATOM     13  C   UNL     1      -5.100  16.563  -6.054  1.00  0.00    -0.003 C 
ATOM     14  C   UNL     1      -4.301  17.392  -5.052  1.00  0.00     0.004 C 
ENDBRANCH  12  13
ENDBRANCH  11  12
ENDBRANCH  10  11
ENDBRANCH   9  10
ENDBRANCH   1   9
TORSDOF 10
ENDMDL
MODEL 2
REMARK VINA RESULT:    -4.161      1.497      1.863
REMARK INTER + INTRA:          -7.131
REMARK INTER:                  -6.447
REMARK INTRA:                  -0.685
REMARK UNBOUND:                -0.538
REMARK SMILES CCCCCCCCCCCC(=O)[O-]
REMARK SMILES IDX 7 1 8 2 9 3 10 4 11 5 12 6 13 7 14 8 6 9 5 10 4 11 3 12 2 13
REMARK SMILES IDX 1 14
REMARK H PARENT
REMARK Flexibility Score: inf
ROOT
ATOM      1  C   UNL     1      -7.238  18.227  -9.773  1.00  0.00     0.000 C 
ENDROOT
BRANCH   1   2
ATOM      2  C   UNL     1      -7.180  18.454 -11.298  1.00  0.00     0.000 C 
BRANCH   2   3
ATOM      3  C   UNL     1      -8.514  18.864 -11.945  1.00  0.00     0.000 C 
BRANCH   3   4
ATOM      4  C   UNL     1      -9.589  19.232 -10.913  1.00  0.00     0.006 C 
BRANCH   4   5
ATOM      5  C   UNL     1     -10.978  18.796 -11.391  1.00  0.00     0.053 C 
BRANCH   5   6
ATOM      6  C   UNL     1     -11.058  17.304 -11.478  1.00  0.00     0.041 C 
ATOM      7  O   UNL     1     -11.698  16.759 -12.415  1.00  0.00    -0.550 OA
ATOM      8  O   UNL     1     -10.385  16.516 -10.553  1.00  0.00    -0.550 OA
ENDBRANCH   5   6
ENDBRANCH   4   5
ENDBRANCH   3   4
ENDBRANCH   2   3
ENDBRANCH   1   2
BRANCH   1   9
ATOM      9  C   UNL     1      -6.993  16.775  -9.317  1.00  0.00     0.000 C 
BRANCH   9  10
ATOM     10  C   UNL     1      -5.546  16.277  -9.485  1.00  0.00    -0.000 C 
BRANCH  10  11
ATOM     11  C   UNL     1      -4.671  16.562  -8.254  1.00  0.00    -0.000 C 
BRANCH  11  12
ATOM     12  C   UNL     1      -5.500  16.494  -6.966  1.00  0.00    -0.000 C 
BRANCH  12  13
ATOM     13  C   UNL     1      -4.658  16.901  -5.750  1.00  0.00    -0.003 C 
ATOM     14  C   UNL     1      -4.258  18.372  -5.825  1.00  0.00     0.004 C 
ENDBRANCH  12  13
ENDBRANCH  11  12
ENDBRANCH  10  11
ENDBRANCH   9  10
ENDBRANCH   1   9
TORSDOF 10
ENDMDL
MODEL 3
REMARK VINA RESULT:    -4.126      4.137      7.297
REMARK INTER + INTRA:          -7.076
REMARK INTER:                  -6.212
REMARK INTRA:                  -0.864
REMARK UNBOUND:                -0.538
REMARK SMILES CCCCCCCCCCCC(=O)[O-]
REMARK SMILES IDX 7 1 8 2 9 3 10 4 11 5 12 6 13 7 14 8 6 9 5 10 4 11 3 12 2 13
REMARK SMILES IDX 1 14
REMARK H PARENT
REMARK Flexibility Score: inf
ROOT
ATOM      1  C   UNL     1      -5.465  18.057 -10.136  1.00  0.00     0.000 C 
ENDROOT
BRANCH   1   2
ATOM      2  C   UNL     1      -5.641  16.577  -9.735  1.00  0.00     0.000 C 
BRANCH   2   3
ATOM      3  C   UNL     1      -6.697  16.321  -8.646  1.00  0.00     0.000 C 
BRANCH   3   4
ATOM      4  C   UNL     1      -6.451  17.141  -7.372  1.00  0.00     0.006 C 
BRANCH   4   5
ATOM      5  C   UNL     1      -5.304  16.544  -6.550  1.00  0.00     0.053 C 
BRANCH   5   6
ATOM      6  C   UNL     1      -4.425  17.629  -6.011  1.00  0.00     0.041 C 
ATOM      7  O   UNL     1      -4.211  18.666  -6.692  1.00  0.00    -0.550 OA
ATOM      8  O   UNL     1      -3.883  17.516  -4.738  1.00  0.00    -0.550 OA
ENDBRANCH   5   6
ENDBRANCH   4   5
ENDBRANCH   3   4
ENDBRANCH   2   3
ENDBRANCH   1   2
BRANCH   1   9
ATOM      9  C   UNL     1      -6.338  18.523 -11.318  1.00  0.00     0.000 C 
BRANCH   9  10
ATOM     10  C   UNL     1      -7.731  19.049 -10.930  1.00  0.00    -0.000 C 
BRANCH  10  11
ATOM     11  C   UNL     1      -8.859  18.418 -11.762  1.00  0.00    -0.000 C 
BRANCH  11  12
ATOM     12  C   UNL     1      -9.484  17.229 -11.023  1.00  0.00    -0.000 C 
BRANCH  12  13
ATOM     13  C   UNL     1     -10.522  16.521 -11.902  1.00  0.00    -0.003 C 
ATOM     14  C   UNL     1     -11.711  17.431 -12.193  1.00  0.00     0.004 C 
ENDBRANCH  12  13
ENDBRANCH  11  12
ENDBRANCH  10  11
ENDBRANCH   9  10
ENDBRANCH   1   9
TORSDOF 10
ENDMDL
MODEL 4
REMARK VINA RESULT:    -4.078      1.695      2.369
REMARK INTER + INTRA:          -7.001
REMARK INTER:                  -6.165
REMARK INTRA:                  -0.836
REMARK UNBOUND:                -0.538
REMARK SMILES CCCCCCCCCCCC(=O)[O-]
REMARK SMILES IDX 7 1 8 2 9 3 10 4 11 5 12 6 13 7 14 8 6 9 5 10 4 11 3 12 2 13
REMARK SMILES IDX 1 14
REMARK H PARENT
REMARK Flexibility Score: inf
ROOT
ATOM      1  C   UNL     1      -7.313  17.214  -9.933  1.00  0.00     0.000 C 
ENDROOT
BRANCH   1   2
ATOM      2  C   UNL     1      -6.916  18.630 -10.401  1.00  0.00     0.000 C 
BRANCH   2   3
ATOM      3  C   UNL     1      -8.086  19.512 -10.869  1.00  0.00     0.000 C 
BRANCH   3   4
ATOM      4  C   UNL     1      -9.038  18.781 -11.825  1.00  0.00     0.006 C 
BRANCH   4   5
ATOM      5  C   UNL     1     -10.449  18.696 -11.234  1.00  0.00     0.053 C 
BRANCH   5   6
ATOM      6  C   UNL     1     -11.003  17.315 -11.397  1.00  0.00     0.041 C 
ATOM      7  O   UNL     1     -10.582  16.375 -10.673  1.00  0.00    -0.550 OA
ATOM      8  O   UNL     1     -12.018  17.077 -12.314  1.00  0.00    -0.550 OA
ENDBRANCH   5   6
ENDBRANCH   4   5
ENDBRANCH   3   4
ENDBRANCH   2   3
ENDBRANCH   1   2
BRANCH   1   9
ATOM      9  C   UNL     1      -6.258  16.487  -9.076  1.00  0.00     0.000 C 
BRANCH   9  10
ATOM     10  C   UNL     1      -6.561  16.444  -7.569  1.00  0.00    -0.000 C 
BRANCH  10  11
ATOM     11  C   UNL     1      -5.290  16.434  -6.704  1.00  0.00    -0.000 C 
BRANCH  11  12
ATOM     12  C   UNL     1      -4.310  17.521  -7.160  1.00  0.00    -0.000 C 
BRANCH  12  13
ATOM     13  C   UNL     1      -4.517  18.815  -6.364  1.00  0.00    -0.003 C 
ATOM     14  C   UNL     1      -5.311  19.838  -7.173  1.00  0.00     0.004 C 
ENDBRANCH  12  13
ENDBRANCH  11  12
ENDBRANCH  10  11
ENDBRANCH   9  10
ENDBRANCH   1   9
TORSDOF 10
ENDMDL
MODEL 5
REMARK VINA RESULT:    -3.985      2.061      3.489
REMARK INTER + INTRA:          -6.853
REMARK INTER:                  -5.497
REMARK INTRA:                  -1.356
REMARK UNBOUND:                -0.538
REMARK SMILES CCCCCCCCCCCC(=O)[O-]
REMARK SMILES IDX 7 1 8 2 9 3 10 4 11 5 12 6 13 7 14 8 6 9 5 10 4 11 3 12 2 13
REMARK SMILES IDX 1 14
REMARK H PARENT
REMARK Flexibility Score: inf
ROOT
ATOM      1  C   UNL     1      -6.011  20.465  -7.373  1.00  0.00     0.000 C 
ENDROOT
BRANCH   1   2
ATOM      2  C   UNL     1      -7.258  20.260  -8.258  1.00  0.00     0.000 C 
BRANCH   2   3
ATOM      3  C   UNL     1      -6.962  19.953  -9.736  1.00  0.00     0.000 C 
BRANCH   3   4
ATOM      4  C   UNL     1      -8.235  19.835 -10.587  1.00  0.00     0.006 C 
BRANCH   4   5
ATOM      5  C   UNL     1      -8.309  18.468 -11.274  1.00  0.00     0.053 C 
BRANCH   5   6
ATOM      6  C   UNL     1      -9.676  17.879 -11.126  1.00  0.00     0.041 C 
ATOM      7  O   UNL     1      -9.821  16.633 -11.024  1.00  0.00    -0.550 OA
ATOM      8  O   UNL     1     -10.787  18.711 -11.052  1.00  0.00    -0.550 OA
ENDBRANCH   5   6
ENDBRANCH   4   5
ENDBRANCH   3   4
ENDBRANCH   2   3
ENDBRANCH   1   2
BRANCH   1   9
ATOM      9  C   UNL     1      -4.850  19.485  -7.640  1.00  0.00     0.000 C 
BRANCH   9  10
ATOM     10  C   UNL     1      -4.657  18.398  -6.569  1.00  0.00    -0.000 C 
BRANCH  10  11
ATOM     11  C   UNL     1      -4.982  16.988  -7.085  1.00  0.00    -0.000 C 
BRANCH  11  12
ATOM     12  C   UNL     1      -6.497  16.783  -7.202  1.00  0.00    -0.000 C 
BRANCH  12  13
ATOM     13  C   UNL     1      -6.893  16.429  -8.640  1.00  0.00    -0.003 C 
ATOM     14  C   UNL     1      -5.671  16.378  -9.552  1.00  0.00     0.004 C 
ENDBRANCH  12  13
ENDBRANCH  11  12
ENDBRANCH  10  11
ENDBRANCH   9  10
ENDBRANCH   1   9
TORSDOF 10
ENDMDL
MODEL 6
REMARK VINA RESULT:    -3.840      1.633      2.571
REMARK INTER + INTRA:          -6.623
REMARK INTER:                  -6.031
REMARK INTRA:                  -0.592
REMARK UNBOUND:                -0.538
REMARK SMILES CCCCCCCCCCCC(=O)[O-]
REMARK SMILES IDX 7 1 8 2 9 3 10 4 11 5 12 6 13 7 14 8 6 9 5 10 4 11 3 12 2 13
REMARK SMILES IDX 1 14
REMARK H PARENT
REMARK Flexibility Score: inf
ROOT
ATOM      1  C   UNL     1      -9.226  18.086 -11.574  1.00  0.00     0.000 C 
ENDROOT
BRANCH   1   2
ATOM      2  C   UNL     1     -10.612  18.524 -11.055  1.00  0.00     0.000 C 
BRANCH   2   3
ATOM      3  C   UNL     1     -10.811  20.045 -10.936  1.00  0.00     0.000 C 
BRANCH   3   4
ATOM      4  C   UNL     1     -12.017  20.553 -11.739  1.00  0.00     0.006 C 
BRANCH   4   5
ATOM      5  C   UNL     1     -11.939  20.088 -13.196  1.00  0.00     0.053 C 
BRANCH   5   6
ATOM      6  C   UNL     1     -13.254  19.525 -13.638  1.00  0.00     0.041 C 
ATOM      7  O   UNL     1     -13.306  18.391 -14.182  1.00  0.00    -0.550 OA
ATOM      8  O   UNL     1     -14.426  20.232 -13.404  1.00  0.00    -0.550 OA
ENDBRANCH   5   6
ENDBRANCH   4   5
ENDBRANCH   3   4
ENDBRANCH   2   3
ENDBRANCH   1   2
BRANCH   1   9
ATOM      9  C   UNL     1      -8.052  18.988 -11.144  1.00  0.00     0.000 C 
BRANCH   9  10
ATOM     10  C   UNL     1      -7.315  18.534  -9.872  1.00  0.00    -0.000 C 
BRANCH  10  11
ATOM     11  C   UNL     1      -7.169  17.006  -9.781  1.00  0.00    -0.000 C 
BRANCH  11  12
ATOM     12  C   UNL     1      -6.934  16.564  -8.332  1.00  0.00    -0.000 C 
BRANCH  12  13
ATOM     13  C   UNL     1      -5.437  16.542  -8.002  1.00  0.00    -0.003 C 
ATOM     14  C   UNL     1      -5.204  16.632  -6.496  1.00  0.00     0.004 C 
ENDBRANCH  12  13
ENDBRANCH  11  12
ENDBRANCH  10  11
ENDBRANCH   9  10
ENDBRANCH   1   9
TORSDOF 10
ENDMDL
MODEL 7
REMARK VINA RESULT:    -3.809      1.222      1.692
REMARK INTER + INTRA:          -6.574
REMARK INTER:                  -5.774
REMARK INTRA:                  -0.800
REMARK UNBOUND:                -0.538
REMARK SMILES CCCCCCCCCCCC(=O)[O-]
REMARK SMILES IDX 7 1 8 2 9 3 10 4 11 5 12 6 13 7 14 8 6 9 5 10 4 11 3 12 2 13
REMARK SMILES IDX 1 14
REMARK H PARENT
REMARK Flexibility Score: inf
ROOT
ATOM      1  C   UNL     1      -7.770  19.615 -10.301  1.00  0.00     0.000 C 
ENDROOT
BRANCH   1   2
ATOM      2  C   UNL     1      -8.139  18.483 -11.282  1.00  0.00     0.000 C 
BRANCH   2   3
ATOM      3  C   UNL     1      -8.696  17.209 -10.624  1.00  0.00     0.000 C 
BRANCH   3   4
ATOM      4  C   UNL     1     -10.109  16.856 -11.109  1.00  0.00     0.006 C 
BRANCH   4   5
ATOM      5  C   UNL     1     -10.372  17.440 -12.501  1.00  0.00     0.053 C 
BRANCH   5   6
ATOM      6  C   UNL     1     -11.609  18.281 -12.493  1.00  0.00     0.041 C 
ATOM      7  O   UNL     1     -11.672  19.307 -11.766  1.00  0.00    -0.550 OA
ATOM      8  O   UNL     1     -12.674  17.959 -13.324  1.00  0.00    -0.550 OA
ENDBRANCH   5   6
ENDBRANCH   4   5
ENDBRANCH   3   4
ENDBRANCH   2   3
ENDBRANCH   1   2
BRANCH   1   9
ATOM      9  C   UNL     1      -6.258  19.828 -10.086  1.00  0.00     0.000 C 
BRANCH   9  10
ATOM     10  C   UNL     1      -5.553  18.719  -9.286  1.00  0.00    -0.000 C 
BRANCH  10  11
ATOM     11  C   UNL     1      -6.111  18.564  -7.862  1.00  0.00    -0.000 C 
BRANCH  11  12
ATOM     12  C   UNL     1      -6.515  17.111  -7.588  1.00  0.00    -0.000 C 
BRANCH  12  13
ATOM     13  C   UNL     1      -5.415  16.372  -6.816  1.00  0.00    -0.003 C 
ATOM     14  C   UNL     1      -4.659  17.321  -5.891  1.00  0.00     0.004 C 
ENDBRANCH  12  13
ENDBRANCH  11  12
ENDBRANCH  10  11
ENDBRANCH   9  10
ENDBRANCH   1   9
TORSDOF 10
ENDMDL
MODEL 8
REMARK VINA RESULT:    -3.736      3.730      7.254
REMARK INTER + INTRA:          -6.459
REMARK INTER:                  -5.535
REMARK INTRA:                  -0.924
REMARK UNBOUND:                -0.538
REMARK SMILES CCCCCCCCCCCC(=O)[O-]
REMARK SMILES IDX 7 1 8 2 9 3 10 4 11 5 12 6 13 7 14 8 6 9 5 10 4 11 3 12 2 13
REMARK SMILES IDX 1 14
REMARK H PARENT
REMARK Flexibility Score: inf
ROOT
ATOM      1  C   UNL     1      -9.534  16.988 -11.009  1.00  0.00     0.000 C 
ENDROOT
BRANCH   1   2
ATOM      2  C   UNL     1      -8.500  18.107 -11.254  1.00  0.00     0.000 C 
BRANCH   2   3
ATOM      3  C   UNL     1      -7.516  18.347 -10.096  1.00  0.00     0.000 C 
BRANCH   3   4
ATOM      4  C   UNL     1      -6.574  17.158  -9.859  1.00  0.00     0.006 C 
BRANCH   4   5
ATOM      5  C   UNL     1      -6.771  16.574  -8.457  1.00  0.00     0.053 C 
BRANCH   5   6
ATOM      6  C   UNL     1      -5.617  16.928  -7.573  1.00  0.00     0.041 C 
ATOM      7  O   UNL     1      -5.316  16.190  -6.600  1.00  0.00    -0.550 OA
ATOM      8  O   UNL     1      -4.845  18.048  -7.854  1.00  0.00    -0.550 OA
ENDBRANCH   5   6
ENDBRANCH   4   5
ENDBRANCH   3   4
ENDBRANCH   2   3
ENDBRANCH   1   2
BRANCH   1   9
ATOM      9  C   UNL     1     -11.005  17.451 -10.985  1.00  0.00     0.000 C 
BRANCH   9  10
ATOM     10  C   UNL     1     -11.721  17.412 -12.346  1.00  0.00    -0.000 C 
BRANCH  10  11
ATOM     11  C   UNL     1     -11.742  18.779 -13.048  1.00  0.00    -0.000 C 
BRANCH  11  12
ATOM     12  C   UNL     1     -11.923  19.913 -12.032  1.00  0.00    -0.000 C 
BRANCH  12  13
ATOM     13  C   UNL     1     -10.837  20.982 -12.204  1.00  0.00    -0.003 C 
ATOM     14  C   UNL     1      -9.963  20.689 -13.420  1.00  0.00     0.004 C 
ENDBRANCH  12  13
ENDBRANCH  11  12
ENDBRANCH  10  11
ENDBRANCH   9  10
ENDBRANCH   1   9
TORSDOF 10
ENDMDL
MODEL 9
REMARK VINA RESULT:    -3.691      3.383      6.557
REMARK INTER + INTRA:          -6.387
REMARK INTER:                  -5.473
REMARK INTRA:                  -0.914
REMARK UNBOUND:                -0.538
REMARK SMILES CCCCCCCCCCCC(=O)[O-]
REMARK SMILES IDX 7 1 8 2 9 3 10 4 11 5 12 6 13 7 14 8 6 9 5 10 4 11 3 12 2 13
REMARK SMILES IDX 1 14
REMARK H PARENT
REMARK Flexibility Score: inf
ROOT
ATOM      1  C   UNL     1      -6.141  20.518  -7.295  1.00  0.00     0.000 C 
ENDROOT
BRANCH   1   2
ATOM      2  C   UNL     1      -4.711  19.950  -7.404  1.00  0.00     0.000 C 
BRANCH   2   3
ATOM      3  C   UNL     1      -4.364  18.860  -6.375  1.00  0.00     0.000 C 
BRANCH   3   4
ATOM      4  C   UNL     1      -4.178  17.476  -7.012  1.00  0.00     0.006 C 
BRANCH   4   5
ATOM      5  C   UNL     1      -5.441  16.624  -6.851  1.00  0.00     0.053 C 
BRANCH   5   6
ATOM      6  C   UNL     1      -6.090  16.392  -8.179  1.00  0.00     0.041 C 
ATOM      7  O   UNL     1      -7.345  16.343  -8.269  1.00  0.00    -0.550 OA
ATOM      8  O   UNL     1      -5.311  16.279  -9.323  1.00  0.00    -0.550 OA
ENDBRANCH   5   6
ENDBRANCH   4   5
ENDBRANCH   3   4
ENDBRANCH   2   3
ENDBRANCH   1   2
BRANCH   1   9
ATOM      9  C   UNL     1      -7.139  19.985  -8.343  1.00  0.00     0.000 C 
BRANCH   9  10
ATOM     10  C   UNL     1      -6.525  19.652  -9.714  1.00  0.00    -0.000 C 
BRANCH  10  11
ATOM     11  C   UNL     1      -7.579  19.532 -10.826  1.00  0.00    -0.000 C 
BRANCH  11  12
ATOM     12  C   UNL     1      -8.083  18.090 -10.951  1.00  0.00    -0.000 C 
BRANCH  12  13
ATOM     13  C   UNL     1      -9.578  18.059 -11.290  1.00  0.00    -0.003 C 
ATOM     14  C   UNL     1     -10.191  16.702 -10.954  1.00  0.00     0.004 C 
ENDBRANCH  12  13
ENDBRANCH  11  12
ENDBRANCH  10  11
ENDBRANCH   9  10
ENDBRANCH   1   9
TORSDOF 10
ENDMDL
