MODEL 1
REMARK VINA RESULT:    -2.429      0.000      0.000
REMARK INTER + INTRA:          -2.753
REMARK INTER:                  -2.572
REMARK INTRA:                  -0.182
REMARK UNBOUND:                -0.182
REMARK SMILES C=C(C)[C@@H]1CC[C@]2(C)CCCC(=C)[C@@H]2C1
REMARK SMILES IDX 4 1 5 2 6 3 7 4 9 5 10 6 11 7 12 8 13 9 14 10 15 11 8 12
REMARK SMILES IDX 2 13 3 14 1 15
REMARK H PARENT
REMARK Flexibility Score: inf
ROOT
ATOM      1  C   UNL     1     135.783 138.038 123.895  1.00  0.00     0.015 C 
ATOM      2  C   UNL     1     136.074 137.595 125.356  1.00  0.00     0.008 C 
ATOM      3  C   UNL     1     137.565 137.330 125.619  1.00  0.00     0.008 C 
ATOM      4  C   UNL     1     138.192 136.263 124.654  1.00  0.00    -0.026 C 
ATOM      5  C   UNL     1     139.688 136.649 124.432  1.00  0.00     0.008 C 
ATOM      6  C   UNL     1     140.389 135.800 123.367  1.00  0.00     0.005 C 
ATOM      7  C   UNL     1     139.685 135.936 122.021  1.00  0.00     0.031 C 
ATOM      8  C   UNL     1     138.223 135.592 122.157  1.00  0.00    -0.074 C 
ATOM      9  C   UNL     1     137.615 134.875 121.198  1.00  0.00     0.008 C 
ATOM     10  C   UNL     1     137.408 136.197 123.290  1.00  0.00     0.021 C 
ATOM     11  C   UNL     1     136.870 137.583 122.893  1.00  0.00     0.016 C 
ATOM     12  C   UNL     1     138.113 134.875 125.338  1.00  0.00     0.012 C 
ENDROOT
BRANCH   1  13
ATOM     13  C   UNL     1     135.509 139.535 123.784  1.00  0.00    -0.077 C 
ATOM     14  C   UNL     1     135.949 140.468 124.883  1.00  0.00     0.039 C 
ATOM     15  C   UNL     1     134.882 140.055 122.716  1.00  0.00     0.008 C 
ENDBRANCH   1  13
TORSDOF 1
ENDMDL
MODEL 2
REMARK VINA RESULT:     0.365      1.448      4.559
REMARK INTER + INTRA:           0.205
REMARK INTER:                   0.451
REMARK INTRA:                  -0.247
REMARK UNBOUND:                -0.182
REMARK SMILES C=C(C)[C@@H]1CC[C@]2(C)CCCC(=C)[C@@H]2C1
REMARK SMILES IDX 4 1 5 2 6 3 7 4 9 5 10 6 11 7 12 8 13 9 14 10 15 11 8 12
REMARK SMILES IDX 2 13 3 14 1 15
REMARK H PARENT
REMARK Flexibility Score: inf
ROOT
ATOM      1  C   UNL     1     139.376 135.977 125.099  1.00  0.00     0.015 C 
ATOM      2  C   UNL     1     139.725 134.875 124.059  1.00  0.00     0.008 C 
ATOM      3  C   UNL     1     139.686 135.382 122.609  1.00  0.00     0.008 C 
ATOM      4  C   UNL     1     138.308 136.015 122.202  1.00  0.00    -0.026 C 
ATOM      5  C   UNL     1     138.596 137.142 121.162  1.00  0.00     0.008 C 
ATOM      6  C   UNL     1     137.362 137.975 120.803  1.00  0.00     0.005 C 
ATOM      7  C   UNL     1     136.786 138.646 122.045  1.00  0.00     0.031 C 
ATOM      8  C   UNL     1     136.494 137.618 123.109  1.00  0.00    -0.074 C 
ATOM      9  C   UNL     1     135.372 137.717 123.841  1.00  0.00     0.008 C 
ATOM     10  C   UNL     1     137.546 136.576 123.459  1.00  0.00     0.021 C 
ATOM     11  C   UNL     1     138.530 137.128 124.505  1.00  0.00     0.016 C 
ATOM     12  C   UNL     1     137.438 134.914 121.544  1.00  0.00     0.012 C 
ENDROOT
BRANCH   1  13
ATOM     13  C   UNL     1     140.609 136.503 125.825  1.00  0.00    -0.077 C 
ATOM     14  C   UNL     1     141.526 137.489 125.144  1.00  0.00     0.039 C 
ATOM     15  C   UNL     1     140.906 136.114 127.076  1.00  0.00     0.008 C 
ENDBRANCH   1  13
TORSDOF 1
ENDMDL
