MODEL 1
REMARK VINA RESULT:    -5.139      0.000      0.000
REMARK INTER + INTRA:          -5.139
REMARK INTER:                  -5.139
REMARK INTRA:                   0.000
REMARK UNBOUND:                 0.000
REMARK SMILES CC1=CC[C@@]2(C)CCCC(C)(C)[C@@]23C[C@@H]13
REMARK SMILES IDX 1 1 2 2 3 3 4 4 5 5 7 6 8 7 9 8 10 9 13 10 15 11 14 12 11 13
REMARK SMILES IDX 12 14 6 15
REMARK H PARENT
REMARK Flexibility Score: inf
ROOT
ATOM      1  C   UNL     1     136.127 139.697 132.934  1.00  0.00     0.039 C 
ATOM      2  C   UNL     1     135.148 138.750 132.299  1.00  0.00    -0.074 C 
ATOM      3  C   UNL     1     133.949 138.550 132.887  1.00  0.00    -0.027 C 
ATOM      4  C   UNL     1     132.917 137.621 132.298  1.00  0.00     0.034 C 
ATOM      5  C   UNL     1     133.591 136.405 131.597  1.00  0.00    -0.022 C 
ATOM      6  C   UNL     1     132.505 135.586 130.860  1.00  0.00     0.008 C 
ATOM      7  C   UNL     1     133.081 134.441 130.007  1.00  0.00     0.001 C 
ATOM      8  C   UNL     1     134.111 134.934 128.980  1.00  0.00     0.007 C 
ATOM      9  C   UNL     1     135.284 135.764 129.577  1.00  0.00    -0.029 C 
ATOM     10  C   UNL     1     134.668 136.870 130.535  1.00  0.00    -0.012 C 
ATOM     11  C   UNL     1     135.540 138.043 131.009  1.00  0.00     0.022 C 
ATOM     12  C   UNL     1     134.523 138.279 129.895  1.00  0.00     0.017 C 
ATOM     13  C   UNL     1     136.267 134.849 130.350  1.00  0.00     0.012 C 
ATOM     14  C   UNL     1     136.086 136.326 128.365  1.00  0.00     0.012 C 
ATOM     15  C   UNL     1     134.237 135.550 132.731  1.00  0.00     0.012 C 
ENDROOT
TORSDOF 0
ENDMDL
MODEL 2
REMARK VINA RESULT:    -5.110      3.842      6.071
REMARK INTER + INTRA:          -5.110
REMARK INTER:                  -5.110
REMARK INTRA:                   0.000
REMARK UNBOUND:                 0.000
REMARK SMILES CC1=CC[C@@]2(C)CCCC(C)(C)[C@@]23C[C@@H]13
REMARK SMILES IDX 1 1 2 2 3 3 4 4 5 5 7 6 8 7 9 8 10 9 13 10 15 11 14 12 11 13
REMARK SMILES IDX 12 14 6 15
REMARK H PARENT
REMARK Flexibility Score: inf
ROOT
ATOM      1  C   UNL     1     137.478 134.009 132.830  1.00  0.00     0.039 C 
ATOM      2  C   UNL     1     138.488 134.953 132.242  1.00  0.00    -0.074 C 
ATOM      3  C   UNL     1     139.677 135.115 132.862  1.00  0.00    -0.027 C 
ATOM      4  C   UNL     1     140.739 136.039 132.321  1.00  0.00     0.034 C 
ATOM      5  C   UNL     1     140.103 137.286 131.638  1.00  0.00    -0.022 C 
ATOM      6  C   UNL     1     141.221 138.104 130.947  1.00  0.00     0.008 C 
ATOM      7  C   UNL     1     140.686 139.281 130.112  1.00  0.00     0.001 C 
ATOM      8  C   UNL     1     139.670 138.835 129.049  1.00  0.00     0.007 C 
ATOM      9  C   UNL     1     138.469 138.011 129.598  1.00  0.00    -0.029 C 
ATOM     10  C   UNL     1     139.042 136.870 130.540  1.00  0.00    -0.012 C 
ATOM     11  C   UNL     1     138.139 135.701 130.963  1.00  0.00     0.022 C 
ATOM     12  C   UNL     1     139.177 135.476 129.866  1.00  0.00     0.017 C 
ATOM     13  C   UNL     1     137.486 138.925 130.373  1.00  0.00     0.012 C 
ATOM     14  C   UNL     1     137.684 137.497 128.354  1.00  0.00     0.012 C 
ATOM     15  C   UNL     1     139.448 138.123 132.779  1.00  0.00     0.012 C 
ENDROOT
TORSDOF 0
ENDMDL
MODEL 3
REMARK VINA RESULT:    -5.109      2.271      4.303
REMARK INTER + INTRA:          -5.109
REMARK INTER:                  -5.109
REMARK INTRA:                   0.000
REMARK UNBOUND:                 0.000
REMARK SMILES CC1=CC[C@@]2(C)CCCC(C)(C)[C@@]23C[C@@H]13
REMARK SMILES IDX 1 1 2 2 3 3 4 4 5 5 7 6 8 7 9 8 10 9 13 10 15 11 14 12 11 13
REMARK SMILES IDX 12 14 6 15
REMARK H PARENT
REMARK Flexibility Score: inf
ROOT
ATOM      1  C   UNL     1     139.770 137.607 132.959  1.00  0.00     0.039 C 
ATOM      2  C   UNL     1     138.810 138.577 132.330  1.00  0.00    -0.074 C 
ATOM      3  C   UNL     1     138.594 139.770 132.924  1.00  0.00    -0.027 C 
ATOM      4  C   UNL     1     137.650 140.792 132.342  1.00  0.00     0.034 C 
ATOM      5  C   UNL     1     136.443 140.105 131.639  1.00  0.00    -0.022 C 
ATOM      6  C   UNL     1     135.608 141.184 130.909  1.00  0.00     0.008 C 
ATOM      7  C   UNL     1     134.470 140.597 130.053  1.00  0.00     0.001 C 
ATOM      8  C   UNL     1     134.976 139.579 129.020  1.00  0.00     0.007 C 
ATOM      9  C   UNL     1     135.823 138.415 129.610  1.00  0.00    -0.029 C 
ATOM     10  C   UNL     1     136.921 139.040 130.570  1.00  0.00    -0.012 C 
ATOM     11  C   UNL     1     138.107 138.183 131.039  1.00  0.00     0.022 C 
ATOM     12  C   UNL     1     138.327 139.209 129.929  1.00  0.00     0.017 C 
ATOM     13  C   UNL     1     134.922 137.415 130.379  1.00  0.00     0.012 C 
ATOM     14  C   UNL     1     136.394 137.627 128.394  1.00  0.00     0.012 C 
ATOM     15  C   UNL     1     135.598 139.441 132.770  1.00  0.00     0.012 C 
ENDROOT
TORSDOF 0
ENDMDL
MODEL 4
REMARK VINA RESULT:    -5.104      2.016      4.154
REMARK INTER + INTRA:          -5.104
REMARK INTER:                  -5.104
REMARK INTRA:                   0.000
REMARK UNBOUND:                 0.000
REMARK SMILES CC1=CC[C@@]2(C)CCCC(C)(C)[C@@]23C[C@@H]13
REMARK SMILES IDX 1 1 2 2 3 3 4 4 5 5 7 6 8 7 9 8 10 9 13 10 15 11 14 12 11 13
REMARK SMILES IDX 12 14 6 15
REMARK H PARENT
REMARK Flexibility Score: inf
ROOT
ATOM      1  C   UNL     1     138.368 134.678 134.385  1.00  0.00     0.039 C 
ATOM      2  C   UNL     1     137.087 134.525 133.613  1.00  0.00    -0.074 C 
ATOM      3  C   UNL     1     136.923 133.449 132.815  1.00  0.00    -0.027 C 
ATOM      4  C   UNL     1     135.659 133.230 132.021  1.00  0.00     0.034 C 
ATOM      5  C   UNL     1     135.054 134.583 131.545  1.00  0.00    -0.022 C 
ATOM      6  C   UNL     1     133.676 134.315 130.896  1.00  0.00     0.008 C 
ATOM      7  C   UNL     1     132.918 135.603 130.522  1.00  0.00     0.001 C 
ATOM      8  C   UNL     1     132.727 136.542 131.722  1.00  0.00     0.007 C 
ATOM      9  C   UNL     1     134.036 136.920 132.472  1.00  0.00    -0.029 C 
ATOM     10  C   UNL     1     134.848 135.585 132.752  1.00  0.00    -0.012 C 
ATOM     11  C   UNL     1     136.012 135.593 133.756  1.00  0.00     0.022 C 
ATOM     12  C   UNL     1     134.669 135.002 134.181  1.00  0.00     0.017 C 
ATOM     13  C   UNL     1     134.880 137.915 131.635  1.00  0.00     0.012 C 
ATOM     14  C   UNL     1     133.602 137.698 133.750  1.00  0.00     0.012 C 
ATOM     15  C   UNL     1     136.047 135.158 130.487  1.00  0.00     0.012 C 
ENDROOT
TORSDOF 0
ENDMDL
MODEL 5
REMARK VINA RESULT:    -5.083      3.480      5.391
REMARK INTER + INTRA:          -5.083
REMARK INTER:                  -5.083
REMARK INTRA:                   0.000
REMARK UNBOUND:                 0.000
REMARK SMILES CC1=CC[C@@]2(C)CCCC(C)(C)[C@@]23C[C@@H]13
REMARK SMILES IDX 1 1 2 2 3 3 4 4 5 5 7 6 8 7 9 8 10 9 13 10 15 11 14 12 11 13
REMARK SMILES IDX 12 14 6 15
REMARK H PARENT
REMARK Flexibility Score: inf
ROOT
ATOM      1  C   UNL     1     139.067 138.361 134.602  1.00  0.00     0.039 C 
ATOM      2  C   UNL     1     139.221 137.124 133.763  1.00  0.00    -0.074 C 
ATOM      3  C   UNL     1     140.292 137.010 132.950  1.00  0.00    -0.027 C 
ATOM      4  C   UNL     1     140.514 135.791 132.088  1.00  0.00     0.034 C 
ATOM      5  C   UNL     1     139.161 135.203 131.591  1.00  0.00    -0.022 C 
ATOM      6  C   UNL     1     139.433 133.862 130.868  1.00  0.00     0.008 C 
ATOM      7  C   UNL     1     138.148 133.116 130.465  1.00  0.00     0.001 C 
ATOM      8  C   UNL     1     137.220 132.854 131.660  1.00  0.00     0.007 C 
ATOM      9  C   UNL     1     136.838 134.120 132.481  1.00  0.00    -0.029 C 
ATOM     10  C   UNL     1     138.170 134.926 132.793  1.00  0.00    -0.012 C 
ATOM     11  C   UNL     1     138.163 136.035 133.857  1.00  0.00     0.022 C 
ATOM     12  C   UNL     1     138.766 134.676 134.207  1.00  0.00     0.017 C 
ATOM     13  C   UNL     1     135.831 135.000 131.698  1.00  0.00     0.012 C 
ATOM     14  C   UNL     1     136.074 133.613 133.740  1.00  0.00     0.012 C 
ATOM     15  C   UNL     1     138.571 136.246 130.591  1.00  0.00     0.012 C 
ENDROOT
TORSDOF 0
ENDMDL
MODEL 6
REMARK VINA RESULT:    -5.071      3.704      5.593
REMARK INTER + INTRA:          -5.071
REMARK INTER:                  -5.071
REMARK INTRA:                   0.000
REMARK UNBOUND:                 0.000
REMARK SMILES CC1=CC[C@@]2(C)CCCC(C)(C)[C@@]23C[C@@H]13
REMARK SMILES IDX 1 1 2 2 3 3 4 4 5 5 7 6 8 7 9 8 10 9 13 10 15 11 14 12 11 13
REMARK SMILES IDX 12 14 6 15
REMARK H PARENT
REMARK Flexibility Score: inf
ROOT
ATOM      1  C   UNL     1     135.247 138.874 134.314  1.00  0.00     0.039 C 
ATOM      2  C   UNL     1     136.513 139.115 133.542  1.00  0.00    -0.074 C 
ATOM      3  C   UNL     1     136.603 140.201 132.746  1.00  0.00    -0.027 C 
ATOM      4  C   UNL     1     137.848 140.507 131.950  1.00  0.00     0.034 C 
ATOM      5  C   UNL     1     138.542 139.199 131.471  1.00  0.00    -0.022 C 
ATOM      6  C   UNL     1     139.899 139.562 130.820  1.00  0.00     0.008 C 
ATOM      7  C   UNL     1     140.742 138.330 130.443  1.00  0.00     0.001 C 
ATOM      8  C   UNL     1     140.999 137.404 131.642  1.00  0.00     0.007 C 
ATOM      9  C   UNL     1     139.719 136.935 132.393  1.00  0.00    -0.029 C 
ATOM     10  C   UNL     1     138.818 138.212 132.676  1.00  0.00    -0.012 C 
ATOM     11  C   UNL     1     137.659 138.123 133.681  1.00  0.00     0.022 C 
ATOM     12  C   UNL     1     138.959 138.804 134.106  1.00  0.00     0.017 C 
ATOM     13  C   UNL     1     138.943 135.887 131.555  1.00  0.00     0.012 C 
ATOM     14  C   UNL     1     140.207 136.187 133.668  1.00  0.00     0.012 C 
ATOM     15  C   UNL     1     137.590 138.560 130.413  1.00  0.00     0.012 C 
ENDROOT
TORSDOF 0
ENDMDL
MODEL 7
REMARK VINA RESULT:    -5.063      2.297      4.273
REMARK INTER + INTRA:          -5.063
REMARK INTER:                  -5.063
REMARK INTRA:                   0.000
REMARK UNBOUND:                 0.000
REMARK SMILES CC1=CC[C@@]2(C)CCCC(C)(C)[C@@]23C[C@@H]13
REMARK SMILES IDX 1 1 2 2 3 3 4 4 5 5 7 6 8 7 9 8 10 9 13 10 15 11 14 12 11 13
REMARK SMILES IDX 12 14 6 15
REMARK H PARENT
REMARK Flexibility Score: inf
ROOT
ATOM      1  C   UNL     1     133.992 136.123 133.142  1.00  0.00     0.039 C 
ATOM      2  C   UNL     1     134.938 135.164 132.477  1.00  0.00    -0.074 C 
ATOM      3  C   UNL     1     135.115 133.936 133.012  1.00  0.00    -0.027 C 
ATOM      4  C   UNL     1     136.043 132.922 132.390  1.00  0.00     0.034 C 
ATOM      5  C   UNL     1     137.278 133.614 131.742  1.00  0.00    -0.022 C 
ATOM      6  C   UNL     1     138.099 132.554 130.969  1.00  0.00     0.008 C 
ATOM      7  C   UNL     1     139.264 133.156 130.162  1.00  0.00     0.001 C 
ATOM      8  C   UNL     1     138.799 134.239 129.177  1.00  0.00     0.007 C 
ATOM      9  C   UNL     1     137.972 135.392 129.814  1.00  0.00    -0.029 C 
ATOM     10  C   UNL     1     136.843 134.745 130.724  1.00  0.00    -0.012 C 
ATOM     11  C   UNL     1     135.671 135.607 131.219  1.00  0.00     0.022 C 
ATOM     12  C   UNL     1     135.444 134.645 130.055  1.00  0.00     0.017 C 
ATOM     13  C   UNL     1     138.884 136.327 130.647  1.00  0.00     0.012 C 
ATOM     14  C   UNL     1     137.439 136.256 128.632  1.00  0.00     0.012 C 
ATOM     15  C   UNL     1     138.121 134.197 132.919  1.00  0.00     0.012 C 
ENDROOT
TORSDOF 0
ENDMDL
MODEL 8
REMARK VINA RESULT:    -5.060      2.085      4.497
REMARK INTER + INTRA:          -5.060
REMARK INTER:                  -5.060
REMARK INTRA:                   0.000
REMARK UNBOUND:                 0.000
REMARK SMILES CC1=CC[C@@]2(C)CCCC(C)(C)[C@@]23C[C@@H]13
REMARK SMILES IDX 1 1 2 2 3 3 4 4 5 5 7 6 8 7 9 8 10 9 13 10 15 11 14 12 11 13
REMARK SMILES IDX 12 14 6 15
REMARK H PARENT
REMARK Flexibility Score: inf
ROOT
ATOM      1  C   UNL     1     134.857 135.556 134.682  1.00  0.00     0.039 C 
ATOM      2  C   UNL     1     134.670 136.779 133.830  1.00  0.00    -0.074 C 
ATOM      3  C   UNL     1     133.584 136.865 133.032  1.00  0.00    -0.027 C 
ATOM      4  C   UNL     1     133.330 138.068 132.158  1.00  0.00     0.034 C 
ATOM      5  C   UNL     1     134.666 138.671 131.632  1.00  0.00    -0.022 C 
ATOM      6  C   UNL     1     134.360 139.998 130.895  1.00  0.00     0.008 C 
ATOM      7  C   UNL     1     135.627 140.759 130.462  1.00  0.00     0.001 C 
ATOM      8  C   UNL     1     136.569 141.051 131.639  1.00  0.00     0.007 C 
ATOM      9  C   UNL     1     136.983 139.803 132.471  1.00  0.00    -0.029 C 
ATOM     10  C   UNL     1     135.670 138.980 132.814  1.00  0.00    -0.012 C 
ATOM     11  C   UNL     1     135.712 137.886 133.893  1.00  0.00     0.022 C 
ATOM     12  C   UNL     1     135.092 139.239 134.234  1.00  0.00     0.017 C 
ATOM     13  C   UNL     1     137.992 138.929 131.683  1.00  0.00     0.012 C 
ATOM     14  C   UNL     1     137.759 140.339 133.711  1.00  0.00     0.012 C 
ATOM     15  C   UNL     1     135.257 137.625 130.637  1.00  0.00     0.012 C 
ENDROOT
TORSDOF 0
ENDMDL
MODEL 9
REMARK VINA RESULT:    -4.903      3.398      5.798
REMARK INTER + INTRA:          -4.903
REMARK INTER:                  -4.903
REMARK INTRA:                   0.000
REMARK UNBOUND:                 0.000
REMARK SMILES CC1=CC[C@@]2(C)CCCC(C)(C)[C@@]23C[C@@H]13
REMARK SMILES IDX 1 1 2 2 3 3 4 4 5 5 7 6 8 7 9 8 10 9 13 10 15 11 14 12 11 13
REMARK SMILES IDX 12 14 6 15
REMARK H PARENT
REMARK Flexibility Score: inf
ROOT
ATOM      1  C   UNL     1     139.298 133.671 130.497  1.00  0.00     0.039 C 
ATOM      2  C   UNL     1     139.112 134.873 131.380  1.00  0.00    -0.074 C 
ATOM      3  C   UNL     1     138.545 134.715 132.596  1.00  0.00    -0.027 C 
ATOM      4  C   UNL     1     138.337 135.876 133.536  1.00  0.00     0.034 C 
ATOM      5  C   UNL     1     138.015 137.182 132.751  1.00  0.00    -0.022 C 
ATOM      6  C   UNL     1     137.989 138.369 133.743  1.00  0.00     0.008 C 
ATOM      7  C   UNL     1     137.827 139.736 133.053  1.00  0.00     0.001 C 
ATOM      8  C   UNL     1     138.914 139.995 131.999  1.00  0.00     0.007 C 
ATOM      9  C   UNL     1     139.049 138.888 130.913  1.00  0.00    -0.029 C 
ATOM     10  C   UNL     1     139.108 137.482 131.647  1.00  0.00    -0.012 C 
ATOM     11  C   UNL     1     139.567 136.234 130.876  1.00  0.00     0.022 C 
ATOM     12  C   UNL     1     140.539 136.908 131.842  1.00  0.00     0.017 C 
ATOM     13  C   UNL     1     137.860 138.944 129.921  1.00  0.00     0.012 C 
ATOM     14  C   UNL     1     140.317 139.242 130.080  1.00  0.00     0.012 C 
ATOM     15  C   UNL     1     136.603 136.975 132.119  1.00  0.00     0.012 C 
ENDROOT
TORSDOF 0
ENDMDL
