MODEL 1
REMARK VINA RESULT:    -3.526      0.000      0.000
REMARK INTER + INTRA:         -12.257
REMARK INTER:                  -8.061
REMARK INTRA:                  -4.196
REMARK UNBOUND:                -4.196
REMARK SMILES CCCCCCCCCCCCCCCCCCCCCCCC(=O)[O-]
REMARK SMILES IDX 13 1 14 2 15 3 16 4 17 5 18 6 19 7 20 8 21 9 22 10 23 11
REMARK SMILES IDX 24 12 25 13 26 14 12 15 11 16 10 17 9 18 8 19 7 20 6 21 5 22
REMARK SMILES IDX 4 23 3 24 2 25 1 26
REMARK H PARENT
REMARK Flexibility Score: inf
ROOT
ATOM      1  C   UNL     1      26.549  12.532  23.332  1.00  0.00     0.000 C 
ENDROOT
BRANCH   1   2
ATOM      2  C   UNL     1      25.892  12.987  24.647  1.00  0.00     0.000 C 
BRANCH   2   3
ATOM      3  C   UNL     1      24.542  13.689  24.416  1.00  0.00     0.000 C 
BRANCH   3   4
ATOM      4  C   UNL     1      23.349  12.881  24.956  1.00  0.00     0.000 C 
BRANCH   4   5
ATOM      5  C   UNL     1      23.688  11.454  25.424  1.00  0.00     0.000 C 
BRANCH   5   6
ATOM      6  C   UNL     1      22.949  10.372  24.618  1.00  0.00     0.000 C 
BRANCH   6   7
ATOM      7  C   UNL     1      22.368  10.904  23.297  1.00  0.00     0.000 C 
BRANCH   7   8
ATOM      8  C   UNL     1      22.544   9.921  22.129  1.00  0.00     0.000 C 
BRANCH   8   9
ATOM      9  C   UNL     1      23.286  10.585  20.957  1.00  0.00     0.000 C 
BRANCH   9  10
ATOM     10  C   UNL     1      23.556  12.079  21.193  1.00  0.00     0.006 C 
BRANCH  10  11
ATOM     11  C   UNL     1      24.379  12.721  20.069  1.00  0.00     0.053 C 
BRANCH  11  12
ATOM     12  C   UNL     1      23.511  13.586  19.208  1.00  0.00     0.041 C 
ATOM     13  O   UNL     1      23.907  14.729  18.859  1.00  0.00    -0.550 OA
ATOM     14  O   UNL     1      22.285  13.113  18.756  1.00  0.00    -0.550 OA
ENDBRANCH  11  12
ENDBRANCH  10  11
ENDBRANCH   9  10
ENDBRANCH   8   9
ENDBRANCH   7   8
ENDBRANCH   6   7
ENDBRANCH   5   6
ENDBRANCH   4   5
ENDBRANCH   3   4
ENDBRANCH   2   3
ENDBRANCH   1   2
BRANCH   1  15
ATOM     15  C   UNL     1      26.524  11.003  23.161  1.00  0.00     0.000 C 
BRANCH  15  16
ATOM     16  C   UNL     1      27.176  10.554  21.835  1.00  0.00     0.000 C 
BRANCH  16  17
ATOM     17  C   UNL     1      28.124   9.352  21.988  1.00  0.00     0.000 C 
BRANCH  17  18
ATOM     18  C   UNL     1      28.262   8.879  23.446  1.00  0.00    -0.000 C 
BRANCH  18  19
ATOM     19  C   UNL     1      29.629   9.248  24.064  1.00  0.00    -0.000 C 
BRANCH  19  20
ATOM     20  C   UNL     1      29.653   9.193  25.603  1.00  0.00    -0.000 C 
BRANCH  20  21
ATOM     21  C   UNL     1      28.297   9.452  26.284  1.00  0.00    -0.000 C 
BRANCH  21  22
ATOM     22  C   UNL     1      28.037  10.919  26.688  1.00  0.00    -0.000 C 
BRANCH  22  23
ATOM     23  C   UNL     1      26.869  11.127  27.667  1.00  0.00    -0.000 C 
BRANCH  23  24
ATOM     24  C   UNL     1      26.884  12.516  28.327  1.00  0.00    -0.000 C 
BRANCH  24  25
ATOM     25  C   UNL     1      25.477  13.123  28.453  1.00  0.00    -0.003 C 
ATOM     26  C   UNL     1      25.414  14.572  27.970  1.00  0.00     0.004 C 
ENDBRANCH  24  25
ENDBRANCH  23  24
ENDBRANCH  22  23
ENDBRANCH  21  22
ENDBRANCH  20  21
ENDBRANCH  19  20
ENDBRANCH  18  19
ENDBRANCH  17  18
ENDBRANCH  16  17
ENDBRANCH  15  16
ENDBRANCH   1  15
TORSDOF 22
ENDMDL
MODEL 2
REMARK VINA RESULT:    -3.453     12.387     15.479
REMARK INTER + INTRA:         -12.090
REMARK INTER:                  -7.738
REMARK INTRA:                  -4.352
REMARK UNBOUND:                -4.196
REMARK SMILES CCCCCCCCCCCCCCCCCCCCCCCC(=O)[O-]
REMARK SMILES IDX 13 1 14 2 15 3 16 4 17 5 18 6 19 7 20 8 21 9 22 10 23 11
REMARK SMILES IDX 24 12 25 13 26 14 12 15 11 16 10 17 9 18 8 19 7 20 6 21 5 22
REMARK SMILES IDX 4 23 3 24 2 25 1 26
REMARK H PARENT
REMARK Flexibility Score: inf
ROOT
ATOM      1  C   UNL     1      26.068  26.831  23.447  1.00  0.00     0.000 C 
ENDROOT
BRANCH   1   2
ATOM      2  C   UNL     1      26.891  25.837  22.611  1.00  0.00     0.000 C 
BRANCH   2   3
ATOM      3  C   UNL     1      26.083  24.588  22.218  1.00  0.00     0.000 C 
BRANCH   3   4
ATOM      4  C   UNL     1      26.219  24.232  20.728  1.00  0.00     0.000 C 
BRANCH   4   5
ATOM      5  C   UNL     1      27.240  25.081  19.947  1.00  0.00     0.000 C 
BRANCH   5   6
ATOM      6  C   UNL     1      27.486  24.554  18.522  1.00  0.00     0.000 C 
BRANCH   6   7
ATOM      7  C   UNL     1      26.464  25.088  17.505  1.00  0.00     0.000 C 
BRANCH   7   8
ATOM      8  C   UNL     1      25.520  23.996  16.978  1.00  0.00     0.000 C 
BRANCH   8   9
ATOM      9  C   UNL     1      24.142  24.086  17.655  1.00  0.00     0.000 C 
BRANCH   9  10
ATOM     10  C   UNL     1      23.665  22.736  18.213  1.00  0.00     0.006 C 
BRANCH  10  11
ATOM     11  C   UNL     1      24.811  21.734  18.412  1.00  0.00     0.053 C 
BRANCH  11  12
ATOM     12  C   UNL     1      24.518  20.819  19.559  1.00  0.00     0.041 C 
ATOM     13  O   UNL     1      24.150  21.292  20.667  1.00  0.00    -0.550 OA
ATOM     14  O   UNL     1      24.611  19.442  19.394  1.00  0.00    -0.550 OA
ENDBRANCH  11  12
ENDBRANCH  10  11
ENDBRANCH   9  10
ENDBRANCH   8   9
ENDBRANCH   7   8
ENDBRANCH   6   7
ENDBRANCH   5   6
ENDBRANCH   4   5
ENDBRANCH   3   4
ENDBRANCH   2   3
ENDBRANCH   1   2
BRANCH   1  15
ATOM     15  C   UNL     1      25.284  26.140  24.577  1.00  0.00     0.000 C 
BRANCH  15  16
ATOM     16  C   UNL     1      23.865  26.726  24.745  1.00  0.00     0.000 C 
BRANCH  16  17
ATOM     17  C   UNL     1      22.951  26.497  23.529  1.00  0.00     0.000 C 
BRANCH  17  18
ATOM     18  C   UNL     1      22.384  27.804  22.950  1.00  0.00    -0.000 C 
BRANCH  18  19
ATOM     19  C   UNL     1      22.534  27.889  21.415  1.00  0.00    -0.000 C 
BRANCH  19  20
ATOM     20  C   UNL     1      23.465  26.816  20.818  1.00  0.00    -0.000 C 
BRANCH  20  21
ATOM     21  C   UNL     1      24.358  27.302  19.662  1.00  0.00    -0.000 C 
BRANCH  21  22
ATOM     22  C   UNL     1      25.326  28.449  20.022  1.00  0.00    -0.000 C 
BRANCH  22  23
ATOM     23  C   UNL     1      26.623  28.489  19.195  1.00  0.00    -0.000 C 
BRANCH  23  24
ATOM     24  C   UNL     1      27.880  28.659  20.066  1.00  0.00    -0.000 C 
BRANCH  24  25
ATOM     25  C   UNL     1      29.180  28.493  19.262  1.00  0.00    -0.003 C 
ATOM     26  C   UNL     1      30.404  28.289  20.155  1.00  0.00     0.004 C 
ENDBRANCH  24  25
ENDBRANCH  23  24
ENDBRANCH  22  23
ENDBRANCH  21  22
ENDBRANCH  20  21
ENDBRANCH  19  20
ENDBRANCH  18  19
ENDBRANCH  17  18
ENDBRANCH  16  17
ENDBRANCH  15  16
ENDBRANCH   1  15
TORSDOF 22
ENDMDL
MODEL 3
REMARK VINA RESULT:    -3.435     12.776     15.690
REMARK INTER + INTRA:         -12.049
REMARK INTER:                  -7.340
REMARK INTRA:                  -4.710
REMARK UNBOUND:                -4.196
REMARK SMILES CCCCCCCCCCCCCCCCCCCCCCCC(=O)[O-]
REMARK SMILES IDX 13 1 14 2 15 3 16 4 17 5 18 6 19 7 20 8 21 9 22 10 23 11
REMARK SMILES IDX 24 12 25 13 26 14 12 15 11 16 10 17 9 18 8 19 7 20 6 21 5 22
REMARK SMILES IDX 4 23 3 24 2 25 1 26
REMARK H PARENT
REMARK Flexibility Score: inf
ROOT
ATOM      1  C   UNL     1      24.871  26.604  21.190  1.00  0.00     0.000 C 
ENDROOT
BRANCH   1   2
ATOM      2  C   UNL     1      25.852  25.448  21.449  1.00  0.00     0.000 C 
BRANCH   2   3
ATOM      3  C   UNL     1      26.829  25.753  22.598  1.00  0.00     0.000 C 
BRANCH   3   4
ATOM      4  C   UNL     1      26.829  27.237  23.005  1.00  0.00     0.000 C 
BRANCH   4   5
ATOM      5  C   UNL     1      28.215  27.908  23.014  1.00  0.00     0.000 C 
BRANCH   5   6
ATOM      6  C   UNL     1      28.297  29.117  22.065  1.00  0.00     0.000 C 
BRANCH   6   7
ATOM      7  C   UNL     1      27.768  28.804  20.655  1.00  0.00     0.000 C 
BRANCH   7   8
ATOM      8  C   UNL     1      28.826  28.152  19.751  1.00  0.00     0.000 C 
BRANCH   8   9
ATOM      9  C   UNL     1      28.264  26.900  19.058  1.00  0.00     0.000 C 
BRANCH   9  10
ATOM     10  C   UNL     1      27.274  27.238  17.932  1.00  0.00     0.006 C 
BRANCH  10  11
ATOM     11  C   UNL     1      26.204  26.157  17.734  1.00  0.00     0.053 C 
BRANCH  11  12
ATOM     12  C   UNL     1      26.661  25.137  16.738  1.00  0.00     0.041 C 
ATOM     13  O   UNL     1      26.265  25.197  15.545  1.00  0.00    -0.550 OA
ATOM     14  O   UNL     1      27.559  24.146  17.117  1.00  0.00    -0.550 OA
ENDBRANCH  11  12
ENDBRANCH  10  11
ENDBRANCH   9  10
ENDBRANCH   8   9
ENDBRANCH   7   8
ENDBRANCH   6   7
ENDBRANCH   5   6
ENDBRANCH   4   5
ENDBRANCH   3   4
ENDBRANCH   2   3
ENDBRANCH   1   2
BRANCH   1  15
ATOM     15  C   UNL     1      23.547  26.124  20.571  1.00  0.00     0.000 C 
BRANCH  15  16
ATOM     16  C   UNL     1      22.316  26.717  21.291  1.00  0.00     0.000 C 
BRANCH  16  17
ATOM     17  C   UNL     1      22.625  27.992  22.094  1.00  0.00     0.000 C 
BRANCH  17  18
ATOM     18  C   UNL     1      22.205  27.887  23.570  1.00  0.00    -0.000 C 
BRANCH  18  19
ATOM     19  C   UNL     1      23.355  27.407  24.482  1.00  0.00    -0.000 C 
BRANCH  19  20
ATOM     20  C   UNL     1      23.044  26.107  25.248  1.00  0.00    -0.000 C 
BRANCH  20  21
ATOM     21  C   UNL     1      24.166  25.053  25.223  1.00  0.00    -0.000 C 
BRANCH  21  22
ATOM     22  C   UNL     1      23.979  23.922  24.189  1.00  0.00    -0.000 C 
BRANCH  22  23
ATOM     23  C   UNL     1      22.566  23.816  23.590  1.00  0.00    -0.000 C 
BRANCH  23  24
ATOM     24  C   UNL     1      22.540  23.053  22.255  1.00  0.00    -0.000 C 
BRANCH  24  25
ATOM     25  C   UNL     1      23.894  22.407  21.920  1.00  0.00    -0.003 C 
ATOM     26  C   UNL     1      24.129  22.277  20.415  1.00  0.00     0.004 C 
ENDBRANCH  24  25
ENDBRANCH  23  24
ENDBRANCH  22  23
ENDBRANCH  21  22
ENDBRANCH  20  21
ENDBRANCH  19  20
ENDBRANCH  18  19
ENDBRANCH  17  18
ENDBRANCH  16  17
ENDBRANCH  15  16
ENDBRANCH   1  15
TORSDOF 22
ENDMDL
MODEL 4
REMARK VINA RESULT:    -3.418      3.848      7.445
REMARK INTER + INTRA:         -12.011
REMARK INTER:                  -8.126
REMARK INTRA:                  -3.885
REMARK UNBOUND:                -4.196
REMARK SMILES CCCCCCCCCCCCCCCCCCCCCCCC(=O)[O-]
REMARK SMILES IDX 13 1 14 2 15 3 16 4 17 5 18 6 19 7 20 8 21 9 22 10 23 11
REMARK SMILES IDX 24 12 25 13 26 14 12 15 11 16 10 17 9 18 8 19 7 20 6 21 5 22
REMARK SMILES IDX 4 23 3 24 2 25 1 26
REMARK H PARENT
REMARK Flexibility Score: inf
ROOT
ATOM      1  C   UNL     1      24.409  11.530  24.893  1.00  0.00     0.000 C 
ENDROOT
BRANCH   1   2
ATOM      2  C   UNL     1      23.513  10.468  24.232  1.00  0.00     0.000 C 
BRANCH   2   3
ATOM      3  C   UNL     1      22.537  11.077  23.209  1.00  0.00     0.000 C 
BRANCH   3   4
ATOM      4  C   UNL     1      22.381  10.214  21.945  1.00  0.00     0.000 C 
BRANCH   4   5
ATOM      5  C   UNL     1      23.275  10.627  20.761  1.00  0.00     0.000 C 
BRANCH   5   6
ATOM      6  C   UNL     1      23.651  12.119  20.790  1.00  0.00     0.000 C 
BRANCH   6   7
ATOM      7  C   UNL     1      25.169  12.350  20.860  1.00  0.00     0.000 C 
BRANCH   7   8
ATOM      8  C   UNL     1      25.934  11.135  21.409  1.00  0.00     0.000 C 
BRANCH   8   9
ATOM      9  C   UNL     1      27.056  11.575  22.364  1.00  0.00     0.000 C 
BRANCH   9  10
ATOM     10  C   UNL     1      28.176  10.530  22.488  1.00  0.00     0.006 C 
BRANCH  10  11
ATOM     11  C   UNL     1      27.824   9.391  23.454  1.00  0.00     0.053 C 
BRANCH  11  12
ATOM     12  C   UNL     1      28.357   9.678  24.824  1.00  0.00     0.041 C 
ATOM     13  O   UNL     1      27.603  10.165  25.706  1.00  0.00    -0.550 OA
ATOM     14  O   UNL     1      29.675   9.367  25.138  1.00  0.00    -0.550 OA
ENDBRANCH  11  12
ENDBRANCH  10  11
ENDBRANCH   9  10
ENDBRANCH   8   9
ENDBRANCH   7   8
ENDBRANCH   6   7
ENDBRANCH   5   6
ENDBRANCH   4   5
ENDBRANCH   3   4
ENDBRANCH   2   3
ENDBRANCH   1   2
BRANCH   1  15
ATOM     15  C   UNL     1      23.859  12.956  24.715  1.00  0.00     0.000 C 
BRANCH  15  16
ATOM     16  C   UNL     1      24.947  13.945  24.242  1.00  0.00     0.000 C 
BRANCH  16  17
ATOM     17  C   UNL     1      24.399  15.330  23.855  1.00  0.00     0.000 C 
BRANCH  17  18
ATOM     18  C   UNL     1      24.189  15.489  22.340  1.00  0.00    -0.000 C 
BRANCH  18  19
ATOM     19  C   UNL     1      22.697  15.592  21.954  1.00  0.00    -0.000 C 
BRANCH  19  20
ATOM     20  C   UNL     1      22.450  16.258  20.587  1.00  0.00    -0.000 C 
BRANCH  20  21
ATOM     21  C   UNL     1      23.552  16.018  19.539  1.00  0.00    -0.000 C 
BRANCH  21  22
ATOM     22  C   UNL     1      24.191  17.297  18.957  1.00  0.00    -0.000 C 
BRANCH  22  23
ATOM     23  C   UNL     1      24.972  18.153  19.969  1.00  0.00    -0.000 C 
BRANCH  23  24
ATOM     24  C   UNL     1      24.433  19.590  20.075  1.00  0.00    -0.000 C 
BRANCH  24  25
ATOM     25  C   UNL     1      23.565  19.802  21.326  1.00  0.00    -0.003 C 
ATOM     26  C   UNL     1      24.157  19.145  22.573  1.00  0.00     0.004 C 
ENDBRANCH  24  25
ENDBRANCH  23  24
ENDBRANCH  22  23
ENDBRANCH  21  22
ENDBRANCH  20  21
ENDBRANCH  19  20
ENDBRANCH  18  19
ENDBRANCH  17  18
ENDBRANCH  16  17
ENDBRANCH  15  16
ENDBRANCH   1  15
TORSDOF 22
ENDMDL
MODEL 5
REMARK VINA RESULT:    -3.417     11.487     14.576
REMARK INTER + INTRA:         -12.007
REMARK INTER:                  -7.872
REMARK INTRA:                  -4.135
REMARK UNBOUND:                -4.196
REMARK SMILES CCCCCCCCCCCCCCCCCCCCCCCC(=O)[O-]
REMARK SMILES IDX 13 1 14 2 15 3 16 4 17 5 18 6 19 7 20 8 21 9 22 10 23 11
REMARK SMILES IDX 24 12 25 13 26 14 12 15 11 16 10 17 9 18 8 19 7 20 6 21 5 22
REMARK SMILES IDX 4 23 3 24 2 25 1 26
REMARK H PARENT
REMARK Flexibility Score: inf
ROOT
ATOM      1  C   UNL     1      24.672  25.760  25.192  1.00  0.00     0.000 C 
ENDROOT
BRANCH   1   2
ATOM      2  C   UNL     1      23.228  26.291  25.225  1.00  0.00     0.000 C 
BRANCH   2   3
ATOM      3  C   UNL     1      23.088  27.657  24.531  1.00  0.00     0.000 C 
BRANCH   3   4
ATOM      4  C   UNL     1      22.071  27.640  23.377  1.00  0.00     0.000 C 
BRANCH   4   5
ATOM      5  C   UNL     1      22.686  27.518  21.971  1.00  0.00     0.000 C 
BRANCH   5   6
ATOM      6  C   UNL     1      22.283  26.217  21.255  1.00  0.00     0.000 C 
BRANCH   6   7
ATOM      7  C   UNL     1      23.307  25.087  21.450  1.00  0.00     0.000 C 
BRANCH   7   8
ATOM      8  C   UNL     1      22.778  23.947  22.335  1.00  0.00     0.000 C 
BRANCH   8   9
ATOM      9  C   UNL     1      23.900  22.958  22.690  1.00  0.00     0.000 C 
BRANCH   9  10
ATOM     10  C   UNL     1      23.736  22.350  24.092  1.00  0.00     0.006 C 
BRANCH  10  11
ATOM     11  C   UNL     1      24.277  20.917  24.187  1.00  0.00     0.053 C 
BRANCH  11  12
ATOM     12  C   UNL     1      24.436  20.508  25.618  1.00  0.00     0.041 C 
ATOM     13  O   UNL     1      24.930  19.385  25.903  1.00  0.00    -0.550 OA
ATOM     14  O   UNL     1      24.079  21.383  26.638  1.00  0.00    -0.550 OA
ENDBRANCH  11  12
ENDBRANCH  10  11
ENDBRANCH   9  10
ENDBRANCH   8   9
ENDBRANCH   7   8
ENDBRANCH   6   7
ENDBRANCH   5   6
ENDBRANCH   4   5
ENDBRANCH   3   4
ENDBRANCH   2   3
ENDBRANCH   1   2
BRANCH   1  15
ATOM     15  C   UNL     1      25.523  26.440  24.106  1.00  0.00     0.000 C 
BRANCH  15  16
ATOM     16  C   UNL     1      26.368  25.425  23.306  1.00  0.00     0.000 C 
BRANCH  16  17
ATOM     17  C   UNL     1      26.998  26.012  22.031  1.00  0.00     0.000 C 
BRANCH  17  18
ATOM     18  C   UNL     1      26.576  27.468  21.769  1.00  0.00    -0.000 C 
BRANCH  18  19
ATOM     19  C   UNL     1      26.671  27.855  20.277  1.00  0.00    -0.000 C 
BRANCH  19  20
ATOM     20  C   UNL     1      26.188  26.755  19.314  1.00  0.00    -0.000 C 
BRANCH  20  21
ATOM     21  C   UNL     1      27.285  26.146  18.422  1.00  0.00    -0.000 C 
BRANCH  21  22
ATOM     22  C   UNL     1      27.491  24.624  18.584  1.00  0.00    -0.000 C 
BRANCH  22  23
ATOM     23  C   UNL     1      26.297  23.756  18.151  1.00  0.00    -0.000 C 
BRANCH  23  24
ATOM     24  C   UNL     1      25.498  23.202  19.343  1.00  0.00    -0.000 C 
BRANCH  24  25
ATOM     25  C   UNL     1      24.399  22.219  18.909  1.00  0.00    -0.003 C 
ATOM     26  C   UNL     1      24.528  20.855  19.586  1.00  0.00     0.004 C 
ENDBRANCH  24  25
ENDBRANCH  23  24
ENDBRANCH  22  23
ENDBRANCH  21  22
ENDBRANCH  20  21
ENDBRANCH  19  20
ENDBRANCH  18  19
ENDBRANCH  17  18
ENDBRANCH  16  17
ENDBRANCH  15  16
ENDBRANCH   1  15
TORSDOF 22
ENDMDL
MODEL 6
REMARK VINA RESULT:    -3.416     12.264     15.246
REMARK INTER + INTRA:         -12.006
REMARK INTER:                  -7.478
REMARK INTRA:                  -4.528
REMARK UNBOUND:                -4.196
REMARK SMILES CCCCCCCCCCCCCCCCCCCCCCCC(=O)[O-]
REMARK SMILES IDX 13 1 14 2 15 3 16 4 17 5 18 6 19 7 20 8 21 9 22 10 23 11
REMARK SMILES IDX 24 12 25 13 26 14 12 15 11 16 10 17 9 18 8 19 7 20 6 21 5 22
REMARK SMILES IDX 4 23 3 24 2 25 1 26
REMARK H PARENT
REMARK Flexibility Score: inf
ROOT
ATOM      1  C   UNL     1      24.491  25.540  25.067  1.00  0.00     0.000 C 
ENDROOT
BRANCH   1   2
ATOM      2  C   UNL     1      23.086  26.163  25.133  1.00  0.00     0.000 C 
BRANCH   2   3
ATOM      3  C   UNL     1      23.057  27.604  24.592  1.00  0.00     0.000 C 
BRANCH   3   4
ATOM      4  C   UNL     1      22.088  27.779  23.410  1.00  0.00     0.000 C 
BRANCH   4   5
ATOM      5  C   UNL     1      22.761  28.047  22.052  1.00  0.00     0.000 C 
BRANCH   5   6
ATOM      6  C   UNL     1      22.358  27.024  20.975  1.00  0.00     0.000 C 
BRANCH   6   7
ATOM      7  C   UNL     1      23.486  26.032  20.644  1.00  0.00     0.000 C 
BRANCH   7   8
ATOM      8  C   UNL     1      23.021  24.568  20.670  1.00  0.00     0.000 C 
BRANCH   8   9
ATOM      9  C   UNL     1      22.782  24.091  22.112  1.00  0.00     0.000 C 
BRANCH   9  10
ATOM     10  C   UNL     1      23.074  22.594  22.300  1.00  0.00     0.006 C 
BRANCH  10  11
ATOM     11  C   UNL     1      24.142  22.325  23.368  1.00  0.00     0.053 C 
BRANCH  11  12
ATOM     12  C   UNL     1      23.512  21.826  24.630  1.00  0.00     0.041 C 
ATOM     13  O   UNL     1      22.562  22.463  25.157  1.00  0.00    -0.550 OA
ATOM     14  O   UNL     1      23.943  20.634  25.202  1.00  0.00    -0.550 OA
ENDBRANCH  11  12
ENDBRANCH  10  11
ENDBRANCH   9  10
ENDBRANCH   8   9
ENDBRANCH   7   8
ENDBRANCH   6   7
ENDBRANCH   5   6
ENDBRANCH   4   5
ENDBRANCH   3   4
ENDBRANCH   2   3
ENDBRANCH   1   2
BRANCH   1  15
ATOM     15  C   UNL     1      25.421  26.287  24.095  1.00  0.00     0.000 C 
BRANCH  15  16
ATOM     16  C   UNL     1      26.161  25.325  23.140  1.00  0.00     0.000 C 
BRANCH  16  17
ATOM     17  C   UNL     1      27.089  26.037  22.140  1.00  0.00     0.000 C 
BRANCH  17  18
ATOM     18  C   UNL     1      27.041  27.569  22.265  1.00  0.00    -0.000 C 
BRANCH  18  19
ATOM     19  C   UNL     1      27.383  28.285  20.940  1.00  0.00    -0.000 C 
BRANCH  19  20
ATOM     20  C   UNL     1      26.168  28.506  20.018  1.00  0.00    -0.000 C 
BRANCH  20  21
ATOM     21  C   UNL     1      26.405  28.161  18.537  1.00  0.00    -0.000 C 
BRANCH  21  22
ATOM     22  C   UNL     1      26.372  26.655  18.202  1.00  0.00    -0.000 C 
BRANCH  22  23
ATOM     23  C   UNL     1      27.725  25.932  18.316  1.00  0.00    -0.000 C 
BRANCH  23  24
ATOM     24  C   UNL     1      27.578  24.406  18.434  1.00  0.00    -0.000 C 
BRANCH  24  25
ATOM     25  C   UNL     1      26.304  23.993  19.188  1.00  0.00    -0.003 C 
ATOM     26  C   UNL     1      25.444  23.007  18.398  1.00  0.00     0.004 C 
ENDBRANCH  24  25
ENDBRANCH  23  24
ENDBRANCH  22  23
ENDBRANCH  21  22
ENDBRANCH  20  21
ENDBRANCH  19  20
ENDBRANCH  18  19
ENDBRANCH  17  18
ENDBRANCH  16  17
ENDBRANCH  15  16
ENDBRANCH   1  15
TORSDOF 22
ENDMDL
MODEL 7
REMARK VINA RESULT:    -3.398     10.614     13.490
REMARK INTER + INTRA:         -11.964
REMARK INTER:                  -8.212
REMARK INTRA:                  -3.752
REMARK UNBOUND:                -4.196
REMARK SMILES CCCCCCCCCCCCCCCCCCCCCCCC(=O)[O-]
REMARK SMILES IDX 13 1 14 2 15 3 16 4 17 5 18 6 19 7 20 8 21 9 22 10 23 11
REMARK SMILES IDX 24 12 25 13 26 14 12 15 11 16 10 17 9 18 8 19 7 20 6 21 5 22
REMARK SMILES IDX 4 23 3 24 2 25 1 26
REMARK H PARENT
REMARK Flexibility Score: inf
ROOT
ATOM      1  C   UNL     1      23.399  23.858  21.471  1.00  0.00     0.000 C 
ENDROOT
BRANCH   1   2
ATOM      2  C   UNL     1      22.474  25.017  21.877  1.00  0.00     0.000 C 
BRANCH   2   3
ATOM      3  C   UNL     1      22.797  26.319  21.123  1.00  0.00     0.000 C 
BRANCH   3   4
ATOM      4  C   UNL     1      22.553  27.578  21.973  1.00  0.00     0.000 C 
BRANCH   4   5
ATOM      5  C   UNL     1      21.999  27.313  23.385  1.00  0.00     0.000 C 
BRANCH   5   6
ATOM      6  C   UNL     1      23.039  27.567  24.490  1.00  0.00     0.000 C 
BRANCH   6   7
ATOM      7  C   UNL     1      23.494  26.275  25.189  1.00  0.00     0.000 C 
BRANCH   7   8
ATOM      8  C   UNL     1      25.017  26.075  25.142  1.00  0.00     0.000 C 
BRANCH   8   9
ATOM      9  C   UNL     1      25.597  26.568  23.806  1.00  0.00     0.000 C 
BRANCH   9  10
ATOM     10  C   UNL     1      26.388  25.481  23.063  1.00  0.00     0.006 C 
BRANCH  10  11
ATOM     11  C   UNL     1      26.481  25.738  21.553  1.00  0.00     0.053 C 
BRANCH  11  12
ATOM     12  C   UNL     1      27.007  27.113  21.283  1.00  0.00     0.041 C 
ATOM     13  O   UNL     1      26.317  27.935  20.625  1.00  0.00    -0.550 OA
ATOM     14  O   UNL     1      28.240  27.501  21.794  1.00  0.00    -0.550 OA
ENDBRANCH  11  12
ENDBRANCH  10  11
ENDBRANCH   9  10
ENDBRANCH   8   9
ENDBRANCH   7   8
ENDBRANCH   6   7
ENDBRANCH   5   6
ENDBRANCH   4   5
ENDBRANCH   3   4
ENDBRANCH   2   3
ENDBRANCH   1   2
BRANCH   1  15
ATOM     15  C   UNL     1      23.765  22.954  22.661  1.00  0.00     0.000 C 
BRANCH  15  16
ATOM     16  C   UNL     1      22.683  22.973  23.763  1.00  0.00     0.000 C 
BRANCH  16  17
ATOM     17  C   UNL     1      23.206  22.565  25.151  1.00  0.00     0.000 C 
BRANCH  17  18
ATOM     18  C   UNL     1      23.122  21.050  25.403  1.00  0.00    -0.000 C 
BRANCH  18  19
ATOM     19  C   UNL     1      24.485  20.434  25.788  1.00  0.00    -0.000 C 
BRANCH  19  20
ATOM     20  C   UNL     1      24.904  19.243  24.905  1.00  0.00    -0.000 C 
BRANCH  20  21
ATOM     21  C   UNL     1      23.876  18.836  23.833  1.00  0.00    -0.000 C 
BRANCH  21  22
ATOM     22  C   UNL     1      24.148  19.394  22.420  1.00  0.00    -0.000 C 
BRANCH  22  23
ATOM     23  C   UNL     1      24.630  18.356  21.392  1.00  0.00    -0.000 C 
BRANCH  23  24
ATOM     24  C   UNL     1      24.787  18.943  19.979  1.00  0.00    -0.000 C 
BRANCH  24  25
ATOM     25  C   UNL     1      24.489  20.451  19.932  1.00  0.00    -0.003 C 
ATOM     26  C   UNL     1      24.401  20.990  18.505  1.00  0.00     0.004 C 
ENDBRANCH  24  25
ENDBRANCH  23  24
ENDBRANCH  22  23
ENDBRANCH  21  22
ENDBRANCH  20  21
ENDBRANCH  19  20
ENDBRANCH  18  19
ENDBRANCH  17  18
ENDBRANCH  16  17
ENDBRANCH  15  16
ENDBRANCH   1  15
TORSDOF 22
ENDMDL
MODEL 8
REMARK VINA RESULT:    -3.387      2.721      5.462
REMARK INTER + INTRA:         -11.939
REMARK INTER:                  -7.388
REMARK INTRA:                  -4.551
REMARK UNBOUND:                -4.196
REMARK SMILES CCCCCCCCCCCCCCCCCCCCCCCC(=O)[O-]
REMARK SMILES IDX 13 1 14 2 15 3 16 4 17 5 18 6 19 7 20 8 21 9 22 10 23 11
REMARK SMILES IDX 24 12 25 13 26 14 12 15 11 16 10 17 9 18 8 19 7 20 6 21 5 22
REMARK SMILES IDX 4 23 3 24 2 25 1 26
REMARK H PARENT
REMARK Flexibility Score: inf
ROOT
ATOM      1  C   UNL     1      24.867  12.606  20.556  1.00  0.00     0.000 C 
ENDROOT
BRANCH   1   2
ATOM      2  C   UNL     1      24.531  11.121  20.773  1.00  0.00     0.000 C 
BRANCH   2   3
ATOM      3  C   UNL     1      23.015  10.854  20.763  1.00  0.00     0.000 C 
BRANCH   3   4
ATOM      4  C   UNL     1      22.484  10.373  22.124  1.00  0.00     0.000 C 
BRANCH   4   5
ATOM      5  C   UNL     1      22.860  11.266  23.321  1.00  0.00     0.000 C 
BRANCH   5   6
ATOM      6  C   UNL     1      23.005  10.474  24.632  1.00  0.00     0.000 C 
BRANCH   6   7
ATOM      7  C   UNL     1      24.472  10.268  25.045  1.00  0.00     0.000 C 
BRANCH   7   8
ATOM      8  C   UNL     1      25.422  11.290  24.401  1.00  0.00     0.000 C 
BRANCH   8   9
ATOM      9  C   UNL     1      26.839  10.710  24.255  1.00  0.00     0.000 C 
BRANCH   9  10
ATOM     10  C   UNL     1      27.459  10.994  22.879  1.00  0.00     0.006 C 
BRANCH  10  11
ATOM     11  C   UNL     1      27.688   9.721  22.054  1.00  0.00     0.053 C 
BRANCH  11  12
ATOM     12  C   UNL     1      29.150   9.424  21.935  1.00  0.00     0.041 C 
ATOM     13  O   UNL     1      29.783   8.962  22.921  1.00  0.00    -0.550 OA
ATOM     14  O   UNL     1      29.805   9.617  20.724  1.00  0.00    -0.550 OA
ENDBRANCH  11  12
ENDBRANCH  10  11
ENDBRANCH   9  10
ENDBRANCH   8   9
ENDBRANCH   7   8
ENDBRANCH   6   7
ENDBRANCH   5   6
ENDBRANCH   4   5
ENDBRANCH   3   4
ENDBRANCH   2   3
ENDBRANCH   1   2
BRANCH   1  15
ATOM     15  C   UNL     1      23.865  13.304  19.620  1.00  0.00     0.000 C 
BRANCH  15  16
ATOM     16  C   UNL     1      23.372  14.651  20.193  1.00  0.00     0.000 C 
BRANCH  16  17
ATOM     17  C   UNL     1      22.842  14.554  21.633  1.00  0.00     0.000 C 
BRANCH  17  18
ATOM     18  C   UNL     1      23.579  15.488  22.608  1.00  0.00    -0.000 C 
BRANCH  18  19
ATOM     19  C   UNL     1      24.643  14.750  23.449  1.00  0.00    -0.000 C 
BRANCH  19  20
ATOM     20  C   UNL     1      24.442  14.887  24.970  1.00  0.00    -0.000 C 
BRANCH  20  21
ATOM     21  C   UNL     1      23.171  14.214  25.520  1.00  0.00    -0.000 C 
BRANCH  21  22
ATOM     22  C   UNL     1      23.349  13.485  26.869  1.00  0.00    -0.000 C 
BRANCH  22  23
ATOM     23  C   UNL     1      24.768  13.543  27.459  1.00  0.00    -0.000 C 
BRANCH  23  24
ATOM     24  C   UNL     1      25.190  12.225  28.131  1.00  0.00    -0.000 C 
BRANCH  24  25
ATOM     25  C   UNL     1      26.674  11.896  27.903  1.00  0.00    -0.003 C 
ATOM     26  C   UNL     1      27.419  13.010  27.168  1.00  0.00     0.004 C 
ENDBRANCH  24  25
ENDBRANCH  23  24
ENDBRANCH  22  23
ENDBRANCH  21  22
ENDBRANCH  20  21
ENDBRANCH  19  20
ENDBRANCH  18  19
ENDBRANCH  17  18
ENDBRANCH  16  17
ENDBRANCH  15  16
ENDBRANCH   1  15
TORSDOF 22
ENDMDL
MODEL 9
REMARK VINA RESULT:    -3.381     13.187     16.152
REMARK INTER + INTRA:         -11.925
REMARK INTER:                  -8.123
REMARK INTRA:                  -3.802
REMARK UNBOUND:                -4.196
REMARK SMILES CCCCCCCCCCCCCCCCCCCCCCCC(=O)[O-]
REMARK SMILES IDX 13 1 14 2 15 3 16 4 17 5 18 6 19 7 20 8 21 9 22 10 23 11
REMARK SMILES IDX 24 12 25 13 26 14 12 15 11 16 10 17 9 18 8 19 7 20 6 21 5 22
REMARK SMILES IDX 4 23 3 24 2 25 1 26
REMARK H PARENT
REMARK Flexibility Score: inf
ROOT
ATOM      1  C   UNL     1      24.886  25.926  24.722  1.00  0.00     0.000 C 
ENDROOT
BRANCH   1   2
ATOM      2  C   UNL     1      23.369  26.167  24.640  1.00  0.00     0.000 C 
BRANCH   2   3
ATOM      3  C   UNL     1      23.016  27.661  24.520  1.00  0.00     0.000 C 
BRANCH   3   4
ATOM      4  C   UNL     1      21.990  27.945  23.410  1.00  0.00     0.000 C 
BRANCH   4   5
ATOM      5  C   UNL     1      22.203  27.151  22.108  1.00  0.00     0.000 C 
BRANCH   5   6
ATOM      6  C   UNL     1      23.218  27.818  21.163  1.00  0.00     0.000 C 
BRANCH   6   7
ATOM      7  C   UNL     1      23.848  26.828  20.169  1.00  0.00     0.000 C 
BRANCH   7   8
ATOM      8  C   UNL     1      24.863  27.493  19.226  1.00  0.00     0.000 C 
BRANCH   8   9
ATOM      9  C   UNL     1      25.919  28.280  20.019  1.00  0.00     0.000 C 
BRANCH   9  10
ATOM     10  C   UNL     1      27.319  27.652  19.929  1.00  0.00     0.006 C 
BRANCH  10  11
ATOM     11  C   UNL     1      28.432  28.696  19.766  1.00  0.00     0.053 C 
BRANCH  11  12
ATOM     12  C   UNL     1      29.595  28.370  20.651  1.00  0.00     0.041 C 
ATOM     13  O   UNL     1      30.769  28.440  20.201  1.00  0.00    -0.550 OA
ATOM     14  O   UNL     1      29.385  28.032  21.983  1.00  0.00    -0.550 OA
ENDBRANCH  11  12
ENDBRANCH  10  11
ENDBRANCH   9  10
ENDBRANCH   8   9
ENDBRANCH   7   8
ENDBRANCH   6   7
ENDBRANCH   5   6
ENDBRANCH   4   5
ENDBRANCH   3   4
ENDBRANCH   2   3
ENDBRANCH   1   2
BRANCH   1  15
ATOM     15  C   UNL     1      25.672  26.784  23.715  1.00  0.00     0.000 C 
BRANCH  15  16
ATOM     16  C   UNL     1      26.674  25.946  22.891  1.00  0.00     0.000 C 
BRANCH  16  17
ATOM     17  C   UNL     1      26.197  24.511  22.610  1.00  0.00     0.000 C 
BRANCH  17  18
ATOM     18  C   UNL     1      25.974  24.236  21.113  1.00  0.00    -0.000 C 
BRANCH  18  19
ATOM     19  C   UNL     1      24.799  23.268  20.855  1.00  0.00    -0.000 C 
BRANCH  19  20
ATOM     20  C   UNL     1      24.707  22.771  19.399  1.00  0.00    -0.000 C 
BRANCH  20  21
ATOM     21  C   UNL     1      25.098  23.810  18.333  1.00  0.00    -0.000 C 
BRANCH  21  22
ATOM     22  C   UNL     1      26.206  23.362  17.357  1.00  0.00    -0.000 C 
BRANCH  22  23
ATOM     23  C   UNL     1      27.496  24.199  17.408  1.00  0.00    -0.000 C 
BRANCH  23  24
ATOM     24  C   UNL     1      27.637  25.151  16.208  1.00  0.00    -0.000 C 
BRANCH  24  25
ATOM     25  C   UNL     1      27.546  26.630  16.617  1.00  0.00    -0.003 C 
ATOM     26  C   UNL     1      26.549  27.417  15.767  1.00  0.00     0.004 C 
ENDBRANCH  24  25
ENDBRANCH  23  24
ENDBRANCH  22  23
ENDBRANCH  21  22
ENDBRANCH  20  21
ENDBRANCH  19  20
ENDBRANCH  18  19
ENDBRANCH  17  18
ENDBRANCH  16  17
ENDBRANCH  15  16
ENDBRANCH   1  15
TORSDOF 22
ENDMDL
