MODEL 1
REMARK VINA RESULT:    -5.304      0.000      0.000
REMARK INTER + INTRA:         -15.219
REMARK INTER:                 -12.125
REMARK INTRA:                  -3.093
REMARK UNBOUND:                -3.093
REMARK SMILES CCCCCCCCCCCCCCCCCCCCCCCC(=O)[O-]
REMARK SMILES IDX 13 1 14 2 15 3 16 4 17 5 18 6 19 7 20 8 21 9 22 10 23 11
REMARK SMILES IDX 24 12 25 13 26 14 12 15 11 16 10 17 9 18 8 19 7 20 6 21 5 22
REMARK SMILES IDX 4 23 3 24 2 25 1 26
REMARK H PARENT
REMARK Flexibility Score: inf
ROOT
ATOM      1  C   UNL     1      -2.362  11.379  -8.208  1.00  0.00     0.000 C 
ENDROOT
BRANCH   1   2
ATOM      2  C   UNL     1      -3.144  12.637  -8.632  1.00  0.00     0.000 C 
BRANCH   2   3
ATOM      3  C   UNL     1      -4.429  12.914  -7.826  1.00  0.00     0.000 C 
BRANCH   3   4
ATOM      4  C   UNL     1      -5.714  13.052  -8.663  1.00  0.00     0.000 C 
BRANCH   4   5
ATOM      5  C   UNL     1      -6.585  11.786  -8.630  1.00  0.00     0.000 C 
BRANCH   5   6
ATOM      6  C   UNL     1      -6.786  11.166 -10.022  1.00  0.00     0.000 C 
BRANCH   6   7
ATOM      7  C   UNL     1      -6.231   9.738 -10.122  1.00  0.00     0.000 C 
BRANCH   7   8
ATOM      8  C   UNL     1      -4.729   9.756 -10.444  1.00  0.00     0.000 C 
BRANCH   8   9
ATOM      9  C   UNL     1      -4.035   8.411 -10.163  1.00  0.00     0.000 C 
BRANCH   9  10
ATOM     10  C   UNL     1      -4.964   7.184 -10.172  1.00  0.00     0.006 C 
BRANCH  10  11
ATOM     11  C   UNL     1      -5.198   6.621 -11.580  1.00  0.00     0.053 C 
BRANCH  11  12
ATOM     12  C   UNL     1      -6.123   5.446 -11.526  1.00  0.00     0.041 C 
ATOM     13  O   UNL     1      -6.838   5.247 -10.508  1.00  0.00    -0.550 OA
ATOM     14  O   UNL     1      -6.230   4.595 -12.620  1.00  0.00    -0.550 OA
ENDBRANCH  11  12
ENDBRANCH  10  11
ENDBRANCH   9  10
ENDBRANCH   8   9
ENDBRANCH   7   8
ENDBRANCH   6   7
ENDBRANCH   5   6
ENDBRANCH   4   5
ENDBRANCH   3   4
ENDBRANCH   2   3
ENDBRANCH   1   2
BRANCH   1  15
ATOM     15  C   UNL     1      -3.042  10.618  -7.057  1.00  0.00     0.000 C 
BRANCH  15  16
ATOM     16  C   UNL     1      -2.209  10.635  -5.766  1.00  0.00     0.000 C 
BRANCH  16  17
ATOM     17  C   UNL     1      -2.778  11.597  -4.707  1.00  0.00     0.000 C 
BRANCH  17  18
ATOM     18  C   UNL     1      -1.774  12.687  -4.287  1.00  0.00    -0.000 C 
BRANCH  18  19
ATOM     19  C   UNL     1      -1.217  13.547  -5.438  1.00  0.00    -0.000 C 
BRANCH  19  20
ATOM     20  C   UNL     1       0.318  13.636  -5.431  1.00  0.00    -0.000 C 
BRANCH  20  21
ATOM     21  C   UNL     1       0.986  12.297  -5.077  1.00  0.00    -0.000 C 
BRANCH  21  22
ATOM     22  C   UNL     1       1.897  11.772  -6.200  1.00  0.00    -0.000 C 
BRANCH  22  23
ATOM     23  C   UNL     1       1.120  11.463  -7.490  1.00  0.00    -0.000 C 
BRANCH  23  24
ATOM     24  C   UNL     1       1.506  10.107  -8.099  1.00  0.00    -0.000 C 
BRANCH  24  25
ATOM     25  C   UNL     1       3.029   9.958  -8.184  1.00  0.00    -0.003 C 
ATOM     26  C   UNL     1       3.471   9.597  -9.600  1.00  0.00     0.004 C 
ENDBRANCH  24  25
ENDBRANCH  23  24
ENDBRANCH  22  23
ENDBRANCH  21  22
ENDBRANCH  20  21
ENDBRANCH  19  20
ENDBRANCH  18  19
ENDBRANCH  17  18
ENDBRANCH  16  17
ENDBRANCH  15  16
ENDBRANCH   1  15
TORSDOF 22
ENDMDL
MODEL 2
REMARK VINA RESULT:    -5.189      1.574      3.006
REMARK INTER + INTRA:         -14.956
REMARK INTER:                 -11.094
REMARK INTRA:                  -3.862
REMARK UNBOUND:                -3.093
REMARK SMILES CCCCCCCCCCCCCCCCCCCCCCCC(=O)[O-]
REMARK SMILES IDX 13 1 14 2 15 3 16 4 17 5 18 6 19 7 20 8 21 9 22 10 23 11
REMARK SMILES IDX 24 12 25 13 26 14 12 15 11 16 10 17 9 18 8 19 7 20 6 21 5 22
REMARK SMILES IDX 4 23 3 24 2 25 1 26
REMARK H PARENT
REMARK Flexibility Score: inf
ROOT
ATOM      1  C   UNL     1      -2.080  12.186  -8.479  1.00  0.00     0.000 C 
ENDROOT
BRANCH   1   2
ATOM      2  C   UNL     1      -2.274  10.725  -8.032  1.00  0.00     0.000 C 
BRANCH   2   3
ATOM      3  C   UNL     1      -2.578  10.532  -6.533  1.00  0.00     0.000 C 
BRANCH   3   4
ATOM      4  C   UNL     1      -4.070  10.420  -6.172  1.00  0.00     0.000 C 
BRANCH   4   5
ATOM      5  C   UNL     1      -4.644  11.725  -5.597  1.00  0.00     0.000 C 
BRANCH   5   6
ATOM      6  C   UNL     1      -5.922  12.182  -6.319  1.00  0.00     0.000 C 
BRANCH   6   7
ATOM      7  C   UNL     1      -5.674  13.356  -7.278  1.00  0.00     0.000 C 
BRANCH   7   8
ATOM      8  C   UNL     1      -5.574  12.864  -8.730  1.00  0.00     0.000 C 
BRANCH   8   9
ATOM      9  C   UNL     1      -6.665  11.843  -9.098  1.00  0.00     0.000 C 
BRANCH   9  10
ATOM     10  C   UNL     1      -6.265  10.824 -10.181  1.00  0.00     0.006 C 
BRANCH  10  11
ATOM     11  C   UNL     1      -5.862   9.463  -9.601  1.00  0.00     0.053 C 
BRANCH  11  12
ATOM     12  C   UNL     1      -4.945   8.745 -10.541  1.00  0.00     0.041 C 
ATOM     13  O   UNL     1      -3.858   9.274 -10.895  1.00  0.00    -0.550 OA
ATOM     14  O   UNL     1      -5.270   7.471 -10.992  1.00  0.00    -0.550 OA
ENDBRANCH  11  12
ENDBRANCH  10  11
ENDBRANCH   9  10
ENDBRANCH   8   9
ENDBRANCH   7   8
ENDBRANCH   6   7
ENDBRANCH   5   6
ENDBRANCH   4   5
ENDBRANCH   3   4
ENDBRANCH   2   3
ENDBRANCH   1   2
BRANCH   1  15
ATOM     15  C   UNL     1      -1.185  12.987  -7.517  1.00  0.00     0.000 C 
BRANCH  15  16
ATOM     16  C   UNL     1      -1.990  13.935  -6.614  1.00  0.00     0.000 C 
BRANCH  16  17
ATOM     17  C   UNL     1      -1.245  14.293  -5.317  1.00  0.00     0.000 C 
BRANCH  17  18
ATOM     18  C   UNL     1      -1.448  13.252  -4.201  1.00  0.00    -0.000 C 
BRANCH  18  19
ATOM     19  C   UNL     1      -0.217  12.384  -3.879  1.00  0.00    -0.000 C 
BRANCH  19  20
ATOM     20  C   UNL     1       1.038  12.812  -4.658  1.00  0.00    -0.000 C 
BRANCH  20  21
ATOM     21  C   UNL     1       1.945  11.623  -5.015  1.00  0.00    -0.000 C 
BRANCH  21  22
ATOM     22  C   UNL     1       2.086  11.420  -6.534  1.00  0.00    -0.000 C 
BRANCH  22  23
ATOM     23  C   UNL     1       1.229  10.253  -7.053  1.00  0.00    -0.000 C 
BRANCH  23  24
ATOM     24  C   UNL     1       1.688   9.753  -8.431  1.00  0.00    -0.000 C 
BRANCH  24  25
ATOM     25  C   UNL     1       3.177  10.044  -8.651  1.00  0.00    -0.003 C 
ATOM     26  C   UNL     1       3.627   9.596 -10.039  1.00  0.00     0.004 C 
ENDBRANCH  24  25
ENDBRANCH  23  24
ENDBRANCH  22  23
ENDBRANCH  21  22
ENDBRANCH  20  21
ENDBRANCH  19  20
ENDBRANCH  18  19
ENDBRANCH  17  18
ENDBRANCH  16  17
ENDBRANCH  15  16
ENDBRANCH   1  15
TORSDOF 22
ENDMDL
MODEL 3
REMARK VINA RESULT:    -5.141      3.120      7.227
REMARK INTER + INTRA:         -14.846
REMARK INTER:                 -11.214
REMARK INTRA:                  -3.633
REMARK UNBOUND:                -3.093
REMARK SMILES CCCCCCCCCCCCCCCCCCCCCCCC(=O)[O-]
REMARK SMILES IDX 13 1 14 2 15 3 16 4 17 5 18 6 19 7 20 8 21 9 22 10 23 11
REMARK SMILES IDX 24 12 25 13 26 14 12 15 11 16 10 17 9 18 8 19 7 20 6 21 5 22
REMARK SMILES IDX 4 23 3 24 2 25 1 26
REMARK H PARENT
REMARK Flexibility Score: inf
ROOT
ATOM      1  C   UNL     1      -2.320  11.016  -7.917  1.00  0.00     0.000 C 
ENDROOT
BRANCH   1   2
ATOM      2  C   UNL     1      -1.988  12.461  -8.332  1.00  0.00     0.000 C 
BRANCH   2   3
ATOM      3  C   UNL     1      -1.124  13.250  -7.326  1.00  0.00     0.000 C 
BRANCH   3   4
ATOM      4  C   UNL     1      -1.909  14.076  -6.291  1.00  0.00     0.000 C 
BRANCH   4   5
ATOM      5  C   UNL     1      -1.042  14.520  -5.101  1.00  0.00     0.000 C 
BRANCH   5   6
ATOM      6  C   UNL     1      -0.917  13.434  -4.019  1.00  0.00     0.000 C 
BRANCH   6   7
ATOM      7  C   UNL     1       0.542  13.117  -3.663  1.00  0.00     0.000 C 
BRANCH   7   8
ATOM      8  C   UNL     1       1.465  13.362  -4.867  1.00  0.00     0.000 C 
BRANCH   8   9
ATOM      9  C   UNL     1       2.230  12.102  -5.306  1.00  0.00     0.000 C 
BRANCH   9  10
ATOM     10  C   UNL     1       1.913  11.609  -6.730  1.00  0.00     0.006 C 
BRANCH  10  11
ATOM     11  C   UNL     1       3.028  10.741  -7.326  1.00  0.00     0.053 C 
BRANCH  11  12
ATOM     12  C   UNL     1       2.519   9.971  -8.503  1.00  0.00     0.041 C 
ATOM     13  O   UNL     1       1.305   9.640  -8.568  1.00  0.00    -0.550 OA
ATOM     14  O   UNL     1       3.375   9.656  -9.551  1.00  0.00    -0.550 OA
ENDBRANCH  11  12
ENDBRANCH  10  11
ENDBRANCH   9  10
ENDBRANCH   8   9
ENDBRANCH   7   8
ENDBRANCH   6   7
ENDBRANCH   5   6
ENDBRANCH   4   5
ENDBRANCH   3   4
ENDBRANCH   2   3
ENDBRANCH   1   2
BRANCH   1  15
ATOM     15  C   UNL     1      -1.838  10.680  -6.496  1.00  0.00     0.000 C 
BRANCH  15  16
ATOM     16  C   UNL     1      -2.999  10.523  -5.501  1.00  0.00     0.000 C 
BRANCH  16  17
ATOM     17  C   UNL     1      -4.292  10.029  -6.173  1.00  0.00     0.000 C 
BRANCH  17  18
ATOM     18  C   UNL     1      -5.492  10.961  -5.923  1.00  0.00    -0.000 C 
BRANCH  18  19
ATOM     19  C   UNL     1      -5.180  12.468  -5.996  1.00  0.00    -0.000 C 
BRANCH  19  20
ATOM     20  C   UNL     1      -6.026  13.206  -7.047  1.00  0.00    -0.000 C 
BRANCH  20  21
ATOM     21  C   UNL     1      -5.472  13.042  -8.471  1.00  0.00    -0.000 C 
BRANCH  21  22
ATOM     22  C   UNL     1      -6.129  11.879  -9.234  1.00  0.00    -0.000 C 
BRANCH  22  23
ATOM     23  C   UNL     1      -5.160  11.197 -10.214  1.00  0.00    -0.000 C 
BRANCH  23  24
ATOM     24  C   UNL     1      -5.402   9.684 -10.326  1.00  0.00    -0.000 C 
BRANCH  24  25
ATOM     25  C   UNL     1      -4.075   8.921 -10.401  1.00  0.00    -0.003 C 
ATOM     26  C   UNL     1      -4.265   7.448 -10.046  1.00  0.00     0.004 C 
ENDBRANCH  24  25
ENDBRANCH  23  24
ENDBRANCH  22  23
ENDBRANCH  21  22
ENDBRANCH  20  21
ENDBRANCH  19  20
ENDBRANCH  18  19
ENDBRANCH  17  18
ENDBRANCH  16  17
ENDBRANCH  15  16
ENDBRANCH   1  15
TORSDOF 22
ENDMDL
MODEL 4
REMARK VINA RESULT:    -5.078      1.652      2.566
REMARK INTER + INTRA:         -14.703
REMARK INTER:                 -10.696
REMARK INTRA:                  -4.007
REMARK UNBOUND:                -3.093
REMARK SMILES CCCCCCCCCCCCCCCCCCCCCCCC(=O)[O-]
REMARK SMILES IDX 13 1 14 2 15 3 16 4 17 5 18 6 19 7 20 8 21 9 22 10 23 11
REMARK SMILES IDX 24 12 25 13 26 14 12 15 11 16 10 17 9 18 8 19 7 20 6 21 5 22
REMARK SMILES IDX 4 23 3 24 2 25 1 26
REMARK H PARENT
REMARK Flexibility Score: inf
ROOT
ATOM      1  C   UNL     1      -4.538  11.113 -10.249  1.00  0.00     0.000 C 
ENDROOT
BRANCH   1   2
ATOM      2  C   UNL     1      -5.781  11.605  -9.484  1.00  0.00     0.000 C 
BRANCH   2   3
ATOM      3  C   UNL     1      -5.647  13.000  -8.841  1.00  0.00     0.000 C 
BRANCH   3   4
ATOM      4  C   UNL     1      -5.959  13.064  -7.335  1.00  0.00     0.000 C 
BRANCH   4   5
ATOM      5  C   UNL     1      -6.566  11.757  -6.797  1.00  0.00     0.000 C 
BRANCH   5   6
ATOM      6  C   UNL     1      -5.681  11.084  -5.735  1.00  0.00     0.000 C 
BRANCH   6   7
ATOM      7  C   UNL     1      -5.402   9.606  -6.045  1.00  0.00     0.000 C 
BRANCH   7   8
ATOM      8  C   UNL     1      -6.490   9.024  -6.960  1.00  0.00     0.000 C 
BRANCH   8   9
ATOM      9  C   UNL     1      -5.926   8.121  -8.070  1.00  0.00     0.000 C 
BRANCH   9  10
ATOM     10  C   UNL     1      -6.751   8.091  -9.370  1.00  0.00     0.006 C 
BRANCH  10  11
ATOM     11  C   UNL     1      -6.742   6.718 -10.052  1.00  0.00     0.053 C 
BRANCH  11  12
ATOM     12  C   UNL     1      -5.661   6.653 -11.085  1.00  0.00     0.041 C 
ATOM     13  O   UNL     1      -4.750   7.522 -11.104  1.00  0.00    -0.550 OA
ATOM     14  O   UNL     1      -5.636   5.608 -12.000  1.00  0.00    -0.550 OA
ENDBRANCH  11  12
ENDBRANCH  10  11
ENDBRANCH   9  10
ENDBRANCH   8   9
ENDBRANCH   7   8
ENDBRANCH   6   7
ENDBRANCH   5   6
ENDBRANCH   4   5
ENDBRANCH   3   4
ENDBRANCH   2   3
ENDBRANCH   1   2
BRANCH   1  15
ATOM     15  C   UNL     1      -3.494  10.460  -9.327  1.00  0.00     0.000 C 
BRANCH  15  16
ATOM     16  C   UNL     1      -2.328  11.406  -8.995  1.00  0.00     0.000 C 
BRANCH  16  17
ATOM     17  C   UNL     1      -2.336  11.864  -7.526  1.00  0.00     0.000 C 
BRANCH  17  18
ATOM     18  C   UNL     1      -2.090  10.709  -6.537  1.00  0.00    -0.000 C 
BRANCH  18  19
ATOM     19  C   UNL     1      -1.970  11.125  -5.058  1.00  0.00    -0.000 C 
BRANCH  19  20
ATOM     20  C   UNL     1      -1.543  12.591  -4.881  1.00  0.00    -0.000 C 
BRANCH  20  21
ATOM     21  C   UNL     1      -0.099  12.729  -4.373  1.00  0.00    -0.000 C 
BRANCH  21  22
ATOM     22  C   UNL     1       0.867  13.232  -5.460  1.00  0.00    -0.000 C 
BRANCH  22  23
ATOM     23  C   UNL     1       1.752  12.109  -6.025  1.00  0.00    -0.000 C 
BRANCH  23  24
ATOM     24  C   UNL     1       1.343  11.696  -7.447  1.00  0.00    -0.000 C 
BRANCH  24  25
ATOM     25  C   UNL     1       1.349  10.170  -7.597  1.00  0.00    -0.003 C 
ATOM     26  C   UNL     1       2.277   9.730  -8.726  1.00  0.00     0.004 C 
ENDBRANCH  24  25
ENDBRANCH  23  24
ENDBRANCH  22  23
ENDBRANCH  21  22
ENDBRANCH  20  21
ENDBRANCH  19  20
ENDBRANCH  18  19
ENDBRANCH  17  18
ENDBRANCH  16  17
ENDBRANCH  15  16
ENDBRANCH   1  15
TORSDOF 22
ENDMDL
MODEL 5
REMARK VINA RESULT:    -4.963      1.527      2.467
REMARK INTER + INTRA:         -14.439
REMARK INTER:                 -10.491
REMARK INTRA:                  -3.948
REMARK UNBOUND:                -3.093
REMARK SMILES CCCCCCCCCCCCCCCCCCCCCCCC(=O)[O-]
REMARK SMILES IDX 13 1 14 2 15 3 16 4 17 5 18 6 19 7 20 8 21 9 22 10 23 11
REMARK SMILES IDX 24 12 25 13 26 14 12 15 11 16 10 17 9 18 8 19 7 20 6 21 5 22
REMARK SMILES IDX 4 23 3 24 2 25 1 26
REMARK H PARENT
REMARK Flexibility Score: inf
ROOT
ATOM      1  C   UNL     1      -2.922  10.380  -5.385  1.00  0.00     0.000 C 
ENDROOT
BRANCH   1   2
ATOM      2  C   UNL     1      -4.397  10.694  -5.698  1.00  0.00     0.000 C 
BRANCH   2   3
ATOM      3  C   UNL     1      -4.883  12.085  -5.241  1.00  0.00     0.000 C 
BRANCH   3   4
ATOM      4  C   UNL     1      -5.991  12.711  -6.107  1.00  0.00     0.000 C 
BRANCH   4   5
ATOM      5  C   UNL     1      -5.474  13.213  -7.466  1.00  0.00     0.000 C 
BRANCH   5   6
ATOM      6  C   UNL     1      -6.376  12.792  -8.638  1.00  0.00     0.000 C 
BRANCH   6   7
ATOM      7  C   UNL     1      -5.885  11.515  -9.336  1.00  0.00     0.000 C 
BRANCH   7   8
ATOM      8  C   UNL     1      -4.350  11.432  -9.308  1.00  0.00     0.000 C 
BRANCH   8   9
ATOM      9  C   UNL     1      -3.784  10.400 -10.299  1.00  0.00     0.000 C 
BRANCH   9  10
ATOM     10  C   UNL     1      -3.944   8.930  -9.872  1.00  0.00     0.006 C 
BRANCH  10  11
ATOM     11  C   UNL     1      -4.942   8.158 -10.744  1.00  0.00     0.053 C 
BRANCH  11  12
ATOM     12  C   UNL     1      -5.950   7.458  -9.889  1.00  0.00     0.041 C 
ATOM     13  O   UNL     1      -6.446   8.039  -8.887  1.00  0.00    -0.550 OA
ATOM     14  O   UNL     1      -6.377   6.178 -10.223  1.00  0.00    -0.550 OA
ENDBRANCH  11  12
ENDBRANCH  10  11
ENDBRANCH   9  10
ENDBRANCH   8   9
ENDBRANCH   7   8
ENDBRANCH   6   7
ENDBRANCH   5   6
ENDBRANCH   4   5
ENDBRANCH   3   4
ENDBRANCH   2   3
ENDBRANCH   1   2
BRANCH   1  15
ATOM     15  C   UNL     1      -2.652  10.235  -3.878  1.00  0.00     0.000 C 
BRANCH  15  16
ATOM     16  C   UNL     1      -1.802  11.386  -3.318  1.00  0.00     0.000 C 
BRANCH  16  17
ATOM     17  C   UNL     1      -0.457  11.540  -4.049  1.00  0.00     0.000 C 
BRANCH  17  18
ATOM     18  C   UNL     1       0.064  12.989  -4.050  1.00  0.00    -0.000 C 
BRANCH  18  19
ATOM     19  C   UNL     1       0.072  13.684  -5.426  1.00  0.00    -0.000 C 
BRANCH  19  20
ATOM     20  C   UNL     1      -1.331  14.111  -5.889  1.00  0.00    -0.000 C 
BRANCH  20  21
ATOM     21  C   UNL     1      -1.845  13.267  -7.068  1.00  0.00    -0.000 C 
BRANCH  21  22
ATOM     22  C   UNL     1      -0.705  12.671  -7.912  1.00  0.00    -0.000 C 
BRANCH  22  23
ATOM     23  C   UNL     1      -0.829  11.146  -8.074  1.00  0.00    -0.000 C 
BRANCH  23  24
ATOM     24  C   UNL     1       0.361  10.391  -7.464  1.00  0.00    -0.000 C 
BRANCH  24  25
ATOM     25  C   UNL     1       1.685  11.076  -7.821  1.00  0.00    -0.003 C 
ATOM     26  C   UNL     1       2.683  10.079  -8.405  1.00  0.00     0.004 C 
ENDBRANCH  24  25
ENDBRANCH  23  24
ENDBRANCH  22  23
ENDBRANCH  21  22
ENDBRANCH  20  21
ENDBRANCH  19  20
ENDBRANCH  18  19
ENDBRANCH  17  18
ENDBRANCH  16  17
ENDBRANCH  15  16
ENDBRANCH   1  15
TORSDOF 22
ENDMDL
MODEL 6
REMARK VINA RESULT:    -4.951      3.419      4.902
REMARK INTER + INTRA:         -14.411
REMARK INTER:                 -11.004
REMARK INTRA:                  -3.407
REMARK UNBOUND:                -3.093
REMARK SMILES CCCCCCCCCCCCCCCCCCCCCCCC(=O)[O-]
REMARK SMILES IDX 13 1 14 2 15 3 16 4 17 5 18 6 19 7 20 8 21 9 22 10 23 11
REMARK SMILES IDX 24 12 25 13 26 14 12 15 11 16 10 17 9 18 8 19 7 20 6 21 5 22
REMARK SMILES IDX 4 23 3 24 2 25 1 26
REMARK H PARENT
REMARK Flexibility Score: inf
ROOT
ATOM      1  C   UNL     1      -3.777   9.897 -10.142  1.00  0.00     0.000 C 
ENDROOT
BRANCH   1   2
ATOM      2  C   UNL     1      -4.907  10.748 -10.748  1.00  0.00     0.000 C 
BRANCH   2   3
ATOM      3  C   UNL     1      -6.314  10.473 -10.179  1.00  0.00     0.000 C 
BRANCH   3   4
ATOM      4  C   UNL     1      -6.528   9.060  -9.608  1.00  0.00     0.000 C 
BRANCH   4   5
ATOM      5  C   UNL     1      -6.873   9.068  -8.110  1.00  0.00     0.000 C 
BRANCH   5   6
ATOM      6  C   UNL     1      -5.756   8.467  -7.240  1.00  0.00     0.000 C 
BRANCH   6   7
ATOM      7  C   UNL     1      -5.962   8.734  -5.742  1.00  0.00     0.000 C 
BRANCH   7   8
ATOM      8  C   UNL     1      -5.626   7.484  -4.912  1.00  0.00     0.000 C 
BRANCH   8   9
ATOM      9  C   UNL     1      -4.400   7.676  -4.003  1.00  0.00     0.000 C 
BRANCH   9  10
ATOM     10  C   UNL     1      -3.874   6.391  -3.337  1.00  0.00     0.006 C 
BRANCH  10  11
ATOM     11  C   UNL     1      -2.346   6.360  -3.219  1.00  0.00     0.053 C 
BRANCH  11  12
ATOM     12  C   UNL     1      -1.785   5.207  -3.991  1.00  0.00     0.041 C 
ATOM     13  O   UNL     1      -2.545   4.290  -4.402  1.00  0.00    -0.550 OA
ATOM     14  O   UNL     1      -0.430   5.166  -4.294  1.00  0.00    -0.550 OA
ENDBRANCH  11  12
ENDBRANCH  10  11
ENDBRANCH   9  10
ENDBRANCH   8   9
ENDBRANCH   7   8
ENDBRANCH   6   7
ENDBRANCH   5   6
ENDBRANCH   4   5
ENDBRANCH   3   4
ENDBRANCH   2   3
ENDBRANCH   1   2
BRANCH   1  15
ATOM     15  C   UNL     1      -3.139  10.550  -8.904  1.00  0.00     0.000 C 
BRANCH  15  16
ATOM     16  C   UNL     1      -3.065  12.081  -9.018  1.00  0.00     0.000 C 
BRANCH  16  17
ATOM     17  C   UNL     1      -4.007  12.795  -8.033  1.00  0.00     0.000 C 
BRANCH  17  18
ATOM     18  C   UNL     1      -4.407  11.911  -6.837  1.00  0.00    -0.000 C 
BRANCH  18  19
ATOM     19  C   UNL     1      -3.537  12.079  -5.577  1.00  0.00    -0.000 C 
BRANCH  19  20
ATOM     20  C   UNL     1      -2.724  10.819  -5.237  1.00  0.00    -0.000 C 
BRANCH  20  21
ATOM     21  C   UNL     1      -1.211  11.087  -5.194  1.00  0.00    -0.000 C 
BRANCH  21  22
ATOM     22  C   UNL     1      -0.789  12.255  -6.101  1.00  0.00    -0.000 C 
BRANCH  22  23
ATOM     23  C   UNL     1       0.095  11.799  -7.274  1.00  0.00    -0.000 C 
BRANCH  23  24
ATOM     24  C   UNL     1       0.743  10.429  -7.024  1.00  0.00    -0.000 C 
BRANCH  24  25
ATOM     25  C   UNL     1       1.477   9.934  -8.276  1.00  0.00    -0.003 C 
ATOM     26  C   UNL     1       2.967  10.261  -8.208  1.00  0.00     0.004 C 
ENDBRANCH  24  25
ENDBRANCH  23  24
ENDBRANCH  22  23
ENDBRANCH  21  22
ENDBRANCH  20  21
ENDBRANCH  19  20
ENDBRANCH  18  19
ENDBRANCH  17  18
ENDBRANCH  16  17
ENDBRANCH  15  16
ENDBRANCH   1  15
TORSDOF 22
ENDMDL
MODEL 7
REMARK VINA RESULT:    -4.908      3.232      7.376
REMARK INTER + INTRA:         -14.312
REMARK INTER:                 -10.649
REMARK INTRA:                  -3.663
REMARK UNBOUND:                -3.093
REMARK SMILES CCCCCCCCCCCCCCCCCCCCCCCC(=O)[O-]
REMARK SMILES IDX 13 1 14 2 15 3 16 4 17 5 18 6 19 7 20 8 21 9 22 10 23 11
REMARK SMILES IDX 24 12 25 13 26 14 12 15 11 16 10 17 9 18 8 19 7 20 6 21 5 22
REMARK SMILES IDX 4 23 3 24 2 25 1 26
REMARK H PARENT
REMARK Flexibility Score: inf
ROOT
ATOM      1  C   UNL     1      -2.731  10.368  -8.585  1.00  0.00     0.000 C 
ENDROOT
BRANCH   1   2
ATOM      2  C   UNL     1      -2.261  11.767  -9.024  1.00  0.00     0.000 C 
BRANCH   2   3
ATOM      3  C   UNL     1      -2.496  12.892  -7.996  1.00  0.00     0.000 C 
BRANCH   3   4
ATOM      4  C   UNL     1      -1.246  13.345  -7.219  1.00  0.00     0.000 C 
BRANCH   4   5
ATOM      5  C   UNL     1      -1.577  14.310  -6.068  1.00  0.00     0.000 C 
BRANCH   5   6
ATOM      6  C   UNL     1      -0.712  14.066  -4.820  1.00  0.00     0.000 C 
BRANCH   6   7
ATOM      7  C   UNL     1       0.787  13.987  -5.144  1.00  0.00     0.000 C 
BRANCH   7   8
ATOM      8  C   UNL     1       1.480  12.928  -4.271  1.00  0.00     0.000 C 
BRANCH   8   9
ATOM      9  C   UNL     1       1.643  11.573  -4.982  1.00  0.00     0.000 C 
BRANCH   9  10
ATOM     10  C   UNL     1       1.769  11.651  -6.515  1.00  0.00     0.006 C 
BRANCH  10  11
ATOM     11  C   UNL     1       2.958  10.851  -7.059  1.00  0.00     0.053 C 
BRANCH  11  12
ATOM     12  C   UNL     1       2.562  10.096  -8.289  1.00  0.00     0.041 C 
ATOM     13  O   UNL     1       1.357   9.782  -8.479  1.00  0.00    -0.550 OA
ATOM     14  O   UNL     1       3.517   9.778  -9.247  1.00  0.00    -0.550 OA
ENDBRANCH  11  12
ENDBRANCH  10  11
ENDBRANCH   9  10
ENDBRANCH   8   9
ENDBRANCH   7   8
ENDBRANCH   6   7
ENDBRANCH   5   6
ENDBRANCH   4   5
ENDBRANCH   3   4
ENDBRANCH   2   3
ENDBRANCH   1   2
BRANCH   1  15
ATOM     15  C   UNL     1      -3.765   9.759  -9.548  1.00  0.00     0.000 C 
BRANCH  15  16
ATOM     16  C   UNL     1      -4.569  10.829 -10.303  1.00  0.00     0.000 C 
BRANCH  16  17
ATOM     17  C   UNL     1      -6.089  10.608 -10.204  1.00  0.00     0.000 C 
BRANCH  17  18
ATOM     18  C   UNL     1      -6.784  11.622  -9.277  1.00  0.00    -0.000 C 
BRANCH  18  19
ATOM     19  C   UNL     1      -5.852  12.659  -8.621  1.00  0.00    -0.000 C 
BRANCH  19  20
ATOM     20  C   UNL     1      -6.490  13.355  -7.407  1.00  0.00    -0.000 C 
BRANCH  20  21
ATOM     21  C   UNL     1      -6.527  12.453  -6.163  1.00  0.00    -0.000 C 
BRANCH  21  22
ATOM     22  C   UNL     1      -5.136  11.928  -5.768  1.00  0.00    -0.000 C 
BRANCH  22  23
ATOM     23  C   UNL     1      -5.081  10.392  -5.711  1.00  0.00    -0.000 C 
BRANCH  23  24
ATOM     24  C   UNL     1      -3.749   9.871  -5.153  1.00  0.00    -0.000 C 
BRANCH  24  25
ATOM     25  C   UNL     1      -2.792  11.029  -4.849  1.00  0.00    -0.003 C 
ATOM     26  C   UNL     1      -2.057  10.806  -3.529  1.00  0.00     0.004 C 
ENDBRANCH  24  25
ENDBRANCH  23  24
ENDBRANCH  22  23
ENDBRANCH  21  22
ENDBRANCH  20  21
ENDBRANCH  19  20
ENDBRANCH  18  19
ENDBRANCH  17  18
ENDBRANCH  16  17
ENDBRANCH  15  16
ENDBRANCH   1  15
TORSDOF 22
ENDMDL
MODEL 8
REMARK VINA RESULT:    -4.799      2.720      3.828
REMARK INTER + INTRA:         -14.065
REMARK INTER:                 -10.152
REMARK INTRA:                  -3.913
REMARK UNBOUND:                -3.093
REMARK SMILES CCCCCCCCCCCCCCCCCCCCCCCC(=O)[O-]
REMARK SMILES IDX 13 1 14 2 15 3 16 4 17 5 18 6 19 7 20 8 21 9 22 10 23 11
REMARK SMILES IDX 24 12 25 13 26 14 12 15 11 16 10 17 9 18 8 19 7 20 6 21 5 22
REMARK SMILES IDX 4 23 3 24 2 25 1 26
REMARK H PARENT
REMARK Flexibility Score: inf
ROOT
ATOM      1  C   UNL     1      -3.510  10.402  -5.789  1.00  0.00     0.000 C 
ENDROOT
BRANCH   1   2
ATOM      2  C   UNL     1      -4.828  11.113  -5.430  1.00  0.00     0.000 C 
BRANCH   2   3
ATOM      3  C   UNL     1      -6.009  10.178  -5.101  1.00  0.00     0.000 C 
BRANCH   3   4
ATOM      4  C   UNL     1      -6.002   8.825  -5.835  1.00  0.00     0.000 C 
BRANCH   4   5
ATOM      5  C   UNL     1      -6.536   8.924  -7.273  1.00  0.00     0.000 C 
BRANCH   5   6
ATOM      6  C   UNL     1      -5.737   8.063  -8.265  1.00  0.00     0.000 C 
BRANCH   6   7
ATOM      7  C   UNL     1      -6.278   8.153  -9.699  1.00  0.00     0.000 C 
BRANCH   7   8
ATOM      8  C   UNL     1      -5.129   8.144 -10.719  1.00  0.00     0.000 C 
BRANCH   8   9
ATOM      9  C   UNL     1      -4.061   9.214 -10.434  1.00  0.00     0.000 C 
BRANCH   9  10
ATOM     10  C   UNL     1      -4.554  10.670 -10.533  1.00  0.00     0.006 C 
BRANCH  10  11
ATOM     11  C   UNL     1      -4.323  11.468  -9.244  1.00  0.00     0.053 C 
BRANCH  11  12
ATOM     12  C   UNL     1      -5.555  12.234  -8.876  1.00  0.00     0.041 C 
ATOM     13  O   UNL     1      -5.462  13.314  -8.233  1.00  0.00    -0.550 OA
ATOM     14  O   UNL     1      -6.804  11.778  -9.280  1.00  0.00    -0.550 OA
ENDBRANCH  11  12
ENDBRANCH  10  11
ENDBRANCH   9  10
ENDBRANCH   8   9
ENDBRANCH   7   8
ENDBRANCH   6   7
ENDBRANCH   5   6
ENDBRANCH   4   5
ENDBRANCH   3   4
ENDBRANCH   2   3
ENDBRANCH   1   2
BRANCH   1  15
ATOM     15  C   UNL     1      -2.580  10.227  -4.576  1.00  0.00     0.000 C 
BRANCH  15  16
ATOM     16  C   UNL     1      -2.779  11.323  -3.518  1.00  0.00     0.000 C 
BRANCH  16  17
ATOM     17  C   UNL     1      -1.505  12.153  -3.277  1.00  0.00     0.000 C 
BRANCH  17  18
ATOM     18  C   UNL     1      -0.386  11.841  -4.289  1.00  0.00    -0.000 C 
BRANCH  18  19
ATOM     19  C   UNL     1       0.167  13.059  -5.053  1.00  0.00    -0.000 C 
BRANCH  19  20
ATOM     20  C   UNL     1      -0.933  13.887  -5.738  1.00  0.00    -0.000 C 
BRANCH  20  21
ATOM     21  C   UNL     1      -1.600  13.135  -6.902  1.00  0.00    -0.000 C 
BRANCH  21  22
ATOM     22  C   UNL     1      -0.581  12.596  -7.921  1.00  0.00    -0.000 C 
BRANCH  22  23
ATOM     23  C   UNL     1      -0.688  11.074  -8.111  1.00  0.00    -0.000 C 
BRANCH  23  24
ATOM     24  C   UNL     1       0.546  10.327  -7.585  1.00  0.00    -0.000 C 
BRANCH  24  25
ATOM     25  C   UNL     1       1.834  11.073  -7.948  1.00  0.00    -0.003 C 
ATOM     26  C   UNL     1       2.902  10.112  -8.464  1.00  0.00     0.004 C 
ENDBRANCH  24  25
ENDBRANCH  23  24
ENDBRANCH  22  23
ENDBRANCH  21  22
ENDBRANCH  20  21
ENDBRANCH  19  20
ENDBRANCH  18  19
ENDBRANCH  17  18
ENDBRANCH  16  17
ENDBRANCH  15  16
ENDBRANCH   1  15
TORSDOF 22
ENDMDL
MODEL 9
REMARK VINA RESULT:    -4.796      1.435      2.224
REMARK INTER + INTRA:         -14.058
REMARK INTER:                 -10.771
REMARK INTRA:                  -3.287
REMARK UNBOUND:                -3.093
REMARK SMILES CCCCCCCCCCCCCCCCCCCCCCCC(=O)[O-]
REMARK SMILES IDX 13 1 14 2 15 3 16 4 17 5 18 6 19 7 20 8 21 9 22 10 23 11
REMARK SMILES IDX 24 12 25 13 26 14 12 15 11 16 10 17 9 18 8 19 7 20 6 21 5 22
REMARK SMILES IDX 4 23 3 24 2 25 1 26
REMARK H PARENT
REMARK Flexibility Score: inf
ROOT
ATOM      1  C   UNL     1      -2.265  10.842  -8.386  1.00  0.00     0.000 C 
ENDROOT
BRANCH   1   2
ATOM      2  C   UNL     1      -2.979  11.306  -9.669  1.00  0.00     0.000 C 
BRANCH   2   3
ATOM      3  C   UNL     1      -4.116  10.386 -10.158  1.00  0.00     0.000 C 
BRANCH   3   4
ATOM      4  C   UNL     1      -5.333  11.110 -10.764  1.00  0.00     0.000 C 
BRANCH   4   5
ATOM      5  C   UNL     1      -6.546  11.128  -9.820  1.00  0.00     0.000 C 
BRANCH   5   6
ATOM      6  C   UNL     1      -6.258  11.853  -8.495  1.00  0.00     0.000 C 
BRANCH   6   7
ATOM      7  C   UNL     1      -6.675  11.032  -7.266  1.00  0.00     0.000 C 
BRANCH   7   8
ATOM      8  C   UNL     1      -5.685   9.883  -7.015  1.00  0.00     0.000 C 
BRANCH   8   9
ATOM      9  C   UNL     1      -6.279   8.498  -7.326  1.00  0.00     0.000 C 
BRANCH   9  10
ATOM     10  C   UNL     1      -5.645   7.772  -8.527  1.00  0.00     0.006 C 
BRANCH  10  11
ATOM     11  C   UNL     1      -6.663   7.425  -9.621  1.00  0.00     0.053 C 
BRANCH  11  12
ATOM     12  C   UNL     1      -6.030   6.566 -10.671  1.00  0.00     0.041 C 
ATOM     13  O   UNL     1      -6.540   5.455 -10.974  1.00  0.00    -0.550 OA
ATOM     14  O   UNL     1      -4.901   7.013 -11.346  1.00  0.00    -0.550 OA
ENDBRANCH  11  12
ENDBRANCH  10  11
ENDBRANCH   9  10
ENDBRANCH   8   9
ENDBRANCH   7   8
ENDBRANCH   6   7
ENDBRANCH   5   6
ENDBRANCH   4   5
ENDBRANCH   3   4
ENDBRANCH   2   3
ENDBRANCH   1   2
BRANCH   1  15
ATOM     15  C   UNL     1      -1.889  12.011  -7.459  1.00  0.00     0.000 C 
BRANCH  15  16
ATOM     16  C   UNL     1      -3.120  12.697  -6.846  1.00  0.00     0.000 C 
BRANCH  16  17
ATOM     17  C   UNL     1      -3.217  12.490  -5.324  1.00  0.00     0.000 C 
BRANCH  17  18
ATOM     18  C   UNL     1      -2.077  11.620  -4.764  1.00  0.00    -0.000 C 
BRANCH  18  19
ATOM     19  C   UNL     1      -1.137  12.328  -3.769  1.00  0.00    -0.000 C 
BRANCH  19  20
ATOM     20  C   UNL     1      -0.748  13.746  -4.218  1.00  0.00    -0.000 C 
BRANCH  20  21
ATOM     21  C   UNL     1       0.307  13.742  -5.338  1.00  0.00    -0.000 C 
BRANCH  21  22
ATOM     22  C   UNL     1       1.666  13.191  -4.871  1.00  0.00    -0.000 C 
BRANCH  22  23
ATOM     23  C   UNL     1       1.867  11.717  -5.258  1.00  0.00    -0.000 C 
BRANCH  23  24
ATOM     24  C   UNL     1       2.183  11.538  -6.750  1.00  0.00    -0.000 C 
BRANCH  24  25
ATOM     25  C   UNL     1       1.336  10.415  -7.359  1.00  0.00    -0.003 C 
ATOM     26  C   UNL     1       2.062   9.744  -8.522  1.00  0.00     0.004 C 
ENDBRANCH  24  25
ENDBRANCH  23  24
ENDBRANCH  22  23
ENDBRANCH  21  22
ENDBRANCH  20  21
ENDBRANCH  19  20
ENDBRANCH  18  19
ENDBRANCH  17  18
ENDBRANCH  16  17
ENDBRANCH  15  16
ENDBRANCH   1  15
TORSDOF 22
ENDMDL
