MODEL 1
REMARK VINA RESULT:    11.899      0.000      0.000
REMARK INTER + INTRA:          21.550
REMARK INTER:                  18.160
REMARK INTRA:                   3.390
REMARK UNBOUND:                 3.390
REMARK SMILES OC[C@@H]1O[C@@H](O[C@]2(CO)O[C@H](CO)[C@H](O)[C@H]2O)[C@H](O)[C@@H](O)[C@H]1O
REMARK SMILES IDX 6 1 5 2 3 3 22 4 4 5 20 6 18 7 2 8 1 9 23 11 21 13 19 15
REMARK SMILES IDX 7 17 16 18 10 19 14 20 11 21 8 22 9 23 17 25 15 27 12 29
REMARK SMILES IDX 13 30
REMARK H PARENT 1 10 23 12 21 14 19 16 9 24 17 26 15 28 13 31
REMARK Flexibility Score: inf
ROOT
ATOM      1  O   UNL     1       2.905   1.852 -39.916  1.00  0.00    -0.313 OA
ENDROOT
BRANCH   1   2
ATOM      2  C   UNL     1       2.350   2.972 -40.598  1.00  0.00     0.285 C 
ATOM      3  C   UNL     1       0.288   2.711 -39.492  1.00  0.00     0.178 C 
ATOM      4  C   UNL     1      -0.468   2.313 -40.782  1.00  0.00     0.177 C 
ATOM      5  O   UNL     1       1.358   3.593 -39.796  1.00  0.00    -0.341 OA
ATOM      6  C   UNL     1       0.508   1.666 -41.788  1.00  0.00     0.179 C 
ATOM      7  C   UNL     1       1.771   2.531 -41.962  1.00  0.00     0.202 C 
BRANCH   3   8
ATOM      8  C   UNL     1      -0.639   3.429 -38.495  1.00  0.00     0.191 C 
BRANCH   8   9
ATOM      9  O   UNL     1      -1.113   2.547 -37.513  1.00  0.00    -0.394 OA
ATOM     10  H   UNL     1      -1.477   3.107 -36.779  1.00  0.00     0.210 HD
ENDBRANCH   8   9
ENDBRANCH   3   8
BRANCH   4  11
ATOM     11  O   UNL     1      -1.506   1.416 -40.477  1.00  0.00    -0.387 OA
ATOM     12  H   UNL     1      -1.448   0.678 -41.140  1.00  0.00     0.211 HD
ENDBRANCH   4  11
BRANCH   6  13
ATOM     13  O   UNL     1       0.886   0.385 -41.345  1.00  0.00    -0.387 OA
ATOM     14  H   UNL     1       0.796  -0.230 -42.121  1.00  0.00     0.211 HD
ENDBRANCH   6  13
BRANCH   7  15
ATOM     15  O   UNL     1       1.507   3.641 -42.786  1.00  0.00    -0.385 OA
ATOM     16  H   UNL     1       0.906   3.348 -43.519  1.00  0.00     0.211 HD
ENDBRANCH   7  15
ENDBRANCH   1   2
BRANCH   1  17
ATOM     17  C   UNL     1       3.055   1.986 -38.503  1.00  0.00     0.224 C 
ATOM     18  C   UNL     1       1.703   1.821 -37.741  1.00  0.00     0.208 C 
ATOM     19  O   UNL     1       3.898   0.916 -38.109  1.00  0.00    -0.337 OA
ATOM     20  C   UNL     1       1.700   0.359 -37.366  1.00  0.00     0.180 C 
ATOM     21  C   UNL     1       3.190   0.065 -37.235  1.00  0.00     0.179 C 
BRANCH  17  22
ATOM     22  C   UNL     1       3.832   3.286 -38.151  1.00  0.00     0.225 C 
BRANCH  22  23
ATOM     23  O   UNL     1       2.995   4.409 -38.090  1.00  0.00    -0.391 OA
ATOM     24  H   UNL     1       2.324   4.292 -38.811  1.00  0.00     0.210 HD
ENDBRANCH  22  23
ENDBRANCH  17  22
BRANCH  18  25
ATOM     25  O   UNL     1       1.685   2.604 -36.571  1.00  0.00    -0.385 OA
ATOM     26  H   UNL     1       2.028   2.032 -35.836  1.00  0.00     0.211 HD
ENDBRANCH  18  25
BRANCH  20  27
ATOM     27  O   UNL     1       1.066  -0.425 -38.353  1.00  0.00    -0.387 OA
ATOM     28  H   UNL     1       1.519  -0.265 -39.221  1.00  0.00     0.211 HD
ENDBRANCH  20  27
BRANCH  21  29
ATOM     29  C   UNL     1       3.557  -1.402 -37.504  1.00  0.00     0.191 C 
BRANCH  29  30
ATOM     30  O   UNL     1       2.880  -1.874 -38.638  1.00  0.00    -0.394 OA
ATOM     31  H   UNL     1       3.545  -2.372 -39.180  1.00  0.00     0.210 HD
ENDBRANCH  29  30
ENDBRANCH  21  29
ENDBRANCH   1  17
TORSDOF 13
ENDMDL
MODEL 2
REMARK VINA RESULT:    11.946      1.386      4.301
REMARK INTER + INTRA:          21.622
REMARK INTER:                  18.245
REMARK INTRA:                   3.377
REMARK UNBOUND:                 3.390
REMARK SMILES OC[C@@H]1O[C@@H](O[C@]2(CO)O[C@H](CO)[C@H](O)[C@H]2O)[C@H](O)[C@@H](O)[C@H]1O
REMARK SMILES IDX 6 1 5 2 3 3 22 4 4 5 20 6 18 7 2 8 1 9 23 11 21 13 19 15
REMARK SMILES IDX 7 17 16 18 10 19 14 20 11 21 8 22 9 23 17 25 15 27 12 29
REMARK SMILES IDX 13 30
REMARK H PARENT 1 10 23 12 21 14 19 16 9 24 17 26 15 28 13 31
REMARK Flexibility Score: inf
ROOT
ATOM      1  O   UNL     1       1.467   2.047 -37.151  1.00  0.00    -0.313 OA
ENDROOT
BRANCH   1   2
ATOM      2  C   UNL     1       0.273   1.301 -37.363  1.00  0.00     0.285 C 
ATOM      3  C   UNL     1       0.149   2.005 -39.606  1.00  0.00     0.178 C 
ATOM      4  C   UNL     1      -1.131   2.843 -39.377  1.00  0.00     0.177 C 
ATOM      5  O   UNL     1       0.180   0.896 -38.720  1.00  0.00    -0.341 OA
ATOM      6  C   UNL     1      -1.199   3.313 -37.909  1.00  0.00     0.179 C 
ATOM      7  C   UNL     1      -0.959   2.137 -36.943  1.00  0.00     0.202 C 
BRANCH   3   8
ATOM      8  C   UNL     1       0.211   1.455 -41.042  1.00  0.00     0.191 C 
BRANCH   8   9
ATOM      9  O   UNL     1       1.061   2.227 -41.847  1.00  0.00    -0.394 OA
ATOM     10  H   UNL     1       0.557   3.047 -42.089  1.00  0.00     0.210 HD
ENDBRANCH   8   9
ENDBRANCH   3   8
BRANCH   4  11
ATOM     11  O   UNL     1      -1.141   3.955 -40.236  1.00  0.00    -0.387 OA
ATOM     12  H   UNL     1      -1.516   3.643 -41.102  1.00  0.00     0.211 HD
ENDBRANCH   4  11
BRANCH   6  13
ATOM     13  O   UNL     1      -0.233   4.308 -37.670  1.00  0.00    -0.387 OA
ATOM     14  H   UNL     1       0.374   3.963 -36.964  1.00  0.00     0.211 HD
ENDBRANCH   6  13
BRANCH   7  15
ATOM     15  O   UNL     1      -2.109   1.332 -36.839  1.00  0.00    -0.385 OA
ATOM     16  H   UNL     1      -2.749   1.783 -36.229  1.00  0.00     0.211 HD
ENDBRANCH   7  15
ENDBRANCH   1   2
BRANCH   1  17
ATOM     17  C   UNL     1       2.614   1.621 -37.886  1.00  0.00     0.224 C 
ATOM     18  C   UNL     1       2.566   2.070 -39.380  1.00  0.00     0.208 C 
ATOM     19  O   UNL     1       3.716   2.278 -37.281  1.00  0.00    -0.337 OA
ATOM     20  C   UNL     1       3.342   3.365 -39.372  1.00  0.00     0.180 C 
ATOM     21  C   UNL     1       4.317   3.139 -38.222  1.00  0.00     0.179 C 
BRANCH  17  22
ATOM     22  C   UNL     1       2.867   0.100 -37.684  1.00  0.00     0.225 C 
BRANCH  22  23
ATOM     23  O   UNL     1       2.154  -0.685 -38.600  1.00  0.00    -0.391 OA
ATOM     24  H   UNL     1       1.980  -0.105 -39.385  1.00  0.00     0.210 HD
ENDBRANCH  22  23
ENDBRANCH  17  22
BRANCH  18  25
ATOM     25  O   UNL     1       3.220   1.138 -40.209  1.00  0.00    -0.385 OA
ATOM     26  H   UNL     1       3.877   0.658 -39.640  1.00  0.00     0.211 HD
ENDBRANCH  18  25
BRANCH  20  27
ATOM     27  O   UNL     1       2.494   4.473 -39.168  1.00  0.00    -0.387 OA
ATOM     28  H   UNL     1       1.977   4.326 -38.334  1.00  0.00     0.211 HD
ENDBRANCH  20  27
BRANCH  21  29
ATOM     29  C   UNL     1       4.780   4.436 -37.540  1.00  0.00     0.191 C 
BRANCH  29  30
ATOM     30  O   UNL     1       3.695   5.306 -37.360  1.00  0.00    -0.394 OA
ATOM     31  H   UNL     1       2.876   4.784 -37.564  1.00  0.00     0.210 HD
ENDBRANCH  29  30
ENDBRANCH  21  29
ENDBRANCH   1  17
TORSDOF 13
ENDMDL
MODEL 3
REMARK VINA RESULT:    12.155      1.070      2.976
REMARK INTER + INTRA:          21.940
REMARK INTER:                  20.651
REMARK INTRA:                   1.290
REMARK UNBOUND:                 3.390
REMARK SMILES OC[C@@H]1O[C@@H](O[C@]2(CO)O[C@H](CO)[C@H](O)[C@H]2O)[C@H](O)[C@@H](O)[C@H]1O
REMARK SMILES IDX 6 1 5 2 3 3 22 4 4 5 20 6 18 7 2 8 1 9 23 11 21 13 19 15
REMARK SMILES IDX 7 17 16 18 10 19 14 20 11 21 8 22 9 23 17 25 15 27 12 29
REMARK SMILES IDX 13 30
REMARK H PARENT 1 10 23 12 21 14 19 16 9 24 17 26 15 28 13 31
REMARK Flexibility Score: inf
ROOT
ATOM      1  O   UNL     1       2.259   1.087 -39.999  1.00  0.00    -0.313 OA
ENDROOT
BRANCH   1   2
ATOM      2  C   UNL     1       1.981   2.357 -40.580  1.00  0.00     0.285 C 
ATOM      3  C   UNL     1      -0.208   2.351 -39.710  1.00  0.00     0.178 C 
ATOM      4  C   UNL     1      -0.869   2.240 -41.104  1.00  0.00     0.177 C 
ATOM      5  O   UNL     1       1.022   3.054 -39.799  1.00  0.00    -0.341 OA
ATOM      6  C   UNL     1       0.091   1.543 -42.090  1.00  0.00     0.179 C 
ATOM      7  C   UNL     1       1.493   2.180 -42.037  1.00  0.00     0.202 C 
BRANCH   3   8
ATOM      8  C   UNL     1      -1.107   3.111 -38.719  1.00  0.00     0.191 C 
BRANCH   8   9
ATOM      9  O   UNL     1      -0.450   3.330 -37.499  1.00  0.00    -0.394 OA
ATOM     10  H   UNL     1      -0.823   4.168 -37.121  1.00  0.00     0.210 HD
ENDBRANCH   8   9
ENDBRANCH   3   8
BRANCH   4  11
ATOM     11  O   UNL     1      -2.070   1.518 -41.013  1.00  0.00    -0.387 OA
ATOM     12  H   UNL     1      -2.122   1.166 -40.085  1.00  0.00     0.211 HD
ENDBRANCH   4  11
BRANCH   6  13
ATOM     13  O   UNL     1       0.196   0.174 -41.783  1.00  0.00    -0.387 OA
ATOM     14  H   UNL     1      -0.203  -0.328 -42.542  1.00  0.00     0.211 HD
ENDBRANCH   6  13
BRANCH   7  15
ATOM     15  O   UNL     1       1.514   3.403 -42.732  1.00  0.00    -0.385 OA
ATOM     16  H   UNL     1       0.599   3.787 -42.713  1.00  0.00     0.211 HD
ENDBRANCH   7  15
ENDBRANCH   1   2
BRANCH   1  17
ATOM     17  C   UNL     1       2.375   1.057 -38.576  1.00  0.00     0.224 C 
ATOM     18  C   UNL     1       3.807   0.656 -38.103  1.00  0.00     0.208 C 
ATOM     19  O   UNL     1       2.146   2.391 -38.151  1.00  0.00    -0.337 OA
ATOM     20  C   UNL     1       4.484   1.990 -37.897  1.00  0.00     0.180 C 
ATOM     21  C   UNL     1       3.308   2.884 -37.523  1.00  0.00     0.179 C 
BRANCH  17  22
ATOM     22  C   UNL     1       1.233   0.211 -37.945  1.00  0.00     0.225 C 
BRANCH  22  23
ATOM     23  O   UNL     1       1.234  -1.113 -38.404  1.00  0.00    -0.391 OA
ATOM     24  H   UNL     1       0.769  -1.102 -39.281  1.00  0.00     0.210 HD
ENDBRANCH  22  23
ENDBRANCH  17  22
BRANCH  18  25
ATOM     25  O   UNL     1       3.759  -0.037 -36.878  1.00  0.00    -0.385 OA
ATOM     26  H   UNL     1       4.366   0.439 -36.253  1.00  0.00     0.211 HD
ENDBRANCH  18  25
BRANCH  20  27
ATOM     27  O   UNL     1       5.152   2.414 -39.065  1.00  0.00    -0.387 OA
ATOM     28  H   UNL     1       5.010   3.390 -39.173  1.00  0.00     0.211 HD
ENDBRANCH  20  27
BRANCH  21  29
ATOM     29  C   UNL     1       3.519   4.364 -37.878  1.00  0.00     0.191 C 
BRANCH  29  30
ATOM     30  O   UNL     1       2.327   4.926 -38.356  1.00  0.00    -0.394 OA
ATOM     31  H   UNL     1       2.459   5.090 -39.326  1.00  0.00     0.210 HD
ENDBRANCH  29  30
ENDBRANCH  21  29
ENDBRANCH   1  17
TORSDOF 13
ENDMDL
MODEL 4
REMARK VINA RESULT:    12.194      1.537      3.386
REMARK INTER + INTRA:          21.999
REMARK INTER:                  20.616
REMARK INTRA:                   1.384
REMARK UNBOUND:                 3.390
REMARK SMILES OC[C@@H]1O[C@@H](O[C@]2(CO)O[C@H](CO)[C@H](O)[C@H]2O)[C@H](O)[C@@H](O)[C@H]1O
REMARK SMILES IDX 6 1 5 2 3 3 22 4 4 5 20 6 18 7 2 8 1 9 23 11 21 13 19 15
REMARK SMILES IDX 7 17 16 18 10 19 14 20 11 21 8 22 9 23 17 25 15 27 12 29
REMARK SMILES IDX 13 30
REMARK H PARENT 1 10 23 12 21 14 19 16 9 24 17 26 15 28 13 31
REMARK Flexibility Score: inf
ROOT
ATOM      1  O   UNL     1       1.343   2.977 -37.501  1.00  0.00    -0.313 OA
ENDROOT
BRANCH   1   2
ATOM      2  C   UNL     1       0.323   1.986 -37.573  1.00  0.00     0.285 C 
ATOM      3  C   UNL     1      -0.138   2.524 -39.819  1.00  0.00     0.178 C 
ATOM      4  C   UNL     1      -1.543   3.087 -39.500  1.00  0.00     0.177 C 
ATOM      5  O   UNL     1       0.205   1.498 -38.900  1.00  0.00    -0.341 OA
ATOM      6  C   UNL     1      -1.586   3.612 -38.050  1.00  0.00     0.179 C 
ATOM      7  C   UNL     1      -1.020   2.567 -37.070  1.00  0.00     0.202 C 
BRANCH   3   8
ATOM      8  C   UNL     1      -0.080   1.921 -41.233  1.00  0.00     0.191 C 
BRANCH   8   9
ATOM      9  O   UNL     1       1.223   1.527 -41.566  1.00  0.00    -0.394 OA
ATOM     10  H   UNL     1       1.760   1.583 -40.734  1.00  0.00     0.210 HD
ENDBRANCH   8   9
ENDBRANCH   3   8
BRANCH   4  11
ATOM     11  O   UNL     1      -1.863   4.123 -40.394  1.00  0.00    -0.387 OA
ATOM     12  H   UNL     1      -1.448   3.886 -41.265  1.00  0.00     0.211 HD
ENDBRANCH   4  11
BRANCH   6  13
ATOM     13  O   UNL     1      -0.839   4.799 -37.938  1.00  0.00    -0.387 OA
ATOM     14  H   UNL     1       0.059   4.617 -38.323  1.00  0.00     0.211 HD
ENDBRANCH   6  13
BRANCH   7  15
ATOM     15  O   UNL     1      -1.958   1.546 -36.829  1.00  0.00    -0.385 OA
ATOM     16  H   UNL     1      -2.062   1.017 -37.662  1.00  0.00     0.211 HD
ENDBRANCH   7  15
ENDBRANCH   1   2
BRANCH   1  17
ATOM     17  C   UNL     1       2.532   2.711 -38.245  1.00  0.00     0.224 C 
ATOM     18  C   UNL     1       3.785   2.555 -37.329  1.00  0.00     0.208 C 
ATOM     19  O   UNL     1       2.310   1.461 -38.877  1.00  0.00    -0.337 OA
ATOM     20  C   UNL     1       3.866   1.063 -37.113  1.00  0.00     0.180 C 
ATOM     21  C   UNL     1       3.251   0.526 -38.400  1.00  0.00     0.179 C 
BRANCH  17  22
ATOM     22  C   UNL     1       2.706   3.741 -39.397  1.00  0.00     0.225 C 
BRANCH  22  23
ATOM     23  O   UNL     1       2.776   5.059 -38.928  1.00  0.00    -0.391 OA
ATOM     24  H   UNL     1       1.865   5.439 -39.034  1.00  0.00     0.210 HD
ENDBRANCH  22  23
ENDBRANCH  17  22
BRANCH  18  25
ATOM     25  O   UNL     1       4.950   2.995 -37.988  1.00  0.00    -0.385 OA
ATOM     26  H   UNL     1       5.606   2.252 -37.941  1.00  0.00     0.211 HD
ENDBRANCH  18  25
BRANCH  20  27
ATOM     27  O   UNL     1       3.159   0.671 -35.957  1.00  0.00    -0.387 OA
ATOM     28  H   UNL     1       3.661   0.983 -35.160  1.00  0.00     0.211 HD
ENDBRANCH  20  27
BRANCH  21  29
ATOM     29  C   UNL     1       2.599  -0.857 -38.244  1.00  0.00     0.191 C 
BRANCH  29  30
ATOM     30  O   UNL     1       1.410  -0.921 -38.983  1.00  0.00    -0.394 OA
ATOM     31  H   UNL     1       0.669  -0.749 -38.346  1.00  0.00     0.210 HD
ENDBRANCH  29  30
ENDBRANCH  21  29
ENDBRANCH   1  17
TORSDOF 13
ENDMDL
