MODEL 1
REMARK VINA RESULT:    -4.626      0.000      0.000
REMARK INTER + INTRA:          -5.032
REMARK INTER:                  -5.032
REMARK INTRA:                   0.000
REMARK UNBOUND:                 0.000
REMARK SMILES Oc1cccc(O)c1O
REMARK SMILES IDX 4 1 5 2 6 3 8 4 2 5 3 6 7 7 1 9 9 11
REMARK H PARENT 7 8 1 10 9 12
REMARK Flexibility Score: inf
ROOT
ATOM      1  C   UNL     1     -14.849 -42.906 -10.409  1.00  0.00     0.008 A 
ATOM      2  C   UNL     1     -13.511 -42.506 -10.433  1.00  0.00     0.050 A 
ATOM      3  C   UNL     1     -13.169 -41.170 -10.192  1.00  0.00     0.161 A 
ATOM      4  C   UNL     1     -14.178 -40.226  -9.925  1.00  0.00     0.200 A 
ATOM      5  C   UNL     1     -15.526 -40.632  -9.901  1.00  0.00     0.161 A 
ATOM      6  C   UNL     1     -15.853 -41.974 -10.144  1.00  0.00     0.050 A 
ENDROOT
BRANCH   3   7
ATOM      7  O   UNL     1     -11.825 -40.800 -10.223  1.00  0.00    -0.504 OA
ATOM      8  H   UNL     1     -11.078 -41.475 -10.108  1.00  0.00     0.293 HD
ENDBRANCH   3   7
BRANCH   5   9
ATOM      9  O   UNL     1     -16.531 -39.704  -9.638  1.00  0.00    -0.504 OA
ATOM     10  H   UNL     1     -16.378 -38.918  -9.017  1.00  0.00     0.293 HD
ENDBRANCH   5   9
BRANCH   4  11
ATOM     11  O   UNL     1     -13.831 -38.896  -9.686  1.00  0.00    -0.502 OA
ATOM     12  H   UNL     1     -14.333 -38.318  -9.022  1.00  0.00     0.293 HD
ENDBRANCH   4  11
TORSDOF 3
ENDMDL
MODEL 2
REMARK VINA RESULT:    -4.618      0.071      2.808
REMARK INTER + INTRA:          -5.023
REMARK INTER:                  -5.023
REMARK INTRA:                   0.000
REMARK UNBOUND:                 0.000
REMARK SMILES Oc1cccc(O)c1O
REMARK SMILES IDX 4 1 5 2 6 3 8 4 2 5 3 6 7 7 1 9 9 11
REMARK H PARENT 7 8 1 10 9 12
REMARK Flexibility Score: inf
ROOT
ATOM      1  C   UNL     1     -14.882 -42.854 -10.481  1.00  0.00     0.008 A 
ATOM      2  C   UNL     1     -15.874 -41.906 -10.217  1.00  0.00     0.050 A 
ATOM      3  C   UNL     1     -15.525 -40.583  -9.923  1.00  0.00     0.161 A 
ATOM      4  C   UNL     1     -14.169 -40.206  -9.892  1.00  0.00     0.200 A 
ATOM      5  C   UNL     1     -13.172 -41.163 -10.159  1.00  0.00     0.161 A 
ATOM      6  C   UNL     1     -13.536 -42.485 -10.452  1.00  0.00     0.050 A 
ENDROOT
BRANCH   3   7
ATOM      7  O   UNL     1     -16.537 -39.660  -9.663  1.00  0.00    -0.504 OA
ATOM      8  H   UNL     1     -17.517 -39.919  -9.668  1.00  0.00     0.293 HD
ENDBRANCH   3   7
BRANCH   5   9
ATOM      9  O   UNL     1     -11.828 -40.797 -10.131  1.00  0.00    -0.504 OA
ATOM     10  H   UNL     1     -11.251 -40.830 -10.963  1.00  0.00     0.293 HD
ENDBRANCH   5   9
BRANCH   4  11
ATOM     11  O   UNL     1     -13.828 -38.885  -9.599  1.00  0.00    -0.502 OA
ATOM     12  H   UNL     1     -14.070 -38.448  -8.717  1.00  0.00     0.293 HD
ENDBRANCH   4  11
TORSDOF 3
ENDMDL
MODEL 3
REMARK VINA RESULT:    -4.575      2.187      3.803
REMARK INTER + INTRA:          -4.976
REMARK INTER:                  -4.976
REMARK INTRA:                   0.000
REMARK UNBOUND:                 0.000
REMARK SMILES Oc1cccc(O)c1O
REMARK SMILES IDX 4 1 5 2 6 3 8 4 2 5 3 6 7 7 1 9 9 11
REMARK H PARENT 7 8 1 10 9 12
REMARK Flexibility Score: inf
ROOT
ATOM      1  C   UNL     1     -14.607 -41.089 -11.063  1.00  0.00     0.008 A 
ATOM      2  C   UNL     1     -15.828 -40.835 -10.433  1.00  0.00     0.050 A 
ATOM      3  C   UNL     1     -16.196 -41.557  -9.292  1.00  0.00     0.161 A 
ATOM      4  C   UNL     1     -15.333 -42.543  -8.777  1.00  0.00     0.200 A 
ATOM      5  C   UNL     1     -14.104 -42.796  -9.414  1.00  0.00     0.161 A 
ATOM      6  C   UNL     1     -13.748 -42.066 -10.557  1.00  0.00     0.050 A 
ENDROOT
BRANCH   3   7
ATOM      7  O   UNL     1     -17.420 -41.282  -8.684  1.00  0.00    -0.504 OA
ATOM      8  H   UNL     1     -18.106 -40.667  -9.107  1.00  0.00     0.293 HD
ENDBRANCH   3   7
BRANCH   5   9
ATOM      9  O   UNL     1     -13.244 -43.770  -8.911  1.00  0.00    -0.504 OA
ATOM     10  H   UNL     1     -13.392 -44.756  -9.095  1.00  0.00     0.293 HD
ENDBRANCH   5   9
BRANCH   4  11
ATOM     11  O   UNL     1     -15.706 -43.258  -7.638  1.00  0.00    -0.502 OA
ATOM     12  H   UNL     1     -15.055 -43.851  -7.137  1.00  0.00     0.293 HD
ENDBRANCH   4  11
TORSDOF 3
ENDMDL
MODEL 4
REMARK VINA RESULT:    -4.562      2.173      2.600
REMARK INTER + INTRA:          -4.962
REMARK INTER:                  -4.962
REMARK INTRA:                   0.000
REMARK UNBOUND:                 0.000
REMARK SMILES Oc1cccc(O)c1O
REMARK SMILES IDX 4 1 5 2 6 3 8 4 2 5 3 6 7 7 1 9 9 11
REMARK H PARENT 7 8 1 10 9 12
REMARK Flexibility Score: inf
ROOT
ATOM      1  C   UNL     1     -14.781 -40.973 -11.261  1.00  0.00     0.008 A 
ATOM      2  C   UNL     1     -13.893 -41.969 -10.849  1.00  0.00     0.050 A 
ATOM      3  C   UNL     1     -14.172 -42.738  -9.714  1.00  0.00     0.161 A 
ATOM      4  C   UNL     1     -15.353 -42.508  -8.984  1.00  0.00     0.200 A 
ATOM      5  C   UNL     1     -16.247 -41.504  -9.402  1.00  0.00     0.161 A 
ATOM      6  C   UNL     1     -15.955 -40.740 -10.541  1.00  0.00     0.050 A 
ENDROOT
BRANCH   3   7
ATOM      7  O   UNL     1     -13.266 -43.725  -9.327  1.00  0.00    -0.504 OA
ATOM      8  H   UNL     1     -12.754 -44.281 -10.002  1.00  0.00     0.293 HD
ENDBRANCH   3   7
BRANCH   5   9
ATOM      9  O   UNL     1     -17.419 -41.269  -8.685  1.00  0.00    -0.504 OA
ATOM     10  H   UNL     1     -17.568 -41.669  -7.765  1.00  0.00     0.293 HD
ENDBRANCH   5   9
BRANCH   4  11
ATOM     11  O   UNL     1     -15.626 -43.279  -7.853  1.00  0.00    -0.502 OA
ATOM     12  H   UNL     1     -15.468 -42.934  -6.914  1.00  0.00     0.293 HD
ENDBRANCH   4  11
TORSDOF 3
ENDMDL
MODEL 5
REMARK VINA RESULT:    -4.533      1.298      2.193
REMARK INTER + INTRA:          -4.930
REMARK INTER:                  -4.930
REMARK INTRA:                   0.000
REMARK UNBOUND:                 0.000
REMARK SMILES Oc1cccc(O)c1O
REMARK SMILES IDX 4 1 5 2 6 3 8 4 2 5 3 6 7 7 1 9 9 11
REMARK H PARENT 7 8 1 10 9 12
REMARK Flexibility Score: inf
ROOT
ATOM      1  C   UNL     1     -16.160 -41.589 -10.554  1.00  0.00     0.008 A 
ATOM      2  C   UNL     1     -15.371 -42.723 -10.343  1.00  0.00     0.050 A 
ATOM      3  C   UNL     1     -14.069 -42.594  -9.847  1.00  0.00     0.161 A 
ATOM      4  C   UNL     1     -13.552 -41.317  -9.559  1.00  0.00     0.200 A 
ATOM      5  C   UNL     1     -14.350 -40.177  -9.771  1.00  0.00     0.161 A 
ATOM      6  C   UNL     1     -15.653 -40.321 -10.269  1.00  0.00     0.050 A 
ENDROOT
BRANCH   3   7
ATOM      7  O   UNL     1     -13.305 -43.743  -9.648  1.00  0.00    -0.504 OA
ATOM      8  H   UNL     1     -12.380 -43.851 -10.047  1.00  0.00     0.293 HD
ENDBRANCH   3   7
BRANCH   5   9
ATOM      9  O   UNL     1     -13.846 -38.909  -9.488  1.00  0.00    -0.504 OA
ATOM     10  H   UNL     1     -13.043 -38.779  -8.883  1.00  0.00     0.293 HD
ENDBRANCH   5   9
BRANCH   4  11
ATOM     11  O   UNL     1     -12.253 -41.195  -9.064  1.00  0.00    -0.502 OA
ATOM     12  H   UNL     1     -11.438 -41.313  -9.653  1.00  0.00     0.293 HD
ENDBRANCH   4  11
TORSDOF 3
ENDMDL
MODEL 6
REMARK VINA RESULT:    -4.532      1.383      1.417
REMARK INTER + INTRA:          -4.929
REMARK INTER:                  -4.929
REMARK INTRA:                   0.000
REMARK UNBOUND:                 0.000
REMARK SMILES Oc1cccc(O)c1O
REMARK SMILES IDX 4 1 5 2 6 3 8 4 2 5 3 6 7 7 1 9 9 11
REMARK H PARENT 7 8 1 10 9 12
REMARK Flexibility Score: inf
ROOT
ATOM      1  C   UNL     1     -14.131 -42.922 -10.142  1.00  0.00     0.008 A 
ATOM      2  C   UNL     1     -13.150 -42.006  -9.756  1.00  0.00     0.050 A 
ATOM      3  C   UNL     1     -13.508 -40.829  -9.089  1.00  0.00     0.161 A 
ATOM      4  C   UNL     1     -14.861 -40.567  -8.806  1.00  0.00     0.200 A 
ATOM      5  C   UNL     1     -15.847 -41.492  -9.196  1.00  0.00     0.161 A 
ATOM      6  C   UNL     1     -15.475 -42.667  -9.864  1.00  0.00     0.050 A 
ENDROOT
BRANCH   3   7
ATOM      7  O   UNL     1     -12.506 -39.933  -8.716  1.00  0.00    -0.504 OA
ATOM      8  H   UNL     1     -11.994 -39.384  -9.397  1.00  0.00     0.293 HD
ENDBRANCH   3   7
BRANCH   5   9
ATOM      9  O   UNL     1     -17.190 -41.240  -8.920  1.00  0.00    -0.504 OA
ATOM     10  H   UNL     1     -17.627 -40.359  -9.166  1.00  0.00     0.293 HD
ENDBRANCH   5   9
BRANCH   4  11
ATOM     11  O   UNL     1     -15.211 -39.391  -8.141  1.00  0.00    -0.502 OA
ATOM     12  H   UNL     1     -14.626 -38.564  -8.162  1.00  0.00     0.293 HD
ENDBRANCH   4  11
TORSDOF 3
ENDMDL
MODEL 7
REMARK VINA RESULT:    -4.503      1.316      2.727
REMARK INTER + INTRA:          -4.898
REMARK INTER:                  -4.898
REMARK INTRA:                   0.000
REMARK UNBOUND:                 0.000
REMARK SMILES Oc1cccc(O)c1O
REMARK SMILES IDX 4 1 5 2 6 3 8 4 2 5 3 6 7 7 1 9 9 11
REMARK H PARENT 7 8 1 10 9 12
REMARK Flexibility Score: inf
ROOT
ATOM      1  C   UNL     1     -16.250 -41.470 -10.506  1.00  0.00     0.008 A 
ATOM      2  C   UNL     1     -15.699 -40.226 -10.190  1.00  0.00     0.050 A 
ATOM      3  C   UNL     1     -14.381 -40.134  -9.727  1.00  0.00     0.161 A 
ATOM      4  C   UNL     1     -13.608 -41.301  -9.580  1.00  0.00     0.200 A 
ATOM      5  C   UNL     1     -14.166 -42.553  -9.899  1.00  0.00     0.161 A 
ATOM      6  C   UNL     1     -15.487 -42.630 -10.361  1.00  0.00     0.050 A 
ENDROOT
BRANCH   3   7
ATOM      7  O   UNL     1     -13.859 -38.879  -9.420  1.00  0.00    -0.504 OA
ATOM      8  H   UNL     1     -13.643 -38.195 -10.136  1.00  0.00     0.293 HD
ENDBRANCH   3   7
BRANCH   5   9
ATOM      9  O   UNL     1     -13.407 -43.713  -9.756  1.00  0.00    -0.504 OA
ATOM     10  H   UNL     1     -12.468 -43.784 -10.132  1.00  0.00     0.293 HD
ENDBRANCH   5   9
BRANCH   4  11
ATOM     11  O   UNL     1     -12.295 -41.203  -9.118  1.00  0.00    -0.502 OA
ATOM     12  H   UNL     1     -11.726 -40.380  -9.277  1.00  0.00     0.293 HD
ENDBRANCH   4  11
TORSDOF 3
ENDMDL
MODEL 8
REMARK VINA RESULT:    -4.420      2.041      2.791
REMARK INTER + INTRA:          -4.808
REMARK INTER:                  -4.808
REMARK INTRA:                   0.000
REMARK UNBOUND:                 0.000
REMARK SMILES Oc1cccc(O)c1O
REMARK SMILES IDX 4 1 5 2 6 3 8 4 2 5 3 6 7 7 1 9 9 11
REMARK H PARENT 7 8 1 10 9 12
REMARK Flexibility Score: inf
ROOT
ATOM      1  C   UNL     1     -15.345 -41.591 -10.992  1.00  0.00     0.008 A 
ATOM      2  C   UNL     1     -15.615 -42.537 -10.001  1.00  0.00     0.050 A 
ATOM      3  C   UNL     1     -15.331 -42.255  -8.661  1.00  0.00     0.161 A 
ATOM      4  C   UNL     1     -14.772 -41.013  -8.308  1.00  0.00     0.200 A 
ATOM      5  C   UNL     1     -14.502 -40.061  -9.309  1.00  0.00     0.161 A 
ATOM      6  C   UNL     1     -14.791 -40.356 -10.649  1.00  0.00     0.050 A 
ENDROOT
BRANCH   3   7
ATOM      7  O   UNL     1     -15.611 -43.220  -7.693  1.00  0.00    -0.504 OA
ATOM      8  H   UNL     1     -15.257 -44.168  -7.760  1.00  0.00     0.293 HD
ENDBRANCH   3   7
BRANCH   5   9
ATOM      9  O   UNL     1     -13.948 -38.828  -8.969  1.00  0.00    -0.504 OA
ATOM     10  H   UNL     1     -14.167 -38.371  -8.092  1.00  0.00     0.293 HD
ENDBRANCH   5   9
BRANCH   4  11
ATOM     11  O   UNL     1     -14.492 -40.737  -6.969  1.00  0.00    -0.502 OA
ATOM     12  H   UNL     1     -15.099 -41.041  -6.218  1.00  0.00     0.293 HD
ENDBRANCH   4  11
TORSDOF 3
ENDMDL
MODEL 9
REMARK VINA RESULT:    -4.328      1.996      3.244
REMARK INTER + INTRA:          -4.708
REMARK INTER:                  -4.708
REMARK INTRA:                   0.000
REMARK UNBOUND:                 0.000
REMARK SMILES Oc1cccc(O)c1O
REMARK SMILES IDX 4 1 5 2 6 3 8 4 2 5 3 6 7 7 1 9 9 11
REMARK H PARENT 7 8 1 10 9 12
REMARK Flexibility Score: inf
ROOT
ATOM      1  C   UNL     1     -12.798 -42.060  -7.922  1.00  0.00     0.008 A 
ATOM      2  C   UNL     1     -14.059 -42.621  -7.711  1.00  0.00     0.050 A 
ATOM      3  C   UNL     1     -15.213 -41.930  -8.098  1.00  0.00     0.161 A 
ATOM      4  C   UNL     1     -15.101 -40.664  -8.704  1.00  0.00     0.200 A 
ATOM      5  C   UNL     1     -13.829 -40.101  -8.915  1.00  0.00     0.161 A 
ATOM      6  C   UNL     1     -12.682 -40.805  -8.521  1.00  0.00     0.050 A 
ENDROOT
BRANCH   3   7
ATOM      7  O   UNL     1     -16.458 -42.516  -7.875  1.00  0.00    -0.504 OA
ATOM      8  H   UNL     1     -16.972 -42.377  -7.013  1.00  0.00     0.293 HD
ENDBRANCH   3   7
BRANCH   5   9
ATOM      9  O   UNL     1     -13.710 -38.848  -9.513  1.00  0.00    -0.504 OA
ATOM     10  H   UNL     1     -13.671 -37.999  -8.962  1.00  0.00     0.293 HD
ENDBRANCH   5   9
BRANCH   4  11
ATOM     11  O   UNL     1     -16.255 -39.981  -9.088  1.00  0.00    -0.502 OA
ATOM     12  H   UNL     1     -16.995 -39.758  -8.433  1.00  0.00     0.293 HD
ENDBRANCH   4  11
TORSDOF 3
ENDMDL
