MODEL 1
REMARK VINA RESULT:    -3.782      0.000      0.000
REMARK INTER + INTRA:          -5.915
REMARK INTER:                  -5.772
REMARK INTRA:                  -0.143
REMARK UNBOUND:                -0.143
REMARK SMILES CC1=CCC[C@@H](C)C(=O)C[C@H](C(C)C)C(=O)C1
REMARK SMILES IDX 8 1 9 2 6 3 7 4 5 5 4 6 3 7 2 8 1 9 10 11 11 12 15 13 16 14
REMARK SMILES IDX 17 15 12 17 13 18 14 19
REMARK H PARENT
REMARK Flexibility Score: 70.00
ROOT
ATOM      1  C   UNL     1     136.937 184.799 190.363  1.00  0.00     0.136 C 
ATOM      2  O   UNL     1     137.854 184.017 190.569  1.00  0.00    -0.299 OA
ENDROOT
BRANCH   1   3
ATOM      3  C   UNL     1     137.026 186.216 190.898  1.00  0.00     0.053 C 
ATOM      4  C   UNL     1     138.481 186.708 190.877  1.00  0.00     0.016 C 
BRANCH   3   5
ATOM      5  C   UNL     1     136.439 186.287 192.325  1.00  0.00     0.015 C 
BRANCH   5   6
ATOM      6  C   UNL     1     134.914 186.516 192.316  1.00  0.00     0.028 C 
BRANCH   6   7
ATOM      7  C   UNL     1     134.197 185.476 193.138  1.00  0.00    -0.028 C 
ATOM      8  C   UNL     1     133.505 184.429 192.635  1.00  0.00    -0.070 CG0
ATOM      9  C   UNL     1     132.900 183.449 193.609  1.00  0.00     0.039 C 
ATOM     10  G   UNL     1     133.318 184.186 191.145  1.00  0.00     0.000 G0
ENDBRANCH   6   7
ENDBRANCH   5   6
ENDBRANCH   3   5
ENDBRANCH   1   3
BRANCH   1  11
ATOM     11  C   UNL     1     135.733 184.334 189.578  1.00  0.00     0.087 C 
BRANCH  11  12
ATOM     12  C   UNL     1     135.288 182.900 189.967  1.00  0.00     0.066 C 
BRANCH  12  13
ATOM     13  C   UNL     1     133.922 182.920 190.646  1.00  0.00     0.140 C 
ATOM     14  O   UNL     1     133.300 181.872 190.745  1.00  0.00    -0.299 OA
BRANCH  13  15
ATOM     15  C   UNL     1     133.286 184.204 191.129  1.00  0.00     0.106 CG0
ATOM     16  G   UNL     1     133.488 184.420 192.621  1.00  0.00     0.000 G0
ENDBRANCH  13  15
ENDBRANCH  12  13
BRANCH  12  17
ATOM     17  C   UNL     1     135.316 181.903 188.765  1.00  0.00    -0.006 C 
ATOM     18  C   UNL     1     134.788 182.537 187.465  1.00  0.00     0.008 C 
ATOM     19  C   UNL     1     136.742 181.379 188.515  1.00  0.00     0.008 C 
ENDBRANCH  12  17
ENDBRANCH  11  12
ENDBRANCH   1  11
TORSDOF 1
ENDMDL
MODEL 2
REMARK VINA RESULT:    -3.593      1.724      3.934
REMARK INTER + INTRA:          -5.626
REMARK INTER:                  -5.430
REMARK INTRA:                  -0.196
REMARK UNBOUND:                -0.143
REMARK SMILES CC1=CCC[C@@H](C)C(=O)C[C@H](C(C)C)C(=O)C1
REMARK SMILES IDX 8 1 9 2 6 3 7 4 5 5 4 6 3 7 2 8 1 9 10 11 11 12 15 13 16 14
REMARK SMILES IDX 17 15 12 17 13 18 14 19
REMARK H PARENT
REMARK Flexibility Score: 70.00
ROOT
ATOM      1  C   UNL     1     133.760 183.738 190.984  1.00  0.00     0.136 C 
ATOM      2  O   UNL     1     133.273 183.860 189.869  1.00  0.00    -0.299 OA
ENDROOT
BRANCH   1   3
ATOM      3  C   UNL     1     133.104 184.423 192.167  1.00  0.00     0.053 C 
ATOM      4  C   UNL     1     131.579 184.463 191.988  1.00  0.00     0.016 C 
BRANCH   3   5
ATOM      5  C   UNL     1     133.676 185.847 192.346  1.00  0.00     0.015 C 
BRANCH   5   6
ATOM      6  C   UNL     1     135.004 185.846 193.132  1.00  0.00     0.028 C 
BRANCH   6   7
ATOM      7  C   UNL     1     136.101 186.529 192.358  1.00  0.00    -0.028 C 
ATOM      8  C   UNL     1     137.146 185.902 191.771  1.00  0.00    -0.070 CG0
ATOM      9  C   UNL     1     138.120 186.740 190.983  1.00  0.00     0.039 C 
ATOM     10  G   UNL     1     137.377 184.401 191.858  1.00  0.00     0.000 G0
ENDBRANCH   6   7
ENDBRANCH   5   6
ENDBRANCH   3   5
ENDBRANCH   1   3
BRANCH   1  11
ATOM     11  C   UNL     1     135.009 182.905 191.156  1.00  0.00     0.087 C 
BRANCH  11  12
ATOM     12  C   UNL     1     136.017 183.099 189.993  1.00  0.00     0.066 C 
BRANCH  12  13
ATOM     13  C   UNL     1     137.314 183.724 190.496  1.00  0.00     0.140 C 
ATOM     14  O   UNL     1     138.322 183.615 189.812  1.00  0.00    -0.299 OA
BRANCH  13  15
ATOM     15  C   UNL     1     137.406 184.405 191.843  1.00  0.00     0.106 CG0
ATOM     16  G   UNL     1     137.152 185.902 191.748  1.00  0.00     0.000 G0
ENDBRANCH  13  15
ENDBRANCH  12  13
BRANCH  12  17
ATOM     17  C   UNL     1     136.287 181.784 189.193  1.00  0.00    -0.006 C 
ATOM     18  C   UNL     1     135.683 180.545 189.879  1.00  0.00     0.008 C 
ATOM     19  C   UNL     1     135.722 181.881 187.764  1.00  0.00     0.008 C 
ENDBRANCH  12  17
ENDBRANCH  11  12
ENDBRANCH   1  11
TORSDOF 1
ENDMDL
MODEL 3
REMARK VINA RESULT:    -3.513      1.565      4.001
REMARK INTER + INTRA:          -5.505
REMARK INTER:                  -5.246
REMARK INTRA:                  -0.259
REMARK UNBOUND:                -0.143
REMARK SMILES CC1=CCC[C@@H](C)C(=O)C[C@H](C(C)C)C(=O)C1
REMARK SMILES IDX 8 1 9 2 6 3 7 4 5 5 4 6 3 7 2 8 1 9 10 11 11 12 15 13 16 14
REMARK SMILES IDX 17 15 12 17 13 18 14 19
REMARK H PARENT
REMARK Flexibility Score: 70.00
ROOT
ATOM      1  C   UNL     1     136.963 183.272 190.326  1.00  0.00     0.136 C 
ATOM      2  O   UNL     1     138.010 183.670 189.835  1.00  0.00    -0.299 OA
ENDROOT
BRANCH   1   3
ATOM      3  C   UNL     1     136.067 182.345 189.527  1.00  0.00     0.053 C 
ATOM      4  C   UNL     1     136.875 181.167 188.965  1.00  0.00     0.016 C 
BRANCH   3   5
ATOM      5  C   UNL     1     135.365 183.125 188.393  1.00  0.00     0.015 C 
BRANCH   5   6
ATOM      6  C   UNL     1     133.977 183.646 188.819  1.00  0.00     0.028 C 
BRANCH   6   7
ATOM      7  C   UNL     1     133.400 182.819 189.938  1.00  0.00    -0.028 C 
ATOM      8  C   UNL     1     133.043 183.294 191.153  1.00  0.00    -0.070 CG0
ATOM      9  C   UNL     1     132.424 182.331 192.134  1.00  0.00     0.039 C 
ATOM     10  G   UNL     1     133.223 184.746 191.570  1.00  0.00     0.000 G0
ENDBRANCH   6   7
ENDBRANCH   5   6
ENDBRANCH   3   5
ENDBRANCH   1   3
BRANCH   1  11
ATOM     11  C   UNL     1     136.588 183.715 191.721  1.00  0.00     0.087 C 
BRANCH  11  12
ATOM     12  C   UNL     1     135.861 185.085 191.733  1.00  0.00     0.066 C 
BRANCH  12  13
ATOM     13  C   UNL     1     134.488 184.966 192.385  1.00  0.00     0.140 C 
ATOM     14  O   UNL     1     134.414 184.984 193.606  1.00  0.00    -0.299 OA
BRANCH  13  15
ATOM     15  C   UNL     1     133.230 184.753 191.574  1.00  0.00     0.106 CG0
ATOM     16  G   UNL     1     133.061 183.304 191.144  1.00  0.00     0.000 G0
ENDBRANCH  13  15
ENDBRANCH  12  13
BRANCH  12  17
ATOM     17  C   UNL     1     136.710 186.222 192.387  1.00  0.00    -0.006 C 
ATOM     18  C   UNL     1     137.902 185.674 193.193  1.00  0.00     0.008 C 
ATOM     19  C   UNL     1     137.242 187.197 191.322  1.00  0.00     0.008 C 
ENDBRANCH  12  17
ENDBRANCH  11  12
ENDBRANCH   1  11
TORSDOF 1
ENDMDL
MODEL 4
REMARK VINA RESULT:    -3.467      1.947      4.019
REMARK INTER + INTRA:          -5.434
REMARK INTER:                  -5.309
REMARK INTRA:                  -0.125
REMARK UNBOUND:                -0.143
REMARK SMILES CC1=CCC[C@@H](C)C(=O)C[C@H](C(C)C)C(=O)C1
REMARK SMILES IDX 8 1 9 2 6 3 7 4 5 5 4 6 3 7 2 8 1 9 10 11 11 12 15 13 16 14
REMARK SMILES IDX 17 15 12 17 13 18 14 19
REMARK H PARENT
REMARK Flexibility Score: 70.00
ROOT
ATOM      1  C   UNL     1     135.199 182.641 192.441  1.00  0.00     0.136 C 
ATOM      2  O   UNL     1     134.527 181.684 192.082  1.00  0.00    -0.299 OA
ENDROOT
BRANCH   1   3
ATOM      3  C   UNL     1     134.737 183.484 193.614  1.00  0.00     0.053 C 
ATOM      4  C   UNL     1     133.861 182.652 194.562  1.00  0.00     0.016 C 
BRANCH   3   5
ATOM      5  C   UNL     1     133.978 184.731 193.110  1.00  0.00     0.015 C 
BRANCH   5   6
ATOM      6  C   UNL     1     134.563 186.039 193.681  1.00  0.00     0.028 C 
BRANCH   6   7
ATOM      7  C   UNL     1     136.001 185.860 194.097  1.00  0.00    -0.028 C 
ATOM      8  C   UNL     1     137.072 186.034 193.289  1.00  0.00    -0.070 CG0
ATOM      9  C   UNL     1     138.445 185.871 193.890  1.00  0.00     0.039 C 
ATOM     10  G   UNL     1     136.959 186.395 191.815  1.00  0.00     0.000 G0
ENDBRANCH   6   7
ENDBRANCH   5   6
ENDBRANCH   3   5
ENDBRANCH   1   3
BRANCH   1  11
ATOM     11  C   UNL     1     136.478 182.961 191.703  1.00  0.00     0.087 C 
BRANCH  11  12
ATOM     12  C   UNL     1     136.296 184.098 190.664  1.00  0.00     0.066 C 
BRANCH  12  13
ATOM     13  C   UNL     1     137.294 185.224 190.910  1.00  0.00     0.140 C 
ATOM     14  O   UNL     1     138.406 185.144 190.406  1.00  0.00    -0.299 OA
BRANCH  13  15
ATOM     15  C   UNL     1     136.977 186.393 191.814  1.00  0.00     0.106 CG0
ATOM     16  G   UNL     1     137.089 186.028 193.287  1.00  0.00     0.000 G0
ENDBRANCH  13  15
ENDBRANCH  12  13
BRANCH  12  17
ATOM     17  C   UNL     1     136.356 183.592 189.187  1.00  0.00    -0.006 C 
ATOM     18  C   UNL     1     136.934 182.169 189.077  1.00  0.00     0.008 C 
ATOM     19  C   UNL     1     134.958 183.608 188.540  1.00  0.00     0.008 C 
ENDBRANCH  12  17
ENDBRANCH  11  12
ENDBRANCH   1  11
TORSDOF 1
ENDMDL
MODEL 5
REMARK VINA RESULT:    -3.395      1.133      1.305
REMARK INTER + INTRA:          -5.324
REMARK INTER:                  -5.522
REMARK INTRA:                   0.198
REMARK UNBOUND:                -0.143
REMARK SMILES CC1=CCC[C@@H](C)C(=O)C[C@H](C(C)C)C(=O)C1
REMARK SMILES IDX 8 1 9 2 6 3 7 4 5 5 4 6 3 7 2 8 1 9 10 11 11 12 15 13 16 14
REMARK SMILES IDX 17 15 12 17 13 18 14 19
REMARK H PARENT
REMARK Flexibility Score: 70.00
ROOT
ATOM      1  C   UNL     1     137.282 185.417 190.804  1.00  0.00     0.136 C 
ATOM      2  O   UNL     1     138.370 185.021 190.410  1.00  0.00    -0.299 OA
ENDROOT
BRANCH   1   3
ATOM      3  C   UNL     1     137.217 186.524 191.838  1.00  0.00     0.053 C 
ATOM      4  C   UNL     1     138.111 186.190 193.041  1.00  0.00     0.016 C 
BRANCH   3   5
ATOM      5  C   UNL     1     135.755 186.755 192.283  1.00  0.00     0.015 C 
BRANCH   5   6
ATOM      6  C   UNL     1     135.452 186.099 193.646  1.00  0.00     0.028 C 
BRANCH   6   7
ATOM      7  C   UNL     1     134.041 185.571 193.698  1.00  0.00    -0.028 C 
ATOM      8  C   UNL     1     133.678 184.296 193.429  1.00  0.00    -0.070 CG0
ATOM      9  C   UNL     1     132.225 183.927 193.590  1.00  0.00     0.039 C 
ATOM     10  G   UNL     1     134.659 183.221 192.986  1.00  0.00     0.000 G0
ENDBRANCH   6   7
ENDBRANCH   5   6
ENDBRANCH   3   5
ENDBRANCH   1   3
BRANCH   1  11
ATOM     11  C   UNL     1     136.024 184.790 190.248  1.00  0.00     0.087 C 
BRANCH  11  12
ATOM     12  C   UNL     1     135.899 183.287 190.611  1.00  0.00     0.066 C 
BRANCH  12  13
ATOM     13  C   UNL     1     134.657 183.035 191.460  1.00  0.00     0.140 C 
ATOM     14  O   UNL     1     133.612 182.740 190.897  1.00  0.00    -0.299 OA
BRANCH  13  15
ATOM     15  C   UNL     1     134.663 183.211 192.961  1.00  0.00     0.106 CG0
ATOM     16  G   UNL     1     133.674 184.273 193.419  1.00  0.00     0.000 G0
ENDBRANCH  13  15
ENDBRANCH  12  13
BRANCH  12  17
ATOM     17  C   UNL     1     135.940 182.351 189.362  1.00  0.00    -0.006 C 
ATOM     18  C   UNL     1     135.127 182.912 188.181  1.00  0.00     0.008 C 
ATOM     19  C   UNL     1     137.388 182.114 188.895  1.00  0.00     0.008 C 
ENDBRANCH  12  17
ENDBRANCH  11  12
ENDBRANCH   1  11
TORSDOF 1
ENDMDL
MODEL 6
REMARK VINA RESULT:    -3.313      1.914      2.407
REMARK INTER + INTRA:          -5.199
REMARK INTER:                  -5.060
REMARK INTRA:                  -0.140
REMARK UNBOUND:                -0.143
REMARK SMILES CC1=CCC[C@@H](C)C(=O)C[C@H](C(C)C)C(=O)C1
REMARK SMILES IDX 8 1 9 2 6 3 7 4 5 5 4 6 3 7 2 8 1 9 10 11 11 12 15 13 16 14
REMARK SMILES IDX 17 15 12 17 13 18 14 19
REMARK H PARENT
REMARK Flexibility Score: 70.00
ROOT
ATOM      1  C   UNL     1     136.524 186.273 191.677  1.00  0.00     0.136 C 
ATOM      2  O   UNL     1     137.208 186.703 190.759  1.00  0.00    -0.299 OA
ENDROOT
BRANCH   1   3
ATOM      3  C   UNL     1     136.917 186.576 193.111  1.00  0.00     0.053 C 
ATOM      4  C   UNL     1     138.185 185.799 193.496  1.00  0.00     0.016 C 
BRANCH   3   5
ATOM      5  C   UNL     1     135.751 186.240 194.067  1.00  0.00     0.015 C 
BRANCH   5   6
ATOM      6  C   UNL     1     136.018 184.958 194.882  1.00  0.00     0.028 C 
BRANCH   6   7
ATOM      7  C   UNL     1     134.732 184.321 195.341  1.00  0.00    -0.028 C 
ATOM      8  C   UNL     1     134.158 183.234 194.776  1.00  0.00    -0.070 CG0
ATOM      9  C   UNL     1     132.897 182.694 195.405  1.00  0.00     0.039 C 
ATOM     10  G   UNL     1     134.724 182.527 193.554  1.00  0.00     0.000 G0
ENDBRANCH   6   7
ENDBRANCH   5   6
ENDBRANCH   3   5
ENDBRANCH   1   3
BRANCH   1  11
ATOM     11  C   UNL     1     135.298 185.448 191.359  1.00  0.00     0.087 C 
BRANCH  11  12
ATOM     12  C   UNL     1     135.565 183.924 191.464  1.00  0.00     0.066 C 
BRANCH  12  13
ATOM     13  C   UNL     1     134.456 183.231 192.248  1.00  0.00     0.140 C 
ATOM     14  O   UNL     1     133.305 183.325 191.845  1.00  0.00    -0.299 OA
BRANCH  13  15
ATOM     15  C   UNL     1     134.727 182.497 193.542  1.00  0.00     0.106 CG0
ATOM     16  G   UNL     1     134.151 183.225 194.747  1.00  0.00     0.000 G0
ENDBRANCH  13  15
ENDBRANCH  12  13
BRANCH  12  17
ATOM     17  C   UNL     1     135.794 183.247 190.075  1.00  0.00    -0.006 C 
ATOM     18  C   UNL     1     135.095 184.003 188.931  1.00  0.00     0.008 C 
ATOM     19  C   UNL     1     137.296 183.144 189.751  1.00  0.00     0.008 C 
ENDBRANCH  12  17
ENDBRANCH  11  12
ENDBRANCH   1  11
TORSDOF 1
ENDMDL
MODEL 7
REMARK VINA RESULT:    -3.289      1.882      4.118
REMARK INTER + INTRA:          -5.163
REMARK INTER:                  -4.916
REMARK INTRA:                  -0.248
REMARK UNBOUND:                -0.143
REMARK SMILES CC1=CCC[C@@H](C)C(=O)C[C@H](C(C)C)C(=O)C1
REMARK SMILES IDX 8 1 9 2 6 3 7 4 5 5 4 6 3 7 2 8 1 9 10 11 11 12 15 13 16 14
REMARK SMILES IDX 17 15 12 17 13 18 14 19
REMARK H PARENT
REMARK Flexibility Score: 70.00
ROOT
ATOM      1  C   UNL     1     137.617 184.569 192.518  1.00  0.00     0.136 C 
ATOM      2  O   UNL     1     138.399 185.042 193.331  1.00  0.00    -0.299 OA
ENDROOT
BRANCH   1   3
ATOM      3  C   UNL     1     137.770 184.905 191.047  1.00  0.00     0.053 C 
ATOM      4  C   UNL     1     137.088 186.242 190.727  1.00  0.00     0.016 C 
BRANCH   3   5
ATOM      5  C   UNL     1     137.193 183.766 190.176  1.00  0.00     0.015 C 
BRANCH   5   6
ATOM      6  C   UNL     1     135.856 184.161 189.515  1.00  0.00     0.028 C 
BRANCH   6   7
ATOM      7  C   UNL     1     134.835 183.060 189.642  1.00  0.00    -0.028 C 
ATOM      8  C   UNL     1     133.787 183.066 190.498  1.00  0.00    -0.070 CG0
ATOM      9  C   UNL     1     132.828 181.904 190.448  1.00  0.00     0.039 C 
ATOM     10  G   UNL     1     133.525 184.186 191.493  1.00  0.00     0.000 G0
ENDBRANCH   6   7
ENDBRANCH   5   6
ENDBRANCH   3   5
ENDBRANCH   1   3
BRANCH   1  11
ATOM     11  C   UNL     1     136.513 183.657 193.002  1.00  0.00     0.087 C 
BRANCH  11  12
ATOM     12  C   UNL     1     135.267 184.442 193.490  1.00  0.00     0.066 C 
BRANCH  12  13
ATOM     13  C   UNL     1     133.990 183.856 192.898  1.00  0.00     0.140 C 
ATOM     14  O   UNL     1     133.355 183.044 193.557  1.00  0.00    -0.299 OA
BRANCH  13  15
ATOM     15  C   UNL     1     133.528 184.191 191.497  1.00  0.00     0.106 CG0
ATOM     16  G   UNL     1     133.811 183.066 190.514  1.00  0.00     0.000 G0
ENDBRANCH  13  15
ENDBRANCH  12  13
BRANCH  12  17
ATOM     17  C   UNL     1     135.181 184.546 195.047  1.00  0.00    -0.006 C 
ATOM     18  C   UNL     1     136.240 183.679 195.752  1.00  0.00     0.008 C 
ATOM     19  C   UNL     1     135.348 186.004 195.513  1.00  0.00     0.008 C 
ENDBRANCH  12  17
ENDBRANCH  11  12
ENDBRANCH   1  11
TORSDOF 1
ENDMDL
MODEL 8
REMARK VINA RESULT:    -3.109      2.742      4.082
REMARK INTER + INTRA:          -4.888
REMARK INTER:                  -4.618
REMARK INTRA:                  -0.270
REMARK UNBOUND:                -0.143
REMARK SMILES CC1=CCC[C@@H](C)C(=O)C[C@H](C(C)C)C(=O)C1
REMARK SMILES IDX 8 1 9 2 6 3 7 4 5 5 4 6 3 7 2 8 1 9 10 11 11 12 15 13 16 14
REMARK SMILES IDX 17 15 12 17 13 18 14 19
REMARK H PARENT
REMARK Flexibility Score: 70.00
ROOT
ATOM      1  C   UNL     1     137.604 185.949 194.516  1.00  0.00     0.136 C 
ATOM      2  O   UNL     1     138.785 186.233 194.372  1.00  0.00    -0.299 OA
ENDROOT
BRANCH   1   3
ATOM      3  C   UNL     1     137.175 185.099 195.697  1.00  0.00     0.053 C 
ATOM      4  C   UNL     1     137.858 185.583 196.984  1.00  0.00     0.016 C 
BRANCH   3   5
ATOM      5  C   UNL     1     137.494 183.611 195.428  1.00  0.00     0.015 C 
BRANCH   5   6
ATOM      6  C   UNL     1     136.219 182.780 195.178  1.00  0.00     0.028 C 
BRANCH   6   7
ATOM      7  C   UNL     1     134.983 183.529 195.603  1.00  0.00    -0.028 C 
ATOM      8  C   UNL     1     134.024 183.987 194.766  1.00  0.00    -0.070 CG0
ATOM      9  C   UNL     1     132.822 184.666 195.373  1.00  0.00     0.039 C 
ATOM     10  G   UNL     1     134.093 183.841 193.254  1.00  0.00     0.000 G0
ENDBRANCH   6   7
ENDBRANCH   5   6
ENDBRANCH   3   5
ENDBRANCH   1   3
BRANCH   1  11
ATOM     11  C   UNL     1     136.597 186.455 193.509  1.00  0.00     0.087 C 
BRANCH  11  12
ATOM     12  C   UNL     1     136.162 185.358 192.502  1.00  0.00     0.066 C 
BRANCH  12  13
ATOM     13  C   UNL     1     134.660 185.104 192.591  1.00  0.00     0.140 C 
ATOM     14  O   UNL     1     133.894 185.963 192.178  1.00  0.00    -0.299 OA
BRANCH  13  15
ATOM     15  C   UNL     1     134.095 183.861 193.239  1.00  0.00     0.106 CG0
ATOM     16  G   UNL     1     134.008 183.989 194.752  1.00  0.00     0.000 G0
ENDBRANCH  13  15
ENDBRANCH  12  13
BRANCH  12  17
ATOM     17  C   UNL     1     136.605 185.663 191.036  1.00  0.00    -0.006 C 
ATOM     18  C   UNL     1     137.173 187.086 190.879  1.00  0.00     0.008 C 
ATOM     19  C   UNL     1     137.665 184.654 190.558  1.00  0.00     0.008 C 
ENDBRANCH  12  17
ENDBRANCH  11  12
ENDBRANCH   1  11
TORSDOF 1
ENDMDL
MODEL 9
REMARK VINA RESULT:    -2.974      2.382      4.823
REMARK INTER + INTRA:          -4.683
REMARK INTER:                  -4.557
REMARK INTRA:                  -0.126
REMARK UNBOUND:                -0.143
REMARK SMILES CC1=CCC[C@@H](C)C(=O)C[C@H](C(C)C)C(=O)C1
REMARK SMILES IDX 8 1 9 2 6 3 7 4 5 5 4 6 3 7 2 8 1 9 10 11 11 12 15 13 16 14
REMARK SMILES IDX 17 15 12 17 13 18 14 19
REMARK H PARENT
REMARK Flexibility Score: 70.00
ROOT
ATOM      1  C   UNL     1     134.704 183.420 189.146  1.00  0.00     0.136 C 
ATOM      2  O   UNL     1     135.395 184.394 188.884  1.00  0.00    -0.299 OA
ENDROOT
BRANCH   1   3
ATOM      3  C   UNL     1     134.331 182.447 188.043  1.00  0.00     0.053 C 
ATOM      4  C   UNL     1     135.562 181.651 187.588  1.00  0.00     0.016 C 
BRANCH   3   5
ATOM      5  C   UNL     1     133.693 183.204 186.856  1.00  0.00     0.015 C 
BRANCH   5   6
ATOM      6  C   UNL     1     132.413 183.960 187.269  1.00  0.00     0.028 C 
BRANCH   6   7
ATOM      7  C   UNL     1     131.343 183.010 187.741  1.00  0.00    -0.028 C 
ATOM      8  C   UNL     1     130.645 183.134 188.892  1.00  0.00    -0.070 CG0
ATOM      9  C   UNL     1     129.566 182.120 189.177  1.00  0.00     0.039 C 
ATOM     10  G   UNL     1     130.886 184.246 189.902  1.00  0.00     0.000 G0
ENDBRANCH   6   7
ENDBRANCH   5   6
ENDBRANCH   3   5
ENDBRANCH   1   3
BRANCH   1  11
ATOM     11  C   UNL     1     134.237 183.208 190.567  1.00  0.00     0.087 C 
BRANCH  11  12
ATOM     12  C   UNL     1     133.273 184.324 191.048  1.00  0.00     0.066 C 
BRANCH  12  13
ATOM     13  C   UNL     1     131.826 183.845 191.012  1.00  0.00     0.140 C 
ATOM     14  O   UNL     1     131.445 183.065 191.874  1.00  0.00    -0.299 OA
BRANCH  13  15
ATOM     15  C   UNL     1     130.875 184.246 189.907  1.00  0.00     0.106 CG0
ATOM     16  G   UNL     1     130.651 183.123 188.906  1.00  0.00     0.000 G0
ENDBRANCH  13  15
ENDBRANCH  12  13
BRANCH  12  17
ATOM     17  C   UNL     1     133.653 184.897 192.451  1.00  0.00    -0.006 C 
ATOM     18  C   UNL     1     134.377 183.862 193.331  1.00  0.00     0.008 C 
ATOM     19  C   UNL     1     134.549 186.142 192.315  1.00  0.00     0.008 C 
ENDBRANCH  12  17
ENDBRANCH  11  12
ENDBRANCH   1  11
TORSDOF 1
ENDMDL
