MODEL 1
REMARK VINA RESULT:    -5.255      0.000      0.000
REMARK INTER + INTRA:          -6.080
REMARK INTER:                  -5.870
REMARK INTRA:                  -0.210
REMARK UNBOUND:                -0.210
REMARK SMILES CC(C)c1ccc(C(=O)[O-])cc1
REMARK SMILES IDX 7 1 6 2 11 3 5 4 12 5 4 6 8 7 9 8 10 9 2 10 1 11 3 12
REMARK H PARENT
REMARK Flexibility Score: inf
ROOT
ATOM      1  C   UNL     1       4.650 -36.853  19.920  1.00  0.00    -0.003 A 
ATOM      2  C   UNL     1       3.840 -37.921  19.500  1.00  0.00     0.010 A 
ATOM      3  C   UNL     1       4.870 -35.778  19.040  1.00  0.00     0.010 A 
ATOM      4  C   UNL     1       3.262 -37.917  18.227  1.00  0.00     0.004 A 
ATOM      5  C   UNL     1       4.293 -35.774  17.767  1.00  0.00     0.004 A 
ATOM      6  C   UNL     1       3.482 -36.844  17.345  1.00  0.00    -0.045 A 
ENDROOT
BRANCH   1   7
ATOM      7  C   UNL     1       5.259 -36.861  21.268  1.00  0.00     0.071 C 
ATOM      8  O   UNL     1       6.066 -35.957  21.612  1.00  0.00    -0.545 OA
ATOM      9  O   UNL     1       4.947 -37.867  22.175  1.00  0.00    -0.545 OA
ENDBRANCH   1   7
BRANCH   6  10
ATOM     10  C   UNL     1       2.849 -36.853  15.967  1.00  0.00     0.013 C 
ATOM     11  C   UNL     1       1.319 -36.839  16.062  1.00  0.00     0.012 C 
ATOM     12  C   UNL     1       3.339 -38.049  15.142  1.00  0.00     0.012 C 
ENDBRANCH   6  10
TORSDOF 2
ENDMDL
MODEL 2
REMARK VINA RESULT:    -5.235      2.430      3.958
REMARK INTER + INTRA:          -6.058
REMARK INTER:                  -5.846
REMARK INTRA:                  -0.212
REMARK UNBOUND:                -0.210
REMARK SMILES CC(C)c1ccc(C(=O)[O-])cc1
REMARK SMILES IDX 7 1 6 2 11 3 5 4 12 5 4 6 8 7 9 8 10 9 2 10 1 11 3 12
REMARK H PARENT
REMARK Flexibility Score: inf
ROOT
ATOM      1  C   UNL     1       5.098 -37.459  23.485  1.00  0.00    -0.003 A 
ATOM      2  C   UNL     1       4.992 -36.234  22.807  1.00  0.00     0.010 A 
ATOM      3  C   UNL     1       4.990 -38.655  22.752  1.00  0.00     0.010 A 
ATOM      4  C   UNL     1       4.784 -36.203  21.424  1.00  0.00     0.004 A 
ATOM      5  C   UNL     1       4.782 -38.624  21.371  1.00  0.00     0.004 A 
ATOM      6  C   UNL     1       4.676 -37.397  20.691  1.00  0.00    -0.045 A 
ENDROOT
BRANCH   1   7
ATOM      7  C   UNL     1       5.318 -37.488  24.947  1.00  0.00     0.071 C 
ATOM      8  O   UNL     1       6.123 -36.684  25.490  1.00  0.00    -0.545 OA
ATOM      9  O   UNL     1       4.639 -38.402  25.744  1.00  0.00    -0.545 OA
ENDBRANCH   1   7
BRANCH   6  10
ATOM     10  C   UNL     1       4.449 -37.348  19.191  1.00  0.00     0.013 C 
ATOM     11  C   UNL     1       4.609 -35.920  18.655  1.00  0.00     0.012 C 
ATOM     12  C   UNL     1       3.079 -37.926  18.820  1.00  0.00     0.012 C 
ENDBRANCH   6  10
TORSDOF 2
ENDMDL
MODEL 3
REMARK VINA RESULT:    -5.199      2.796      5.751
REMARK INTER + INTRA:          -6.018
REMARK INTER:                  -5.804
REMARK INTRA:                  -0.214
REMARK UNBOUND:                -0.210
REMARK SMILES CC(C)c1ccc(C(=O)[O-])cc1
REMARK SMILES IDX 7 1 6 2 11 3 5 4 12 5 4 6 8 7 9 8 10 9 2 10 1 11 3 12
REMARK H PARENT
REMARK Flexibility Score: inf
ROOT
ATOM      1  C   UNL     1       3.808 -37.554  19.960  1.00  0.00    -0.003 A 
ATOM      2  C   UNL     1       4.145 -36.226  20.269  1.00  0.00     0.010 A 
ATOM      3  C   UNL     1       4.204 -38.579  20.836  1.00  0.00     0.010 A 
ATOM      4  C   UNL     1       4.862 -35.928  21.432  1.00  0.00     0.004 A 
ATOM      5  C   UNL     1       4.921 -38.281  21.998  1.00  0.00     0.004 A 
ATOM      6  C   UNL     1       5.259 -36.951  22.309  1.00  0.00    -0.045 A 
ENDROOT
BRANCH   1   7
ATOM      7  C   UNL     1       3.049 -37.865  18.729  1.00  0.00     0.071 C 
ATOM      8  O   UNL     1       3.483 -37.510  17.601  1.00  0.00    -0.545 OA
ATOM      9  O   UNL     1       1.844 -38.555  18.800  1.00  0.00    -0.545 OA
ENDBRANCH   1   7
BRANCH   6  10
ATOM     10  C   UNL     1       6.038 -36.613  23.567  1.00  0.00     0.013 C 
ATOM     11  C   UNL     1       5.442 -37.318  24.791  1.00  0.00     0.012 C 
ATOM     12  C   UNL     1       6.107 -35.097  23.782  1.00  0.00     0.012 C 
ENDBRANCH   6  10
TORSDOF 2
ENDMDL
MODEL 4
REMARK VINA RESULT:    -5.196      2.398      3.692
REMARK INTER + INTRA:          -6.014
REMARK INTER:                  -5.803
REMARK INTRA:                  -0.211
REMARK UNBOUND:                -0.210
REMARK SMILES CC(C)c1ccc(C(=O)[O-])cc1
REMARK SMILES IDX 7 1 6 2 11 3 5 4 12 5 4 6 8 7 9 8 10 9 2 10 1 11 3 12
REMARK H PARENT
REMARK Flexibility Score: inf
ROOT
ATOM      1  C   UNL     1       5.106 -37.404  23.442  1.00  0.00    -0.003 A 
ATOM      2  C   UNL     1       5.002 -38.589  22.695  1.00  0.00     0.010 A 
ATOM      3  C   UNL     1       5.003 -36.169  22.778  1.00  0.00     0.010 A 
ATOM      4  C   UNL     1       4.798 -38.541  21.313  1.00  0.00     0.004 A 
ATOM      5  C   UNL     1       4.799 -36.121  21.397  1.00  0.00     0.004 A 
ATOM      6  C   UNL     1       4.695 -37.308  20.647  1.00  0.00    -0.045 A 
ENDROOT
BRANCH   1   7
ATOM      7  C   UNL     1       5.322 -37.459  24.905  1.00  0.00     0.071 C 
ATOM      8  O   UNL     1       6.124 -36.665  25.464  1.00  0.00    -0.545 OA
ATOM      9  O   UNL     1       4.639 -38.387  25.683  1.00  0.00    -0.545 OA
ENDBRANCH   1   7
BRANCH   6  10
ATOM     10  C   UNL     1       4.474 -37.272  19.146  1.00  0.00     0.013 C 
ATOM     11  C   UNL     1       4.617 -35.846  18.602  1.00  0.00     0.012 C 
ATOM     12  C   UNL     1       3.113 -37.871  18.774  1.00  0.00     0.012 C 
ENDBRANCH   6  10
TORSDOF 2
ENDMDL
MODEL 5
REMARK VINA RESULT:    -5.192      2.785      5.583
REMARK INTER + INTRA:          -6.009
REMARK INTER:                  -5.795
REMARK INTRA:                  -0.214
REMARK UNBOUND:                -0.210
REMARK SMILES CC(C)c1ccc(C(=O)[O-])cc1
REMARK SMILES IDX 7 1 6 2 11 3 5 4 12 5 4 6 8 7 9 8 10 9 2 10 1 11 3 12
REMARK H PARENT
REMARK Flexibility Score: inf
ROOT
ATOM      1  C   UNL     1       3.840 -37.607  19.908  1.00  0.00    -0.003 A 
ATOM      2  C   UNL     1       4.206 -38.623  20.807  1.00  0.00     0.010 A 
ATOM      3  C   UNL     1       4.222 -36.283  20.185  1.00  0.00     0.010 A 
ATOM      4  C   UNL     1       4.939 -38.322  21.959  1.00  0.00     0.004 A 
ATOM      5  C   UNL     1       4.954 -35.982  21.337  1.00  0.00     0.004 A 
ATOM      6  C   UNL     1       5.321 -36.999  22.237  1.00  0.00    -0.045 A 
ENDROOT
BRANCH   1   7
ATOM      7  C   UNL     1       3.065 -37.930  18.690  1.00  0.00     0.071 C 
ATOM      8  O   UNL     1       3.483 -37.583  17.554  1.00  0.00    -0.545 OA
ATOM      9  O   UNL     1       1.863 -38.622  18.784  1.00  0.00    -0.545 OA
ENDBRANCH   1   7
BRANCH   6  10
ATOM     10  C   UNL     1       6.116 -36.687  23.492  1.00  0.00     0.013 C 
ATOM     11  C   UNL     1       5.584 -37.477  24.693  1.00  0.00     0.012 C 
ATOM     12  C   UNL     1       6.125 -35.181  23.781  1.00  0.00     0.012 C 
ENDBRANCH   6  10
TORSDOF 2
ENDMDL
MODEL 6
REMARK VINA RESULT:    -5.121      2.791      6.015
REMARK INTER + INTRA:          -5.930
REMARK INTER:                  -5.717
REMARK INTRA:                  -0.214
REMARK UNBOUND:                -0.210
REMARK SMILES CC(C)c1ccc(C(=O)[O-])cc1
REMARK SMILES IDX 7 1 6 2 11 3 5 4 12 5 4 6 8 7 9 8 10 9 2 10 1 11 3 12
REMARK H PARENT
REMARK Flexibility Score: inf
ROOT
ATOM      1  C   UNL     1       4.476 -37.277  20.454  1.00  0.00    -0.003 A 
ATOM      2  C   UNL     1       4.700 -38.517  21.075  1.00  0.00     0.010 A 
ATOM      3  C   UNL     1       4.664 -36.099  21.199  1.00  0.00     0.010 A 
ATOM      4  C   UNL     1       5.105 -38.580  22.412  1.00  0.00     0.004 A 
ATOM      5  C   UNL     1       5.068 -36.162  22.535  1.00  0.00     0.004 A 
ATOM      6  C   UNL     1       5.293 -37.404  23.158  1.00  0.00    -0.045 A 
ENDROOT
BRANCH   1   7
ATOM      7  C   UNL     1       4.048 -37.215  19.040  1.00  0.00     0.071 C 
ATOM      8  O   UNL     1       3.496 -38.207  18.493  1.00  0.00    -0.545 OA
ATOM      9  O   UNL     1       4.250 -36.060  18.293  1.00  0.00    -0.545 OA
ENDBRANCH   1   7
BRANCH   6  10
ATOM     10  C   UNL     1       5.731 -37.487  24.608  1.00  0.00     0.013 C 
ATOM     11  C   UNL     1       4.644 -38.129  25.477  1.00  0.00     0.012 C 
ATOM     12  C   UNL     1       6.125 -36.107  25.146  1.00  0.00     0.012 C 
ENDBRANCH   6  10
TORSDOF 2
ENDMDL
MODEL 7
REMARK VINA RESULT:    -5.073      3.079      5.069
REMARK INTER + INTRA:          -5.877
REMARK INTER:                  -5.669
REMARK INTRA:                  -0.208
REMARK UNBOUND:                -0.210
REMARK SMILES CC(C)c1ccc(C(=O)[O-])cc1
REMARK SMILES IDX 7 1 6 2 11 3 5 4 12 5 4 6 8 7 9 8 10 9 2 10 1 11 3 12
REMARK H PARENT
REMARK Flexibility Score: inf
ROOT
ATOM      1  C   UNL     1       3.205 -36.985  17.387  1.00  0.00    -0.003 A 
ATOM      2  C   UNL     1       2.974 -38.055  18.267  1.00  0.00     0.010 A 
ATOM      3  C   UNL     1       4.083 -35.959  17.779  1.00  0.00     0.010 A 
ATOM      4  C   UNL     1       3.607 -38.099  19.513  1.00  0.00     0.004 A 
ATOM      5  C   UNL     1       4.715 -36.003  19.024  1.00  0.00     0.004 A 
ATOM      6  C   UNL     1       4.484 -37.074  19.906  1.00  0.00    -0.045 A 
ENDROOT
BRANCH   1   7
ATOM      7  C   UNL     1       2.533 -36.942  16.070  1.00  0.00     0.071 C 
ATOM      8  O   UNL     1       1.333 -36.572  15.974  1.00  0.00    -0.545 OA
ATOM      9  O   UNL     1       3.219 -37.308  14.918  1.00  0.00    -0.545 OA
ENDBRANCH   1   7
BRANCH   6  10
ATOM     10  C   UNL     1       5.164 -37.136  21.262  1.00  0.00     0.013 C 
ATOM     11  C   UNL     1       4.896 -38.478  21.953  1.00  0.00     0.012 C 
ATOM     12  C   UNL     1       4.734 -35.962  22.149  1.00  0.00     0.012 C 
ENDBRANCH   6  10
TORSDOF 2
ENDMDL
MODEL 8
REMARK VINA RESULT:    -4.719      0.578      2.035
REMARK INTER + INTRA:          -5.481
REMARK INTER:                  -5.270
REMARK INTRA:                  -0.211
REMARK UNBOUND:                -0.210
REMARK SMILES CC(C)c1ccc(C(=O)[O-])cc1
REMARK SMILES IDX 7 1 6 2 11 3 5 4 12 5 4 6 8 7 9 8 10 9 2 10 1 11 3 12
REMARK H PARENT
REMARK Flexibility Score: inf
ROOT
ATOM      1  C   UNL     1       4.537 -36.995  20.075  1.00  0.00    -0.003 A 
ATOM      2  C   UNL     1       4.649 -36.124  18.978  1.00  0.00     0.010 A 
ATOM      3  C   UNL     1       3.689 -38.112  19.974  1.00  0.00     0.010 A 
ATOM      4  C   UNL     1       3.928 -36.365  17.804  1.00  0.00     0.004 A 
ATOM      5  C   UNL     1       2.968 -38.351  18.801  1.00  0.00     0.004 A 
ATOM      6  C   UNL     1       3.079 -37.480  17.702  1.00  0.00    -0.045 A 
ENDROOT
BRANCH   1   7
ATOM      7  C   UNL     1       5.302 -36.737  21.314  1.00  0.00     0.071 C 
ATOM      8  O   UNL     1       5.219 -37.525  22.294  1.00  0.00    -0.545 OA
ATOM      9  O   UNL     1       6.125 -35.621  21.415  1.00  0.00    -0.545 OA
ENDBRANCH   1   7
BRANCH   6  10
ATOM     10  C   UNL     1       2.303 -37.728  16.422  1.00  0.00     0.013 C 
ATOM     11  C   UNL     1       3.232 -38.188  15.293  1.00  0.00     0.012 C 
ATOM     12  C   UNL     1       1.507 -36.484  16.010  1.00  0.00     0.012 C 
ENDBRANCH   6  10
TORSDOF 2
ENDMDL
MODEL 9
REMARK VINA RESULT:    -4.539      1.393      2.379
REMARK INTER + INTRA:          -5.281
REMARK INTER:                  -5.064
REMARK INTRA:                  -0.217
REMARK UNBOUND:                -0.210
REMARK SMILES CC(C)c1ccc(C(=O)[O-])cc1
REMARK SMILES IDX 7 1 6 2 11 3 5 4 12 5 4 6 8 7 9 8 10 9 2 10 1 11 3 12
REMARK H PARENT
REMARK Flexibility Score: inf
ROOT
ATOM      1  C   UNL     1       4.980 -37.165  21.817  1.00  0.00    -0.003 A 
ATOM      2  C   UNL     1       4.359 -38.395  21.546  1.00  0.00     0.010 A 
ATOM      3  C   UNL     1       4.994 -36.174  20.819  1.00  0.00     0.010 A 
ATOM      4  C   UNL     1       3.764 -38.632  20.303  1.00  0.00     0.004 A 
ATOM      5  C   UNL     1       4.400 -36.411  19.577  1.00  0.00     0.004 A 
ATOM      6  C   UNL     1       3.778 -37.643  19.304  1.00  0.00    -0.045 A 
ENDROOT
BRANCH   1   7
ATOM      7  C   UNL     1       5.608 -36.918  23.134  1.00  0.00     0.071 C 
ATOM      8  O   UNL     1       5.684 -37.839  23.990  1.00  0.00    -0.545 OA
ATOM      9  O   UNL     1       6.125 -35.665  23.444  1.00  0.00    -0.545 OA
ENDBRANCH   1   7
BRANCH   6  10
ATOM     10  C   UNL     1       3.129 -37.915  17.960  1.00  0.00     0.013 C 
ATOM     11  C   UNL     1       3.334 -36.737  17.000  1.00  0.00     0.012 C 
ATOM     12  C   UNL     1       1.640 -38.242  18.122  1.00  0.00     0.012 C 
ENDBRANCH   6  10
TORSDOF 2
ENDMDL
