MODEL 1
REMARK VINA RESULT:    -3.057      0.000      0.000
REMARK INTER + INTRA:          -3.966
REMARK INTER:                  -3.682
REMARK INTRA:                  -0.284
REMARK UNBOUND:                -0.284
REMARK SMILES NC(=O)C[C@@H]([NH3+])C(=O)[O-]
REMARK SMILES IDX 4 1 5 2 6 3 7 7 8 8 9 9 2 10 3 11 1 12
REMARK H PARENT 6 4 6 5 6 6 1 13 1 14
REMARK Flexibility Score: inf
ROOT
ATOM      1  C   UNL     1      -6.488  -2.137  -0.260  1.00  0.00     0.171 C 
ENDROOT
BRANCH   1   2
ATOM      2  C   UNL     1      -6.793  -2.539   1.200  1.00  0.00     0.237 C 
BRANCH   2   3
ATOM      3  N   UNL     1      -5.592  -3.020   1.895  1.00  0.00    -0.350 N 
ATOM      4  H   UNL     1      -5.698  -2.878   2.927  1.00  0.00     0.345 HD
ATOM      5  H   UNL     1      -5.422  -4.034   1.706  1.00  0.00     0.345 HD
ATOM      6  H   UNL     1      -4.760  -2.472   1.575  1.00  0.00     0.345 HD
ENDBRANCH   2   3
BRANCH   2   7
ATOM      7  C   UNL     1      -7.446  -1.411   1.957  1.00  0.00     0.100 C 
ATOM      8  O   UNL     1      -7.053  -1.124   3.119  1.00  0.00    -0.544 OA
ATOM      9  O   UNL     1      -8.514  -0.712   1.407  1.00  0.00    -0.544 OA
ENDBRANCH   2   7
ENDBRANCH   1   2
BRANCH   1  10
ATOM     10  C   UNL     1      -5.173  -2.669  -0.759  1.00  0.00     0.223 C 
ATOM     11  O   UNL     1      -5.021  -3.909  -0.924  1.00  0.00    -0.275 OA
ATOM     12  N   UNL     1      -4.100  -1.779  -1.067  1.00  0.00    -0.369 N 
ATOM     13  H   UNL     1      -3.192  -2.152  -1.423  1.00  0.00     0.159 HD
ATOM     14  H   UNL     1      -4.211  -0.748  -0.944  1.00  0.00     0.159 HD
ENDBRANCH   1  10
TORSDOF 4
ENDMDL
MODEL 2
REMARK VINA RESULT:    -3.043      1.849      1.891
REMARK INTER + INTRA:          -3.949
REMARK INTER:                  -3.546
REMARK INTRA:                  -0.403
REMARK UNBOUND:                -0.284
REMARK SMILES NC(=O)C[C@@H]([NH3+])C(=O)[O-]
REMARK SMILES IDX 4 1 5 2 6 3 7 7 8 8 9 9 2 10 3 11 1 12
REMARK H PARENT 6 4 6 5 6 6 1 13 1 14
REMARK Flexibility Score: inf
ROOT
ATOM      1  C   UNL     1      -6.562  -3.977   1.162  1.00  0.00     0.171 C 
ENDROOT
BRANCH   1   2
ATOM      2  C   UNL     1      -7.410  -3.302   2.262  1.00  0.00     0.237 C 
BRANCH   2   3
ATOM      3  N   UNL     1      -7.032  -3.767   3.603  1.00  0.00    -0.350 N 
ATOM      4  H   UNL     1      -7.820  -3.601   4.272  1.00  0.00     0.345 HD
ATOM      5  H   UNL     1      -6.794  -4.785   3.600  1.00  0.00     0.345 HD
ATOM      6  H   UNL     1      -6.201  -3.227   3.939  1.00  0.00     0.345 HD
ENDBRANCH   2   3
BRANCH   2   7
ATOM      7  C   UNL     1      -7.340  -1.799   2.167  1.00  0.00     0.100 C 
ATOM      8  O   UNL     1      -7.081  -1.116   3.193  1.00  0.00    -0.544 OA
ATOM      9  O   UNL     1      -7.609  -1.152   0.966  1.00  0.00    -0.544 OA
ENDBRANCH   2   7
ENDBRANCH   1   2
BRANCH   1  10
ATOM     10  C   UNL     1      -5.112  -3.579   1.203  1.00  0.00     0.223 C 
ATOM     11  O   UNL     1      -4.416  -3.851   2.218  1.00  0.00    -0.275 OA
ATOM     12  N   UNL     1      -4.511  -2.911   0.093  1.00  0.00    -0.369 N 
ATOM     13  H   UNL     1      -3.502  -2.645   0.122  1.00  0.00     0.159 HD
ATOM     14  H   UNL     1      -5.071  -2.684  -0.759  1.00  0.00     0.159 HD
ENDBRANCH   1  10
TORSDOF 4
ENDMDL
MODEL 3
REMARK VINA RESULT:    -2.998      2.091      3.950
REMARK INTER + INTRA:          -3.896
REMARK INTER:                  -3.563
REMARK INTRA:                  -0.332
REMARK UNBOUND:                -0.284
REMARK SMILES NC(=O)C[C@@H]([NH3+])C(=O)[O-]
REMARK SMILES IDX 4 1 5 2 6 3 7 7 8 8 9 9 2 10 3 11 1 12
REMARK H PARENT 6 4 6 5 6 6 1 13 1 14
REMARK Flexibility Score: inf
ROOT
ATOM      1  C   UNL     1      -7.098  -3.183   1.454  1.00  0.00     0.171 C 
ENDROOT
BRANCH   1   2
ATOM      2  C   UNL     1      -5.901  -3.226   0.479  1.00  0.00     0.237 C 
BRANCH   2   3
ATOM      3  N   UNL     1      -5.611  -1.902  -0.088  1.00  0.00    -0.350 N 
ATOM      4  H   UNL     1      -6.507  -1.397  -0.286  1.00  0.00     0.345 HD
ATOM      5  H   UNL     1      -5.033  -1.327   0.566  1.00  0.00     0.345 HD
ATOM      6  H   UNL     1      -5.093  -2.013  -0.989  1.00  0.00     0.345 HD
ENDBRANCH   2   3
BRANCH   2   7
ATOM      7  C   UNL     1      -4.679  -3.817   1.134  1.00  0.00     0.100 C 
ATOM      8  O   UNL     1      -4.524  -3.718   2.381  1.00  0.00    -0.544 OA
ATOM      9  O   UNL     1      -3.690  -4.428   0.371  1.00  0.00    -0.544 OA
ENDBRANCH   2   7
ENDBRANCH   1   2
BRANCH   1  10
ATOM     10  C   UNL     1      -7.514  -1.784   1.820  1.00  0.00     0.223 C 
ATOM     11  O   UNL     1      -6.838  -1.128   2.658  1.00  0.00    -0.275 OA
ATOM     12  N   UNL     1      -8.659  -1.186   1.212  1.00  0.00    -0.369 N 
ATOM     13  H   UNL     1      -8.939  -0.212   1.462  1.00  0.00     0.159 HD
ATOM     14  H   UNL     1      -9.227  -1.712   0.511  1.00  0.00     0.159 HD
ENDBRANCH   1  10
TORSDOF 4
ENDMDL
MODEL 4
REMARK VINA RESULT:    -2.749      1.417      1.987
REMARK INTER + INTRA:          -3.595
REMARK INTER:                  -3.077
REMARK INTRA:                  -0.518
REMARK UNBOUND:                -0.284
REMARK SMILES NC(=O)C[C@@H]([NH3+])C(=O)[O-]
REMARK SMILES IDX 4 1 5 2 6 3 7 7 8 8 9 9 2 10 3 11 1 12
REMARK H PARENT 6 4 6 5 6 6 1 13 1 14
REMARK Flexibility Score: inf
ROOT
ATOM      1  C   UNL     1      -6.403  -2.215   0.076  1.00  0.00     0.171 C 
ENDROOT
BRANCH   1   2
ATOM      2  C   UNL     1      -7.840  -2.161   0.640  1.00  0.00     0.237 C 
BRANCH   2   3
ATOM      3  N   UNL     1      -8.333  -3.496   1.002  1.00  0.00    -0.350 N 
ATOM      4  H   UNL     1      -8.496  -4.062   0.136  1.00  0.00     0.345 HD
ATOM      5  H   UNL     1      -7.653  -3.999   1.616  1.00  0.00     0.345 HD
ATOM      6  H   UNL     1      -9.244  -3.407   1.509  1.00  0.00     0.345 HD
ENDBRANCH   2   3
BRANCH   2   7
ATOM      7  C   UNL     1      -7.938  -1.210   1.805  1.00  0.00     0.100 C 
ATOM      8  O   UNL     1      -8.908  -0.410   1.883  1.00  0.00    -0.544 OA
ATOM      9  O   UNL     1      -6.941  -1.168   2.772  1.00  0.00    -0.544 OA
ENDBRANCH   2   7
ENDBRANCH   1   2
BRANCH   1  10
ATOM     10  C   UNL     1      -5.622  -3.408   0.557  1.00  0.00     0.223 C 
ATOM     11  O   UNL     1      -5.596  -4.461  -0.135  1.00  0.00    -0.275 OA
ATOM     12  N   UNL     1      -4.893  -3.350   1.784  1.00  0.00    -0.369 N 
ATOM     13  H   UNL     1      -4.344  -4.177   2.109  1.00  0.00     0.159 HD
ATOM     14  H   UNL     1      -4.896  -2.483   2.366  1.00  0.00     0.159 HD
ENDBRANCH   1  10
TORSDOF 4
ENDMDL
MODEL 5
REMARK VINA RESULT:    -2.735      9.283     10.401
REMARK INTER + INTRA:          -3.578
REMARK INTER:                  -3.282
REMARK INTRA:                  -0.297
REMARK UNBOUND:                -0.284
REMARK SMILES NC(=O)C[C@@H]([NH3+])C(=O)[O-]
REMARK SMILES IDX 4 1 5 2 6 3 7 7 8 8 9 9 2 10 3 11 1 12
REMARK H PARENT 6 4 6 5 6 6 1 13 1 14
REMARK Flexibility Score: inf
ROOT
ATOM      1  C   UNL     1      -5.466   7.176   4.986  1.00  0.00     0.171 C 
ENDROOT
BRANCH   1   2
ATOM      2  C   UNL     1      -4.001   6.779   5.272  1.00  0.00     0.237 C 
BRANCH   2   3
ATOM      3  N   UNL     1      -3.797   5.328   5.156  1.00  0.00    -0.350 N 
ATOM      4  H   UNL     1      -4.717   4.852   5.001  1.00  0.00     0.345 HD
ATOM      5  H   UNL     1      -3.155   5.097   4.365  1.00  0.00     0.345 HD
ATOM      6  H   UNL     1      -3.386   4.961   6.045  1.00  0.00     0.345 HD
ENDBRANCH   2   3
BRANCH   2   7
ATOM      7  C   UNL     1      -3.043   7.535   4.386  1.00  0.00     0.100 C 
ATOM      8  O   UNL     1      -3.486   8.273   3.467  1.00  0.00    -0.544 OA
ATOM      9  O   UNL     1      -1.670   7.388   4.540  1.00  0.00    -0.544 OA
ENDBRANCH   2   7
ENDBRANCH   1   2
BRANCH   1  10
ATOM     10  C   UNL     1      -6.411   6.006   4.995  1.00  0.00     0.223 C 
ATOM     11  O   UNL     1      -6.596   5.358   6.060  1.00  0.00    -0.275 OA
ATOM     12  N   UNL     1      -7.115   5.633   3.810  1.00  0.00    -0.369 N 
ATOM     13  H   UNL     1      -7.777   4.826   3.823  1.00  0.00     0.159 HD
ATOM     14  H   UNL     1      -6.980   6.164   2.920  1.00  0.00     0.159 HD
ENDBRANCH   1  10
TORSDOF 4
ENDMDL
MODEL 6
REMARK VINA RESULT:    -2.731      2.512      2.671
REMARK INTER + INTRA:          -3.573
REMARK INTER:                  -3.062
REMARK INTRA:                  -0.511
REMARK UNBOUND:                -0.284
REMARK SMILES NC(=O)C[C@@H]([NH3+])C(=O)[O-]
REMARK SMILES IDX 4 1 5 2 6 3 7 7 8 8 9 9 2 10 3 11 1 12
REMARK H PARENT 6 4 6 5 6 6 1 13 1 14
REMARK Flexibility Score: inf
ROOT
ATOM      1  C   UNL     1      -8.456  -2.801   0.132  1.00  0.00     0.171 C 
ENDROOT
BRANCH   1   2
ATOM      2  C   UNL     1      -7.240  -2.299   0.942  1.00  0.00     0.237 C 
BRANCH   2   3
ATOM      3  N   UNL     1      -6.179  -1.784   0.067  1.00  0.00    -0.350 N 
ATOM      4  H   UNL     1      -6.291  -2.177  -0.897  1.00  0.00     0.345 HD
ATOM      5  H   UNL     1      -6.202  -0.740   0.015  1.00  0.00     0.345 HD
ATOM      6  H   UNL     1      -5.246  -2.083   0.435  1.00  0.00     0.345 HD
ENDBRANCH   2   3
BRANCH   2   7
ATOM      7  C   UNL     1      -7.648  -1.272   1.967  1.00  0.00     0.100 C 
ATOM      8  O   UNL     1      -6.989  -1.152   3.033  1.00  0.00    -0.544 OA
ATOM      9  O   UNL     1      -8.777  -0.485   1.771  1.00  0.00    -0.544 OA
ENDBRANCH   2   7
ENDBRANCH   1   2
BRANCH   1  10
ATOM     10  C   UNL     1      -8.612  -2.109  -1.194  1.00  0.00     0.223 C 
ATOM     11  O   UNL     1      -8.054  -2.585  -2.219  1.00  0.00    -0.275 OA
ATOM     12  N   UNL     1      -9.404  -0.926  -1.305  1.00  0.00    -0.369 N 
ATOM     13  H   UNL     1      -9.518  -0.454  -2.230  1.00  0.00     0.159 HD
ATOM     14  H   UNL     1      -9.880  -0.522  -0.468  1.00  0.00     0.159 HD
ENDBRANCH   1  10
TORSDOF 4
ENDMDL
MODEL 7
REMARK VINA RESULT:    -2.699     11.196     11.718
REMARK INTER + INTRA:          -3.535
REMARK INTER:                  -3.201
REMARK INTRA:                  -0.334
REMARK UNBOUND:                -0.284
REMARK SMILES NC(=O)C[C@@H]([NH3+])C(=O)[O-]
REMARK SMILES IDX 4 1 5 2 6 3 7 7 8 8 9 9 2 10 3 11 1 12
REMARK H PARENT 6 4 6 5 6 6 1 13 1 14
REMARK Flexibility Score: inf
ROOT
ATOM      1  C   UNL     1       4.298   2.956   3.091  1.00  0.00     0.171 C 
ENDROOT
BRANCH   1   2
ATOM      2  C   UNL     1       4.009   4.419   3.492  1.00  0.00     0.237 C 
BRANCH   2   3
ATOM      3  N   UNL     1       3.321   5.152   2.420  1.00  0.00    -0.350 N 
ATOM      4  H   UNL     1       3.645   6.147   2.405  1.00  0.00     0.345 HD
ATOM      5  H   UNL     1       3.503   4.719   1.486  1.00  0.00     0.345 HD
ATOM      6  H   UNL     1       2.290   5.147   2.600  1.00  0.00     0.345 HD
ENDBRANCH   2   3
BRANCH   2   7
ATOM      7  C   UNL     1       3.237   4.494   4.785  1.00  0.00     0.100 C 
ATOM      8  O   UNL     1       2.953   3.437   5.409  1.00  0.00    -0.544 OA
ATOM      9  O   UNL     1       2.790   5.716   5.273  1.00  0.00    -0.544 OA
ENDBRANCH   2   7
ENDBRANCH   1   2
BRANCH   1  10
ATOM     10  C   UNL     1       3.508   2.501   1.895  1.00  0.00     0.223 C 
ATOM     11  O   UNL     1       2.252   2.603   1.897  1.00  0.00    -0.275 OA
ATOM     12  N   UNL     1       4.171   1.972   0.746  1.00  0.00    -0.369 N 
ATOM     13  H   UNL     1       3.620   1.666  -0.086  1.00  0.00     0.159 HD
ATOM     14  H   UNL     1       5.212   1.887   0.724  1.00  0.00     0.159 HD
ENDBRANCH   1  10
TORSDOF 4
ENDMDL
MODEL 8
REMARK VINA RESULT:    -2.693      8.769      9.215
REMARK INTER + INTRA:          -3.527
REMARK INTER:                  -3.243
REMARK INTRA:                  -0.284
REMARK UNBOUND:                -0.284
REMARK SMILES NC(=O)C[C@@H]([NH3+])C(=O)[O-]
REMARK SMILES IDX 4 1 5 2 6 3 7 7 8 8 9 9 2 10 3 11 1 12
REMARK H PARENT 6 4 6 5 6 6 1 13 1 14
REMARK Flexibility Score: inf
ROOT
ATOM      1  C   UNL     1      -5.916   4.325   6.747  1.00  0.00     0.171 C 
ENDROOT
BRANCH   1   2
ATOM      2  C   UNL     1      -6.116   5.555   5.834  1.00  0.00     0.237 C 
BRANCH   2   3
ATOM      3  N   UNL     1      -5.053   5.663   4.825  1.00  0.00    -0.350 N 
ATOM      4  H   UNL     1      -4.735   4.708   4.541  1.00  0.00     0.345 HD
ATOM      5  H   UNL     1      -5.384   6.179   3.979  1.00  0.00     0.345 HD
ATOM      6  H   UNL     1      -4.235   6.172   5.233  1.00  0.00     0.345 HD
ENDBRANCH   2   3
BRANCH   2   7
ATOM      7  C   UNL     1      -7.479   5.546   5.190  1.00  0.00     0.100 C 
ATOM      8  O   UNL     1      -8.508   5.391   5.899  1.00  0.00    -0.544 OA
ATOM      9  O   UNL     1      -7.611   5.657   3.810  1.00  0.00    -0.544 OA
ENDBRANCH   2   7
ENDBRANCH   1   2
BRANCH   1  10
ATOM     10  C   UNL     1      -4.472   4.056   7.072  1.00  0.00     0.223 C 
ATOM     11  O   UNL     1      -3.745   4.986   7.514  1.00  0.00    -0.275 OA
ATOM     12  N   UNL     1      -3.922   2.749   6.902  1.00  0.00    -0.369 N 
ATOM     13  H   UNL     1      -2.922   2.564   7.138  1.00  0.00     0.159 HD
ATOM     14  H   UNL     1      -4.512   1.965   6.544  1.00  0.00     0.159 HD
ENDBRANCH   1  10
TORSDOF 4
ENDMDL
MODEL 9
REMARK VINA RESULT:    -2.679      9.084      9.930
REMARK INTER + INTRA:          -3.511
REMARK INTER:                  -2.994
REMARK INTRA:                  -0.518
REMARK UNBOUND:                -0.284
REMARK SMILES NC(=O)C[C@@H]([NH3+])C(=O)[O-]
REMARK SMILES IDX 4 1 5 2 6 3 7 7 8 8 9 9 2 10 3 11 1 12
REMARK H PARENT 6 4 6 5 6 6 1 13 1 14
REMARK Flexibility Score: inf
ROOT
ATOM      1  C   UNL     1      -3.801   5.862   5.507  1.00  0.00     0.171 C 
ENDROOT
BRANCH   1   2
ATOM      2  C   UNL     1      -3.948   5.398   6.973  1.00  0.00     0.237 C 
BRANCH   2   3
ATOM      3  N   UNL     1      -4.695   6.372   7.781  1.00  0.00    -0.350 N 
ATOM      4  H   UNL     1      -4.055   7.141   8.091  1.00  0.00     0.345 HD
ATOM      5  H   UNL     1      -5.488   6.786   7.240  1.00  0.00     0.345 HD
ATOM      6  H   UNL     1      -5.075   5.901   8.633  1.00  0.00     0.345 HD
ENDBRANCH   2   3
BRANCH   2   7
ATOM      7  C   UNL     1      -4.574   4.029   7.056  1.00  0.00     0.100 C 
ATOM      8  O   UNL     1      -3.863   3.030   7.346  1.00  0.00    -0.544 OA
ATOM      9  O   UNL     1      -5.921   3.847   6.767  1.00  0.00    -0.544 OA
ENDBRANCH   2   7
ENDBRANCH   1   2
BRANCH   1  10
ATOM     10  C   UNL     1      -4.990   6.638   5.009  1.00  0.00     0.223 C 
ATOM     11  O   UNL     1      -4.996   7.895   5.086  1.00  0.00    -0.275 OA
ATOM     12  N   UNL     1      -6.107   5.960   4.430  1.00  0.00    -0.369 N 
ATOM     13  H   UNL     1      -6.926   6.503   4.077  1.00  0.00     0.159 HD
ATOM     14  H   UNL     1      -6.116   4.919   4.352  1.00  0.00     0.159 HD
ENDBRANCH   1  10
TORSDOF 4
ENDMDL
