MODEL 1
REMARK VINA RESULT:    -7.241      0.000      0.000
REMARK INTER + INTRA:          -9.576
REMARK INTER:                  -9.146
REMARK INTRA:                  -0.430
REMARK UNBOUND:                -0.430
REMARK SMILES Oc1cc(O)cc(CCc2ccccc2O)c1
REMARK SMILES IDX 9 1 10 2 12 3 13 4 11 5 14 6 15 7 16 8 8 10 7 11 6 12 17 13
REMARK SMILES IDX 4 14 2 15 3 16 5 17 1 19
REMARK H PARENT 16 9 5 18 1 20
REMARK Flexibility Score: inf
ROOT
ATOM      1  C   UNL     1     -10.765  -0.227  -9.691  1.00  0.00     0.044 C 
ENDROOT
BRANCH   1   2
ATOM      2  C   UNL     1     -11.661   0.978  -9.559  1.00  0.00    -0.006 A 
ATOM      3  C   UNL     1     -13.892   1.944  -9.633  1.00  0.00     0.001 A 
ATOM      4  C   UNL     1     -13.357   3.211  -9.393  1.00  0.00     0.004 A 
ATOM      5  C   UNL     1     -13.050   0.833  -9.721  1.00  0.00     0.007 A 
ATOM      6  C   UNL     1     -11.977   3.371  -9.245  1.00  0.00     0.046 A 
ATOM      7  C   UNL     1     -11.123   2.261  -9.333  1.00  0.00     0.118 A 
BRANCH   7   8
ATOM      8  O   UNL     1      -9.745   2.431  -9.199  1.00  0.00    -0.508 OA
ATOM      9  H   UNL     1      -9.354   3.191  -8.656  1.00  0.00     0.293 HD
ENDBRANCH   7   8
ENDBRANCH   1   2
BRANCH   1  10
ATOM     10  C   UNL     1     -11.572  -1.455 -10.122  1.00  0.00     0.040 C 
BRANCH  10  11
ATOM     11  C   UNL     1     -10.730  -2.699 -10.034  1.00  0.00    -0.040 A 
ATOM     12  C   UNL     1     -11.328  -3.966 -10.125  1.00  0.00     0.050 A 
ATOM     13  C   UNL     1      -9.348  -2.604  -9.804  1.00  0.00     0.050 A 
ATOM     14  C   UNL     1     -10.552  -5.125 -10.010  1.00  0.00     0.119 A 
ATOM     15  C   UNL     1      -8.569  -3.762  -9.688  1.00  0.00     0.119 A 
ATOM     16  C   UNL     1      -9.171  -5.020  -9.795  1.00  0.00     0.092 A 
BRANCH  14  17
ATOM     17  O   UNL     1     -11.162  -6.373 -10.111  1.00  0.00    -0.508 OA
ATOM     18  H   UNL     1     -11.874  -6.669  -9.453  1.00  0.00     0.293 HD
ENDBRANCH  14  17
BRANCH  15  19
ATOM     19  O   UNL     1      -7.195  -3.675  -9.466  1.00  0.00    -0.508 OA
ATOM     20  H   UNL     1      -6.726  -2.780  -9.397  1.00  0.00     0.293 HD
ENDBRANCH  15  19
ENDBRANCH  10  11
ENDBRANCH   1  10
TORSDOF 6
ENDMDL
MODEL 2
REMARK VINA RESULT:    -6.916      0.059      2.036
REMARK INTER + INTRA:          -9.166
REMARK INTER:                  -8.735
REMARK INTRA:                  -0.430
REMARK UNBOUND:                -0.430
REMARK SMILES Oc1cc(O)cc(CCc2ccccc2O)c1
REMARK SMILES IDX 9 1 10 2 12 3 13 4 11 5 14 6 15 7 16 8 8 10 7 11 6 12 17 13
REMARK SMILES IDX 4 14 2 15 3 16 5 17 1 19
REMARK H PARENT 16 9 5 18 1 20
REMARK Flexibility Score: inf
ROOT
ATOM      1  C   UNL     1     -10.736  -0.240  -9.703  1.00  0.00     0.044 C 
ENDROOT
BRANCH   1   2
ATOM      2  C   UNL     1     -11.648   0.951  -9.549  1.00  0.00    -0.006 A 
ATOM      3  C   UNL     1     -13.893   1.885  -9.588  1.00  0.00     0.001 A 
ATOM      4  C   UNL     1     -13.374   3.157  -9.340  1.00  0.00     0.004 A 
ATOM      5  C   UNL     1     -13.037   0.788  -9.698  1.00  0.00     0.007 A 
ATOM      6  C   UNL     1     -11.995   3.336  -9.205  1.00  0.00     0.046 A 
ATOM      7  C   UNL     1     -11.126   2.239  -9.314  1.00  0.00     0.118 A 
BRANCH   7   8
ATOM      8  O   UNL     1      -9.749   2.427  -9.193  1.00  0.00    -0.508 OA
ATOM      9  H   UNL     1      -9.344   2.868  -8.376  1.00  0.00     0.293 HD
ENDBRANCH   7   8
ENDBRANCH   1   2
BRANCH   1  10
ATOM     10  C   UNL     1     -11.533  -1.478 -10.125  1.00  0.00     0.040 C 
BRANCH  10  11
ATOM     11  C   UNL     1     -10.700  -2.722  -9.967  1.00  0.00    -0.040 A 
ATOM     12  C   UNL     1      -9.317  -2.623  -9.747  1.00  0.00     0.050 A 
ATOM     13  C   UNL     1     -11.290  -3.990 -10.094  1.00  0.00     0.050 A 
ATOM     14  C   UNL     1      -8.535  -3.778  -9.633  1.00  0.00     0.119 A 
ATOM     15  C   UNL     1     -10.509  -5.148  -9.981  1.00  0.00     0.119 A 
ATOM     16  C   UNL     1      -9.134  -5.040  -9.747  1.00  0.00     0.092 A 
BRANCH  14  17
ATOM     17  O   UNL     1      -7.166  -3.661  -9.408  1.00  0.00    -0.508 OA
ATOM     18  H   UNL     1      -6.655  -4.355  -8.873  1.00  0.00     0.293 HD
ENDBRANCH  14  17
BRANCH  15  19
ATOM     19  O   UNL     1     -11.089  -6.410 -10.099  1.00  0.00    -0.508 OA
ATOM     20  H   UNL     1     -11.353  -6.788 -11.002  1.00  0.00     0.293 HD
ENDBRANCH  15  19
ENDBRANCH  10  11
ENDBRANCH   1  10
TORSDOF 6
ENDMDL
MODEL 3
REMARK VINA RESULT:    -6.811     17.193     19.066
REMARK INTER + INTRA:          -9.032
REMARK INTER:                  -8.620
REMARK INTRA:                  -0.412
REMARK UNBOUND:                -0.430
REMARK SMILES Oc1cc(O)cc(CCc2ccccc2O)c1
REMARK SMILES IDX 9 1 10 2 12 3 13 4 11 5 14 6 15 7 16 8 8 10 7 11 6 12 17 13
REMARK SMILES IDX 4 14 2 15 3 16 5 17 1 19
REMARK H PARENT 16 9 5 18 1 20
REMARK Flexibility Score: inf
ROOT
ATOM      1  C   UNL     1      -9.492   6.008   6.440  1.00  0.00     0.044 C 
ENDROOT
BRANCH   1   2
ATOM      2  C   UNL     1     -10.540   4.957   6.703  1.00  0.00    -0.006 A 
ATOM      3  C   UNL     1     -12.158   3.355   5.847  1.00  0.00     0.001 A 
ATOM      4  C   UNL     1     -12.548   3.044   7.151  1.00  0.00     0.004 A 
ATOM      5  C   UNL     1     -11.164   4.310   5.622  1.00  0.00     0.007 A 
ATOM      6  C   UNL     1     -11.947   3.691   8.234  1.00  0.00     0.046 A 
ATOM      7  C   UNL     1     -10.948   4.652   8.018  1.00  0.00     0.118 A 
BRANCH   7   8
ATOM      8  O   UNL     1     -10.362   5.304   9.104  1.00  0.00    -0.508 OA
ATOM      9  H   UNL     1     -10.359   6.314   9.177  1.00  0.00     0.293 HD
ENDBRANCH   7   8
ENDBRANCH   1   2
BRANCH   1  10
ATOM     10  C   UNL     1      -9.967   6.983   5.358  1.00  0.00     0.040 C 
BRANCH  10  11
ATOM     11  C   UNL     1      -9.285   8.317   5.512  1.00  0.00    -0.040 A 
ATOM     12  C   UNL     1      -9.953   9.498   5.153  1.00  0.00     0.050 A 
ATOM     13  C   UNL     1      -7.957   8.385   5.962  1.00  0.00     0.050 A 
ATOM     14  C   UNL     1      -9.311  10.736   5.264  1.00  0.00     0.119 A 
ATOM     15  C   UNL     1      -7.310   9.623   6.073  1.00  0.00     0.119 A 
ATOM     16  C   UNL     1      -7.989  10.796   5.728  1.00  0.00     0.092 A 
BRANCH  14  17
ATOM     17  O   UNL     1      -9.992  11.898   4.910  1.00  0.00    -0.508 OA
ATOM     18  H   UNL     1      -9.710  12.455   4.111  1.00  0.00     0.293 HD
ENDBRANCH  14  17
BRANCH  15  19
ATOM     19  O   UNL     1      -5.994   9.699   6.525  1.00  0.00    -0.508 OA
ATOM     20  H   UNL     1      -5.214   9.454   5.927  1.00  0.00     0.293 HD
ENDBRANCH  15  19
ENDBRANCH  10  11
ENDBRANCH   1  10
TORSDOF 6
ENDMDL
MODEL 4
REMARK VINA RESULT:    -6.783     17.161     19.105
REMARK INTER + INTRA:          -8.998
REMARK INTER:                  -8.583
REMARK INTRA:                  -0.415
REMARK UNBOUND:                -0.430
REMARK SMILES Oc1cc(O)cc(CCc2ccccc2O)c1
REMARK SMILES IDX 9 1 10 2 12 3 13 4 11 5 14 6 15 7 16 8 8 10 7 11 6 12 17 13
REMARK SMILES IDX 4 14 2 15 3 16 5 17 1 19
REMARK H PARENT 16 9 5 18 1 20
REMARK Flexibility Score: inf
ROOT
ATOM      1  C   UNL     1      -9.516   6.105   6.455  1.00  0.00     0.044 C 
ENDROOT
BRANCH   1   2
ATOM      2  C   UNL     1     -10.552   5.033   6.680  1.00  0.00    -0.006 A 
ATOM      3  C   UNL     1     -12.134   3.427   5.767  1.00  0.00     0.001 A 
ATOM      4  C   UNL     1     -12.538   3.083   7.058  1.00  0.00     0.004 A 
ATOM      5  C   UNL     1     -11.151   4.400   5.577  1.00  0.00     0.007 A 
ATOM      6  C   UNL     1     -11.963   3.715   8.163  1.00  0.00     0.046 A 
ATOM      7  C   UNL     1     -10.975   4.695   7.982  1.00  0.00     0.118 A 
BRANCH   7   8
ATOM      8  O   UNL     1     -10.415   5.332   9.090  1.00  0.00    -0.508 OA
ATOM      9  H   UNL     1      -9.413   5.356   9.238  1.00  0.00     0.293 HD
ENDBRANCH   7   8
ENDBRANCH   1   2
BRANCH   1  10
ATOM     10  C   UNL     1      -9.932   7.023   5.302  1.00  0.00     0.040 C 
BRANCH  10  11
ATOM     11  C   UNL     1      -9.247   8.358   5.416  1.00  0.00    -0.040 A 
ATOM     12  C   UNL     1      -7.927   8.438   5.889  1.00  0.00     0.050 A 
ATOM     13  C   UNL     1      -9.940   9.539   5.104  1.00  0.00     0.050 A 
ATOM     14  C   UNL     1      -7.299   9.680   6.027  1.00  0.00     0.119 A 
ATOM     15  C   UNL     1      -9.314  10.784   5.243  1.00  0.00     0.119 A 
ATOM     16  C   UNL     1      -7.994  10.853   5.700  1.00  0.00     0.092 A 
BRANCH  14  17
ATOM     17  O   UNL     1      -5.987   9.739   6.491  1.00  0.00    -0.508 OA
ATOM     18  H   UNL     1      -5.772  10.037   7.436  1.00  0.00     0.293 HD
ENDBRANCH  14  17
BRANCH  15  19
ATOM     19  O   UNL     1      -9.994  11.960   4.929  1.00  0.00    -0.508 OA
ATOM     20  H   UNL     1     -10.706  11.983   4.208  1.00  0.00     0.293 HD
ENDBRANCH  15  19
ENDBRANCH  10  11
ENDBRANCH   1  10
TORSDOF 6
ENDMDL
MODEL 5
REMARK VINA RESULT:    -6.641     15.827     17.542
REMARK INTER + INTRA:          -8.817
REMARK INTER:                  -8.418
REMARK INTRA:                  -0.400
REMARK UNBOUND:                -0.430
REMARK SMILES Oc1cc(O)cc(CCc2ccccc2O)c1
REMARK SMILES IDX 9 1 10 2 12 3 13 4 11 5 14 6 15 7 16 8 8 10 7 11 6 12 17 13
REMARK SMILES IDX 4 14 2 15 3 16 5 17 1 19
REMARK H PARENT 16 9 5 18 1 20
REMARK Flexibility Score: inf
ROOT
ATOM      1  C   UNL     1      -9.459   6.950   5.028  1.00  0.00     0.044 C 
ENDROOT
BRANCH   1   2
ATOM      2  C   UNL     1      -9.318   8.425   5.308  1.00  0.00    -0.006 A 
ATOM      3  C   UNL     1      -7.890  10.372   5.596  1.00  0.00     0.001 A 
ATOM      4  C   UNL     1      -9.007  11.154   5.894  1.00  0.00     0.004 A 
ATOM      5  C   UNL     1      -8.041   9.014   5.310  1.00  0.00     0.007 A 
ATOM      6  C   UNL     1     -10.280  10.578   5.910  1.00  0.00     0.046 A 
ATOM      7  C   UNL     1     -10.442   9.214   5.624  1.00  0.00     0.118 A 
BRANCH   7   8
ATOM      8  O   UNL     1     -11.715   8.642   5.657  1.00  0.00    -0.508 OA
ATOM      9  H   UNL     1     -12.230   8.446   4.808  1.00  0.00     0.293 HD
ENDBRANCH   7   8
ENDBRANCH   1   2
BRANCH   1  10
ATOM     10  C   UNL     1      -9.559   6.161   6.337  1.00  0.00     0.040 C 
BRANCH  10  11
ATOM     11  C   UNL     1     -10.457   4.965   6.167  1.00  0.00    -0.040 A 
ATOM     12  C   UNL     1     -10.777   4.158   7.270  1.00  0.00     0.050 A 
ATOM     13  C   UNL     1     -10.935   4.614   4.894  1.00  0.00     0.050 A 
ATOM     14  C   UNL     1     -11.584   3.027   7.109  1.00  0.00     0.119 A 
ATOM     15  C   UNL     1     -11.743   3.482   4.729  1.00  0.00     0.119 A 
ATOM     16  C   UNL     1     -12.069   2.692   5.837  1.00  0.00     0.092 A 
BRANCH  14  17
ATOM     17  O   UNL     1     -11.898   2.242   8.216  1.00  0.00    -0.508 OA
ATOM     18  H   UNL     1     -12.707   1.631   8.220  1.00  0.00     0.293 HD
ENDBRANCH  14  17
BRANCH  15  19
ATOM     19  O   UNL     1     -12.227   3.132   3.470  1.00  0.00    -0.508 OA
ATOM     20  H   UNL     1     -12.839   3.748   2.948  1.00  0.00     0.293 HD
ENDBRANCH  15  19
ENDBRANCH  10  11
ENDBRANCH   1  10
TORSDOF 6
ENDMDL
MODEL 6
REMARK VINA RESULT:    -6.596     15.908     17.613
REMARK INTER + INTRA:          -8.761
REMARK INTER:                  -8.348
REMARK INTRA:                  -0.413
REMARK UNBOUND:                -0.430
REMARK SMILES Oc1cc(O)cc(CCc2ccccc2O)c1
REMARK SMILES IDX 9 1 10 2 12 3 13 4 11 5 14 6 15 7 16 8 8 10 7 11 6 12 17 13
REMARK SMILES IDX 4 14 2 15 3 16 5 17 1 19
REMARK H PARENT 16 9 5 18 1 20
REMARK Flexibility Score: inf
ROOT
ATOM      1  C   UNL     1      -9.689   7.111   5.124  1.00  0.00     0.044 C 
ENDROOT
BRANCH   1   2
ATOM      2  C   UNL     1      -9.207   8.497   5.474  1.00  0.00    -0.006 A 
ATOM      3  C   UNL     1      -7.450   9.949   6.321  1.00  0.00     0.001 A 
ATOM      4  C   UNL     1      -8.298  11.052   6.204  1.00  0.00     0.004 A 
ATOM      5  C   UNL     1      -7.902   8.677   5.964  1.00  0.00     0.007 A 
ATOM      6  C   UNL     1      -9.603  10.885   5.733  1.00  0.00     0.046 A 
ATOM      7  C   UNL     1     -10.066   9.610   5.372  1.00  0.00     0.118 A 
BRANCH   7   8
ATOM      8  O   UNL     1     -11.375   9.448   4.916  1.00  0.00    -0.508 OA
ATOM      9  H   UNL     1     -11.574   9.156   3.967  1.00  0.00     0.293 HD
ENDBRANCH   7   8
ENDBRANCH   1   2
BRANCH   1  10
ATOM     10  C   UNL     1      -9.530   6.168   6.320  1.00  0.00     0.040 C 
BRANCH  10  11
ATOM     11  C   UNL     1     -10.389   4.943   6.145  1.00  0.00    -0.040 A 
ATOM     12  C   UNL     1     -10.902   4.615   4.880  1.00  0.00     0.050 A 
ATOM     13  C   UNL     1     -10.730   4.154   7.254  1.00  0.00     0.050 A 
ATOM     14  C   UNL     1     -11.727   3.497   4.720  1.00  0.00     0.119 A 
ATOM     15  C   UNL     1     -11.557   3.034   7.097  1.00  0.00     0.119 A 
ATOM     16  C   UNL     1     -12.051   2.705   5.830  1.00  0.00     0.092 A 
BRANCH  14  17
ATOM     17  O   UNL     1     -12.220   3.181   3.456  1.00  0.00    -0.508 OA
ATOM     18  H   UNL     1     -12.525   3.902   2.811  1.00  0.00     0.293 HD
ENDBRANCH  14  17
BRANCH  15  19
ATOM     19  O   UNL     1     -11.895   2.241   8.192  1.00  0.00    -0.508 OA
ATOM     20  H   UNL     1     -12.396   1.367   8.079  1.00  0.00     0.293 HD
ENDBRANCH  15  19
ENDBRANCH  10  11
ENDBRANCH   1  10
TORSDOF 6
ENDMDL
MODEL 7
REMARK VINA RESULT:    -6.549     16.852     19.005
REMARK INTER + INTRA:          -8.702
REMARK INTER:                  -8.270
REMARK INTRA:                  -0.431
REMARK UNBOUND:                -0.430
REMARK SMILES Oc1cc(O)cc(CCc2ccccc2O)c1
REMARK SMILES IDX 9 1 10 2 12 3 13 4 11 5 14 6 15 7 16 8 8 10 7 11 6 12 17 13
REMARK SMILES IDX 4 14 2 15 3 16 5 17 1 19
REMARK H PARENT 16 9 5 18 1 20
REMARK Flexibility Score: inf
ROOT
ATOM      1  C   UNL     1      -9.670   5.837   6.237  1.00  0.00     0.044 C 
ENDROOT
BRANCH   1   2
ATOM      2  C   UNL     1     -10.567   4.860   6.955  1.00  0.00    -0.006 A 
ATOM      3  C   UNL     1     -11.580   4.082   9.024  1.00  0.00     0.001 A 
ATOM      4  C   UNL     1     -12.172   3.019   8.340  1.00  0.00     0.004 A 
ATOM      5  C   UNL     1     -10.777   4.996   8.338  1.00  0.00     0.007 A 
ATOM      6  C   UNL     1     -11.959   2.864   6.968  1.00  0.00     0.046 A 
ATOM      7  C   UNL     1     -11.153   3.776   6.271  1.00  0.00     0.118 A 
BRANCH   7   8
ATOM      8  O   UNL     1     -10.932   3.607   4.903  1.00  0.00    -0.508 OA
ATOM      9  H   UNL     1     -10.490   4.326   4.344  1.00  0.00     0.293 HD
ENDBRANCH   7   8
ENDBRANCH   1   2
BRANCH   1  10
ATOM     10  C   UNL     1     -10.496   6.963   5.606  1.00  0.00     0.040 C 
BRANCH  10  11
ATOM     11  C   UNL     1      -9.685   8.229   5.520  1.00  0.00    -0.040 A 
ATOM     12  C   UNL     1      -8.386   8.274   6.052  1.00  0.00     0.050 A 
ATOM     13  C   UNL     1     -10.241   9.389   4.960  1.00  0.00     0.050 A 
ATOM     14  C   UNL     1      -7.643   9.458   6.003  1.00  0.00     0.119 A 
ATOM     15  C   UNL     1      -9.500  10.577   4.911  1.00  0.00     0.119 A 
ATOM     16  C   UNL     1      -8.200  10.608   5.428  1.00  0.00     0.092 A 
BRANCH  14  17
ATOM     17  O   UNL     1      -6.353   9.481   6.528  1.00  0.00    -0.508 OA
ATOM     18  H   UNL     1      -6.111  10.077   7.312  1.00  0.00     0.293 HD
ENDBRANCH  14  17
BRANCH  15  19
ATOM     19  O   UNL     1     -10.043  11.731   4.350  1.00  0.00    -0.508 OA
ATOM     20  H   UNL     1      -9.839  12.649   4.727  1.00  0.00     0.293 HD
ENDBRANCH  15  19
ENDBRANCH  10  11
ENDBRANCH   1  10
TORSDOF 6
ENDMDL
MODEL 8
REMARK VINA RESULT:    -6.502     17.023     19.037
REMARK INTER + INTRA:          -8.642
REMARK INTER:                  -8.144
REMARK INTRA:                  -0.498
REMARK UNBOUND:                -0.430
REMARK SMILES Oc1cc(O)cc(CCc2ccccc2O)c1
REMARK SMILES IDX 9 1 10 2 12 3 13 4 11 5 14 6 15 7 16 8 8 10 7 11 6 12 17 13
REMARK SMILES IDX 4 14 2 15 3 16 5 17 1 19
REMARK H PARENT 16 9 5 18 1 20
REMARK Flexibility Score: inf
ROOT
ATOM      1  C   UNL     1      -9.704   5.752   6.107  1.00  0.00     0.044 C 
ENDROOT
BRANCH   1   2
ATOM      2  C   UNL     1     -10.538   4.900   7.030  1.00  0.00    -0.006 A 
ATOM      3  C   UNL     1     -11.374   4.438   9.267  1.00  0.00     0.001 A 
ATOM      4  C   UNL     1     -12.025   3.298   8.793  1.00  0.00     0.004 A 
ATOM      5  C   UNL     1     -10.629   5.233   8.393  1.00  0.00     0.007 A 
ATOM      6  C   UNL     1     -11.931   2.947   7.444  1.00  0.00     0.046 A 
ATOM      7  C   UNL     1     -11.185   3.739   6.559  1.00  0.00     0.118 A 
BRANCH   7   8
ATOM      8  O   UNL     1     -11.083   3.375   5.215  1.00  0.00    -0.508 OA
ATOM      9  H   UNL     1     -11.566   2.565   4.848  1.00  0.00     0.293 HD
ENDBRANCH   7   8
ENDBRANCH   1   2
BRANCH   1  10
ATOM     10  C   UNL     1     -10.539   6.900   5.531  1.00  0.00     0.040 C 
BRANCH  10  11
ATOM     11  C   UNL     1      -9.747   8.181   5.531  1.00  0.00    -0.040 A 
ATOM     12  C   UNL     1     -10.289   9.346   4.967  1.00  0.00     0.050 A 
ATOM     13  C   UNL     1      -8.441   8.205   6.044  1.00  0.00     0.050 A 
ATOM     14  C   UNL     1      -9.544  10.530   4.935  1.00  0.00     0.119 A 
ATOM     15  C   UNL     1      -7.691   9.389   6.013  1.00  0.00     0.119 A 
ATOM     16  C   UNL     1      -8.245  10.549   5.463  1.00  0.00     0.092 A 
BRANCH  14  17
ATOM     17  O   UNL     1     -10.100  11.678   4.378  1.00  0.00    -0.508 OA
ATOM     18  H   UNL     1     -10.915  11.634   3.776  1.00  0.00     0.293 HD
ENDBRANCH  14  17
BRANCH  15  19
ATOM     19  O   UNL     1      -6.396   9.423   6.526  1.00  0.00    -0.508 OA
ATOM     20  H   UNL     1      -5.815  10.249   6.442  1.00  0.00     0.293 HD
ENDBRANCH  15  19
ENDBRANCH  10  11
ENDBRANCH   1  10
TORSDOF 6
ENDMDL
MODEL 9
REMARK VINA RESULT:    -6.263     15.861     17.895
REMARK INTER + INTRA:          -8.341
REMARK INTER:                  -7.882
REMARK INTRA:                  -0.459
REMARK UNBOUND:                -0.430
REMARK SMILES Oc1cc(O)cc(CCc2ccccc2O)c1
REMARK SMILES IDX 9 1 10 2 12 3 13 4 11 5 14 6 15 7 16 8 8 10 7 11 6 12 17 13
REMARK SMILES IDX 4 14 2 15 3 16 5 17 1 19
REMARK H PARENT 16 9 5 18 1 20
REMARK Flexibility Score: inf
ROOT
ATOM      1  C   UNL     1      -9.328   7.960   4.870  1.00  0.00     0.044 C 
ENDROOT
BRANCH   1   2
ATOM      2  C   UNL     1      -8.800   9.181   5.581  1.00  0.00    -0.006 A 
ATOM      3  C   UNL     1      -6.907  10.488   6.369  1.00  0.00     0.001 A 
ATOM      4  C   UNL     1      -7.778  11.404   6.960  1.00  0.00     0.004 A 
ATOM      5  C   UNL     1      -7.412   9.379   5.688  1.00  0.00     0.007 A 
ATOM      6  C   UNL     1      -9.159  11.211   6.875  1.00  0.00     0.046 A 
ATOM      7  C   UNL     1      -9.677  10.099   6.193  1.00  0.00     0.118 A 
BRANCH   7   8
ATOM      8  O   UNL     1     -11.057   9.905   6.125  1.00  0.00    -0.508 OA
ATOM      9  H   UNL     1     -11.685  10.651   5.852  1.00  0.00     0.293 HD
ENDBRANCH   7   8
ENDBRANCH   1   2
BRANCH   1  10
ATOM     10  C   UNL     1      -9.446   6.781   5.840  1.00  0.00     0.040 C 
BRANCH  10  11
ATOM     11  C   UNL     1     -10.613   5.905   5.468  1.00  0.00    -0.040 A 
ATOM     12  C   UNL     1     -10.398   4.679   4.819  1.00  0.00     0.050 A 
ATOM     13  C   UNL     1     -11.927   6.334   5.714  1.00  0.00     0.050 A 
ATOM     14  C   UNL     1     -11.481   3.878   4.442  1.00  0.00     0.119 A 
ATOM     15  C   UNL     1     -13.014   5.535   5.336  1.00  0.00     0.119 A 
ATOM     16  C   UNL     1     -12.790   4.307   4.705  1.00  0.00     0.092 A 
BRANCH  14  17
ATOM     17  O   UNL     1     -11.249   2.661   3.806  1.00  0.00    -0.508 OA
ATOM     18  H   UNL     1     -10.931   1.847   4.321  1.00  0.00     0.293 HD
ENDBRANCH  14  17
BRANCH  15  19
ATOM     19  O   UNL     1     -14.321   5.951   5.584  1.00  0.00    -0.508 OA
ATOM     20  H   UNL     1     -14.542   6.924   5.764  1.00  0.00     0.293 HD
ENDBRANCH  15  19
ENDBRANCH  10  11
ENDBRANCH   1  10
TORSDOF 6
ENDMDL
