MODEL 1
REMARK VINA RESULT:    -3.714      0.000      0.000
REMARK INTER + INTRA:          -8.075
REMARK INTER:                  -6.320
REMARK INTRA:                  -1.756
REMARK UNBOUND:                -1.756
REMARK SMILES CCCCCCCCCCCCCC(=O)[O-]
REMARK SMILES IDX 8 1 9 2 10 3 11 4 12 5 13 6 14 7 15 8 16 9 7 10 6 11 5 12
REMARK SMILES IDX 4 13 3 14 2 15 1 16
REMARK H PARENT
REMARK Flexibility Score: inf
ROOT
ATOM      1  C   UNL     1     -14.296 -10.212  25.358  1.00  0.00     0.000 C 
ENDROOT
BRANCH   1   2
ATOM      2  C   UNL     1     -13.310 -10.978  26.252  1.00  0.00     0.000 C 
BRANCH   2   3
ATOM      3  C   UNL     1     -11.880 -10.875  25.703  1.00  0.00     0.000 C 
BRANCH   3   4
ATOM      4  C   UNL     1     -11.008  -9.888  26.495  1.00  0.00     0.000 C 
BRANCH   4   5
ATOM      5  C   UNL     1     -11.547  -9.630  27.913  1.00  0.00     0.006 C 
BRANCH   5   6
ATOM      6  C   UNL     1     -11.680  -8.131  28.217  1.00  0.00     0.053 C 
BRANCH   6   7
ATOM      7  C   UNL     1     -11.476  -7.836  29.672  1.00  0.00     0.041 C 
ATOM      8  O   UNL     1     -11.305  -6.651  30.059  1.00  0.00    -0.550 OA
ATOM      9  O   UNL     1     -11.442  -8.873  30.595  1.00  0.00    -0.550 OA
ENDBRANCH   6   7
ENDBRANCH   5   6
ENDBRANCH   4   5
ENDBRANCH   3   4
ENDBRANCH   2   3
ENDBRANCH   1   2
BRANCH   1  10
ATOM     10  C   UNL     1     -15.441  -9.557  26.150  1.00  0.00     0.000 C 
BRANCH  10  11
ATOM     11  C   UNL     1     -15.158  -8.123  26.644  1.00  0.00    -0.000 C 
BRANCH  11  12
ATOM     12  C   UNL     1     -15.858  -7.006  25.848  1.00  0.00    -0.000 C 
BRANCH  12  13
ATOM     13  C   UNL     1     -14.879  -6.158  25.018  1.00  0.00    -0.000 C 
BRANCH  13  14
ATOM     14  C   UNL     1     -14.691  -6.705  23.588  1.00  0.00    -0.000 C 
BRANCH  14  15
ATOM     15  C   UNL     1     -13.298  -7.300  23.328  1.00  0.00    -0.003 C 
ATOM     16  C   UNL     1     -12.321  -7.070  24.479  1.00  0.00     0.004 C 
ENDBRANCH  14  15
ENDBRANCH  13  14
ENDBRANCH  12  13
ENDBRANCH  11  12
ENDBRANCH  10  11
ENDBRANCH   1  10
TORSDOF 12
ENDMDL
MODEL 2
REMARK VINA RESULT:    -3.654      1.377      2.918
REMARK INTER + INTRA:          -7.972
REMARK INTER:                  -5.804
REMARK INTRA:                  -2.168
REMARK UNBOUND:                -1.756
REMARK SMILES CCCCCCCCCCCCCC(=O)[O-]
REMARK SMILES IDX 8 1 9 2 10 3 11 4 12 5 13 6 14 7 15 8 16 9 7 10 6 11 5 12
REMARK SMILES IDX 4 13 3 14 2 15 1 16
REMARK H PARENT
REMARK Flexibility Score: inf
ROOT
ATOM      1  C   UNL     1     -16.105  -7.163  26.026  1.00  0.00     0.000 C 
ENDROOT
BRANCH   1   2
ATOM      2  C   UNL     1     -14.722  -7.698  26.422  1.00  0.00     0.000 C 
BRANCH   2   3
ATOM      3  C   UNL     1     -14.752  -9.225  26.587  1.00  0.00     0.000 C 
BRANCH   3   4
ATOM      4  C   UNL     1     -13.465  -9.902  26.090  1.00  0.00     0.000 C 
BRANCH   4   5
ATOM      5  C   UNL     1     -12.275  -8.929  26.021  1.00  0.00     0.006 C 
BRANCH   5   6
ATOM      6  C   UNL     1     -11.153  -9.317  26.994  1.00  0.00     0.053 C 
BRANCH   6   7
ATOM      7  C   UNL     1     -11.513  -9.004  28.415  1.00  0.00     0.041 C 
ATOM      8  O   UNL     1     -11.576  -7.809  28.803  1.00  0.00    -0.550 OA
ATOM      9  O   UNL     1     -11.747 -10.034  29.317  1.00  0.00    -0.550 OA
ENDBRANCH   6   7
ENDBRANCH   5   6
ENDBRANCH   4   5
ENDBRANCH   3   4
ENDBRANCH   2   3
ENDBRANCH   1   2
BRANCH   1  10
ATOM     10  C   UNL     1     -16.035  -6.002  25.018  1.00  0.00     0.000 C 
BRANCH  10  11
ATOM     11  C   UNL     1     -14.613  -5.621  24.558  1.00  0.00    -0.000 C 
BRANCH  11  12
ATOM     12  C   UNL     1     -14.294  -5.935  23.085  1.00  0.00    -0.000 C 
BRANCH  12  13
ATOM     13  C   UNL     1     -13.136  -6.934  22.922  1.00  0.00    -0.000 C 
BRANCH  13  14
ATOM     14  C   UNL     1     -13.631  -8.381  22.711  1.00  0.00    -0.000 C 
BRANCH  14  15
ATOM     15  C   UNL     1     -15.121  -8.481  22.347  1.00  0.00    -0.003 C 
ATOM     16  C   UNL     1     -15.844  -9.613  23.074  1.00  0.00     0.004 C 
ENDBRANCH  14  15
ENDBRANCH  13  14
ENDBRANCH  12  13
ENDBRANCH  11  12
ENDBRANCH  10  11
ENDBRANCH   1  10
TORSDOF 12
ENDMDL
MODEL 3
REMARK VINA RESULT:    -3.579     13.464     16.015
REMARK INTER + INTRA:          -7.846
REMARK INTER:                  -6.594
REMARK INTRA:                  -1.252
REMARK UNBOUND:                -1.756
REMARK SMILES CCCCCCCCCCCCCC(=O)[O-]
REMARK SMILES IDX 8 1 9 2 10 3 11 4 12 5 13 6 14 7 15 8 16 9 7 10 6 11 5 12
REMARK SMILES IDX 4 13 3 14 2 15 1 16
REMARK H PARENT
REMARK Flexibility Score: inf
ROOT
ATOM      1  C   UNL     1       1.851 -18.615  29.121  1.00  0.00     0.000 C 
ENDROOT
BRANCH   1   2
ATOM      2  C   UNL     1       0.602 -19.102  29.868  1.00  0.00     0.000 C 
BRANCH   2   3
ATOM      3  C   UNL     1       0.542 -20.637  29.891  1.00  0.00     0.000 C 
BRANCH   3   4
ATOM      4  C   UNL     1      -0.869 -21.181  29.618  1.00  0.00     0.000 C 
BRANCH   4   5
ATOM      5  C   UNL     1      -1.878 -20.067  29.290  1.00  0.00     0.006 C 
BRANCH   5   6
ATOM      6  C   UNL     1      -2.530 -20.264  27.914  1.00  0.00     0.053 C 
BRANCH   6   7
ATOM      7  C   UNL     1      -3.925 -20.800  28.028  1.00  0.00     0.041 C 
ATOM      8  O   UNL     1      -4.727 -20.302  28.860  1.00  0.00    -0.550 OA
ATOM      9  O   UNL     1      -4.328 -21.869  27.238  1.00  0.00    -0.550 OA
ENDBRANCH   6   7
ENDBRANCH   5   6
ENDBRANCH   4   5
ENDBRANCH   3   4
ENDBRANCH   2   3
ENDBRANCH   1   2
BRANCH   1  10
ATOM     10  C   UNL     1       1.607 -17.323  28.321  1.00  0.00     0.000 C 
BRANCH  10  11
ATOM     11  C   UNL     1       0.125 -16.986  28.060  1.00  0.00    -0.000 C 
BRANCH  11  12
ATOM     12  C   UNL     1      -0.362 -17.238  26.622  1.00  0.00    -0.000 C 
BRANCH  12  13
ATOM     13  C   UNL     1      -1.838 -16.859  26.413  1.00  0.00    -0.000 C 
BRANCH  13  14
ATOM     14  C   UNL     1      -2.275 -15.680  27.307  1.00  0.00    -0.000 C 
BRANCH  14  15
ATOM     15  C   UNL     1      -3.483 -14.901  26.762  1.00  0.00    -0.003 C 
ATOM     16  C   UNL     1      -3.362 -14.566  25.276  1.00  0.00     0.004 C 
ENDBRANCH  14  15
ENDBRANCH  13  14
ENDBRANCH  12  13
ENDBRANCH  11  12
ENDBRANCH  10  11
ENDBRANCH   1  10
TORSDOF 12
ENDMDL
MODEL 4
REMARK VINA RESULT:    -3.571      3.499      5.659
REMARK INTER + INTRA:          -7.832
REMARK INTER:                  -6.168
REMARK INTRA:                  -1.664
REMARK UNBOUND:                -1.756
REMARK SMILES CCCCCCCCCCCCCC(=O)[O-]
REMARK SMILES IDX 8 1 9 2 10 3 11 4 12 5 13 6 14 7 15 8 16 9 7 10 6 11 5 12
REMARK SMILES IDX 4 13 3 14 2 15 1 16
REMARK H PARENT
REMARK Flexibility Score: inf
ROOT
ATOM      1  C   UNL     1     -11.327  -9.925  28.640  1.00  0.00     0.000 C 
ENDROOT
BRANCH   1   2
ATOM      2  C   UNL     1     -11.748  -8.601  27.985  1.00  0.00     0.000 C 
BRANCH   2   3
ATOM      3  C   UNL     1     -11.458  -8.621  26.477  1.00  0.00     0.000 C 
BRANCH   3   4
ATOM      4  C   UNL     1     -12.687  -8.248  25.632  1.00  0.00     0.000 C 
BRANCH   4   5
ATOM      5  C   UNL     1     -12.356  -7.234  24.524  1.00  0.00     0.006 C 
BRANCH   5   6
ATOM      6  C   UNL     1     -13.589  -6.430  24.088  1.00  0.00     0.053 C 
BRANCH   6   7
ATOM      7  C   UNL     1     -13.688  -6.324  22.596  1.00  0.00     0.041 C 
ATOM      8  O   UNL     1     -14.457  -5.477  22.072  1.00  0.00    -0.550 OA
ATOM      9  O   UNL     1     -12.954  -7.181  21.786  1.00  0.00    -0.550 OA
ENDBRANCH   6   7
ENDBRANCH   5   6
ENDBRANCH   4   5
ENDBRANCH   3   4
ENDBRANCH   2   3
ENDBRANCH   1   2
BRANCH   1  10
ATOM     10  C   UNL     1     -12.293 -10.380  29.749  1.00  0.00     0.000 C 
BRANCH  10  11
ATOM     11  C   UNL     1     -13.683 -10.835  29.259  1.00  0.00    -0.000 C 
BRANCH  11  12
ATOM     12  C   UNL     1     -13.673 -11.979  28.229  1.00  0.00    -0.000 C 
BRANCH  12  13
ATOM     13  C   UNL     1     -14.131 -11.530  26.831  1.00  0.00    -0.000 C 
BRANCH  13  14
ATOM     14  C   UNL     1     -13.154 -11.972  25.721  1.00  0.00    -0.000 C 
BRANCH  14  15
ATOM     15  C   UNL     1     -11.931 -12.744  26.241  1.00  0.00    -0.003 C 
ATOM     16  C   UNL     1     -10.603 -12.153  25.771  1.00  0.00     0.004 C 
ENDBRANCH  14  15
ENDBRANCH  13  14
ENDBRANCH  12  13
ENDBRANCH  11  12
ENDBRANCH  10  11
ENDBRANCH   1  10
TORSDOF 12
ENDMDL
MODEL 5
REMARK VINA RESULT:    -3.545      3.871      5.612
REMARK INTER + INTRA:          -7.787
REMARK INTER:                  -5.761
REMARK INTRA:                  -2.026
REMARK UNBOUND:                -1.756
REMARK SMILES CCCCCCCCCCCCCC(=O)[O-]
REMARK SMILES IDX 8 1 9 2 10 3 11 4 12 5 13 6 14 7 15 8 16 9 7 10 6 11 5 12
REMARK SMILES IDX 4 13 3 14 2 15 1 16
REMARK H PARENT
REMARK Flexibility Score: inf
ROOT
ATOM      1  C   UNL     1     -11.978 -10.638  29.109  1.00  0.00     0.000 C 
ENDROOT
BRANCH   1   2
ATOM      2  C   UNL     1     -13.493 -10.865  29.011  1.00  0.00     0.000 C 
BRANCH   2   3
ATOM      3  C   UNL     1     -13.813 -12.004  28.031  1.00  0.00     0.000 C 
BRANCH   3   4
ATOM      4  C   UNL     1     -12.597 -12.426  27.192  1.00  0.00     0.000 C 
BRANCH   4   5
ATOM      5  C   UNL     1     -12.996 -13.131  25.885  1.00  0.00     0.006 C 
BRANCH   5   6
ATOM      6  C   UNL     1     -14.518 -13.167  25.688  1.00  0.00     0.053 C 
BRANCH   6   7
ATOM      7  C   UNL     1     -14.965 -14.427  25.013  1.00  0.00     0.041 C 
ATOM      8  O   UNL     1     -14.566 -15.545  25.432  1.00  0.00    -0.550 OA
ATOM      9  O   UNL     1     -15.796 -14.366  23.902  1.00  0.00    -0.550 OA
ENDBRANCH   6   7
ENDBRANCH   5   6
ENDBRANCH   4   5
ENDBRANCH   3   4
ENDBRANCH   2   3
ENDBRANCH   1   2
BRANCH   1  10
ATOM     10  C   UNL     1     -11.611  -9.203  29.528  1.00  0.00     0.000 C 
BRANCH  10  11
ATOM     11  C   UNL     1     -11.571  -8.176  28.378  1.00  0.00    -0.000 C 
BRANCH  11  12
ATOM     12  C   UNL     1     -11.255  -8.758  26.989  1.00  0.00    -0.000 C 
BRANCH  12  13
ATOM     13  C   UNL     1     -12.209  -8.251  25.895  1.00  0.00    -0.000 C 
BRANCH  13  14
ATOM     14  C   UNL     1     -13.028  -9.391  25.253  1.00  0.00    -0.000 C 
BRANCH  14  15
ATOM     15  C   UNL     1     -14.531  -9.331  25.572  1.00  0.00    -0.003 C 
ATOM     16  C   UNL     1     -14.876  -8.314  26.658  1.00  0.00     0.004 C 
ENDBRANCH  14  15
ENDBRANCH  13  14
ENDBRANCH  12  13
ENDBRANCH  11  12
ENDBRANCH  10  11
ENDBRANCH   1  10
TORSDOF 12
ENDMDL
MODEL 6
REMARK VINA RESULT:    -3.542      1.930      2.292
REMARK INTER + INTRA:          -7.782
REMARK INTER:                  -6.378
REMARK INTRA:                  -1.404
REMARK UNBOUND:                -1.756
REMARK SMILES CCCCCCCCCCCCCC(=O)[O-]
REMARK SMILES IDX 8 1 9 2 10 3 11 4 12 5 13 6 14 7 15 8 16 9 7 10 6 11 5 12
REMARK SMILES IDX 4 13 3 14 2 15 1 16
REMARK H PARENT
REMARK Flexibility Score: inf
ROOT
ATOM      1  C   UNL     1     -14.666  -9.035  26.001  1.00  0.00     0.000 C 
ENDROOT
BRANCH   1   2
ATOM      2  C   UNL     1     -13.625  -8.124  26.667  1.00  0.00     0.000 C 
BRANCH   2   3
ATOM      3  C   UNL     1     -12.219  -8.405  26.116  1.00  0.00     0.000 C 
BRANCH   3   4
ATOM      4  C   UNL     1     -11.245  -8.897  27.197  1.00  0.00     0.000 C 
BRANCH   4   5
ATOM      5  C   UNL     1     -11.562  -8.319  28.587  1.00  0.00     0.006 C 
BRANCH   5   6
ATOM      6  C   UNL     1     -11.581  -9.402  29.674  1.00  0.00     0.053 C 
BRANCH   6   7
ATOM      7  C   UNL     1     -12.347 -10.615  29.241  1.00  0.00     0.041 C 
ATOM      8  O   UNL     1     -13.604 -10.584  29.188  1.00  0.00    -0.550 OA
ATOM      9  O   UNL     1     -11.673 -11.788  28.925  1.00  0.00    -0.550 OA
ENDBRANCH   6   7
ENDBRANCH   5   6
ENDBRANCH   4   5
ENDBRANCH   3   4
ENDBRANCH   2   3
ENDBRANCH   1   2
BRANCH   1  10
ATOM     10  C   UNL     1     -15.765  -8.251  25.262  1.00  0.00     0.000 C 
BRANCH  10  11
ATOM     11  C   UNL     1     -16.100  -6.870  25.863  1.00  0.00    -0.000 C 
BRANCH  11  12
ATOM     12  C   UNL     1     -15.935  -5.679  24.903  1.00  0.00    -0.000 C 
BRANCH  12  13
ATOM     13  C   UNL     1     -14.539  -5.618  24.259  1.00  0.00    -0.000 C 
BRANCH  13  14
ATOM     14  C   UNL     1     -14.601  -5.613  22.717  1.00  0.00    -0.000 C 
BRANCH  14  15
ATOM     15  C   UNL     1     -13.489  -6.438  22.049  1.00  0.00    -0.003 C 
ATOM     16  C   UNL     1     -13.280  -7.805  22.698  1.00  0.00     0.004 C 
ENDBRANCH  14  15
ENDBRANCH  13  14
ENDBRANCH  12  13
ENDBRANCH  11  12
ENDBRANCH  10  11
ENDBRANCH   1  10
TORSDOF 12
ENDMDL
MODEL 7
REMARK VINA RESULT:    -3.434     12.623     15.539
REMARK INTER + INTRA:          -7.598
REMARK INTER:                  -6.085
REMARK INTRA:                  -1.514
REMARK UNBOUND:                -1.756
REMARK SMILES CCCCCCCCCCCCCC(=O)[O-]
REMARK SMILES IDX 8 1 9 2 10 3 11 4 12 5 13 6 14 7 15 8 16 9 7 10 6 11 5 12
REMARK SMILES IDX 4 13 3 14 2 15 1 16
REMARK H PARENT
REMARK Flexibility Score: inf
ROOT
ATOM      1  C   UNL     1      -0.420 -16.998  29.333  1.00  0.00     0.000 C 
ENDROOT
BRANCH   1   2
ATOM      2  C   UNL     1       0.194 -17.329  27.966  1.00  0.00     0.000 C 
BRANCH   2   3
ATOM      3  C   UNL     1      -0.713 -16.842  26.826  1.00  0.00     0.000 C 
BRANCH   3   4
ATOM      4  C   UNL     1      -2.207 -16.933  27.176  1.00  0.00     0.000 C 
BRANCH   4   5
ATOM      5  C   UNL     1      -2.929 -15.581  27.042  1.00  0.00     0.006 C 
BRANCH   5   6
ATOM      6  C   UNL     1      -4.092 -15.643  26.042  1.00  0.00     0.053 C 
BRANCH   6   7
ATOM      7  C   UNL     1      -3.711 -15.080  24.706  1.00  0.00     0.041 C 
ATOM      8  O   UNL     1      -2.892 -14.127  24.632  1.00  0.00    -0.550 OA
ATOM      9  O   UNL     1      -4.284 -15.587  23.547  1.00  0.00    -0.550 OA
ENDBRANCH   6   7
ENDBRANCH   5   6
ENDBRANCH   4   5
ENDBRANCH   3   4
ENDBRANCH   2   3
ENDBRANCH   1   2
BRANCH   1  10
ATOM     10  C   UNL     1      -0.289 -18.149  30.346  1.00  0.00     0.000 C 
BRANCH  10  11
ATOM     11  C   UNL     1       0.485 -19.383  29.837  1.00  0.00    -0.000 C 
BRANCH  11  12
ATOM     12  C   UNL     1      -0.277 -20.717  29.926  1.00  0.00    -0.000 C 
BRANCH  12  13
ATOM     13  C   UNL     1      -1.804 -20.540  29.870  1.00  0.00    -0.000 C 
BRANCH  13  14
ATOM     14  C   UNL     1      -2.329 -20.404  28.425  1.00  0.00    -0.000 C 
BRANCH  14  15
ATOM     15  C   UNL     1      -3.847 -20.176  28.334  1.00  0.00    -0.003 C 
ATOM     16  C   UNL     1      -4.344 -19.063  29.255  1.00  0.00     0.004 C 
ENDBRANCH  14  15
ENDBRANCH  13  14
ENDBRANCH  12  13
ENDBRANCH  11  12
ENDBRANCH  10  11
ENDBRANCH   1  10
TORSDOF 12
ENDMDL
MODEL 8
REMARK VINA RESULT:    -3.422      3.458      6.273
REMARK INTER + INTRA:          -7.577
REMARK INTER:                  -6.120
REMARK INTRA:                  -1.457
REMARK UNBOUND:                -1.756
REMARK SMILES CCCCCCCCCCCCCC(=O)[O-]
REMARK SMILES IDX 8 1 9 2 10 3 11 4 12 5 13 6 14 7 15 8 16 9 7 10 6 11 5 12
REMARK SMILES IDX 4 13 3 14 2 15 1 16
REMARK H PARENT
REMARK Flexibility Score: inf
ROOT
ATOM      1  C   UNL     1     -14.064  -7.896  26.248  1.00  0.00     0.000 C 
ENDROOT
BRANCH   1   2
ATOM      2  C   UNL     1     -15.070  -7.113  25.392  1.00  0.00     0.000 C 
BRANCH   2   3
ATOM      3  C   UNL     1     -14.361  -6.019  24.579  1.00  0.00     0.000 C 
BRANCH   3   4
ATOM      4  C   UNL     1     -15.136  -5.626  23.311  1.00  0.00     0.000 C 
BRANCH   4   5
ATOM      5  C   UNL     1     -14.302  -5.799  22.031  1.00  0.00     0.006 C 
BRANCH   5   6
ATOM      6  C   UNL     1     -13.081  -6.704  22.253  1.00  0.00     0.053 C 
BRANCH   6   7
ATOM      7  C   UNL     1     -13.304  -8.084  21.714  1.00  0.00     0.041 C 
ATOM      8  O   UNL     1     -12.703  -8.461  20.675  1.00  0.00    -0.550 OA
ATOM      9  O   UNL     1     -14.198  -8.941  22.342  1.00  0.00    -0.550 OA
ENDBRANCH   6   7
ENDBRANCH   5   6
ENDBRANCH   4   5
ENDBRANCH   3   4
ENDBRANCH   2   3
ENDBRANCH   1   2
BRANCH   1  10
ATOM     10  C   UNL     1     -12.665  -7.973  25.612  1.00  0.00     0.000 C 
BRANCH  10  11
ATOM     11  C   UNL     1     -11.586  -8.648  26.484  1.00  0.00    -0.000 C 
BRANCH  11  12
ATOM     12  C   UNL     1     -11.606  -8.255  27.972  1.00  0.00    -0.000 C 
BRANCH  12  13
ATOM     13  C   UNL     1     -11.717  -9.469  28.910  1.00  0.00    -0.000 C 
BRANCH  13  14
ATOM     14  C   UNL     1     -12.109 -10.759  28.161  1.00  0.00    -0.000 C 
BRANCH  14  15
ATOM     15  C   UNL     1     -13.608 -11.093  28.239  1.00  0.00    -0.003 C 
ATOM     16  C   UNL     1     -14.187 -11.575  26.910  1.00  0.00     0.004 C 
ENDBRANCH  14  15
ENDBRANCH  13  14
ENDBRANCH  12  13
ENDBRANCH  11  12
ENDBRANCH  10  11
ENDBRANCH   1  10
TORSDOF 12
ENDMDL
MODEL 9
REMARK VINA RESULT:    -3.372      3.837      6.029
REMARK INTER + INTRA:          -7.493
REMARK INTER:                  -5.472
REMARK INTRA:                  -2.020
REMARK UNBOUND:                -1.756
REMARK SMILES CCCCCCCCCCCCCC(=O)[O-]
REMARK SMILES IDX 8 1 9 2 10 3 11 4 12 5 13 6 14 7 15 8 16 9 7 10 6 11 5 12
REMARK SMILES IDX 4 13 3 14 2 15 1 16
REMARK H PARENT
REMARK Flexibility Score: inf
ROOT
ATOM      1  C   UNL     1     -13.845  -8.765  26.510  1.00  0.00     0.000 C 
ENDROOT
BRANCH   1   2
ATOM      2  C   UNL     1     -14.324 -10.214  26.346  1.00  0.00     0.000 C 
BRANCH   2   3
ATOM      3  C   UNL     1     -13.646 -10.881  25.140  1.00  0.00     0.000 C 
BRANCH   3   4
ATOM      4  C   UNL     1     -12.963 -12.209  25.503  1.00  0.00     0.000 C 
BRANCH   4   5
ATOM      5  C   UNL     1     -11.431 -12.138  25.379  1.00  0.00     0.006 C 
BRANCH   5   6
ATOM      6  C   UNL     1     -10.939 -12.607  24.002  1.00  0.00     0.053 C 
BRANCH   6   7
ATOM      7  C   UNL     1     -11.094 -14.087  23.828  1.00  0.00     0.041 C 
ATOM      8  O   UNL     1     -10.269 -14.876  24.357  1.00  0.00    -0.550 OA
ATOM      9  O   UNL     1     -12.132 -14.592  23.055  1.00  0.00    -0.550 OA
ENDBRANCH   6   7
ENDBRANCH   5   6
ENDBRANCH   4   5
ENDBRANCH   3   4
ENDBRANCH   2   3
ENDBRANCH   1   2
BRANCH   1  10
ATOM     10  C   UNL     1     -12.440  -8.527  25.929  1.00  0.00     0.000 C 
BRANCH  10  11
ATOM     11  C   UNL     1     -11.280  -8.695  26.933  1.00  0.00    -0.000 C 
BRANCH  11  12
ATOM     12  C   UNL     1     -11.552  -8.149  28.345  1.00  0.00    -0.000 C 
BRANCH  12  13
ATOM     13  C   UNL     1     -11.561  -9.248  29.422  1.00  0.00    -0.000 C 
BRANCH  13  14
ATOM     14  C   UNL     1     -11.227 -10.640  28.845  1.00  0.00    -0.000 C 
BRANCH  14  15
ATOM     15  C   UNL     1     -12.310 -11.698  29.111  1.00  0.00    -0.003 C 
ATOM     16  C   UNL     1     -13.545 -11.133  29.811  1.00  0.00     0.004 C 
ENDBRANCH  14  15
ENDBRANCH  13  14
ENDBRANCH  12  13
ENDBRANCH  11  12
ENDBRANCH  10  11
ENDBRANCH   1  10
TORSDOF 12
ENDMDL
