MODEL 1
REMARK VINA RESULT:    -4.442      0.000      0.000
REMARK INTER + INTRA:          -5.327
REMARK INTER:                  -5.221
REMARK INTRA:                  -0.106
REMARK UNBOUND:                -0.106
REMARK SMILES O=C([O-])CCC(=O)[O-]
REMARK SMILES IDX 4 1 2 2 1 3 3 4 5 5 6 6 7 7 8 8
REMARK H PARENT
REMARK Flexibility Score: inf
ROOT
ATOM      1  C   UNL     1      18.782 -26.996   0.798  1.00  0.00     0.059 C 
ENDROOT
BRANCH   1   2
ATOM      2  C   UNL     1      18.886 -26.670   2.257  1.00  0.00     0.042 C 
ATOM      3  O   UNL     1      17.853 -26.638   2.975  1.00  0.00    -0.550 OA
ATOM      4  O   UNL     1      20.122 -26.364   2.813  1.00  0.00    -0.550 OA
ENDBRANCH   1   2
BRANCH   1   5
ATOM      5  C   UNL     1      18.263 -25.803  -0.010  1.00  0.00     0.059 C 
BRANCH   5   6
ATOM      6  C   UNL     1      16.788 -25.899  -0.252  1.00  0.00     0.042 C 
ATOM      7  O   UNL     1      15.993 -25.140   0.362  1.00  0.00    -0.550 OA
ATOM      8  O   UNL     1      16.287 -26.856  -1.125  1.00  0.00    -0.550 OA
ENDBRANCH   5   6
ENDBRANCH   1   5
TORSDOF 3
ENDMDL
MODEL 2
REMARK VINA RESULT:    -4.434      0.095      3.782
REMARK INTER + INTRA:          -5.317
REMARK INTER:                  -5.214
REMARK INTRA:                  -0.104
REMARK UNBOUND:                -0.106
REMARK SMILES O=C([O-])CCC(=O)[O-]
REMARK SMILES IDX 4 1 2 2 1 3 3 4 5 5 6 6 7 7 8 8
REMARK H PARENT
REMARK Flexibility Score: inf
ROOT
ATOM      1  C   UNL     1      18.297 -25.829   0.016  1.00  0.00     0.059 C 
ENDROOT
BRANCH   1   2
ATOM      2  C   UNL     1      16.831 -25.951  -0.271  1.00  0.00     0.042 C 
ATOM      3  O   UNL     1      16.418 -26.778  -1.125  1.00  0.00    -0.550 OA
ATOM      4  O   UNL     1      15.925 -25.120   0.379  1.00  0.00    -0.550 OA
ENDBRANCH   1   2
BRANCH   1   5
ATOM      5  C   UNL     1      18.804 -26.997   0.867  1.00  0.00     0.059 C 
BRANCH   5   6
ATOM      6  C   UNL     1      18.849 -26.641   2.321  1.00  0.00     0.042 C 
ATOM      7  O   UNL     1      17.788 -26.604   2.999  1.00  0.00    -0.550 OA
ATOM      8  O   UNL     1      20.058 -26.311   2.920  1.00  0.00    -0.550 OA
ENDBRANCH   5   6
ENDBRANCH   1   5
TORSDOF 3
ENDMDL
MODEL 3
REMARK VINA RESULT:    -4.274      7.604      8.407
REMARK INTER + INTRA:          -5.130
REMARK INTER:                  -5.018
REMARK INTRA:                  -0.112
REMARK UNBOUND:                -0.106
REMARK SMILES O=C([O-])CCC(=O)[O-]
REMARK SMILES IDX 4 1 2 2 1 3 3 4 5 5 6 6 7 7 8 8
REMARK H PARENT
REMARK Flexibility Score: inf
ROOT
ATOM      1  C   UNL     1      21.551 -20.274  -0.970  1.00  0.00     0.059 C 
ENDROOT
BRANCH   1   2
ATOM      2  C   UNL     1      21.563 -21.303   0.119  1.00  0.00     0.042 C 
ATOM      3  O   UNL     1      21.551 -20.949   1.327  1.00  0.00    -0.550 OA
ATOM      4  O   UNL     1      21.629 -22.653  -0.203  1.00  0.00    -0.550 OA
ENDBRANCH   1   2
BRANCH   1   5
ATOM      5  C   UNL     1      22.880 -19.517  -1.046  1.00  0.00     0.059 C 
BRANCH   5   6
ATOM      6  C   UNL     1      22.770 -18.147  -0.452  1.00  0.00     0.042 C 
ATOM      7  O   UNL     1      22.268 -17.204  -1.119  1.00  0.00    -0.550 OA
ATOM      8  O   UNL     1      23.260 -17.901   0.824  1.00  0.00    -0.550 OA
ENDBRANCH   5   6
ENDBRANCH   1   5
TORSDOF 3
ENDMDL
MODEL 4
REMARK VINA RESULT:    -4.264      7.527      8.334
REMARK INTER + INTRA:          -5.118
REMARK INTER:                  -5.007
REMARK INTRA:                  -0.110
REMARK UNBOUND:                -0.106
REMARK SMILES O=C([O-])CCC(=O)[O-]
REMARK SMILES IDX 4 1 2 2 1 3 3 4 5 5 6 6 7 7 8 8
REMARK H PARENT
REMARK Flexibility Score: inf
ROOT
ATOM      1  C   UNL     1      22.826 -19.610  -1.065  1.00  0.00     0.059 C 
ENDROOT
BRANCH   1   2
ATOM      2  C   UNL     1      22.750 -18.232  -0.480  1.00  0.00     0.042 C 
ATOM      3  O   UNL     1      22.204 -17.298  -1.125  1.00  0.00    -0.550 OA
ATOM      4  O   UNL     1      23.320 -17.972   0.760  1.00  0.00    -0.550 OA
ENDBRANCH   1   2
BRANCH   1   5
ATOM      5  C   UNL     1      21.495 -20.355  -0.925  1.00  0.00     0.059 C 
BRANCH   5   6
ATOM      6  C   UNL     1      21.546 -21.373   0.172  1.00  0.00     0.042 C 
ATOM      7  O   UNL     1      21.569 -21.007   1.377  1.00  0.00    -0.550 OA
ATOM      8  O   UNL     1      21.607 -22.726  -0.136  1.00  0.00    -0.550 OA
ENDBRANCH   5   6
ENDBRANCH   1   5
TORSDOF 3
ENDMDL
MODEL 5
REMARK VINA RESULT:    -3.790     12.821     13.590
REMARK INTER + INTRA:          -4.560
REMARK INTER:                  -4.463
REMARK INTRA:                  -0.097
REMARK UNBOUND:                -0.106
REMARK SMILES O=C([O-])CCC(=O)[O-]
REMARK SMILES IDX 4 1 2 2 1 3 3 4 5 5 6 6 7 7 8 8
REMARK H PARENT
REMARK Flexibility Score: inf
ROOT
ATOM      1  C   UNL     1      29.473 -20.197   2.842  1.00  0.00     0.059 C 
ENDROOT
BRANCH   1   2
ATOM      2  C   UNL     1      30.125 -20.188   4.192  1.00  0.00     0.042 C 
ATOM      3  O   UNL     1      31.369 -20.345   4.296  1.00  0.00    -0.550 OA
ATOM      4  O   UNL     1      29.349 -20.047   5.336  1.00  0.00    -0.550 OA
ENDBRANCH   1   2
BRANCH   1   5
ATOM      5  C   UNL     1      29.440 -18.797   2.223  1.00  0.00     0.059 C 
BRANCH   5   6
ATOM      6  C   UNL     1      28.092 -18.161   2.365  1.00  0.00     0.042 C 
ATOM      7  O   UNL     1      27.224 -18.677   3.119  1.00  0.00    -0.550 OA
ATOM      8  O   UNL     1      27.778 -17.023   1.635  1.00  0.00    -0.550 OA
ENDBRANCH   5   6
ENDBRANCH   1   5
TORSDOF 3
ENDMDL
MODEL 6
REMARK VINA RESULT:    -3.770     12.662     13.904
REMARK INTER + INTRA:          -4.537
REMARK INTER:                  -4.423
REMARK INTRA:                  -0.114
REMARK UNBOUND:                -0.106
REMARK SMILES O=C([O-])CCC(=O)[O-]
REMARK SMILES IDX 4 1 2 2 1 3 3 4 5 5 6 6 7 7 8 8
REMARK H PARENT
REMARK Flexibility Score: inf
ROOT
ATOM      1  C   UNL     1      29.363 -18.786   2.261  1.00  0.00     0.059 C 
ENDROOT
BRANCH   1   2
ATOM      2  C   UNL     1      27.935 -18.333   2.215  1.00  0.00     0.042 C 
ATOM      3  O   UNL     1      27.534 -17.595   1.277  1.00  0.00    -0.550 OA
ATOM      4  O   UNL     1      27.058 -18.696   3.230  1.00  0.00    -0.550 OA
ENDBRANCH   1   2
BRANCH   1   5
ATOM      5  C   UNL     1      29.488 -20.202   2.831  1.00  0.00     0.059 C 
BRANCH   5   6
ATOM      6  C   UNL     1      30.121 -20.197   4.188  1.00  0.00     0.042 C 
ATOM      7  O   UNL     1      31.359 -20.394   4.311  1.00  0.00    -0.550 OA
ATOM      8  O   UNL     1      29.339 -20.015   5.321  1.00  0.00    -0.550 OA
ENDBRANCH   5   6
ENDBRANCH   1   5
TORSDOF 3
ENDMDL
MODEL 7
REMARK VINA RESULT:    -3.458     12.775     13.562
REMARK INTER + INTRA:          -4.170
REMARK INTER:                  -4.066
REMARK INTRA:                  -0.104
REMARK UNBOUND:                -0.106
REMARK SMILES O=C([O-])CCC(=O)[O-]
REMARK SMILES IDX 4 1 2 2 1 3 3 4 5 5 6 6 7 7 8 8
REMARK H PARENT
REMARK Flexibility Score: inf
ROOT
ATOM      1  C   UNL     1      29.727 -21.344   1.793  1.00  0.00     0.059 C 
ENDROOT
BRANCH   1   2
ATOM      2  C   UNL     1      30.770 -22.286   2.314  1.00  0.00     0.042 C 
ATOM      3  O   UNL     1      30.765 -23.494   1.961  1.00  0.00    -0.550 OA
ATOM      4  O   UNL     1      31.721 -21.836   3.221  1.00  0.00    -0.550 OA
ENDBRANCH   1   2
BRANCH   1   5
ATOM      5  C   UNL     1      29.928 -19.925   2.334  1.00  0.00     0.059 C 
BRANCH   5   6
ATOM      6  C   UNL     1      29.054 -19.659   3.521  1.00  0.00     0.042 C 
ATOM      7  O   UNL     1      27.861 -19.290   3.360  1.00  0.00    -0.550 OA
ATOM      8  O   UNL     1      29.569 -19.777   4.805  1.00  0.00    -0.550 OA
ENDBRANCH   5   6
ENDBRANCH   1   5
TORSDOF 3
ENDMDL
MODEL 8
REMARK VINA RESULT:    -3.443     10.655     11.578
REMARK INTER + INTRA:          -4.154
REMARK INTER:                  -4.119
REMARK INTRA:                  -0.034
REMARK UNBOUND:                -0.106
REMARK SMILES O=C([O-])CCC(=O)[O-]
REMARK SMILES IDX 4 1 2 2 1 3 3 4 5 5 6 6 7 7 8 8
REMARK H PARENT
REMARK Flexibility Score: inf
ROOT
ATOM      1  C   UNL     1      28.163 -27.731  -0.955  1.00  0.00     0.059 C 
ENDROOT
BRANCH   1   2
ATOM      2  C   UNL     1      28.293 -29.219  -0.831  1.00  0.00     0.042 C 
ATOM      3  O   UNL     1      27.324 -29.967  -1.125  1.00  0.00    -0.550 OA
ATOM      4  O   UNL     1      29.472 -29.775  -0.353  1.00  0.00    -0.550 OA
ENDBRANCH   1   2
BRANCH   1   5
ATOM      5  C   UNL     1      29.528 -27.057  -1.119  1.00  0.00     0.059 C 
BRANCH   5   6
ATOM      6  C   UNL     1      29.479 -25.610  -0.738  1.00  0.00     0.042 C 
ATOM      7  O   UNL     1      30.398 -25.106  -0.039  1.00  0.00    -0.550 OA
ATOM      8  O   UNL     1      28.398 -24.826  -1.119  1.00  0.00    -0.550 OA
ENDBRANCH   5   6
ENDBRANCH   1   5
TORSDOF 3
ENDMDL
MODEL 9
REMARK VINA RESULT:    -3.283     12.515     13.826
REMARK INTER + INTRA:          -3.965
REMARK INTER:                  -3.842
REMARK INTRA:                  -0.123
REMARK UNBOUND:                -0.106
REMARK SMILES O=C([O-])CCC(=O)[O-]
REMARK SMILES IDX 4 1 2 2 1 3 3 4 5 5 6 6 7 7 8 8
REMARK H PARENT
REMARK Flexibility Score: inf
ROOT
ATOM      1  C   UNL     1      28.713 -19.833   1.851  1.00  0.00     0.059 C 
ENDROOT
BRANCH   1   2
ATOM      2  C   UNL     1      27.894 -18.728   1.257  1.00  0.00     0.042 C 
ATOM      3  O   UNL     1      27.415 -18.845   0.100  1.00  0.00    -0.550 OA
ATOM      4  O   UNL     1      27.695 -17.551   1.970  1.00  0.00    -0.550 OA
ENDBRANCH   1   2
BRANCH   1   5
ATOM      5  C   UNL     1      28.643 -19.827   3.381  1.00  0.00     0.059 C 
BRANCH   5   6
ATOM      6  C   UNL     1      29.975 -19.522   3.994  1.00  0.00     0.042 C 
ATOM      7  O   UNL     1      30.548 -18.427   3.754  1.00  0.00    -0.550 OA
ATOM      8  O   UNL     1      30.603 -20.464   4.799  1.00  0.00    -0.550 OA
ENDBRANCH   5   6
ENDBRANCH   1   5
TORSDOF 3
ENDMDL
