MODEL 1
REMARK VINA RESULT:    -4.949      0.000      0.000
REMARK INTER + INTRA:          -6.209
REMARK INTER:                  -5.962
REMARK INTRA:                  -0.248
REMARK UNBOUND:                -0.248
REMARK SMILES C=CCc1ccc(O)c(OC)c1
REMARK SMILES IDX 9 1 7 2 6 3 5 4 4 5 12 6 10 7 11 8 8 9 3 11 2 12 1 13
REMARK H PARENT 8 10
REMARK Flexibility Score: inf
ROOT
ATOM      1  C   UNL     1     167.377 159.470 159.043  1.00  0.00     0.160 A 
ATOM      2  C   UNL     1     168.053 160.106 157.985  1.00  0.00     0.157 A 
ATOM      3  C   UNL     1     169.008 159.406 157.242  1.00  0.00     0.050 A 
ATOM      4  C   UNL     1     169.302 158.075 157.544  1.00  0.00     0.008 A 
ATOM      5  C   UNL     1     168.646 157.428 158.601  1.00  0.00    -0.040 A 
ATOM      6  C   UNL     1     167.679 158.126 159.342  1.00  0.00     0.054 A 
ENDROOT
BRANCH   1   7
ATOM      7  O   UNL     1     166.420 160.196 159.768  1.00  0.00    -0.493 OA
ATOM      8  C   UNL     1     166.712 161.018 160.894  1.00  0.00     0.278 C 
ENDBRANCH   1   7
BRANCH   2   9
ATOM      9  O   UNL     1     167.786 161.435 157.655  1.00  0.00    -0.504 OA
ATOM     10  H   UNL     1     167.314 161.694 156.797  1.00  0.00     0.293 HD
ENDBRANCH   2   9
BRANCH   5  11
ATOM     11  C   UNL     1     168.940 155.985 158.910  1.00  0.00     0.062 C 
BRANCH  11  12
ATOM     12  C   UNL     1     170.324 155.833 159.476  1.00  0.00    -0.030 C 
ATOM     13  C   UNL     1     170.691 156.446 160.607  1.00  0.00     0.004 C 
ENDBRANCH  11  12
ENDBRANCH   5  11
TORSDOF 4
ENDMDL
MODEL 2
REMARK VINA RESULT:    -4.948     13.348     15.940
REMARK INTER + INTRA:          -6.208
REMARK INTER:                  -5.979
REMARK INTRA:                  -0.228
REMARK UNBOUND:                -0.248
REMARK SMILES C=CCc1ccc(O)c(OC)c1
REMARK SMILES IDX 9 1 7 2 6 3 5 4 4 5 12 6 10 7 11 8 8 9 3 11 2 12 1 13
REMARK H PARENT 8 10
REMARK Flexibility Score: inf
ROOT
ATOM      1  C   UNL     1     155.053 163.017 158.951  1.00  0.00     0.160 A 
ATOM      2  C   UNL     1     154.378 162.337 157.920  1.00  0.00     0.157 A 
ATOM      3  C   UNL     1     153.419 163.004 157.153  1.00  0.00     0.050 A 
ATOM      4  C   UNL     1     153.120 164.344 157.403  1.00  0.00     0.008 A 
ATOM      5  C   UNL     1     153.775 165.034 158.432  1.00  0.00    -0.040 A 
ATOM      6  C   UNL     1     154.747 164.370 159.199  1.00  0.00     0.054 A 
ENDROOT
BRANCH   1   7
ATOM      7  O   UNL     1     156.016 162.324 159.702  1.00  0.00    -0.493 OA
ATOM      8  C   UNL     1     155.736 161.580 160.884  1.00  0.00     0.278 C 
ENDBRANCH   1   7
BRANCH   2   9
ATOM      9  O   UNL     1     154.651 160.997 157.641  1.00  0.00    -0.504 OA
ATOM     10  H   UNL     1     153.917 160.325 157.454  1.00  0.00     0.293 HD
ENDBRANCH   2   9
BRANCH   5  11
ATOM     11  C   UNL     1     153.475 166.487 158.686  1.00  0.00     0.062 C 
BRANCH  11  12
ATOM     12  C   UNL     1     152.139 166.646 159.356  1.00  0.00    -0.030 C 
ATOM     13  C   UNL     1     151.856 166.034 160.511  1.00  0.00     0.004 C 
ENDBRANCH  11  12
ENDBRANCH   5  11
TORSDOF 4
ENDMDL
MODEL 3
REMARK VINA RESULT:    -4.927      2.458      4.610
REMARK INTER + INTRA:          -6.182
REMARK INTER:                  -5.972
REMARK INTRA:                  -0.210
REMARK UNBOUND:                -0.248
REMARK SMILES C=CCc1ccc(O)c(OC)c1
REMARK SMILES IDX 9 1 7 2 6 3 5 4 4 5 12 6 10 7 11 8 8 9 3 11 2 12 1 13
REMARK H PARENT 8 10
REMARK Flexibility Score: inf
ROOT
ATOM      1  C   UNL     1     169.238 157.324 159.318  1.00  0.00     0.160 A 
ATOM      2  C   UNL     1     168.352 157.653 160.361  1.00  0.00     0.157 A 
ATOM      3  C   UNL     1     167.238 158.456 160.105  1.00  0.00     0.050 A 
ATOM      4  C   UNL     1     166.995 158.941 158.818  1.00  0.00     0.008 A 
ATOM      5  C   UNL     1     167.872 158.631 157.770  1.00  0.00    -0.040 A 
ATOM      6  C   UNL     1     168.988 157.816 158.021  1.00  0.00     0.054 A 
ENDROOT
BRANCH   1   7
ATOM      7  O   UNL     1     170.347 156.511 159.602  1.00  0.00    -0.493 OA
ATOM      8  C   UNL     1     170.513 155.177 159.130  1.00  0.00     0.278 C 
ENDBRANCH   1   7
BRANCH   2   9
ATOM      9  O   UNL     1     168.563 157.187 161.659  1.00  0.00    -0.504 OA
ATOM     10  H   UNL     1     167.896 157.347 162.404  1.00  0.00     0.293 HD
ENDBRANCH   2   9
BRANCH   5  11
ATOM     11  C   UNL     1     167.598 159.129 156.376  1.00  0.00     0.062 C 
BRANCH  11  12
ATOM     12  C   UNL     1     168.844 159.078 155.537  1.00  0.00    -0.030 C 
ATOM     13  C   UNL     1     168.851 158.519 154.323  1.00  0.00     0.004 C 
ENDBRANCH  11  12
ENDBRANCH   5  11
TORSDOF 4
ENDMDL
MODEL 4
REMARK VINA RESULT:    -4.882     14.298     15.992
REMARK INTER + INTRA:          -6.129
REMARK INTER:                  -5.927
REMARK INTRA:                  -0.201
REMARK UNBOUND:                -0.248
REMARK SMILES C=CCc1ccc(O)c(OC)c1
REMARK SMILES IDX 9 1 7 2 6 3 5 4 4 5 12 6 10 7 11 8 8 9 3 11 2 12 1 13
REMARK H PARENT 8 10
REMARK Flexibility Score: inf
ROOT
ATOM      1  C   UNL     1     153.397 165.183 159.461  1.00  0.00     0.160 A 
ATOM      2  C   UNL     1     154.303 164.791 160.465  1.00  0.00     0.157 A 
ATOM      3  C   UNL     1     155.387 163.969 160.146  1.00  0.00     0.050 A 
ATOM      4  C   UNL     1     155.580 163.527 158.836  1.00  0.00     0.008 A 
ATOM      5  C   UNL     1     154.682 163.899 157.826  1.00  0.00    -0.040 A 
ATOM      6  C   UNL     1     153.596 164.734 158.141  1.00  0.00     0.054 A 
ENDROOT
BRANCH   1   7
ATOM      7  O   UNL     1     152.320 166.014 159.808  1.00  0.00    -0.493 OA
ATOM      8  C   UNL     1     152.009 167.245 159.163  1.00  0.00     0.278 C 
ENDBRANCH   1   7
BRANCH   2   9
ATOM      9  O   UNL     1     154.142 165.213 161.785  1.00  0.00    -0.504 OA
ATOM     10  H   UNL     1     153.643 166.061 162.024  1.00  0.00     0.293 HD
ENDBRANCH   2   9
BRANCH   5  11
ATOM     11  C   UNL     1     154.903 163.448 156.407  1.00  0.00     0.062 C 
BRANCH  11  12
ATOM     12  C   UNL     1     153.624 163.519 155.620  1.00  0.00    -0.030 C 
ATOM     13  C   UNL     1     153.595 163.991 154.370  1.00  0.00     0.004 C 
ENDBRANCH  11  12
ENDBRANCH   5  11
TORSDOF 4
ENDMDL
MODEL 5
REMARK VINA RESULT:    -4.838      1.270      2.892
REMARK INTER + INTRA:          -6.075
REMARK INTER:                  -5.853
REMARK INTRA:                  -0.222
REMARK UNBOUND:                -0.248
REMARK SMILES C=CCc1ccc(O)c(OC)c1
REMARK SMILES IDX 9 1 7 2 6 3 5 4 4 5 12 6 10 7 11 8 8 9 3 11 2 12 1 13
REMARK H PARENT 8 10
REMARK Flexibility Score: inf
ROOT
ATOM      1  C   UNL     1     168.604 158.924 156.932  1.00  0.00     0.160 A 
ATOM      2  C   UNL     1     167.794 159.729 157.755  1.00  0.00     0.157 A 
ATOM      3  C   UNL     1     167.356 159.248 158.992  1.00  0.00     0.050 A 
ATOM      4  C   UNL     1     167.714 157.968 159.420  1.00  0.00     0.008 A 
ATOM      5  C   UNL     1     168.512 157.149 158.609  1.00  0.00    -0.040 A 
ATOM      6  C   UNL     1     168.962 157.634 157.370  1.00  0.00     0.054 A 
ENDROOT
BRANCH   1   7
ATOM      7  O   UNL     1     169.034 159.435 155.697  1.00  0.00    -0.493 OA
ATOM      8  C   UNL     1     168.953 158.733 154.460  1.00  0.00     0.278 C 
ENDBRANCH   1   7
BRANCH   2   9
ATOM      9  O   UNL     1     167.416 161.012 157.360  1.00  0.00    -0.504 OA
ATOM     10  H   UNL     1     168.083 161.686 157.003  1.00  0.00     0.293 HD
ENDBRANCH   2   9
BRANCH   5  11
ATOM     11  C   UNL     1     168.923 155.780 159.081  1.00  0.00     0.062 C 
BRANCH  11  12
ATOM     12  C   UNL     1     170.348 155.787 159.559  1.00  0.00    -0.030 C 
ATOM     13  C   UNL     1     170.727 156.496 160.628  1.00  0.00     0.004 C 
ENDBRANCH  11  12
ENDBRANCH   5  11
TORSDOF 4
ENDMDL
MODEL 6
REMARK VINA RESULT:    -4.811     13.380     15.871
REMARK INTER + INTRA:          -6.043
REMARK INTER:                  -5.847
REMARK INTRA:                  -0.197
REMARK UNBOUND:                -0.248
REMARK SMILES C=CCc1ccc(O)c(OC)c1
REMARK SMILES IDX 9 1 7 2 6 3 5 4 4 5 12 6 10 7 11 8 8 9 3 11 2 12 1 13
REMARK H PARENT 8 10
REMARK Flexibility Score: inf
ROOT
ATOM      1  C   UNL     1     154.345 163.611 156.780  1.00  0.00     0.160 A 
ATOM      2  C   UNL     1     155.678 163.202 156.967  1.00  0.00     0.157 A 
ATOM      3  C   UNL     1     156.394 163.637 158.085  1.00  0.00     0.050 A 
ATOM      4  C   UNL     1     155.797 164.482 159.023  1.00  0.00     0.008 A 
ATOM      5  C   UNL     1     154.473 164.907 158.848  1.00  0.00    -0.040 A 
ATOM      6  C   UNL     1     153.747 164.463 157.730  1.00  0.00     0.054 A 
ENDROOT
BRANCH   1   7
ATOM      7  O   UNL     1     153.648 163.154 155.650  1.00  0.00    -0.493 OA
ATOM      8  C   UNL     1     153.559 163.860 154.416  1.00  0.00     0.278 C 
ENDBRANCH   1   7
BRANCH   2   9
ATOM      9  O   UNL     1     156.309 162.359 156.051  1.00  0.00    -0.504 OA
ATOM     10  H   UNL     1     157.316 162.267 156.007  1.00  0.00     0.293 HD
ENDBRANCH   2   9
BRANCH   5  11
ATOM     11  C   UNL     1     153.817 165.795 159.872  1.00  0.00     0.062 C 
BRANCH  11  12
ATOM     12  C   UNL     1     152.397 166.097 159.483  1.00  0.00    -0.030 C 
ATOM     13  C   UNL     1     152.002 167.336 159.173  1.00  0.00     0.004 C 
ENDBRANCH  11  12
ENDBRANCH   5  11
TORSDOF 4
ENDMDL
MODEL 7
REMARK VINA RESULT:    -4.799      2.100      4.080
REMARK INTER + INTRA:          -6.029
REMARK INTER:                  -5.789
REMARK INTRA:                  -0.240
REMARK UNBOUND:                -0.248
REMARK SMILES C=CCc1ccc(O)c(OC)c1
REMARK SMILES IDX 9 1 7 2 6 3 5 4 4 5 12 6 10 7 11 8 8 9 3 11 2 12 1 13
REMARK H PARENT 8 10
REMARK Flexibility Score: inf
ROOT
ATOM      1  C   UNL     1     169.403 157.839 158.257  1.00  0.00     0.160 A 
ATOM      2  C   UNL     1     169.629 158.827 157.280  1.00  0.00     0.157 A 
ATOM      3  C   UNL     1     168.738 159.896 157.146  1.00  0.00     0.050 A 
ATOM      4  C   UNL     1     167.619 159.992 157.975  1.00  0.00     0.008 A 
ATOM      5  C   UNL     1     167.373 159.012 158.947  1.00  0.00    -0.040 A 
ATOM      6  C   UNL     1     168.272 157.942 159.090  1.00  0.00     0.054 A 
ENDROOT
BRANCH   1   7
ATOM      7  O   UNL     1     170.317 156.780 158.372  1.00  0.00    -0.493 OA
ATOM      8  C   UNL     1     170.361 155.866 159.463  1.00  0.00     0.278 C 
ENDBRANCH   1   7
BRANCH   2   9
ATOM      9  O   UNL     1     170.736 158.764 156.433  1.00  0.00    -0.504 OA
ATOM     10  H   UNL     1     171.287 157.921 156.327  1.00  0.00     0.293 HD
ENDBRANCH   2   9
BRANCH   5  11
ATOM     11  C   UNL     1     166.183 159.128 159.861  1.00  0.00     0.062 C 
BRANCH  11  12
ATOM     12  C   UNL     1     166.590 159.685 161.197  1.00  0.00    -0.030 C 
ATOM     13  C   UNL     1     166.633 161.002 161.425  1.00  0.00     0.004 C 
ENDBRANCH  11  12
ENDBRANCH   5  11
TORSDOF 4
ENDMDL
MODEL 8
REMARK VINA RESULT:    -4.789     13.783     15.318
REMARK INTER + INTRA:          -6.017
REMARK INTER:                  -5.778
REMARK INTRA:                  -0.239
REMARK UNBOUND:                -0.248
REMARK SMILES C=CCc1ccc(O)c(OC)c1
REMARK SMILES IDX 9 1 7 2 6 3 5 4 4 5 12 6 10 7 11 8 8 9 3 11 2 12 1 13
REMARK H PARENT 8 10
REMARK Flexibility Score: inf
ROOT
ATOM      1  C   UNL     1     153.200 164.627 158.227  1.00  0.00     0.160 A 
ATOM      2  C   UNL     1     152.931 163.615 157.287  1.00  0.00     0.157 A 
ATOM      3  C   UNL     1     153.791 162.519 157.172  1.00  0.00     0.050 A 
ATOM      4  C   UNL     1     154.924 162.421 157.982  1.00  0.00     0.008 A 
ATOM      5  C   UNL     1     155.213 163.424 158.916  1.00  0.00    -0.040 A 
ATOM      6  C   UNL     1     154.345 164.522 159.042  1.00  0.00     0.054 A 
ENDROOT
BRANCH   1   7
ATOM      7  O   UNL     1     152.316 165.713 158.325  1.00  0.00    -0.493 OA
ATOM      8  C   UNL     1     152.152 166.518 159.488  1.00  0.00     0.278 C 
ENDBRANCH   1   7
BRANCH   2   9
ATOM      9  O   UNL     1     151.809 163.679 156.460  1.00  0.00    -0.504 OA
ATOM     10  H   UNL     1     151.018 163.057 156.573  1.00  0.00     0.293 HD
ENDBRANCH   2   9
BRANCH   5  11
ATOM     11  C   UNL     1     156.418 163.307 159.811  1.00  0.00     0.062 C 
BRANCH  11  12
ATOM     12  C   UNL     1     156.031 162.761 161.157  1.00  0.00    -0.030 C 
ATOM     13  C   UNL     1     156.052 161.450 161.416  1.00  0.00     0.004 C 
ENDBRANCH  11  12
ENDBRANCH   5  11
TORSDOF 4
ENDMDL
MODEL 9
REMARK VINA RESULT:    -4.722      2.313      4.548
REMARK INTER + INTRA:          -5.936
REMARK INTER:                  -5.670
REMARK INTRA:                  -0.267
REMARK UNBOUND:                -0.248
REMARK SMILES C=CCc1ccc(O)c(OC)c1
REMARK SMILES IDX 9 1 7 2 6 3 5 4 4 5 12 6 10 7 11 8 8 9 3 11 2 12 1 13
REMARK H PARENT 8 10
REMARK Flexibility Score: inf
ROOT
ATOM      1  C   UNL     1     169.215 158.044 158.136  1.00  0.00     0.160 A 
ATOM      2  C   UNL     1     169.569 157.056 159.073  1.00  0.00     0.157 A 
ATOM      3  C   UNL     1     168.774 156.848 160.204  1.00  0.00     0.050 A 
ATOM      4  C   UNL     1     167.629 157.618 160.416  1.00  0.00     0.008 A 
ATOM      5  C   UNL     1     167.268 158.614 159.498  1.00  0.00    -0.040 A 
ATOM      6  C   UNL     1     168.059 158.818 158.355  1.00  0.00     0.054 A 
ENDROOT
BRANCH   1   7
ATOM      7  O   UNL     1     170.029 158.227 157.006  1.00  0.00    -0.493 OA
ATOM      8  C   UNL     1     170.396 159.496 156.473  1.00  0.00     0.278 C 
ENDBRANCH   1   7
BRANCH   2   9
ATOM      9  O   UNL     1     170.706 156.267 158.896  1.00  0.00    -0.504 OA
ATOM     10  H   UNL     1     170.892 155.777 158.030  1.00  0.00     0.293 HD
ENDBRANCH   2   9
BRANCH   5  11
ATOM     11  C   UNL     1     166.019 159.427 159.709  1.00  0.00     0.062 C 
BRANCH  11  12
ATOM     12  C   UNL     1     165.993 160.014 161.093  1.00  0.00    -0.030 C 
ATOM     13  C   UNL     1     166.557 161.195 161.365  1.00  0.00     0.004 C 
ENDBRANCH  11  12
ENDBRANCH   5  11
TORSDOF 4
ENDMDL
