MODEL 1
REMARK VINA RESULT:     2.910      0.000      0.000
REMARK INTER + INTRA:           3.918
REMARK INTER:                   4.016
REMARK INTRA:                  -0.098
REMARK UNBOUND:                -0.098
REMARK SMILES CC[C@@H](CC[C@@H](C)[C@@H]1CC[C@@H]2[C@H]3CC=C4C[C@H](O)CC[C@@]4(C)[C@@H]3CC[C@]21C)C(C)C
REMARK SMILES IDX 5 1 4 2 3 3 2 4 1 5 28 6 29 7 30 8 6 9 7 10 8 11 9 12 26 13
REMARK SMILES IDX 10 14 11 15 25 16 27 17 12 18 24 19 23 20 13 21 21 22 14 23
REMARK SMILES IDX 15 24 20 25 22 26 16 27 19 28 17 29 18 30
REMARK H PARENT 18 31
REMARK Flexibility Score: inf
ROOT
ATOM      1  C   UNL     1       1.160  42.438  13.280  1.00  0.00     0.004 C 
ENDROOT
BRANCH   1   2
ATOM      2  C   UNL     1       1.177  40.890  13.264  1.00  0.00     0.004 C 
BRANCH   2   3
ATOM      3  C   UNL     1       0.050  40.194  14.086  1.00  0.00    -0.009 C 
BRANCH   3   4
ATOM      4  C   UNL     1       0.255  40.388  15.619  1.00  0.00     0.000 C 
ATOM      5  C   UNL     1      -0.989  40.867  16.371  1.00  0.00     0.004 C 
ENDBRANCH   3   4
BRANCH   3   6
ATOM      6  C   UNL     1      -0.126  38.690  13.671  1.00  0.00    -0.014 C 
ATOM      7  C   UNL     1      -1.124  38.520  12.512  1.00  0.00     0.007 C 
ATOM      8  C   UNL     1       1.214  38.050  13.256  1.00  0.00     0.007 C 
ENDBRANCH   3   6
ENDBRANCH   2   3
ENDBRANCH   1   2
BRANCH   1   9
ATOM      9  C   UNL     1      -0.157  43.125  12.805  1.00  0.00    -0.011 C 
ATOM     10  C   UNL     1      -1.122  43.201  14.013  1.00  0.00     0.008 C 
BRANCH   9  11
ATOM     11  C   UNL     1       0.135  44.484  12.068  1.00  0.00    -0.002 C 
ATOM     12  C   UNL     1      -0.990  45.036  11.156  1.00  0.00     0.005 C 
ATOM     13  C   UNL     1       1.438  44.665  11.239  1.00  0.00    -0.026 C 
ATOM     14  C   UNL     1      -0.297  45.932  10.111  1.00  0.00     0.005 C 
ATOM     15  C   UNL     1       1.142  46.034  10.601  1.00  0.00    -0.001 C 
ATOM     16  C   UNL     1       2.728  44.822  12.078  1.00  0.00     0.007 C 
ATOM     17  C   UNL     1       1.614  43.528  10.188  1.00  0.00     0.012 C 
ATOM     18  C   UNL     1       2.234  46.520   9.624  1.00  0.00     0.000 C 
ATOM     19  C   UNL     1       3.906  45.286  11.190  1.00  0.00     0.005 C 
ATOM     20  C   UNL     1       3.595  46.592  10.384  1.00  0.00     0.003 C 
ATOM     21  C   UNL     1       1.884  47.915   9.084  1.00  0.00     0.031 C 
ATOM     22  C   UNL     1       4.763  47.052   9.428  1.00  0.00    -0.008 C 
ATOM     23  C   UNL     1       3.027  48.558   8.353  1.00  0.00    -0.027 C 
ATOM     24  C   UNL     1       4.327  48.267   8.589  1.00  0.00    -0.065 C 
ATOM     25  C   UNL     1       5.994  47.466  10.297  1.00  0.00     0.014 C 
ATOM     26  C   UNL     1       5.180  45.916   8.454  1.00  0.00     0.016 C 
ATOM     27  C   UNL     1       5.390  49.077   7.869  1.00  0.00     0.063 C 
ATOM     28  C   UNL     1       7.091  48.202   9.510  1.00  0.00     0.033 C 
ATOM     29  C   UNL     1       6.532  49.451   8.822  1.00  0.00     0.118 C 
BRANCH  29  30
ATOM     30  O   UNL     1       7.563  50.080   8.108  1.00  0.00    -0.393 OA
ATOM     31  H   UNL     1       7.532  49.720   7.183  1.00  0.00     0.210 HD
ENDBRANCH  29  30
ENDBRANCH   9  11
ENDBRANCH   1   9
TORSDOF 7
ENDMDL
MODEL 2
REMARK VINA RESULT:     3.445      0.631      1.698
REMARK INTER + INTRA:           4.656
REMARK INTER:                   3.723
REMARK INTRA:                   0.933
REMARK UNBOUND:                -0.098
REMARK SMILES CC[C@@H](CC[C@@H](C)[C@@H]1CC[C@@H]2[C@H]3CC=C4C[C@H](O)CC[C@@]4(C)[C@@H]3CC[C@]21C)C(C)C
REMARK SMILES IDX 5 1 4 2 3 3 2 4 1 5 28 6 29 7 30 8 6 9 7 10 8 11 9 12 26 13
REMARK SMILES IDX 10 14 11 15 25 16 27 17 12 18 24 19 23 20 13 21 21 22 14 23
REMARK SMILES IDX 15 24 20 25 22 26 16 27 19 28 17 29 18 30
REMARK H PARENT 18 31
REMARK Flexibility Score: inf
ROOT
ATOM      1  C   UNL     1       1.225  42.462  13.147  1.00  0.00     0.004 C 
ENDROOT
BRANCH   1   2
ATOM      2  C   UNL     1       1.147  41.978  14.615  1.00  0.00     0.004 C 
BRANCH   2   3
ATOM      3  C   UNL     1       0.320  40.677  14.855  1.00  0.00    -0.009 C 
BRANCH   3   4
ATOM      4  C   UNL     1      -0.173  40.057  13.513  1.00  0.00     0.000 C 
ATOM      5  C   UNL     1      -0.769  38.652  13.643  1.00  0.00     0.004 C 
ENDBRANCH   3   4
BRANCH   3   6
ATOM      6  C   UNL     1      -0.835  40.907  15.893  1.00  0.00    -0.014 C 
ATOM      7  C   UNL     1      -0.953  39.746  16.898  1.00  0.00     0.007 C 
ATOM      8  C   UNL     1      -0.643  42.216  16.683  1.00  0.00     0.007 C 
ENDBRANCH   3   6
ENDBRANCH   2   3
ENDBRANCH   1   2
BRANCH   1   9
ATOM      9  C   UNL     1      -0.053  43.147  12.571  1.00  0.00    -0.011 C 
ATOM     10  C   UNL     1      -1.124  43.182  13.687  1.00  0.00     0.008 C 
BRANCH   9  11
ATOM     11  C   UNL     1       0.287  44.526  11.896  1.00  0.00    -0.002 C 
ATOM     12  C   UNL     1      -0.808  45.147  10.991  1.00  0.00     0.005 C 
ATOM     13  C   UNL     1       1.608  44.706  11.095  1.00  0.00    -0.026 C 
ATOM     14  C   UNL     1      -0.074  46.066   9.995  1.00  0.00     0.005 C 
ATOM     15  C   UNL     1       1.359  46.108  10.511  1.00  0.00    -0.001 C 
ATOM     16  C   UNL     1       2.888  44.792  11.958  1.00  0.00     0.007 C 
ATOM     17  C   UNL     1       1.770  43.609   9.999  1.00  0.00     0.012 C 
ATOM     18  C   UNL     1       2.479  46.604   9.571  1.00  0.00     0.000 C 
ATOM     19  C   UNL     1       4.092  45.260  11.108  1.00  0.00     0.005 C 
ATOM     20  C   UNL     1       3.829  46.606  10.354  1.00  0.00     0.003 C 
ATOM     21  C   UNL     1       2.175  48.029   9.086  1.00  0.00     0.031 C 
ATOM     22  C   UNL     1       5.024  47.074   9.436  1.00  0.00    -0.008 C 
ATOM     23  C   UNL     1       3.347  48.670   8.399  1.00  0.00    -0.027 C 
ATOM     24  C   UNL     1       4.635  48.334   8.642  1.00  0.00    -0.065 C 
ATOM     25  C   UNL     1       6.252  47.416  10.338  1.00  0.00     0.014 C 
ATOM     26  C   UNL     1       5.426  45.968   8.421  1.00  0.00     0.016 C 
ATOM     27  C   UNL     1       5.730  49.144   7.972  1.00  0.00     0.063 C 
ATOM     28  C   UNL     1       7.381  48.154   9.600  1.00  0.00     0.033 C 
ATOM     29  C   UNL     1       6.867  49.446   8.957  1.00  0.00     0.118 C 
BRANCH  29  30
ATOM     30  O   UNL     1       7.926  50.075   8.286  1.00  0.00    -0.393 OA
ATOM     31  H   UNL     1       8.424  50.600   8.965  1.00  0.00     0.210 HD
ENDBRANCH  29  30
ENDBRANCH   9  11
ENDBRANCH   1   9
TORSDOF 7
ENDMDL
MODEL 3
REMARK VINA RESULT:     4.170      1.342      2.330
REMARK INTER + INTRA:           5.657
REMARK INTER:                   3.974
REMARK INTRA:                   1.683
REMARK UNBOUND:                -0.098
REMARK SMILES CC[C@@H](CC[C@@H](C)[C@@H]1CC[C@@H]2[C@H]3CC=C4C[C@H](O)CC[C@@]4(C)[C@@H]3CC[C@]21C)C(C)C
REMARK SMILES IDX 5 1 4 2 3 3 2 4 1 5 28 6 29 7 30 8 6 9 7 10 8 11 9 12 26 13
REMARK SMILES IDX 10 14 11 15 25 16 27 17 12 18 24 19 23 20 13 21 21 22 14 23
REMARK SMILES IDX 15 24 20 25 22 26 16 27 19 28 17 29 18 30
REMARK H PARENT 18 31
REMARK Flexibility Score: inf
ROOT
ATOM      1  C   UNL     1       0.802  40.490  13.189  1.00  0.00     0.004 C 
ENDROOT
BRANCH   1   2
ATOM      2  C   UNL     1       0.687  39.045  13.734  1.00  0.00     0.004 C 
BRANCH   2   3
ATOM      3  C   UNL     1       0.274  37.961  12.691  1.00  0.00    -0.009 C 
BRANCH   3   4
ATOM      4  C   UNL     1      -1.074  37.281  13.076  1.00  0.00     0.000 C 
ATOM      5  C   UNL     1      -1.124  35.774  12.812  1.00  0.00     0.004 C 
ENDBRANCH   3   4
BRANCH   3   6
ATOM      6  C   UNL     1       1.433  36.934  12.432  1.00  0.00    -0.014 C 
ATOM      7  C   UNL     1       0.953  35.701  11.646  1.00  0.00     0.007 C 
ATOM      8  C   UNL     1       2.604  37.576  11.662  1.00  0.00     0.007 C 
ENDBRANCH   3   6
ENDBRANCH   2   3
ENDBRANCH   1   2
BRANCH   1   9
ATOM      9  C   UNL     1       0.210  41.621  14.085  1.00  0.00    -0.011 C 
ATOM     10  C   UNL     1       0.909  41.557  15.464  1.00  0.00     0.008 C 
BRANCH   9  11
ATOM     11  C   UNL     1       0.249  43.014  13.355  1.00  0.00    -0.002 C 
ATOM     12  C   UNL     1      -1.073  43.495  12.704  1.00  0.00     0.005 C 
ATOM     13  C   UNL     1       1.343  43.315  12.293  1.00  0.00    -0.026 C 
ATOM     14  C   UNL     1      -0.670  44.465  11.577  1.00  0.00     0.005 C 
ATOM     15  C   UNL     1       0.826  44.670  11.776  1.00  0.00    -0.001 C 
ATOM     16  C   UNL     1       2.760  43.554  12.865  1.00  0.00     0.007 C 
ATOM     17  C   UNL     1       1.388  42.218  11.186  1.00  0.00     0.012 C 
ATOM     18  C   UNL     1       1.663  45.261  10.621  1.00  0.00     0.000 C 
ATOM     19  C   UNL     1       3.699  44.129  11.779  1.00  0.00     0.005 C 
ATOM     20  C   UNL     1       3.139  45.423  11.100  1.00  0.00     0.003 C 
ATOM     21  C   UNL     1       1.111  46.636  10.213  1.00  0.00     0.031 C 
ATOM     22  C   UNL     1       4.056  45.995   9.949  1.00  0.00    -0.008 C 
ATOM     23  C   UNL     1       2.035  47.382   9.294  1.00  0.00    -0.027 C 
ATOM     24  C   UNL     1       3.374  47.190   9.258  1.00  0.00    -0.065 C 
ATOM     25  C   UNL     1       5.402  46.485  10.572  1.00  0.00     0.014 C 
ATOM     26  C   UNL     1       4.352  44.916   8.871  1.00  0.00     0.016 C 
ATOM     27  C   UNL     1       4.209  48.096   8.372  1.00  0.00     0.063 C 
ATOM     28  C   UNL     1       6.263  47.322   9.612  1.00  0.00     0.033 C 
ATOM     29  C   UNL     1       5.488  48.538   9.094  1.00  0.00     0.118 C 
BRANCH  29  30
ATOM     30  O   UNL     1       6.307  49.261   8.214  1.00  0.00    -0.393 OA
ATOM     31  H   UNL     1       6.647  48.615   7.541  1.00  0.00     0.210 HD
ENDBRANCH  29  30
ENDBRANCH   9  11
ENDBRANCH   1   9
TORSDOF 7
ENDMDL
MODEL 4
REMARK VINA RESULT:     4.301      3.239      8.705
REMARK INTER + INTRA:           5.837
REMARK INTER:                   4.510
REMARK INTRA:                   1.327
REMARK UNBOUND:                -0.098
REMARK SMILES CC[C@@H](CC[C@@H](C)[C@@H]1CC[C@@H]2[C@H]3CC=C4C[C@H](O)CC[C@@]4(C)[C@@H]3CC[C@]21C)C(C)C
REMARK SMILES IDX 5 1 4 2 3 3 2 4 1 5 28 6 29 7 30 8 6 9 7 10 8 11 9 12 26 13
REMARK SMILES IDX 10 14 11 15 25 16 27 17 12 18 24 19 23 20 13 21 21 22 14 23
REMARK SMILES IDX 15 24 20 25 22 26 16 27 19 28 17 29 18 30
REMARK H PARENT 18 31
REMARK Flexibility Score: inf
ROOT
ATOM      1  C   UNL     1       2.148  48.840   7.565  1.00  0.00     0.004 C 
ENDROOT
BRANCH   1   2
ATOM      2  C   UNL     1       1.088  48.539   8.652  1.00  0.00     0.004 C 
BRANCH   2   3
ATOM      3  C   UNL     1      -0.350  49.065   8.359  1.00  0.00    -0.009 C 
BRANCH   3   4
ATOM      4  C   UNL     1      -1.107  48.138   7.361  1.00  0.00     0.000 C 
ATOM      5  C   UNL     1      -0.581  46.701   7.305  1.00  0.00     0.004 C 
ENDBRANCH   3   4
BRANCH   3   6
ATOM      6  C   UNL     1      -0.337  50.571   7.916  1.00  0.00    -0.014 C 
ATOM      7  C   UNL     1       1.093  51.123   7.774  1.00  0.00     0.007 C 
ATOM      8  C   UNL     1      -1.074  50.781   6.578  1.00  0.00     0.007 C 
ENDBRANCH   3   6
ENDBRANCH   2   3
ENDBRANCH   1   2
BRANCH   1   9
ATOM      9  C   UNL     1       3.541  48.162   7.743  1.00  0.00    -0.011 C 
ATOM     10  C   UNL     1       4.628  49.175   7.308  1.00  0.00     0.008 C 
BRANCH   9  11
ATOM     11  C   UNL     1       3.704  47.549   9.182  1.00  0.00    -0.002 C 
ATOM     12  C   UNL     1       5.143  47.492   9.755  1.00  0.00     0.005 C 
ATOM     13  C   UNL     1       3.091  46.161   9.520  1.00  0.00    -0.026 C 
ATOM     14  C   UNL     1       5.151  46.349  10.789  1.00  0.00     0.005 C 
ATOM     15  C   UNL     1       3.685  45.960  10.926  1.00  0.00    -0.001 C 
ATOM     16  C   UNL     1       1.551  46.147   9.668  1.00  0.00     0.007 C 
ATOM     17  C   UNL     1       3.544  45.069   8.505  1.00  0.00     0.012 C 
ATOM     18  C   UNL     1       3.327  44.602  11.570  1.00  0.00     0.000 C 
ATOM     19  C   UNL     1       1.073  44.812  10.287  1.00  0.00     0.005 C 
ATOM     20  C   UNL     1       1.774  44.474  11.645  1.00  0.00     0.003 C 
ATOM     21  C   UNL     1       3.910  44.515  12.988  1.00  0.00     0.031 C 
ATOM     22  C   UNL     1       1.341  43.089  12.266  1.00  0.00    -0.008 C 
ATOM     23  C   UNL     1       3.370  43.349  13.766  1.00  0.00    -0.027 C 
ATOM     24  C   UNL     1       2.164  42.783  13.530  1.00  0.00    -0.065 C 
ATOM     25  C   UNL     1      -0.168  43.162  12.662  1.00  0.00     0.014 C 
ATOM     26  C   UNL     1       1.552  41.926  11.257  1.00  0.00     0.016 C 
ATOM     27  C   UNL     1       1.685  41.690  14.468  1.00  0.00     0.063 C 
ATOM     28  C   UNL     1      -0.639  41.987  13.536  1.00  0.00     0.033 C 
ATOM     29  C   UNL     1       0.202  41.878  14.812  1.00  0.00     0.118 C 
BRANCH  29  30
ATOM     30  O   UNL     1      -0.255  40.788  15.567  1.00  0.00    -0.393 OA
ATOM     31  H   UNL     1      -0.910  41.146  16.222  1.00  0.00     0.210 HD
ENDBRANCH  29  30
ENDBRANCH   9  11
ENDBRANCH   1   9
TORSDOF 7
ENDMDL
MODEL 5
REMARK VINA RESULT:     4.545      3.373      8.833
REMARK INTER + INTRA:           6.174
REMARK INTER:                   6.308
REMARK INTRA:                  -0.133
REMARK UNBOUND:                -0.098
REMARK SMILES CC[C@@H](CC[C@@H](C)[C@@H]1CC[C@@H]2[C@H]3CC=C4C[C@H](O)CC[C@@]4(C)[C@@H]3CC[C@]21C)C(C)C
REMARK SMILES IDX 5 1 4 2 3 3 2 4 1 5 28 6 29 7 30 8 6 9 7 10 8 11 9 12 26 13
REMARK SMILES IDX 10 14 11 15 25 16 27 17 12 18 24 19 23 20 13 21 21 22 14 23
REMARK SMILES IDX 15 24 20 25 22 26 16 27 19 28 17 29 18 30
REMARK H PARENT 18 31
REMARK Flexibility Score: inf
ROOT
ATOM      1  C   UNL     1       2.728  46.767   9.212  1.00  0.00     0.004 C 
ENDROOT
BRANCH   1   2
ATOM      2  C   UNL     1       2.507  47.823   8.102  1.00  0.00     0.004 C 
BRANCH   2   3
ATOM      3  C   UNL     1       1.023  48.076   7.695  1.00  0.00    -0.009 C 
BRANCH   3   4
ATOM      4  C   UNL     1       0.507  49.446   8.232  1.00  0.00     0.000 C 
ATOM      5  C   UNL     1       1.382  50.645   7.857  1.00  0.00     0.004 C 
ENDBRANCH   3   4
BRANCH   3   6
ATOM      6  C   UNL     1       0.099  46.870   8.090  1.00  0.00    -0.014 C 
ATOM      7  C   UNL     1      -1.009  47.284   9.075  1.00  0.00     0.007 C 
ATOM      8  C   UNL     1      -0.563  46.228   6.855  1.00  0.00     0.007 C 
ENDBRANCH   3   6
ENDBRANCH   2   3
ENDBRANCH   1   2
BRANCH   1   9
ATOM      9  C   UNL     1       4.032  45.918   9.117  1.00  0.00    -0.011 C 
ATOM     10  C   UNL     1       5.214  46.796   9.593  1.00  0.00     0.008 C 
BRANCH   9  11
ATOM     11  C   UNL     1       3.870  44.529   9.837  1.00  0.00    -0.002 C 
ATOM     12  C   UNL     1       4.105  43.265   8.972  1.00  0.00     0.005 C 
ATOM     13  C   UNL     1       2.586  44.213  10.655  1.00  0.00    -0.026 C 
ATOM     14  C   UNL     1       3.307  42.129   9.642  1.00  0.00     0.005 C 
ATOM     15  C   UNL     1       2.845  42.727  10.964  1.00  0.00    -0.001 C 
ATOM     16  C   UNL     1       2.479  44.949  12.011  1.00  0.00     0.007 C 
ATOM     17  C   UNL     1       1.295  44.444   9.813  1.00  0.00     0.012 C 
ATOM     18  C   UNL     1       1.700  42.039  11.738  1.00  0.00     0.000 C 
ATOM     19  C   UNL     1       1.338  44.354  12.869  1.00  0.00     0.005 C 
ATOM     20  C   UNL     1       1.462  42.808  13.075  1.00  0.00     0.003 C 
ATOM     21  C   UNL     1       2.070  40.582  12.054  1.00  0.00     0.031 C 
ATOM     22  C   UNL     1       0.277  42.171  13.901  1.00  0.00    -0.008 C 
ATOM     23  C   UNL     1       1.129  39.944  13.036  1.00  0.00    -0.027 C 
ATOM     24  C   UNL     1       0.416  40.639  13.951  1.00  0.00    -0.065 C 
ATOM     25  C   UNL     1       0.326  42.721  15.362  1.00  0.00     0.014 C 
ATOM     26  C   UNL     1      -1.101  42.512  13.270  1.00  0.00     0.016 C 
ATOM     27  C   UNL     1      -0.404  39.863  14.967  1.00  0.00     0.063 C 
ATOM     28  C   UNL     1      -0.589  41.968  16.342  1.00  0.00     0.033 C 
ATOM     29  C   UNL     1      -0.258  40.473  16.366  1.00  0.00     0.118 C 
BRANCH  29  30
ATOM     30  O   UNL     1      -1.125  39.827  17.261  1.00  0.00    -0.393 OA
ATOM     31  H   UNL     1      -1.911  39.527  16.733  1.00  0.00     0.210 HD
ENDBRANCH  29  30
ENDBRANCH   9  11
ENDBRANCH   1   9
TORSDOF 7
ENDMDL
