MODEL 1
REMARK VINA RESULT:     5.298      0.000      0.000
REMARK INTER + INTRA:           9.367
REMARK INTER:                   9.324
REMARK INTRA:                   0.044
REMARK UNBOUND:                 0.044
REMARK SMILES CCCCCCCCCCCCCCC(=O)[O-]
REMARK SMILES IDX 9 1 10 2 11 3 12 4 13 5 14 6 15 7 16 8 17 9 8 10 7 11 6 12
REMARK SMILES IDX 5 13 4 14 3 15 2 16 1 17
REMARK H PARENT
REMARK Flexibility Score: inf
ROOT
ATOM      1  C   UNL     1      -4.683 -15.710   6.362  1.00  0.00     0.000 C 
ENDROOT
BRANCH   1   2
ATOM      2  C   UNL     1      -6.037 -16.035   7.009  1.00  0.00     0.000 C 
BRANCH   2   3
ATOM      3  C   UNL     1      -6.799 -14.748   7.363  1.00  0.00     0.000 C 
BRANCH   3   4
ATOM      4  C   UNL     1      -6.840 -13.744   6.201  1.00  0.00     0.000 C 
BRANCH   4   5
ATOM      5  C   UNL     1      -6.086 -12.440   6.518  1.00  0.00     0.006 C 
BRANCH   5   6
ATOM      6  C   UNL     1      -4.564 -12.621   6.452  1.00  0.00     0.053 C 
BRANCH   6   7
ATOM      7  C   UNL     1      -3.908 -12.297   7.760  1.00  0.00     0.041 C 
ATOM      8  O   UNL     1      -3.759 -13.192   8.634  1.00  0.00    -0.550 OA
ATOM      9  O   UNL     1      -3.487 -11.000   8.024  1.00  0.00    -0.550 OA
ENDBRANCH   6   7
ENDBRANCH   5   6
ENDBRANCH   4   5
ENDBRANCH   3   4
ENDBRANCH   2   3
ENDBRANCH   1   2
BRANCH   1  10
ATOM     10  C   UNL     1      -3.504 -16.427   7.044  1.00  0.00     0.000 C 
BRANCH  10  11
ATOM     11  C   UNL     1      -2.109 -16.006   6.542  1.00  0.00    -0.000 C 
BRANCH  11  12
ATOM     12  C   UNL     1      -2.017 -14.570   5.993  1.00  0.00    -0.000 C 
BRANCH  12  13
ATOM     13  C   UNL     1      -1.210 -13.608   6.891  1.00  0.00    -0.000 C 
BRANCH  13  14
ATOM     14  C   UNL     1      -0.690 -14.289   8.169  1.00  0.00    -0.000 C 
BRANCH  14  15
ATOM     15  C   UNL     1       0.763 -13.904   8.505  1.00  0.00    -0.000 C 
BRANCH  15  16
ATOM     16  C   UNL     1       1.605 -15.033   9.123  1.00  0.00    -0.003 C 
ATOM     17  C   UNL     1       1.754 -14.908  10.639  1.00  0.00     0.004 C 
ENDBRANCH  15  16
ENDBRANCH  14  15
ENDBRANCH  13  14
ENDBRANCH  12  13
ENDBRANCH  11  12
ENDBRANCH  10  11
ENDBRANCH   1  10
TORSDOF 13
ENDMDL
MODEL 2
REMARK VINA RESULT:     5.518      2.216      5.594
REMARK INTER + INTRA:           9.756
REMARK INTER:                  10.500
REMARK INTRA:                  -0.744
REMARK UNBOUND:                 0.044
REMARK SMILES CCCCCCCCCCCCCCC(=O)[O-]
REMARK SMILES IDX 9 1 10 2 11 3 12 4 13 5 14 6 15 7 16 8 17 9 8 10 7 11 6 12
REMARK SMILES IDX 5 13 4 14 3 15 2 16 1 17
REMARK H PARENT
REMARK Flexibility Score: inf
ROOT
ATOM      1  C   UNL     1      -3.459 -12.828   7.175  1.00  0.00     0.000 C 
ENDROOT
BRANCH   1   2
ATOM      2  C   UNL     1      -3.013 -13.564   5.904  1.00  0.00     0.000 C 
BRANCH   2   3
ATOM      3  C   UNL     1      -1.776 -14.433   6.180  1.00  0.00     0.000 C 
BRANCH   3   4
ATOM      4  C   UNL     1      -1.614 -14.782   7.667  1.00  0.00     0.000 C 
BRANCH   4   5
ATOM      5  C   UNL     1      -0.869 -13.689   8.454  1.00  0.00     0.006 C 
BRANCH   5   6
ATOM      6  C   UNL     1       0.640 -13.705   8.180  1.00  0.00     0.053 C 
BRANCH   6   7
ATOM      7  C   UNL     1       1.346 -14.731   9.014  1.00  0.00     0.041 C 
ATOM      8  O   UNL     1       2.036 -15.630   8.464  1.00  0.00    -0.550 OA
ATOM      9  O   UNL     1       1.218 -14.710  10.397  1.00  0.00    -0.550 OA
ENDBRANCH   6   7
ENDBRANCH   5   6
ENDBRANCH   4   5
ENDBRANCH   3   4
ENDBRANCH   2   3
ENDBRANCH   1   2
BRANCH   1  10
ATOM     10  C   UNL     1      -4.987 -12.836   7.368  1.00  0.00     0.000 C 
BRANCH  10  11
ATOM     11  C   UNL     1      -5.806 -12.856   6.064  1.00  0.00    -0.000 C 
BRANCH  11  12
ATOM     12  C   UNL     1      -6.844 -13.990   5.960  1.00  0.00    -0.000 C 
BRANCH  12  13
ATOM     13  C   UNL     1      -7.002 -14.812   7.257  1.00  0.00    -0.000 C 
BRANCH  13  14
ATOM     14  C   UNL     1      -6.457 -16.244   7.121  1.00  0.00    -0.000 C 
BRANCH  14  15
ATOM     15  C   UNL     1      -5.079 -16.298   6.437  1.00  0.00    -0.000 C 
BRANCH  15  16
ATOM     16  C   UNL     1      -3.953 -16.901   7.296  1.00  0.00    -0.003 C 
ATOM     17  C   UNL     1      -3.144 -17.967   6.559  1.00  0.00     0.004 C 
ENDBRANCH  15  16
ENDBRANCH  14  15
ENDBRANCH  13  14
ENDBRANCH  12  13
ENDBRANCH  11  12
ENDBRANCH  10  11
ENDBRANCH   1  10
TORSDOF 13
ENDMDL
MODEL 3
REMARK VINA RESULT:     6.135      2.285      3.378
REMARK INTER + INTRA:          10.842
REMARK INTER:                  11.514
REMARK INTRA:                  -0.672
REMARK UNBOUND:                 0.044
REMARK SMILES CCCCCCCCCCCCCCC(=O)[O-]
REMARK SMILES IDX 9 1 10 2 11 3 12 4 13 5 14 6 15 7 16 8 17 9 8 10 7 11 6 12
REMARK SMILES IDX 5 13 4 14 3 15 2 16 1 17
REMARK H PARENT
REMARK Flexibility Score: inf
ROOT
ATOM      1  C   UNL     1      -5.551 -13.038   5.910  1.00  0.00     0.000 C 
ENDROOT
BRANCH   1   2
ATOM      2  C   UNL     1      -6.824 -13.889   6.032  1.00  0.00     0.000 C 
BRANCH   2   3
ATOM      3  C   UNL     1      -6.861 -14.631   7.377  1.00  0.00     0.000 C 
BRANCH   3   4
ATOM      4  C   UNL     1      -6.772 -16.157   7.216  1.00  0.00     0.000 C 
BRANCH   4   5
ATOM      5  C   UNL     1      -5.566 -16.593   6.366  1.00  0.00     0.006 C 
BRANCH   5   6
ATOM      6  C   UNL     1      -4.232 -16.311   7.067  1.00  0.00     0.053 C 
BRANCH   6   7
ATOM      7  C   UNL     1      -3.465 -17.572   7.332  1.00  0.00     0.041 C 
ATOM      8  O   UNL     1      -2.731 -18.067   6.436  1.00  0.00    -0.550 OA
ATOM      9  O   UNL     1      -3.584 -18.214   8.558  1.00  0.00    -0.550 OA
ENDBRANCH   6   7
ENDBRANCH   5   6
ENDBRANCH   4   5
ENDBRANCH   3   4
ENDBRANCH   2   3
ENDBRANCH   1   2
BRANCH   1  10
ATOM     10  C   UNL     1      -4.807 -12.877   7.249  1.00  0.00     0.000 C 
BRANCH  10  11
ATOM     11  C   UNL     1      -3.273 -12.804   7.134  1.00  0.00    -0.000 C 
BRANCH  11  12
ATOM     12  C   UNL     1      -2.653 -13.705   6.049  1.00  0.00    -0.000 C 
BRANCH  12  13
ATOM     13  C   UNL     1      -1.590 -14.687   6.585  1.00  0.00    -0.000 C 
BRANCH  13  14
ATOM     14  C   UNL     1      -1.191 -14.390   8.041  1.00  0.00    -0.000 C 
BRANCH  14  15
ATOM     15  C   UNL     1       0.144 -13.632   8.154  1.00  0.00    -0.000 C 
BRANCH  15  16
ATOM     16  C   UNL     1       1.331 -14.483   8.640  1.00  0.00    -0.003 C 
ATOM     17  C   UNL     1       1.176 -14.957  10.085  1.00  0.00     0.004 C 
ENDBRANCH  15  16
ENDBRANCH  14  15
ENDBRANCH  13  14
ENDBRANCH  12  13
ENDBRANCH  11  12
ENDBRANCH  10  11
ENDBRANCH   1  10
TORSDOF 13
ENDMDL
MODEL 4
REMARK VINA RESULT:     6.175      2.275      5.818
REMARK INTER + INTRA:          10.912
REMARK INTER:                  12.010
REMARK INTRA:                  -1.098
REMARK UNBOUND:                 0.044
REMARK SMILES CCCCCCCCCCCCCCC(=O)[O-]
REMARK SMILES IDX 9 1 10 2 11 3 12 4 13 5 14 6 15 7 16 8 17 9 8 10 7 11 6 12
REMARK SMILES IDX 5 13 4 14 3 15 2 16 1 17
REMARK H PARENT
REMARK Flexibility Score: inf
ROOT
ATOM      1  C   UNL     1      -2.492 -15.872   6.631  1.00  0.00     0.000 C 
ENDROOT
BRANCH   1   2
ATOM      2  C   UNL     1      -2.413 -14.458   6.039  1.00  0.00     0.000 C 
BRANCH   2   3
ATOM      3  C   UNL     1      -1.267 -13.659   6.679  1.00  0.00     0.000 C 
BRANCH   3   4
ATOM      4  C   UNL     1      -0.852 -14.211   8.051  1.00  0.00     0.000 C 
BRANCH   4   5
ATOM      5  C   UNL     1       0.563 -13.768   8.463  1.00  0.00     0.006 C 
BRANCH   5   6
ATOM      6  C   UNL     1       1.456 -14.958   8.838  1.00  0.00     0.053 C 
BRANCH   6   7
ATOM      7  C   UNL     1       1.832 -14.937  10.289  1.00  0.00     0.041 C 
ATOM      8  O   UNL     1       3.043 -14.867  10.629  1.00  0.00    -0.550 OA
ATOM      9  O   UNL     1       0.846 -15.022  11.264  1.00  0.00    -0.550 OA
ENDBRANCH   6   7
ENDBRANCH   5   6
ENDBRANCH   4   5
ENDBRANCH   3   4
ENDBRANCH   2   3
ENDBRANCH   1   2
BRANCH   1  10
ATOM     10  C   UNL     1      -3.836 -16.157   7.328  1.00  0.00     0.000 C 
BRANCH  10  11
ATOM     11  C   UNL     1      -5.051 -16.245   6.384  1.00  0.00    -0.000 C 
BRANCH  11  12
ATOM     12  C   UNL     1      -6.417 -15.998   7.052  1.00  0.00    -0.000 C 
BRANCH  12  13
ATOM     13  C   UNL     1      -6.701 -14.513   7.363  1.00  0.00    -0.000 C 
BRANCH  13  14
ATOM     14  C   UNL     1      -6.508 -13.605   6.136  1.00  0.00    -0.000 C 
BRANCH  14  15
ATOM     15  C   UNL     1      -5.459 -12.502   6.366  1.00  0.00    -0.000 C 
BRANCH  15  16
ATOM     16  C   UNL     1      -4.560 -12.711   7.597  1.00  0.00    -0.003 C 
ATOM     17  C   UNL     1      -3.639 -11.523   7.874  1.00  0.00     0.004 C 
ENDBRANCH  15  16
ENDBRANCH  14  15
ENDBRANCH  13  14
ENDBRANCH  12  13
ENDBRANCH  11  12
ENDBRANCH  10  11
ENDBRANCH   1  10
TORSDOF 13
ENDMDL
MODEL 5
REMARK VINA RESULT:     6.956      2.080      5.096
REMARK INTER + INTRA:          12.287
REMARK INTER:                  12.940
REMARK INTRA:                  -0.653
REMARK UNBOUND:                 0.044
REMARK SMILES CCCCCCCCCCCCCCC(=O)[O-]
REMARK SMILES IDX 9 1 10 2 11 3 12 4 13 5 14 6 15 7 16 8 17 9 8 10 7 11 6 12
REMARK SMILES IDX 5 13 4 14 3 15 2 16 1 17
REMARK H PARENT
REMARK Flexibility Score: inf
ROOT
ATOM      1  C   UNL     1      -4.728 -16.478   6.389  1.00  0.00     0.000 C 
ENDROOT
BRANCH   1   2
ATOM      2  C   UNL     1      -3.360 -16.903   6.942  1.00  0.00     0.000 C 
BRANCH   2   3
ATOM      3  C   UNL     1      -2.622 -15.706   7.562  1.00  0.00     0.000 C 
BRANCH   3   4
ATOM      4  C   UNL     1      -2.067 -14.738   6.506  1.00  0.00     0.000 C 
BRANCH   4   5
ATOM      5  C   UNL     1      -1.003 -13.784   7.078  1.00  0.00     0.006 C 
BRANCH   5   6
ATOM      6  C   UNL     1      -0.696 -14.078   8.552  1.00  0.00     0.053 C 
BRANCH   6   7
ATOM      7  C   UNL     1       0.772 -14.271   8.786  1.00  0.00     0.041 C 
ATOM      8  O   UNL     1       1.172 -14.991   9.739  1.00  0.00    -0.550 OA
ATOM      9  O   UNL     1       1.696 -13.633   7.969  1.00  0.00    -0.550 OA
ENDBRANCH   6   7
ENDBRANCH   5   6
ENDBRANCH   4   5
ENDBRANCH   3   4
ENDBRANCH   2   3
ENDBRANCH   1   2
BRANCH   1  10
ATOM     10  C   UNL     1      -5.907 -17.076   7.178  1.00  0.00     0.000 C 
BRANCH  10  11
ATOM     11  C   UNL     1      -7.109 -16.131   7.366  1.00  0.00    -0.000 C 
BRANCH  11  12
ATOM     12  C   UNL     1      -6.754 -14.638   7.497  1.00  0.00    -0.000 C 
BRANCH  12  13
ATOM     13  C   UNL     1      -7.042 -13.813   6.224  1.00  0.00    -0.000 C 
BRANCH  13  14
ATOM     14  C   UNL     1      -6.083 -12.621   6.062  1.00  0.00    -0.000 C 
BRANCH  14  15
ATOM     15  C   UNL     1      -4.621 -12.980   6.384  1.00  0.00    -0.000 C 
BRANCH  15  16
ATOM     16  C   UNL     1      -4.150 -12.571   7.791  1.00  0.00    -0.003 C 
ATOM     17  C   UNL     1      -3.478 -11.198   7.822  1.00  0.00     0.004 C 
ENDBRANCH  15  16
ENDBRANCH  14  15
ENDBRANCH  13  14
ENDBRANCH  12  13
ENDBRANCH  11  12
ENDBRANCH  10  11
ENDBRANCH   1  10
TORSDOF 13
ENDMDL
MODEL 6
REMARK VINA RESULT:     7.174      2.028      3.209
REMARK INTER + INTRA:          12.670
REMARK INTER:                  13.316
REMARK INTRA:                  -0.645
REMARK UNBOUND:                 0.044
REMARK SMILES CCCCCCCCCCCCCCC(=O)[O-]
REMARK SMILES IDX 9 1 10 2 11 3 12 4 13 5 14 6 15 7 16 8 17 9 8 10 7 11 6 12
REMARK SMILES IDX 5 13 4 14 3 15 2 16 1 17
REMARK H PARENT
REMARK Flexibility Score: inf
ROOT
ATOM      1  C   UNL     1      -3.773 -12.249   7.734  1.00  0.00     0.000 C 
ENDROOT
BRANCH   1   2
ATOM      2  C   UNL     1      -5.103 -11.757   7.145  1.00  0.00     0.000 C 
BRANCH   2   3
ATOM      3  C   UNL     1      -5.598 -12.705   6.041  1.00  0.00     0.000 C 
BRANCH   3   4
ATOM      4  C   UNL     1      -6.979 -13.305   6.348  1.00  0.00     0.000 C 
BRANCH   4   5
ATOM      5  C   UNL     1      -6.888 -14.693   7.008  1.00  0.00     0.006 C 
BRANCH   5   6
ATOM      6  C   UNL     1      -6.060 -15.677   6.173  1.00  0.00     0.053 C 
BRANCH   6   7
ATOM      7  C   UNL     1      -5.563 -16.826   6.997  1.00  0.00     0.041 C 
ATOM      8  O   UNL     1      -4.326 -17.031   7.119  1.00  0.00    -0.550 OA
ATOM      9  O   UNL     1      -6.467 -17.686   7.607  1.00  0.00    -0.550 OA
ENDBRANCH   6   7
ENDBRANCH   5   6
ENDBRANCH   4   5
ENDBRANCH   3   4
ENDBRANCH   2   3
ENDBRANCH   1   2
BRANCH   1  10
ATOM     10  C   UNL     1      -3.562 -13.764   7.558  1.00  0.00     0.000 C 
BRANCH  10  11
ATOM     11  C   UNL     1      -2.673 -14.162   6.365  1.00  0.00    -0.000 C 
BRANCH  11  12
ATOM     12  C   UNL     1      -1.157 -14.139   6.642  1.00  0.00    -0.000 C 
BRANCH  12  13
ATOM     13  C   UNL     1      -0.795 -14.233   8.139  1.00  0.00    -0.000 C 
BRANCH  13  14
ATOM     14  C   UNL     1       0.644 -13.772   8.430  1.00  0.00    -0.000 C 
BRANCH  14  15
ATOM     15  C   UNL     1       1.575 -14.931   8.830  1.00  0.00    -0.000 C 
BRANCH  15  16
ATOM     16  C   UNL     1       2.197 -14.806  10.233  1.00  0.00    -0.003 C 
ATOM     17  C   UNL     1       1.230 -15.195  11.352  1.00  0.00     0.004 C 
ENDBRANCH  15  16
ENDBRANCH  14  15
ENDBRANCH  13  14
ENDBRANCH  12  13
ENDBRANCH  11  12
ENDBRANCH  10  11
ENDBRANCH   1  10
TORSDOF 13
ENDMDL
MODEL 7
REMARK VINA RESULT:     7.180     14.969     16.944
REMARK INTER + INTRA:          12.681
REMARK INTER:                  13.470
REMARK INTRA:                  -0.789
REMARK UNBOUND:                 0.044
REMARK SMILES CCCCCCCCCCCCCCC(=O)[O-]
REMARK SMILES IDX 9 1 10 2 11 3 12 4 13 5 14 6 15 7 16 8 17 9 8 10 7 11 6 12
REMARK SMILES IDX 5 13 4 14 3 15 2 16 1 17
REMARK H PARENT
REMARK Flexibility Score: inf
ROOT
ATOM      1  C   UNL     1      -0.819  -7.849  21.687  1.00  0.00     0.000 C 
ENDROOT
BRANCH   1   2
ATOM      2  C   UNL     1      -1.940  -6.887  22.104  1.00  0.00     0.000 C 
BRANCH   2   3
ATOM      3  C   UNL     1      -1.368  -5.663  22.836  1.00  0.00     0.000 C 
BRANCH   3   4
ATOM      4  C   UNL     1      -1.776  -5.611  24.317  1.00  0.00     0.000 C 
BRANCH   4   5
ATOM      5  C   UNL     1      -2.701  -4.423  24.635  1.00  0.00     0.006 C 
BRANCH   5   6
ATOM      6  C   UNL     1      -3.631  -4.714  25.820  1.00  0.00     0.053 C 
BRANCH   6   7
ATOM      7  C   UNL     1      -4.975  -5.197  25.367  1.00  0.00     0.041 C 
ATOM      8  O   UNL     1      -5.977  -5.085  26.122  1.00  0.00    -0.550 OA
ATOM      9  O   UNL     1      -5.115  -5.795  24.121  1.00  0.00    -0.550 OA
ENDBRANCH   6   7
ENDBRANCH   5   6
ENDBRANCH   4   5
ENDBRANCH   3   4
ENDBRANCH   2   3
ENDBRANCH   1   2
BRANCH   1  10
ATOM     10  C   UNL     1      -0.992  -8.387  20.255  1.00  0.00     0.000 C 
BRANCH  10  11
ATOM     11  C   UNL     1      -2.291  -7.951  19.550  1.00  0.00    -0.000 C 
BRANCH  11  12
ATOM     12  C   UNL     1      -3.399  -9.021  19.500  1.00  0.00    -0.000 C 
BRANCH  12  13
ATOM     13  C   UNL     1      -2.956 -10.404  20.025  1.00  0.00    -0.000 C 
BRANCH  13  14
ATOM     14  C   UNL     1      -3.634 -11.565  19.278  1.00  0.00    -0.000 C 
BRANCH  14  15
ATOM     15  C   UNL     1      -4.734 -12.250  20.109  1.00  0.00    -0.000 C 
BRANCH  15  16
ATOM     16  C   UNL     1      -4.791 -11.822  21.586  1.00  0.00    -0.003 C 
ATOM     17  C   UNL     1      -6.219 -11.702  22.120  1.00  0.00     0.004 C 
ENDBRANCH  15  16
ENDBRANCH  14  15
ENDBRANCH  13  14
ENDBRANCH  12  13
ENDBRANCH  11  12
ENDBRANCH  10  11
ENDBRANCH   1  10
TORSDOF 13
ENDMDL
MODEL 8
REMARK VINA RESULT:     7.308     14.762     16.755
REMARK INTER + INTRA:          12.905
REMARK INTER:                  13.361
REMARK INTRA:                  -0.456
REMARK UNBOUND:                 0.044
REMARK SMILES CCCCCCCCCCCCCCC(=O)[O-]
REMARK SMILES IDX 9 1 10 2 11 3 12 4 13 5 14 6 15 7 16 8 17 9 8 10 7 11 6 12
REMARK SMILES IDX 5 13 4 14 3 15 2 16 1 17
REMARK H PARENT
REMARK Flexibility Score: inf
ROOT
ATOM      1  C   UNL     1      -0.712  -7.797  21.538  1.00  0.00     0.000 C 
ENDROOT
BRANCH   1   2
ATOM      2  C   UNL     1      -1.881  -6.958  22.073  1.00  0.00     0.000 C 
BRANCH   2   3
ATOM      3  C   UNL     1      -1.369  -5.756  22.883  1.00  0.00     0.000 C 
BRANCH   3   4
ATOM      4  C   UNL     1      -1.915  -5.731  24.319  1.00  0.00     0.000 C 
BRANCH   4   5
ATOM      5  C   UNL     1      -2.775  -4.488  24.604  1.00  0.00     0.006 C 
BRANCH   5   6
ATOM      6  C   UNL     1      -3.734  -4.704  25.781  1.00  0.00     0.053 C 
BRANCH   6   7
ATOM      7  C   UNL     1      -5.068  -5.214  25.327  1.00  0.00     0.041 C 
ATOM      8  O   UNL     1      -5.182  -5.785  24.210  1.00  0.00    -0.550 OA
ATOM      9  O   UNL     1      -6.190  -5.031  26.125  1.00  0.00    -0.550 OA
ENDBRANCH   6   7
ENDBRANCH   5   6
ENDBRANCH   4   5
ENDBRANCH   3   4
ENDBRANCH   2   3
ENDBRANCH   1   2
BRANCH   1  10
ATOM     10  C   UNL     1      -1.142  -8.805  20.457  1.00  0.00     0.000 C 
BRANCH  10  11
ATOM     11  C   UNL     1      -2.493  -8.499  19.784  1.00  0.00    -0.000 C 
BRANCH  11  12
ATOM     12  C   UNL     1      -3.675  -9.363  20.265  1.00  0.00    -0.000 C 
BRANCH  12  13
ATOM     13  C   UNL     1      -3.351 -10.870  20.353  1.00  0.00    -0.000 C 
BRANCH  13  14
ATOM     14  C   UNL     1      -4.580 -11.719  20.719  1.00  0.00    -0.000 C 
BRANCH  14  15
ATOM     15  C   UNL     1      -4.741 -12.960  19.822  1.00  0.00    -0.000 C 
BRANCH  15  16
ATOM     16  C   UNL     1      -3.528 -13.907  19.805  1.00  0.00    -0.003 C 
ATOM     17  C   UNL     1      -3.919 -15.382  19.889  1.00  0.00     0.004 C 
ENDBRANCH  15  16
ENDBRANCH  14  15
ENDBRANCH  13  14
ENDBRANCH  12  13
ENDBRANCH  11  12
ENDBRANCH  10  11
ENDBRANCH   1  10
TORSDOF 13
ENDMDL
MODEL 9
REMARK VINA RESULT:     7.534     14.815     16.783
REMARK INTER + INTRA:          13.304
REMARK INTER:                  13.850
REMARK INTRA:                  -0.546
REMARK UNBOUND:                 0.044
REMARK SMILES CCCCCCCCCCCCCCC(=O)[O-]
REMARK SMILES IDX 9 1 10 2 11 3 12 4 13 5 14 6 15 7 16 8 17 9 8 10 7 11 6 12
REMARK SMILES IDX 5 13 4 14 3 15 2 16 1 17
REMARK H PARENT
REMARK Flexibility Score: inf
ROOT
ATOM      1  C   UNL     1      -1.182  -8.430  20.575  1.00  0.00     0.000 C 
ENDROOT
BRANCH   1   2
ATOM      2  C   UNL     1      -2.473  -7.852  19.978  1.00  0.00     0.000 C 
BRANCH   2   3
ATOM      3  C   UNL     1      -3.268  -8.936  19.235  1.00  0.00     0.000 C 
BRANCH   3   4
ATOM      4  C   UNL     1      -3.489 -10.198  20.084  1.00  0.00     0.000 C 
BRANCH   4   5
ATOM      5  C   UNL     1      -3.778 -11.444  19.228  1.00  0.00     0.006 C 
BRANCH   5   6
ATOM      6  C   UNL     1      -4.644 -12.468  19.971  1.00  0.00     0.053 C 
BRANCH   6   7
ATOM      7  C   UNL     1      -4.899 -12.057  21.390  1.00  0.00     0.041 C 
ATOM      8  O   UNL     1      -4.090 -12.379  22.299  1.00  0.00    -0.550 OA
ATOM      9  O   UNL     1      -6.047 -11.342  21.710  1.00  0.00    -0.550 OA
ENDBRANCH   6   7
ENDBRANCH   5   6
ENDBRANCH   4   5
ENDBRANCH   3   4
ENDBRANCH   2   3
ENDBRANCH   1   2
BRANCH   1  10
ATOM     10  C   UNL     1      -0.798  -7.782  21.918  1.00  0.00     0.000 C 
BRANCH  10  11
ATOM     11  C   UNL     1      -1.554  -6.481  22.251  1.00  0.00    -0.000 C 
BRANCH  11  12
ATOM     12  C   UNL     1      -1.890  -6.282  23.741  1.00  0.00    -0.000 C 
BRANCH  12  13
ATOM     13  C   UNL     1      -1.839  -4.810  24.201  1.00  0.00    -0.000 C 
BRANCH  13  14
ATOM     14  C   UNL     1      -3.223  -4.267  24.599  1.00  0.00    -0.000 C 
BRANCH  14  15
ATOM     15  C   UNL     1      -3.685  -4.759  25.983  1.00  0.00    -0.000 C 
BRANCH  15  16
ATOM     16  C   UNL     1      -5.100  -5.362  26.014  1.00  0.00    -0.003 C 
ATOM     17  C   UNL     1      -5.704  -5.547  24.622  1.00  0.00     0.004 C 
ENDBRANCH  15  16
ENDBRANCH  14  15
ENDBRANCH  13  14
ENDBRANCH  12  13
ENDBRANCH  11  12
ENDBRANCH  10  11
ENDBRANCH   1  10
TORSDOF 13
ENDMDL
