MODEL 1
REMARK VINA RESULT:    -6.314      0.000      0.000
REMARK INTER + INTRA:          -7.819
REMARK INTER:                  -7.605
REMARK INTRA:                  -0.213
REMARK UNBOUND:                -0.213
REMARK SMILES O=c1c(O)c(-c2ccc(O)c(O)c2)oc2cc(O)cc(O)c12
REMARK SMILES IDX 5 1 3 2 2 3 1 4 22 5 20 6 19 7 17 8 16 9 15 10 14 11 6 12
REMARK SMILES IDX 7 13 8 14 9 15 13 16 11 17 10 18 12 20 4 22 21 24 18 26
REMARK H PARENT 10 19 12 21 4 23 21 25 18 27
REMARK Flexibility Score: inf
ROOT
ATOM      1  C   UNL     1      24.037  22.403  35.321  1.00  0.00     0.180 A 
ATOM      2  C   UNL     1      22.756  22.014  35.745  1.00  0.00     0.208 A 
ATOM      3  C   UNL     1      22.581  20.737  36.303  1.00  0.00     0.238 A 
ATOM      4  O   UNL     1      21.419  20.367  36.612  1.00  0.00    -0.285 OA
ATOM      5  C   UNL     1      23.700  19.886  36.480  1.00  0.00     0.111 A 
ATOM      6  C   UNL     1      23.647  18.589  37.076  1.00  0.00     0.134 A 
ATOM      7  C   UNL     1      24.799  17.795  37.102  1.00  0.00     0.093 A 
ATOM      8  C   UNL     1      26.017  18.275  36.613  1.00  0.00     0.123 A 
ATOM      9  C   UNL     1      26.090  19.559  36.081  1.00  0.00     0.094 A 
ATOM     10  C   UNL     1      24.950  20.361  36.005  1.00  0.00     0.146 A 
ATOM     11  O   UNL     1      25.061  21.572  35.470  1.00  0.00    -0.452 OA
ENDROOT
BRANCH   1  12
ATOM     12  C   UNL     1      24.297  23.727  34.710  1.00  0.00     0.025 A 
ATOM     13  C   UNL     1      24.213  24.911  35.465  1.00  0.00     0.016 A 
ATOM     14  C   UNL     1      24.439  26.150  34.861  1.00  0.00     0.051 A 
ATOM     15  C   UNL     1      24.739  26.227  33.495  1.00  0.00     0.157 A 
ATOM     16  C   UNL     1      24.576  23.811  33.337  1.00  0.00     0.062 A 
ATOM     17  C   UNL     1      24.805  25.051  32.729  1.00  0.00     0.158 A 
BRANCH  15  18
ATOM     18  O   UNL     1      24.966  27.465  32.896  1.00  0.00    -0.504 OA
ATOM     19  H   UNL     1      24.439  27.769  32.086  1.00  0.00     0.293 HD
ENDBRANCH  15  18
BRANCH  17  20
ATOM     20  O   UNL     1      25.094  25.094  31.366  1.00  0.00    -0.504 OA
ATOM     21  H   UNL     1      24.565  25.669  30.721  1.00  0.00     0.293 HD
ENDBRANCH  17  20
ENDBRANCH   1  12
BRANCH   2  22
ATOM     22  O   UNL     1      21.678  22.897  35.632  1.00  0.00    -0.502 OA
ATOM     23  H   UNL     1      21.122  22.970  34.788  1.00  0.00     0.293 HD
ENDBRANCH   2  22
BRANCH   6  24
ATOM     24  O   UNL     1      22.506  18.047  37.674  1.00  0.00    -0.507 OA
ATOM     25  H   UNL     1      22.474  17.170  38.170  1.00  0.00     0.293 HD
ENDBRANCH   6  24
BRANCH   8  26
ATOM     26  O   UNL     1      27.164  17.483  36.659  1.00  0.00    -0.508 OA
ATOM     27  H   UNL     1      27.884  17.634  37.356  1.00  0.00     0.293 HD
ENDBRANCH   8  26
TORSDOF 6
ENDMDL
MODEL 2
REMARK VINA RESULT:    -6.207      2.094      6.314
REMARK INTER + INTRA:          -7.691
REMARK INTER:                  -7.494
REMARK INTRA:                  -0.196
REMARK UNBOUND:                -0.213
REMARK SMILES O=c1c(O)c(-c2ccc(O)c(O)c2)oc2cc(O)cc(O)c12
REMARK SMILES IDX 5 1 3 2 2 3 1 4 22 5 20 6 19 7 17 8 16 9 15 10 14 11 6 12
REMARK SMILES IDX 7 13 8 14 9 15 13 16 11 17 10 18 12 20 4 22 21 24 18 26
REMARK H PARENT 10 19 12 21 4 23 21 25 18 27
REMARK Flexibility Score: inf
ROOT
ATOM      1  C   UNL     1      24.616  21.976  34.805  1.00  0.00     0.180 A 
ATOM      2  C   UNL     1      23.337  21.811  35.363  1.00  0.00     0.208 A 
ATOM      3  C   UNL     1      22.515  22.937  35.527  1.00  0.00     0.238 A 
ATOM      4  O   UNL     1      21.401  22.794  36.095  1.00  0.00    -0.285 OA
ATOM      5  C   UNL     1      22.959  24.206  35.081  1.00  0.00     0.111 A 
ATOM      6  C   UNL     1      22.192  25.408  35.156  1.00  0.00     0.134 A 
ATOM      7  C   UNL     1      22.776  26.623  34.781  1.00  0.00     0.093 A 
ATOM      8  C   UNL     1      24.077  26.673  34.273  1.00  0.00     0.123 A 
ATOM      9  C   UNL     1      24.813  25.498  34.145  1.00  0.00     0.094 A 
ATOM     10  C   UNL     1      24.272  24.274  34.546  1.00  0.00     0.146 A 
ATOM     11  O   UNL     1      25.018  23.182  34.427  1.00  0.00    -0.452 OA
ENDROOT
BRANCH   1  12
ATOM     12  C   UNL     1      25.546  20.839  34.614  1.00  0.00     0.025 A 
ATOM     13  C   UNL     1      26.747  20.745  35.338  1.00  0.00     0.016 A 
ATOM     14  C   UNL     1      27.619  19.675  35.123  1.00  0.00     0.051 A 
ATOM     15  C   UNL     1      27.313  18.693  34.172  1.00  0.00     0.157 A 
ATOM     16  C   UNL     1      25.253  19.864  33.647  1.00  0.00     0.062 A 
ATOM     17  C   UNL     1      26.125  18.790  33.429  1.00  0.00     0.158 A 
BRANCH  15  18
ATOM     18  O   UNL     1      28.185  17.626  33.961  1.00  0.00    -0.504 OA
ATOM     19  H   UNL     1      28.448  17.331  33.028  1.00  0.00     0.293 HD
ENDBRANCH  15  18
BRANCH  17  20
ATOM     20  O   UNL     1      25.794  17.833  32.471  1.00  0.00    -0.504 OA
ATOM     21  H   UNL     1      26.207  17.832  31.546  1.00  0.00     0.293 HD
ENDBRANCH  17  20
ENDBRANCH   1  12
BRANCH   2  22
ATOM     22  O   UNL     1      22.887  20.538  35.727  1.00  0.00    -0.502 OA
ATOM     23  H   UNL     1      22.181  20.394  36.440  1.00  0.00     0.293 HD
ENDBRANCH   2  22
BRANCH   6  24
ATOM     24  O   UNL     1      20.856  25.460  35.564  1.00  0.00    -0.507 OA
ATOM     25  H   UNL     1      20.543  25.706  36.490  1.00  0.00     0.293 HD
ENDBRANCH   6  24
BRANCH   8  26
ATOM     26  O   UNL     1      24.644  27.885  33.886  1.00  0.00    -0.508 OA
ATOM     27  H   UNL     1      24.318  28.767  34.265  1.00  0.00     0.293 HD
ENDBRANCH   8  26
TORSDOF 6
ENDMDL
MODEL 3
REMARK VINA RESULT:    -6.198      2.885      6.090
REMARK INTER + INTRA:          -7.680
REMARK INTER:                  -7.440
REMARK INTRA:                  -0.240
REMARK UNBOUND:                -0.213
REMARK SMILES O=c1c(O)c(-c2ccc(O)c(O)c2)oc2cc(O)cc(O)c12
REMARK SMILES IDX 5 1 3 2 2 3 1 4 22 5 20 6 19 7 17 8 16 9 15 10 14 11 6 12
REMARK SMILES IDX 7 13 8 14 9 15 13 16 11 17 10 18 12 20 4 22 21 24 18 26
REMARK H PARENT 10 19 12 21 4 23 21 25 18 27
REMARK Flexibility Score: inf
ROOT
ATOM      1  C   UNL     1      26.720  19.541  35.494  1.00  0.00     0.180 A 
ATOM      2  C   UNL     1      26.247  18.874  36.636  1.00  0.00     0.208 A 
ATOM      3  C   UNL     1      24.928  19.099  37.060  1.00  0.00     0.238 A 
ATOM      4  O   UNL     1      24.535  18.557  38.125  1.00  0.00    -0.285 OA
ATOM      5  C   UNL     1      24.079  19.946  36.305  1.00  0.00     0.111 A 
ATOM      6  C   UNL     1      22.711  20.210  36.615  1.00  0.00     0.134 A 
ATOM      7  C   UNL     1      22.000  21.148  35.857  1.00  0.00     0.093 A 
ATOM      8  C   UNL     1      22.588  21.782  34.759  1.00  0.00     0.123 A 
ATOM      9  C   UNL     1      23.904  21.489  34.416  1.00  0.00     0.094 A 
ATOM     10  C   UNL     1      24.652  20.587  35.176  1.00  0.00     0.146 A 
ATOM     11  O   UNL     1      25.912  20.354  34.825  1.00  0.00    -0.452 OA
ENDROOT
BRANCH   1  12
ATOM     12  C   UNL     1      28.103  19.367  34.994  1.00  0.00     0.025 A 
ATOM     13  C   UNL     1      28.513  18.172  34.376  1.00  0.00     0.016 A 
ATOM     14  C   UNL     1      29.829  18.022  33.934  1.00  0.00     0.051 A 
ATOM     15  C   UNL     1      30.759  19.054  34.115  1.00  0.00     0.157 A 
ATOM     16  C   UNL     1      29.043  20.390  35.193  1.00  0.00     0.062 A 
ATOM     17  C   UNL     1      30.363  20.243  34.751  1.00  0.00     0.158 A 
BRANCH  15  18
ATOM     18  O   UNL     1      32.072  18.902  33.671  1.00  0.00    -0.504 OA
ATOM     19  H   UNL     1      32.801  18.554  34.281  1.00  0.00     0.293 HD
ENDBRANCH  15  18
BRANCH  17  20
ATOM     20  O   UNL     1      31.265  21.287  34.953  1.00  0.00    -0.504 OA
ATOM     21  H   UNL     1      31.131  22.202  34.538  1.00  0.00     0.293 HD
ENDBRANCH  17  20
ENDBRANCH   1  12
BRANCH   2  22
ATOM     22  O   UNL     1      27.076  17.984  37.325  1.00  0.00    -0.502 OA
ATOM     23  H   UNL     1      26.961  17.785  38.312  1.00  0.00     0.293 HD
ENDBRANCH   2  22
BRANCH   6  24
ATOM     24  O   UNL     1      22.000  19.567  37.633  1.00  0.00    -0.507 OA
ATOM     25  H   UNL     1      21.979  19.860  38.598  1.00  0.00     0.293 HD
ENDBRANCH   6  24
BRANCH   8  26
ATOM     26  O   UNL     1      21.867  22.702  33.999  1.00  0.00    -0.508 OA
ATOM     27  H   UNL     1      21.681  22.545  33.015  1.00  0.00     0.293 HD
ENDBRANCH   8  26
TORSDOF 6
ENDMDL
MODEL 4
REMARK VINA RESULT:    -5.993      2.343      6.299
REMARK INTER + INTRA:          -7.432
REMARK INTER:                  -7.460
REMARK INTRA:                   0.027
REMARK UNBOUND:                -0.213
REMARK SMILES O=c1c(O)c(-c2ccc(O)c(O)c2)oc2cc(O)cc(O)c12
REMARK SMILES IDX 5 1 3 2 2 3 1 4 22 5 20 6 19 7 17 8 16 9 15 10 14 11 6 12
REMARK SMILES IDX 7 13 8 14 9 15 13 16 11 17 10 18 12 20 4 22 21 24 18 26
REMARK H PARENT 10 19 12 21 4 23 21 25 18 27
REMARK Flexibility Score: inf
ROOT
ATOM      1  C   UNL     1      26.002  20.019  35.410  1.00  0.00     0.180 A 
ATOM      2  C   UNL     1      24.772  19.479  35.821  1.00  0.00     0.208 A 
ATOM      3  C   UNL     1      23.680  20.339  36.014  1.00  0.00     0.238 A 
ATOM      4  O   UNL     1      22.603  19.859  36.453  1.00  0.00    -0.285 OA
ATOM      5  C   UNL     1      23.815  21.722  35.739  1.00  0.00     0.111 A 
ATOM      6  C   UNL     1      22.762  22.680  35.855  1.00  0.00     0.134 A 
ATOM      7  C   UNL     1      23.040  24.038  35.658  1.00  0.00     0.093 A 
ATOM      8  C   UNL     1      24.317  24.467  35.287  1.00  0.00     0.123 A 
ATOM      9  C   UNL     1      25.336  23.534  35.118  1.00  0.00     0.094 A 
ATOM     10  C   UNL     1      25.100  22.176  35.343  1.00  0.00     0.146 A 
ATOM     11  O   UNL     1      26.107  21.324  35.192  1.00  0.00    -0.452 OA
ENDROOT
BRANCH   1  12
ATOM     12  C   UNL     1      27.203  19.178  35.201  1.00  0.00     0.025 A 
ATOM     13  C   UNL     1      27.594  18.212  36.144  1.00  0.00     0.016 A 
ATOM     14  C   UNL     1      28.744  17.447  35.936  1.00  0.00     0.051 A 
ATOM     15  C   UNL     1      29.527  17.644  34.792  1.00  0.00     0.157 A 
ATOM     16  C   UNL     1      28.002  19.387  34.066  1.00  0.00     0.062 A 
ATOM     17  C   UNL     1      29.155  18.622  33.853  1.00  0.00     0.158 A 
BRANCH  15  18
ATOM     18  O   UNL     1      30.674  16.878  34.586  1.00  0.00    -0.504 OA
ATOM     19  H   UNL     1      31.597  17.294  34.584  1.00  0.00     0.293 HD
ENDBRANCH  15  18
BRANCH  17  20
ATOM     20  O   UNL     1      29.916  18.848  32.708  1.00  0.00    -0.504 OA
ATOM     21  H   UNL     1      29.492  18.997  31.800  1.00  0.00     0.293 HD
ENDBRANCH  17  20
ENDBRANCH   1  12
BRANCH   2  22
ATOM     22  O   UNL     1      24.638  18.101  36.014  1.00  0.00    -0.502 OA
ATOM     23  H   UNL     1      25.408  17.517  36.323  1.00  0.00     0.293 HD
ENDBRANCH   2  22
BRANCH   6  24
ATOM     24  O   UNL     1      21.432  22.352  36.133  1.00  0.00    -0.507 OA
ATOM     25  H   UNL     1      20.630  22.736  35.657  1.00  0.00     0.293 HD
ENDBRANCH   6  24
BRANCH   8  26
ATOM     26  O   UNL     1      24.580  25.819  35.077  1.00  0.00    -0.508 OA
ATOM     27  H   UNL     1      25.485  26.222  35.294  1.00  0.00     0.293 HD
ENDBRANCH   8  26
TORSDOF 6
ENDMDL
MODEL 5
REMARK VINA RESULT:    -5.743      2.842      3.547
REMARK INTER + INTRA:          -7.132
REMARK INTER:                  -6.855
REMARK INTRA:                  -0.277
REMARK UNBOUND:                -0.213
REMARK SMILES O=c1c(O)c(-c2ccc(O)c(O)c2)oc2cc(O)cc(O)c12
REMARK SMILES IDX 5 1 3 2 2 3 1 4 22 5 20 6 19 7 17 8 16 9 15 10 14 11 6 12
REMARK SMILES IDX 7 13 8 14 9 15 13 16 11 17 10 18 12 20 4 22 21 24 18 26
REMARK H PARENT 10 19 12 21 4 23 21 25 18 27
REMARK Flexibility Score: inf
ROOT
ATOM      1  C   UNL     1      25.333  23.151  35.114  1.00  0.00     0.180 A 
ATOM      2  C   UNL     1      26.293  23.011  36.131  1.00  0.00     0.208 A 
ATOM      3  C   UNL     1      27.007  21.807  36.232  1.00  0.00     0.238 A 
ATOM      4  O   UNL     1      27.811  21.660  37.189  1.00  0.00    -0.285 OA
ATOM      5  C   UNL     1      26.794  20.778  35.282  1.00  0.00     0.111 A 
ATOM      6  C   UNL     1      27.494  19.533  35.261  1.00  0.00     0.134 A 
ATOM      7  C   UNL     1      27.124  18.549  34.338  1.00  0.00     0.093 A 
ATOM      8  C   UNL     1      26.123  18.787  33.392  1.00  0.00     0.123 A 
ATOM      9  C   UNL     1      25.473  20.017  33.369  1.00  0.00     0.094 A 
ATOM     10  C   UNL     1      25.793  21.006  34.302  1.00  0.00     0.146 A 
ATOM     11  O   UNL     1      25.132  22.157  34.258  1.00  0.00    -0.452 OA
ENDROOT
BRANCH   1  12
ATOM     12  C   UNL     1      24.530  24.384  34.952  1.00  0.00     0.025 A 
ATOM     13  C   UNL     1      23.180  24.436  35.344  1.00  0.00     0.016 A 
ATOM     14  C   UNL     1      22.436  25.604  35.158  1.00  0.00     0.051 A 
ATOM     15  C   UNL     1      23.023  26.730  34.567  1.00  0.00     0.157 A 
ATOM     16  C   UNL     1      25.107  25.508  34.340  1.00  0.00     0.062 A 
ATOM     17  C   UNL     1      24.364  26.681  34.154  1.00  0.00     0.158 A 
BRANCH  15  18
ATOM     18  O   UNL     1      22.277  27.894  34.386  1.00  0.00    -0.504 OA
ATOM     19  H   UNL     1      21.504  28.130  34.995  1.00  0.00     0.293 HD
ENDBRANCH  15  18
BRANCH  17  20
ATOM     20  O   UNL     1      24.976  27.781  33.556  1.00  0.00    -0.504 OA
ATOM     21  H   UNL     1      24.547  28.699  33.552  1.00  0.00     0.293 HD
ENDBRANCH  17  20
ENDBRANCH   1  12
BRANCH   2  22
ATOM     22  O   UNL     1      26.542  24.066  37.012  1.00  0.00    -0.502 OA
ATOM     23  H   UNL     1      25.963  24.246  37.824  1.00  0.00     0.293 HD
ENDBRANCH   2  22
BRANCH   6  24
ATOM     24  O   UNL     1      28.568  19.225  36.101  1.00  0.00    -0.507 OA
ATOM     25  H   UNL     1      29.489  18.956  35.788  1.00  0.00     0.293 HD
ENDBRANCH   6  24
BRANCH   8  26
ATOM     26  O   UNL     1      25.773  17.806  32.465  1.00  0.00    -0.508 OA
ATOM     27  H   UNL     1      24.807  17.534  32.322  1.00  0.00     0.293 HD
ENDBRANCH   8  26
TORSDOF 6
ENDMDL
MODEL 6
REMARK VINA RESULT:    -5.704      1.737      3.274
REMARK INTER + INTRA:          -7.084
REMARK INTER:                  -7.546
REMARK INTRA:                   0.462
REMARK UNBOUND:                -0.213
REMARK SMILES O=c1c(O)c(-c2ccc(O)c(O)c2)oc2cc(O)cc(O)c12
REMARK SMILES IDX 5 1 3 2 2 3 1 4 22 5 20 6 19 7 17 8 16 9 15 10 14 11 6 12
REMARK SMILES IDX 7 13 8 14 9 15 13 16 11 17 10 18 12 20 4 22 21 24 18 26
REMARK H PARENT 10 19 12 21 4 23 21 25 18 27
REMARK Flexibility Score: inf
ROOT
ATOM      1  C   UNL     1      24.576  22.376  35.839  1.00  0.00     0.180 A 
ATOM      2  C   UNL     1      25.950  22.089  35.883  1.00  0.00     0.208 A 
ATOM      3  C   UNL     1      26.366  20.808  36.279  1.00  0.00     0.238 A 
ATOM      4  O   UNL     1      27.599  20.580  36.388  1.00  0.00    -0.285 OA
ATOM      5  C   UNL     1      25.402  19.813  36.573  1.00  0.00     0.111 A 
ATOM      6  C   UNL     1      25.710  18.468  36.941  1.00  0.00     0.134 A 
ATOM      7  C   UNL     1      24.675  17.600  37.313  1.00  0.00     0.093 A 
ATOM      8  C   UNL     1      23.340  18.010  37.267  1.00  0.00     0.123 A 
ATOM      9  C   UNL     1      23.027  19.302  36.857  1.00  0.00     0.094 A 
ATOM     10  C   UNL     1      24.039  20.203  36.517  1.00  0.00     0.146 A 
ATOM     11  O   UNL     1      23.696  21.433  36.152  1.00  0.00    -0.452 OA
ENDROOT
BRANCH   1  12
ATOM     12  C   UNL     1      24.060  23.707  35.445  1.00  0.00     0.025 A 
ATOM     13  C   UNL     1      24.916  24.707  34.950  1.00  0.00     0.016 A 
ATOM     14  C   UNL     1      24.410  25.963  34.607  1.00  0.00     0.051 A 
ATOM     15  C   UNL     1      23.047  26.245  34.767  1.00  0.00     0.157 A 
ATOM     16  C   UNL     1      22.699  24.001  35.623  1.00  0.00     0.062 A 
ATOM     17  C   UNL     1      22.188  25.258  35.280  1.00  0.00     0.158 A 
BRANCH  15  18
ATOM     18  O   UNL     1      22.545  27.499  34.422  1.00  0.00    -0.504 OA
ATOM     19  H   UNL     1      22.123  27.672  33.518  1.00  0.00     0.293 HD
ENDBRANCH  15  18
BRANCH  17  20
ATOM     20  O   UNL     1      20.828  25.508  35.458  1.00  0.00    -0.504 OA
ATOM     21  H   UNL     1      20.134  24.773  35.400  1.00  0.00     0.293 HD
ENDBRANCH  17  20
ENDBRANCH   1  12
BRANCH   2  22
ATOM     22  O   UNL     1      26.884  23.062  35.515  1.00  0.00    -0.502 OA
ATOM     23  H   UNL     1      26.745  24.048  35.703  1.00  0.00     0.293 HD
ENDBRANCH   2  22
BRANCH   6  24
ATOM     24  O   UNL     1      26.999  17.929  36.935  1.00  0.00    -0.507 OA
ATOM     25  H   UNL     1      27.561  17.782  36.111  1.00  0.00     0.293 HD
ENDBRANCH   6  24
BRANCH   8  26
ATOM     26  O   UNL     1      22.315  17.134  37.622  1.00  0.00    -0.508 OA
ATOM     27  H   UNL     1      22.135  16.288  37.094  1.00  0.00     0.293 HD
ENDBRANCH   8  26
TORSDOF 6
ENDMDL
MODEL 7
REMARK VINA RESULT:    -5.516      3.108      8.068
REMARK INTER + INTRA:          -6.859
REMARK INTER:                  -6.578
REMARK INTRA:                  -0.281
REMARK UNBOUND:                -0.213
REMARK SMILES O=c1c(O)c(-c2ccc(O)c(O)c2)oc2cc(O)cc(O)c12
REMARK SMILES IDX 5 1 3 2 2 3 1 4 22 5 20 6 19 7 17 8 16 9 15 10 14 11 6 12
REMARK SMILES IDX 7 13 8 14 9 15 13 16 11 17 10 18 12 20 4 22 21 24 18 26
REMARK H PARENT 10 19 12 21 4 23 21 25 18 27
REMARK Flexibility Score: inf
ROOT
ATOM      1  C   UNL     1      23.089  25.133  34.900  1.00  0.00     0.180 A 
ATOM      2  C   UNL     1      23.993  26.152  34.558  1.00  0.00     0.208 A 
ATOM      3  C   UNL     1      23.502  27.441  34.301  1.00  0.00     0.238 A 
ATOM      4  O   UNL     1      24.308  28.331  33.923  1.00  0.00    -0.285 OA
ATOM      5  C   UNL     1      22.118  27.710  34.443  1.00  0.00     0.111 A 
ATOM      6  C   UNL     1      21.515  28.991  34.252  1.00  0.00     0.134 A 
ATOM      7  C   UNL     1      20.122  29.114  34.316  1.00  0.00     0.093 A 
ATOM      8  C   UNL     1      19.315  28.017  34.628  1.00  0.00     0.123 A 
ATOM      9  C   UNL     1      19.898  26.777  34.870  1.00  0.00     0.094 A 
ATOM     10  C   UNL     1      21.282  26.612  34.776  1.00  0.00     0.146 A 
ATOM     11  O   UNL     1      21.794  25.406  34.993  1.00  0.00    -0.452 OA
ENDROOT
BRANCH   1  12
ATOM     12  C   UNL     1      23.529  23.745  35.171  1.00  0.00     0.025 A 
ATOM     13  C   UNL     1      23.902  22.878  34.128  1.00  0.00     0.016 A 
ATOM     14  C   UNL     1      24.290  21.566  34.407  1.00  0.00     0.051 A 
ATOM     15  C   UNL     1      24.300  21.096  35.727  1.00  0.00     0.157 A 
ATOM     16  C   UNL     1      23.520  23.263  36.489  1.00  0.00     0.062 A 
ATOM     17  C   UNL     1      23.910  21.949  36.772  1.00  0.00     0.158 A 
BRANCH  15  18
ATOM     18  O   UNL     1      24.691  19.786  36.001  1.00  0.00    -0.504 OA
ATOM     19  H   UNL     1      25.544  19.581  36.507  1.00  0.00     0.293 HD
ENDBRANCH  15  18
BRANCH  17  20
ATOM     20  O   UNL     1      23.902  21.510  38.096  1.00  0.00    -0.504 OA
ATOM     21  H   UNL     1      23.074  21.567  38.677  1.00  0.00     0.293 HD
ENDBRANCH  17  20
ENDBRANCH   1  12
BRANCH   2  22
ATOM     22  O   UNL     1      25.364  25.885  34.497  1.00  0.00    -0.502 OA
ATOM     23  H   UNL     1      25.947  25.841  35.325  1.00  0.00     0.293 HD
ENDBRANCH   2  22
BRANCH   6  24
ATOM     24  O   UNL     1      22.233  30.168  34.024  1.00  0.00    -0.507 OA
ATOM     25  H   UNL     1      22.664  30.422  33.148  1.00  0.00     0.293 HD
ENDBRANCH   6  24
BRANCH   8  26
ATOM     26  O   UNL     1      17.930  28.153  34.707  1.00  0.00    -0.508 OA
ATOM     27  H   UNL     1      17.491  28.689  35.447  1.00  0.00     0.293 HD
ENDBRANCH   8  26
TORSDOF 6
ENDMDL
MODEL 8
REMARK VINA RESULT:    -5.503      2.440      4.350
REMARK INTER + INTRA:          -6.843
REMARK INTER:                  -7.313
REMARK INTRA:                   0.470
REMARK UNBOUND:                -0.213
REMARK SMILES O=c1c(O)c(-c2ccc(O)c(O)c2)oc2cc(O)cc(O)c12
REMARK SMILES IDX 5 1 3 2 2 3 1 4 22 5 20 6 19 7 17 8 16 9 15 10 14 11 6 12
REMARK SMILES IDX 7 13 8 14 9 15 13 16 11 17 10 18 12 20 4 22 21 24 18 26
REMARK H PARENT 10 19 12 21 4 23 21 25 18 27
REMARK Flexibility Score: inf
ROOT
ATOM      1  C   UNL     1      23.683  25.243  35.091  1.00  0.00     0.180 A 
ATOM      2  C   UNL     1      25.071  25.031  35.108  1.00  0.00     0.208 A 
ATOM      3  C   UNL     1      25.565  23.778  35.503  1.00  0.00     0.238 A 
ATOM      4  O   UNL     1      26.810  23.618  35.587  1.00  0.00    -0.285 OA
ATOM      5  C   UNL     1      24.663  22.734  35.824  1.00  0.00     0.111 A 
ATOM      6  C   UNL     1      25.050  21.410  36.194  1.00  0.00     0.134 A 
ATOM      7  C   UNL     1      24.073  20.491  36.593  1.00  0.00     0.093 A 
ATOM      8  C   UNL     1      22.716  20.826  36.573  1.00  0.00     0.123 A 
ATOM      9  C   UNL     1      22.325  22.097  36.161  1.00  0.00     0.094 A 
ATOM     10  C   UNL     1      23.279  23.049  35.794  1.00  0.00     0.146 A 
ATOM     11  O   UNL     1      22.862  24.256  35.429  1.00  0.00    -0.452 OA
ENDROOT
BRANCH   1  12
ATOM     12  C   UNL     1      23.087  26.541  34.700  1.00  0.00     0.025 A 
ATOM     13  C   UNL     1      23.892  27.637  34.338  1.00  0.00     0.016 A 
ATOM     14  C   UNL     1      23.308  28.858  33.997  1.00  0.00     0.051 A 
ATOM     15  C   UNL     1      21.915  29.009  34.024  1.00  0.00     0.157 A 
ATOM     16  C   UNL     1      21.694  26.703  34.747  1.00  0.00     0.062 A 
ATOM     17  C   UNL     1      21.105  27.926  34.404  1.00  0.00     0.158 A 
BRANCH  15  18
ATOM     18  O   UNL     1      21.336  30.230  33.680  1.00  0.00    -0.504 OA
ATOM     19  H   UNL     1      20.556  30.613  34.201  1.00  0.00     0.293 HD
ENDBRANCH  15  18
BRANCH  17  20
ATOM     20  O   UNL     1      19.717  28.045  34.449  1.00  0.00    -0.504 OA
ATOM     21  H   UNL     1      19.253  28.946  34.450  1.00  0.00     0.293 HD
ENDBRANCH  17  20
ENDBRANCH   1  12
BRANCH   2  22
ATOM     22  O   UNL     1      25.943  26.050  34.714  1.00  0.00    -0.502 OA
ATOM     23  H   UNL     1      26.821  26.228  35.189  1.00  0.00     0.293 HD
ENDBRANCH   2  22
BRANCH   6  24
ATOM     24  O   UNL     1      26.367  20.942  36.163  1.00  0.00    -0.507 OA
ATOM     25  H   UNL     1      26.952  20.913  35.342  1.00  0.00     0.293 HD
ENDBRANCH   6  24
BRANCH   8  26
ATOM     26  O   UNL     1      21.749  19.899  36.955  1.00  0.00    -0.508 OA
ATOM     27  H   UNL     1      21.607  19.038  36.439  1.00  0.00     0.293 HD
ENDBRANCH   8  26
TORSDOF 6
ENDMDL
MODEL 9
REMARK VINA RESULT:    -5.471      2.797      4.746
REMARK INTER + INTRA:          -6.804
REMARK INTER:                  -6.922
REMARK INTRA:                   0.118
REMARK UNBOUND:                -0.213
REMARK SMILES O=c1c(O)c(-c2ccc(O)c(O)c2)oc2cc(O)cc(O)c12
REMARK SMILES IDX 5 1 3 2 2 3 1 4 22 5 20 6 19 7 17 8 16 9 15 10 14 11 6 12
REMARK SMILES IDX 7 13 8 14 9 15 13 16 11 17 10 18 12 20 4 22 21 24 18 26
REMARK H PARENT 10 19 12 21 4 23 21 25 18 27
REMARK Flexibility Score: inf
ROOT
ATOM      1  C   UNL     1      26.164  22.399  35.523  1.00  0.00     0.180 A 
ATOM      2  C   UNL     1      27.327  22.989  36.044  1.00  0.00     0.208 A 
ATOM      3  C   UNL     1      28.518  22.247  36.061  1.00  0.00     0.238 A 
ATOM      4  O   UNL     1      29.538  22.754  36.596  1.00  0.00    -0.285 OA
ATOM      5  C   UNL     1      28.546  20.944  35.505  1.00  0.00     0.111 A 
ATOM      6  C   UNL     1      29.708  20.118  35.427  1.00  0.00     0.134 A 
ATOM      7  C   UNL     1      29.592  18.806  34.953  1.00  0.00     0.093 A 
ATOM      8  C   UNL     1      28.368  18.311  34.494  1.00  0.00     0.123 A 
ATOM      9  C   UNL     1      27.241  19.127  34.515  1.00  0.00     0.094 A 
ATOM     10  C   UNL     1      27.316  20.428  35.018  1.00  0.00     0.146 A 
ATOM     11  O   UNL     1      26.211  21.165  35.039  1.00  0.00    -0.452 OA
ENDROOT
BRANCH   1  12
ATOM     12  C   UNL     1      24.866  23.113  35.484  1.00  0.00     0.025 A 
ATOM     13  C   UNL     1      24.787  24.469  35.119  1.00  0.00     0.016 A 
ATOM     14  C   UNL     1      23.555  25.127  35.113  1.00  0.00     0.051 A 
ATOM     15  C   UNL     1      22.388  24.448  35.486  1.00  0.00     0.157 A 
ATOM     16  C   UNL     1      23.698  22.442  35.878  1.00  0.00     0.062 A 
ATOM     17  C   UNL     1      22.461  23.099  35.872  1.00  0.00     0.158 A 
BRANCH  15  18
ATOM     18  O   UNL     1      21.160  25.108  35.477  1.00  0.00    -0.504 OA
ATOM     19  H   UNL     1      20.507  25.004  34.710  1.00  0.00     0.293 HD
ENDBRANCH  15  18
BRANCH  17  20
ATOM     20  O   UNL     1      21.320  22.396  36.255  1.00  0.00    -0.504 OA
ATOM     21  H   UNL     1      21.241  21.950  37.161  1.00  0.00     0.293 HD
ENDBRANCH  17  20
ENDBRANCH   1  12
BRANCH   2  22
ATOM     22  O   UNL     1      27.298  24.304  36.518  1.00  0.00    -0.502 OA
ATOM     23  H   UNL     1      27.951  24.646  37.214  1.00  0.00     0.293 HD
ENDBRANCH   2  22
BRANCH   6  24
ATOM     24  O   UNL     1      30.994  20.541  35.775  1.00  0.00    -0.507 OA
ATOM     25  H   UNL     1      31.229  21.047  36.615  1.00  0.00     0.293 HD
ENDBRANCH   6  24
BRANCH   8  26
ATOM     26  O   UNL     1      28.265  17.009  34.008  1.00  0.00    -0.508 OA
ATOM     27  H   UNL     1      27.802  16.280  34.539  1.00  0.00     0.293 HD
ENDBRANCH   8  26
TORSDOF 6
ENDMDL
