MODEL 1
REMARK VINA RESULT:    -6.692      0.000      0.000
REMARK INTER + INTRA:          -6.692
REMARK INTER:                  -6.692
REMARK INTRA:                   0.000
REMARK UNBOUND:                 0.000
REMARK SMILES CC1=CC[C@@]23C[C@@H]1C(C)(C)[C@H]2CC[C@@H]3C
REMARK SMILES IDX 15 1 14 2 13 3 12 4 11 5 5 6 4 7 3 8 2 9 7 10 6 11 8 12 9 13
REMARK SMILES IDX 10 14 1 15
REMARK H PARENT
REMARK Flexibility Score: inf
ROOT
ATOM      1  C   UNL     1       8.502  34.649  19.615  1.00  0.00     0.008 C 
ATOM      2  C   UNL     1       9.182  33.367  20.124  1.00  0.00    -0.007 C 
ATOM      3  C   UNL     1      10.736  33.508  20.210  1.00  0.00     0.004 C 
ATOM      4  C   UNL     1      11.126  33.515  21.711  1.00  0.00     0.005 C 
ATOM      5  C   UNL     1       9.791  33.759  22.380  1.00  0.00     0.002 C 
ATOM      6  C   UNL     1       8.784  32.964  21.563  1.00  0.00    -0.020 C 
ATOM      7  C   UNL     1       8.894  31.386  21.690  1.00  0.00     0.035 C 
ATOM      8  C   UNL     1       8.286  30.799  22.952  1.00  0.00    -0.027 C 
ATOM      9  C   UNL     1       7.782  31.595  23.914  1.00  0.00    -0.074 C 
ATOM     10  C   UNL     1       7.902  33.096  23.737  1.00  0.00     0.021 C 
ATOM     11  C   UNL     1       7.499  33.404  22.264  1.00  0.00     0.016 C 
ATOM     12  C   UNL     1       9.409  33.568  23.865  1.00  0.00    -0.025 C 
ATOM     13  C   UNL     1       9.452  34.916  24.623  1.00  0.00     0.012 C 
ATOM     14  C   UNL     1      10.368  32.593  24.595  1.00  0.00     0.012 C 
ATOM     15  C   UNL     1       7.143  31.000  25.137  1.00  0.00     0.039 C 
ENDROOT
TORSDOF 0
ENDMDL
MODEL 2
REMARK VINA RESULT:    -6.303      4.339      6.990
REMARK INTER + INTRA:          -6.303
REMARK INTER:                  -6.303
REMARK INTRA:                   0.000
REMARK UNBOUND:                 0.000
REMARK SMILES CC1=CC[C@@]23C[C@@H]1C(C)(C)[C@H]2CC[C@@H]3C
REMARK SMILES IDX 15 1 14 2 13 3 12 4 11 5 5 6 4 7 3 8 2 9 7 10 6 11 8 12 9 13
REMARK SMILES IDX 10 14 1 15
REMARK H PARENT
REMARK Flexibility Score: inf
ROOT
ATOM      1  C   UNL     1      14.857  29.023  22.793  1.00  0.00     0.008 C 
ATOM      2  C   UNL     1      14.637  29.342  21.305  1.00  0.00    -0.007 C 
ATOM      3  C   UNL     1      13.216  28.923  20.807  1.00  0.00     0.004 C 
ATOM      4  C   UNL     1      12.417  30.221  20.518  1.00  0.00     0.005 C 
ATOM      5  C   UNL     1      13.261  31.268  21.210  1.00  0.00     0.002 C 
ATOM      6  C   UNL     1      14.701  30.848  20.961  1.00  0.00    -0.020 C 
ATOM      7  C   UNL     1      15.209  31.000  19.466  1.00  0.00     0.035 C 
ATOM      8  C   UNL     1      15.584  32.413  19.054  1.00  0.00    -0.027 C 
ATOM      9  C   UNL     1      15.398  33.451  19.891  1.00  0.00    -0.074 C 
ATOM     10  C   UNL     1      14.740  33.182  21.230  1.00  0.00     0.021 C 
ATOM     11  C   UNL     1      15.413  31.902  21.809  1.00  0.00     0.016 C 
ATOM     12  C   UNL     1      13.212  32.805  21.049  1.00  0.00    -0.025 C 
ATOM     13  C   UNL     1      12.394  33.452  22.192  1.00  0.00     0.012 C 
ATOM     14  C   UNL     1      12.559  33.231  19.710  1.00  0.00     0.012 C 
ATOM     15  C   UNL     1      15.814  34.838  19.488  1.00  0.00     0.039 C 
ENDROOT
TORSDOF 0
ENDMDL
MODEL 3
REMARK VINA RESULT:    -6.216      3.220      5.273
REMARK INTER + INTRA:          -6.216
REMARK INTER:                  -6.216
REMARK INTRA:                   0.000
REMARK UNBOUND:                 0.000
REMARK SMILES CC1=CC[C@@]23C[C@@H]1C(C)(C)[C@H]2CC[C@@H]3C
REMARK SMILES IDX 15 1 14 2 13 3 12 4 11 5 5 6 4 7 3 8 2 9 7 10 6 11 8 12 9 13
REMARK SMILES IDX 10 14 1 15
REMARK H PARENT
REMARK Flexibility Score: inf
ROOT
ATOM      1  C   UNL     1      15.822  34.264  19.445  1.00  0.00     0.008 C 
ATOM      2  C   UNL     1      14.337  33.980  19.160  1.00  0.00    -0.007 C 
ATOM      3  C   UNL     1      14.138  32.955  17.996  1.00  0.00     0.004 C 
ATOM      4  C   UNL     1      13.582  31.644  18.613  1.00  0.00     0.005 C 
ATOM      5  C   UNL     1      13.853  31.854  20.087  1.00  0.00     0.002 C 
ATOM      6  C   UNL     1      13.577  33.328  20.338  1.00  0.00    -0.020 C 
ATOM      7  C   UNL     1      12.053  33.763  20.252  1.00  0.00     0.035 C 
ATOM      8  C   UNL     1      11.220  33.431  21.478  1.00  0.00    -0.027 C 
ATOM      9  C   UNL     1      11.743  32.737  22.505  1.00  0.00    -0.074 C 
ATOM     10  C   UNL     1      13.167  32.232  22.375  1.00  0.00     0.021 C 
ATOM     11  C   UNL     1      14.008  33.412  21.802  1.00  0.00     0.016 C 
ATOM     12  C   UNL     1      13.270  31.081  21.292  1.00  0.00    -0.025 C 
ATOM     13  C   UNL     1      14.265  30.006  21.790  1.00  0.00     0.012 C 
ATOM     14  C   UNL     1      11.945  30.360  20.938  1.00  0.00     0.012 C 
ATOM     15  C   UNL     1      10.922  32.453  23.731  1.00  0.00     0.039 C 
ENDROOT
TORSDOF 0
ENDMDL
MODEL 4
REMARK VINA RESULT:    -6.121      4.478      6.546
REMARK INTER + INTRA:          -6.121
REMARK INTER:                  -6.121
REMARK INTRA:                   0.000
REMARK UNBOUND:                 0.000
REMARK SMILES CC1=CC[C@@]23C[C@@H]1C(C)(C)[C@H]2CC[C@@H]3C
REMARK SMILES IDX 15 1 14 2 13 3 12 4 11 5 5 6 4 7 3 8 2 9 7 10 6 11 8 12 9 13
REMARK SMILES IDX 10 14 1 15
REMARK H PARENT
REMARK Flexibility Score: inf
ROOT
ATOM      1  C   UNL     1      15.613  33.532  20.134  1.00  0.00     0.008 C 
ATOM      2  C   UNL     1      14.987  32.698  21.265  1.00  0.00    -0.007 C 
ATOM      3  C   UNL     1      13.705  33.367  21.861  1.00  0.00     0.004 C 
ATOM      4  C   UNL     1      12.487  32.499  21.450  1.00  0.00     0.005 C 
ATOM      5  C   UNL     1      13.075  31.632  20.358  1.00  0.00     0.002 C 
ATOM      6  C   UNL     1      14.485  31.304  20.825  1.00  0.00    -0.020 C 
ATOM      7  C   UNL     1      14.582  30.321  22.067  1.00  0.00     0.035 C 
ATOM      8  C   UNL     1      14.382  28.851  21.742  1.00  0.00    -0.027 C 
ATOM      9  C   UNL     1      14.056  28.455  20.498  1.00  0.00    -0.074 C 
ATOM     10  C   UNL     1      13.823  29.521  19.445  1.00  0.00     0.021 C 
ATOM     11  C   UNL     1      14.982  30.552  19.591  1.00  0.00     0.016 C 
ATOM     12  C   UNL     1      12.499  30.338  19.741  1.00  0.00    -0.025 C 
ATOM     13  C   UNL     1      11.781  30.638  18.404  1.00  0.00     0.012 C 
ATOM     14  C   UNL     1      11.471  29.652  20.677  1.00  0.00     0.012 C 
ATOM     15  C   UNL     1      13.904  26.994  20.179  1.00  0.00     0.039 C 
ENDROOT
TORSDOF 0
ENDMDL
MODEL 5
REMARK VINA RESULT:    -6.092      1.264      4.158
REMARK INTER + INTRA:          -6.092
REMARK INTER:                  -6.092
REMARK INTRA:                   0.000
REMARK UNBOUND:                 0.000
REMARK SMILES CC1=CC[C@@]23C[C@@H]1C(C)(C)[C@H]2CC[C@@H]3C
REMARK SMILES IDX 15 1 14 2 13 3 12 4 11 5 5 6 4 7 3 8 2 9 7 10 6 11 8 12 9 13
REMARK SMILES IDX 10 14 1 15
REMARK H PARENT
REMARK Flexibility Score: inf
ROOT
ATOM      1  C   UNL     1       7.844  31.639  25.000  1.00  0.00     0.008 C 
ATOM      2  C   UNL     1       8.299  32.991  24.424  1.00  0.00    -0.007 C 
ATOM      3  C   UNL     1       9.472  33.624  25.241  1.00  0.00     0.004 C 
ATOM      4  C   UNL     1      10.743  33.575  24.354  1.00  0.00     0.005 C 
ATOM      5  C   UNL     1      10.331  32.601  23.271  1.00  0.00     0.002 C 
ATOM      6  C   UNL     1       8.869  32.913  22.990  1.00  0.00    -0.020 C 
ATOM      7  C   UNL     1       8.593  34.296  22.264  1.00  0.00     0.035 C 
ATOM      8  C   UNL     1       8.849  34.299  20.766  1.00  0.00    -0.027 C 
ATOM      9  C   UNL     1       9.361  33.219  20.149  1.00  0.00    -0.074 C 
ATOM     10  C   UNL     1       9.741  32.022  20.998  1.00  0.00     0.021 C 
ATOM     11  C   UNL     1       8.568  31.791  21.996  1.00  0.00     0.016 C 
ATOM     12  C   UNL     1      11.002  32.341  21.903  1.00  0.00    -0.025 C 
ATOM     13  C   UNL     1      11.910  31.090  21.963  1.00  0.00     0.012 C 
ATOM     14  C   UNL     1      11.882  33.534  21.448  1.00  0.00     0.012 C 
ATOM     15  C   UNL     1       9.567  33.219  18.660  1.00  0.00     0.039 C 
ENDROOT
TORSDOF 0
ENDMDL
MODEL 6
REMARK VINA RESULT:    -6.022      1.458      3.772
REMARK INTER + INTRA:          -6.022
REMARK INTER:                  -6.022
REMARK INTRA:                   0.000
REMARK UNBOUND:                 0.000
REMARK SMILES CC1=CC[C@@]23C[C@@H]1C(C)(C)[C@H]2CC[C@@H]3C
REMARK SMILES IDX 15 1 14 2 13 3 12 4 11 5 5 6 4 7 3 8 2 9 7 10 6 11 8 12 9 13
REMARK SMILES IDX 10 14 1 15
REMARK H PARENT
REMARK Flexibility Score: inf
ROOT
ATOM      1  C   UNL     1       9.287  34.220  25.001  1.00  0.00     0.008 C 
ATOM      2  C   UNL     1       9.792  34.191  23.548  1.00  0.00    -0.007 C 
ATOM      3  C   UNL     1      11.062  33.296  23.375  1.00  0.00     0.004 C 
ATOM      4  C   UNL     1      10.648  32.047  22.553  1.00  0.00     0.005 C 
ATOM      5  C   UNL     1       9.138  32.106  22.634  1.00  0.00     0.002 C 
ATOM      6  C   UNL     1       8.791  33.584  22.539  1.00  0.00    -0.020 C 
ATOM      7  C   UNL     1       9.038  34.255  21.122  1.00  0.00     0.035 C 
ATOM      8  C   UNL     1       7.970  33.970  20.081  1.00  0.00    -0.027 C 
ATOM      9  C   UNL     1       6.951  33.131  20.344  1.00  0.00    -0.074 C 
ATOM     10  C   UNL     1       6.936  32.422  21.685  1.00  0.00     0.021 C 
ATOM     11  C   UNL     1       7.281  33.494  22.760  1.00  0.00     0.016 C 
ATOM     12  C   UNL     1       8.098  31.349  21.777  1.00  0.00    -0.025 C 
ATOM     13  C   UNL     1       7.574  30.099  22.524  1.00  0.00     0.012 C 
ATOM     14  C   UNL     1       8.691  30.869  20.427  1.00  0.00     0.012 C 
ATOM     15  C   UNL     1       5.877  32.892  19.321  1.00  0.00     0.039 C 
ENDROOT
TORSDOF 0
ENDMDL
MODEL 7
REMARK VINA RESULT:    -5.990      1.365      3.143
REMARK INTER + INTRA:          -5.990
REMARK INTER:                  -5.990
REMARK INTRA:                   0.000
REMARK UNBOUND:                 0.000
REMARK SMILES CC1=CC[C@@]23C[C@@H]1C(C)(C)[C@H]2CC[C@@H]3C
REMARK SMILES IDX 15 1 14 2 13 3 12 4 11 5 5 6 4 7 3 8 2 9 7 10 6 11 8 12 9 13
REMARK SMILES IDX 10 14 1 15
REMARK H PARENT
REMARK Flexibility Score: inf
ROOT
ATOM      1  C   UNL     1       6.080  31.355  20.404  1.00  0.00     0.008 C 
ATOM      2  C   UNL     1       6.800  30.881  21.678  1.00  0.00    -0.007 C 
ATOM      3  C   UNL     1       7.787  29.700  21.401  1.00  0.00     0.004 C 
ATOM      4  C   UNL     1       9.229  30.238  21.588  1.00  0.00     0.005 C 
ATOM      5  C   UNL     1       9.008  31.735  21.580  1.00  0.00     0.002 C 
ATOM      6  C   UNL     1       7.704  31.949  22.334  1.00  0.00    -0.020 C 
ATOM      7  C   UNL     1       7.762  31.668  23.894  1.00  0.00     0.035 C 
ATOM      8  C   UNL     1       8.387  32.775  24.725  1.00  0.00    -0.027 C 
ATOM      9  C   UNL     1       8.926  33.860  24.139  1.00  0.00    -0.074 C 
ATOM     10  C   UNL     1       8.957  33.916  22.625  1.00  0.00     0.021 C 
ATOM     11  C   UNL     1       7.551  33.457  22.133  1.00  0.00     0.016 C 
ATOM     12  C   UNL     1       9.973  32.853  22.034  1.00  0.00    -0.025 C 
ATOM     13  C   UNL     1      10.705  33.476  20.821  1.00  0.00     0.012 C 
ATOM     14  C   UNL     1      11.055  32.330  23.012  1.00  0.00     0.012 C 
ATOM     15  C   UNL     1       9.502  34.969  24.974  1.00  0.00     0.039 C 
ENDROOT
TORSDOF 0
ENDMDL
MODEL 8
REMARK VINA RESULT:    -5.948      1.382      2.615
REMARK INTER + INTRA:          -5.948
REMARK INTER:                  -5.948
REMARK INTRA:                   0.000
REMARK UNBOUND:                 0.000
REMARK SMILES CC1=CC[C@@]23C[C@@H]1C(C)(C)[C@H]2CC[C@@H]3C
REMARK SMILES IDX 15 1 14 2 13 3 12 4 11 5 5 6 4 7 3 8 2 9 7 10 6 11 8 12 9 13
REMARK SMILES IDX 10 14 1 15
REMARK H PARENT
REMARK Flexibility Score: inf
ROOT
ATOM      1  C   UNL     1      12.783  33.753  20.337  1.00  0.00     0.008 C 
ATOM      2  C   UNL     1      11.970  32.535  20.806  1.00  0.00    -0.007 C 
ATOM      3  C   UNL     1      12.517  31.929  22.139  1.00  0.00     0.004 C 
ATOM      4  C   UNL     1      11.473  32.215  23.250  1.00  0.00     0.005 C 
ATOM      5  C   UNL     1      10.604  33.268  22.597  1.00  0.00     0.002 C 
ATOM      6  C   UNL     1      10.493  32.846  21.140  1.00  0.00    -0.020 C 
ATOM      7  C   UNL     1       9.632  31.541  20.868  1.00  0.00     0.035 C 
ATOM      8  C   UNL     1       8.127  31.747  20.890  1.00  0.00    -0.027 C 
ATOM      9  C   UNL     1       7.596  32.942  21.210  1.00  0.00    -0.074 C 
ATOM     10  C   UNL     1       8.538  34.058  21.618  1.00  0.00     0.021 C 
ATOM     11  C   UNL     1       9.714  34.044  20.598  1.00  0.00     0.016 C 
ATOM     12  C   UNL     1       9.202  33.759  23.025  1.00  0.00    -0.025 C 
ATOM     13  C   UNL     1       9.302  35.079  23.826  1.00  0.00     0.012 C 
ATOM     14  C   UNL     1       8.469  32.727  23.919  1.00  0.00     0.012 C 
ATOM     15  C   UNL     1       6.107  33.145  21.184  1.00  0.00     0.039 C 
ENDROOT
TORSDOF 0
ENDMDL
MODEL 9
REMARK VINA RESULT:    -5.879      4.311      6.784
REMARK INTER + INTRA:          -5.879
REMARK INTER:                  -5.879
REMARK INTRA:                   0.000
REMARK UNBOUND:                 0.000
REMARK SMILES CC1=CC[C@@]23C[C@@H]1C(C)(C)[C@H]2CC[C@@H]3C
REMARK SMILES IDX 15 1 14 2 13 3 12 4 11 5 5 6 4 7 3 8 2 9 7 10 6 11 8 12 9 13
REMARK SMILES IDX 10 14 1 15
REMARK H PARENT
REMARK Flexibility Score: inf
ROOT
ATOM      1  C   UNL     1      14.337  28.860  21.797  1.00  0.00     0.008 C 
ATOM      2  C   UNL     1      14.143  30.280  22.353  1.00  0.00    -0.007 C 
ATOM      3  C   UNL     1      15.430  30.831  23.049  1.00  0.00     0.004 C 
ATOM      4  C   UNL     1      15.992  31.973  22.164  1.00  0.00     0.005 C 
ATOM      5  C   UNL     1      15.244  31.759  20.865  1.00  0.00     0.002 C 
ATOM      6  C   UNL     1      13.839  31.349  21.278  1.00  0.00    -0.020 C 
ATOM      7  C   UNL     1      12.959  32.491  21.941  1.00  0.00     0.035 C 
ATOM      8  C   UNL     1      12.349  33.481  20.965  1.00  0.00    -0.027 C 
ATOM      9  C   UNL     1      12.629  33.420  19.650  1.00  0.00    -0.074 C 
ATOM     10  C   UNL     1      13.627  32.381  19.178  1.00  0.00     0.021 C 
ATOM     11  C   UNL     1      13.257  31.049  19.897  1.00  0.00     0.016 C 
ATOM     12  C   UNL     1      15.092  32.728  19.671  1.00  0.00    -0.025 C 
ATOM     13  C   UNL     1      16.098  32.381  18.548  1.00  0.00     0.012 C 
ATOM     14  C   UNL     1      15.340  34.203  20.080  1.00  0.00     0.012 C 
ATOM     15  C   UNL     1      11.984  34.378  18.688  1.00  0.00     0.039 C 
ENDROOT
TORSDOF 0
ENDMDL
