MODEL 1
REMARK VINA RESULT:    -6.119      0.000      0.000
REMARK INTER + INTRA:         -10.084
REMARK INTER:                  -8.623
REMARK INTRA:                  -1.462
REMARK UNBOUND:                -1.462
REMARK SMILES COc1c(O[C@H]2O[C@H](C(=O)[O-])[C@H](O)[C@@H](O)[C@H]2O)cc(O)c2c(=O)cc(-c3ccccc3)oc12
REMARK SMILES IDX 5 1 6 2 8 3 12 4 7 5 14 6 16 7 9 8 10 9 11 10 13 11 15 13
REMARK SMILES IDX 17 15 4 17 3 18 18 19 33 20 19 21 21 22 32 23 22 24 25 25
REMARK SMILES IDX 24 26 23 27 2 28 1 29 20 30 26 32 27 33 31 34 28 35 30 36
REMARK SMILES IDX 29 37
REMARK H PARENT 13 12 15 14 17 16 20 31
REMARK Flexibility Score: inf
ROOT
ATOM      1  O   UNL     1      25.189  14.990  12.219  1.00  0.00    -0.458 OA
ENDROOT
BRANCH   1   2
ATOM      2  C   UNL     1      24.089  15.882  12.455  1.00  0.00     0.339 C 
ATOM      3  C   UNL     1      22.286  14.530  11.759  1.00  0.00     0.199 C 
ATOM      4  C   UNL     1      21.375  14.820  12.989  1.00  0.00     0.180 C 
ATOM      5  O   UNL     1      23.088  15.666  11.463  1.00  0.00    -0.328 OA
ATOM      6  C   UNL     1      22.019  15.896  13.909  1.00  0.00     0.181 C 
ATOM      7  C   UNL     1      23.553  15.731  13.914  1.00  0.00     0.214 C 
BRANCH   3   8
ATOM      8  C   UNL     1      21.497  14.132  10.544  1.00  0.00     0.073 C 
ATOM      9  O   UNL     1      21.176  12.931  10.350  1.00  0.00    -0.547 OA
ATOM     10  O   UNL     1      21.124  15.095   9.619  1.00  0.00    -0.547 OA
ENDBRANCH   3   8
BRANCH   4  11
ATOM     11  O   UNL     1      20.064  15.164  12.590  1.00  0.00    -0.387 OA
ATOM     12  H   UNL     1      19.669  15.823  13.215  1.00  0.00     0.211 HD
ENDBRANCH   4  11
BRANCH   6  13
ATOM     13  O   UNL     1      21.452  15.835  15.201  1.00  0.00    -0.387 OA
ATOM     14  H   UNL     1      20.689  16.468  15.247  1.00  0.00     0.211 HD
ENDBRANCH   6  13
BRANCH   7  15
ATOM     15  O   UNL     1      23.885  14.457  14.407  1.00  0.00    -0.384 OA
ATOM     16  H   UNL     1      23.222  14.221  15.110  1.00  0.00     0.211 HD
ENDBRANCH   7  15
ENDBRANCH   1   2
BRANCH   1  17
ATOM     17  C   UNL     1      25.945  14.952  11.033  1.00  0.00     0.172 A 
ATOM     18  C   UNL     1      25.825  13.848  10.169  1.00  0.00     0.205 A 
ATOM     19  C   UNL     1      26.872  15.967  10.732  1.00  0.00     0.097 A 
ATOM     20  C   UNL     1      26.698  13.713   9.083  1.00  0.00     0.188 A 
ATOM     21  C   UNL     1      27.719  15.863   9.623  1.00  0.00     0.134 A 
ATOM     22  C   UNL     1      27.649  14.721   8.797  1.00  0.00     0.111 A 
ATOM     23  O   UNL     1      26.616  12.631   8.318  1.00  0.00    -0.452 OA
ATOM     24  C   UNL     1      28.497  14.522   7.685  1.00  0.00     0.197 A 
ATOM     25  C   UNL     1      27.396  12.416   7.262  1.00  0.00     0.138 A 
ATOM     26  C   UNL     1      28.367  13.366   6.918  1.00  0.00     0.100 A 
ATOM     27  O   UNL     1      29.384  15.363   7.378  1.00  0.00    -0.289 OA
BRANCH  18  28
ATOM     28  O   UNL     1      24.899  12.819  10.399  1.00  0.00    -0.490 OA
ATOM     29  C   UNL     1      25.128  11.742  11.302  1.00  0.00     0.278 C 
ENDBRANCH  18  28
BRANCH  21  30
ATOM     30  O   UNL     1      28.625  16.891   9.353  1.00  0.00    -0.507 OA
ATOM     31  H   UNL     1      29.586  16.855   9.682  1.00  0.00     0.293 HD
ENDBRANCH  21  30
BRANCH  25  32
ATOM     32  C   UNL     1      27.230  11.160   6.495  1.00  0.00     0.017 A 
ATOM     33  C   UNL     1      27.173  11.211   5.089  1.00  0.00     0.012 A 
ATOM     34  C   UNL     1      27.141   9.907   7.134  1.00  0.00     0.012 A 
ATOM     35  C   UNL     1      27.005  10.041   4.343  1.00  0.00     0.001 A 
ATOM     36  C   UNL     1      26.972   8.741   6.382  1.00  0.00     0.001 A 
ATOM     37  C   UNL     1      26.904   8.808   4.988  1.00  0.00     0.000 A 
ENDBRANCH  25  32
ENDBRANCH   1  17
TORSDOF 9
ENDMDL
MODEL 2
REMARK VINA RESULT:    -6.093      5.733     11.508
REMARK INTER + INTRA:         -10.048
REMARK INTER:                  -8.607
REMARK INTRA:                  -1.441
REMARK UNBOUND:                -1.462
REMARK SMILES COc1c(O[C@H]2O[C@H](C(=O)[O-])[C@H](O)[C@@H](O)[C@H]2O)cc(O)c2c(=O)cc(-c3ccccc3)oc12
REMARK SMILES IDX 5 1 6 2 8 3 12 4 7 5 14 6 16 7 9 8 10 9 11 10 13 11 15 13
REMARK SMILES IDX 17 15 4 17 3 18 18 19 33 20 19 21 21 22 32 23 22 24 25 25
REMARK SMILES IDX 24 26 23 27 2 28 1 29 20 30 26 32 27 33 31 34 28 35 30 36
REMARK SMILES IDX 29 37
REMARK H PARENT 13 12 15 14 17 16 20 31
REMARK Flexibility Score: inf
ROOT
ATOM      1  O   UNL     1      19.485  13.211  12.140  1.00  0.00    -0.458 OA
ENDROOT
BRANCH   1   2
ATOM      2  C   UNL     1      19.909  14.513  11.707  1.00  0.00     0.339 C 
ATOM      3  C   UNL     1      21.936  14.718  12.896  1.00  0.00     0.199 C 
ATOM      4  C   UNL     1      22.784  15.234  11.694  1.00  0.00     0.180 C 
ATOM      5  O   UNL     1      20.592  15.164  12.777  1.00  0.00    -0.328 OA
ATOM      6  C   UNL     1      21.882  15.474  10.450  1.00  0.00     0.181 C 
ATOM      7  C   UNL     1      20.761  14.416  10.402  1.00  0.00     0.214 C 
BRANCH   3   8
ATOM      8  C   UNL     1      22.501  15.147  14.220  1.00  0.00     0.073 C 
ATOM      9  O   UNL     1      21.955  16.063  14.887  1.00  0.00    -0.547 OA
ATOM     10  O   UNL     1      23.644  14.534  14.712  1.00  0.00    -0.547 OA
ENDBRANCH   3   8
BRANCH   4  11
ATOM     11  O   UNL     1      23.534  16.378  12.047  1.00  0.00    -0.387 OA
ATOM     12  H   UNL     1      22.987  17.002  12.589  1.00  0.00     0.211 HD
ENDBRANCH   4  11
BRANCH   6  13
ATOM     13  O   UNL     1      22.669  15.500   9.276  1.00  0.00    -0.387 OA
ATOM     14  H   UNL     1      22.133  15.893   8.540  1.00  0.00     0.211 HD
ENDBRANCH   6  13
BRANCH   7  15
ATOM     15  O   UNL     1      21.331  13.134  10.307  1.00  0.00    -0.384 OA
ATOM     16  H   UNL     1      22.161  13.210   9.765  1.00  0.00     0.211 HD
ENDBRANCH   7  15
ENDBRANCH   1   2
BRANCH   1  17
ATOM     17  C   UNL     1      18.181  12.898  12.566  1.00  0.00     0.172 A 
ATOM     18  C   UNL     1      17.962  12.516  13.903  1.00  0.00     0.205 A 
ATOM     19  C   UNL     1      17.105  12.891  11.660  1.00  0.00     0.097 A 
ATOM     20  C   UNL     1      16.708  12.032  14.293  1.00  0.00     0.188 A 
ATOM     21  C   UNL     1      15.836  12.449  12.053  1.00  0.00     0.134 A 
ATOM     22  C   UNL     1      15.632  11.998  13.375  1.00  0.00     0.111 A 
ATOM     23  O   UNL     1      16.538  11.612  15.542  1.00  0.00    -0.452 OA
ATOM     24  C   UNL     1      14.395  11.500  13.835  1.00  0.00     0.197 A 
ATOM     25  C   UNL     1      15.383  11.142  16.008  1.00  0.00     0.138 A 
ATOM     26  C   UNL     1      14.273  11.071  15.156  1.00  0.00     0.100 A 
ATOM     27  O   UNL     1      13.395  11.418  13.071  1.00  0.00    -0.289 OA
BRANCH  18  28
ATOM     28  O   UNL     1      18.988  12.531  14.860  1.00  0.00    -0.490 OA
ATOM     29  C   UNL     1      19.305  13.670  15.654  1.00  0.00     0.278 C 
ENDBRANCH  18  28
BRANCH  21  30
ATOM     30  O   UNL     1      14.790  12.459  11.127  1.00  0.00    -0.507 OA
ATOM     31  H   UNL     1      14.194  13.272  11.006  1.00  0.00     0.293 HD
ENDBRANCH  21  30
BRANCH  25  32
ATOM     32  C   UNL     1      15.317  10.678  17.413  1.00  0.00     0.017 A 
ATOM     33  C   UNL     1      16.471  10.744  18.218  1.00  0.00     0.012 A 
ATOM     34  C   UNL     1      14.123  10.185  17.976  1.00  0.00     0.012 A 
ATOM     35  C   UNL     1      16.437  10.301  19.543  1.00  0.00     0.001 A 
ATOM     36  C   UNL     1      14.097   9.743  19.302  1.00  0.00     0.001 A 
ATOM     37  C   UNL     1      15.253   9.801  20.084  1.00  0.00     0.000 A 
ENDBRANCH  25  32
ENDBRANCH   1  17
TORSDOF 9
ENDMDL
MODEL 3
REMARK VINA RESULT:    -5.886      3.388      8.746
REMARK INTER + INTRA:          -9.756
REMARK INTER:                  -8.700
REMARK INTRA:                  -1.056
REMARK UNBOUND:                -1.462
REMARK SMILES COc1c(O[C@H]2O[C@H](C(=O)[O-])[C@H](O)[C@@H](O)[C@H]2O)cc(O)c2c(=O)cc(-c3ccccc3)oc12
REMARK SMILES IDX 5 1 6 2 8 3 12 4 7 5 14 6 16 7 9 8 10 9 11 10 13 11 15 13
REMARK SMILES IDX 17 15 4 17 3 18 18 19 33 20 19 21 21 22 32 23 22 24 25 25
REMARK SMILES IDX 24 26 23 27 2 28 1 29 20 30 26 32 27 33 31 34 28 35 30 36
REMARK SMILES IDX 29 37
REMARK H PARENT 13 12 15 14 17 16 20 31
REMARK Flexibility Score: inf
ROOT
ATOM      1  O   UNL     1      28.580  11.556   7.047  1.00  0.00    -0.458 OA
ENDROOT
BRANCH   1   2
ATOM      2  C   UNL     1      27.810  10.348   6.960  1.00  0.00     0.339 C 
ATOM      3  C   UNL     1      27.285  10.341   4.661  1.00  0.00     0.199 C 
ATOM      4  C   UNL     1      27.646   8.845   4.411  1.00  0.00     0.180 C 
ATOM      5  O   UNL     1      26.787  10.512   5.980  1.00  0.00    -0.328 OA
ATOM      6  C   UNL     1      28.001   8.135   5.748  1.00  0.00     0.181 C 
ATOM      7  C   UNL     1      28.733   9.118   6.686  1.00  0.00     0.214 C 
BRANCH   3   8
ATOM      8  C   UNL     1      26.287  10.862   3.666  1.00  0.00     0.073 C 
ATOM      9  O   UNL     1      26.591  11.791   2.875  1.00  0.00    -0.547 OA
ATOM     10  O   UNL     1      25.012  10.319   3.621  1.00  0.00    -0.547 OA
ENDBRANCH   3   8
BRANCH   4  11
ATOM     11  O   UNL     1      26.622   8.181   3.700  1.00  0.00    -0.387 OA
ATOM     12  H   UNL     1      26.916   7.972   2.777  1.00  0.00     0.211 HD
ENDBRANCH   4  11
BRANCH   6  13
ATOM     13  O   UNL     1      28.740   6.959   5.494  1.00  0.00    -0.387 OA
ATOM     14  H   UNL     1      28.592   6.320   6.238  1.00  0.00     0.211 HD
ENDBRANCH   6  13
BRANCH   7  15
ATOM     15  O   UNL     1      29.922   9.550   6.074  1.00  0.00    -0.384 OA
ATOM     16  H   UNL     1      30.423   8.743   5.780  1.00  0.00     0.211 HD
ENDBRANCH   7  15
ENDBRANCH   1   2
BRANCH   1  17
ATOM     17  C   UNL     1      28.157  12.727   7.702  1.00  0.00     0.172 A 
ATOM     18  C   UNL     1      29.039  13.818   7.812  1.00  0.00     0.205 A 
ATOM     19  C   UNL     1      26.891  12.798   8.312  1.00  0.00     0.097 A 
ATOM     20  C   UNL     1      28.696  14.915   8.612  1.00  0.00     0.188 A 
ATOM     21  C   UNL     1      26.522  13.910   9.079  1.00  0.00     0.134 A 
ATOM     22  C   UNL     1      27.434  14.974   9.248  1.00  0.00     0.111 A 
ATOM     23  O   UNL     1      29.569  15.905   8.758  1.00  0.00    -0.452 OA
ATOM     24  C   UNL     1      27.153  16.109  10.039  1.00  0.00     0.197 A 
ATOM     25  C   UNL     1      29.333  16.990   9.491  1.00  0.00     0.138 A 
ATOM     26  C   UNL     1      28.107  17.118  10.158  1.00  0.00     0.100 A 
ATOM     27  O   UNL     1      26.059  16.225  10.655  1.00  0.00    -0.289 OA
BRANCH  18  28
ATOM     28  O   UNL     1      30.301  13.819   7.200  1.00  0.00    -0.490 OA
ATOM     29  C   UNL     1      30.548  14.363   5.907  1.00  0.00     0.278 C 
ENDBRANCH  18  28
BRANCH  21  30
ATOM     30  O   UNL     1      25.256  13.947   9.668  1.00  0.00    -0.507 OA
ATOM     31  H   UNL     1      25.042  14.584  10.430  1.00  0.00     0.293 HD
ENDBRANCH  21  30
BRANCH  25  32
ATOM     32  C   UNL     1      30.391  18.021   9.603  1.00  0.00     0.017 A 
ATOM     33  C   UNL     1      30.567  18.701  10.824  1.00  0.00     0.012 A 
ATOM     34  C   UNL     1      31.239  18.333   8.522  1.00  0.00     0.012 A 
ATOM     35  C   UNL     1      31.549  19.686  10.951  1.00  0.00     0.001 A 
ATOM     36  C   UNL     1      32.219  19.321   8.656  1.00  0.00     0.001 A 
ATOM     37  C   UNL     1      32.374  19.997   9.869  1.00  0.00     0.000 A 
ENDBRANCH  25  32
ENDBRANCH   1  17
TORSDOF 9
ENDMDL
MODEL 4
REMARK VINA RESULT:    -5.839      3.489      8.905
REMARK INTER + INTRA:          -9.690
REMARK INTER:                  -8.505
REMARK INTRA:                  -1.185
REMARK UNBOUND:                -1.462
REMARK SMILES COc1c(O[C@H]2O[C@H](C(=O)[O-])[C@H](O)[C@@H](O)[C@H]2O)cc(O)c2c(=O)cc(-c3ccccc3)oc12
REMARK SMILES IDX 5 1 6 2 8 3 12 4 7 5 14 6 16 7 9 8 10 9 11 10 13 11 15 13
REMARK SMILES IDX 17 15 4 17 3 18 18 19 33 20 19 21 21 22 32 23 22 24 25 25
REMARK SMILES IDX 24 26 23 27 2 28 1 29 20 30 26 32 27 33 31 34 28 35 30 36
REMARK SMILES IDX 29 37
REMARK H PARENT 13 12 15 14 17 16 20 31
REMARK Flexibility Score: inf
ROOT
ATOM      1  O   UNL     1      23.721  13.689  11.699  1.00  0.00    -0.458 OA
ENDROOT
BRANCH   1   2
ATOM      2  C   UNL     1      24.714  14.609  12.180  1.00  0.00     0.339 C 
ATOM      3  C   UNL     1      26.642  13.737  11.140  1.00  0.00     0.199 C 
ATOM      4  C   UNL     1      27.188  15.104  10.626  1.00  0.00     0.180 C 
ATOM      5  O   UNL     1      25.946  13.915  12.365  1.00  0.00    -0.328 OA
ATOM      6  C   UNL     1      26.317  16.277  11.157  1.00  0.00     0.181 C 
ATOM      7  C   UNL     1      24.838  15.842  11.229  1.00  0.00     0.214 C 
BRANCH   3   8
ATOM      8  C   UNL     1      27.731  12.716  11.314  1.00  0.00     0.073 C 
ATOM      9  O   UNL     1      28.490  12.748  12.316  1.00  0.00    -0.547 OA
ATOM     10  O   UNL     1      27.909  11.729  10.355  1.00  0.00    -0.547 OA
ENDBRANCH   3   8
BRANCH   4  11
ATOM     11  O   UNL     1      28.557  15.262  10.940  1.00  0.00    -0.387 OA
ATOM     12  H   UNL     1      28.889  16.140  10.624  1.00  0.00     0.211 HD
ENDBRANCH   4  11
BRANCH   6  13
ATOM     13  O   UNL     1      26.515  17.429  10.364  1.00  0.00    -0.387 OA
ATOM     14  H   UNL     1      26.212  18.225  10.873  1.00  0.00     0.211 HD
ENDBRANCH   6  13
BRANCH   7  15
ATOM     15  O   UNL     1      24.391  15.491   9.944  1.00  0.00    -0.384 OA
ATOM     16  H   UNL     1      25.177  15.502   9.335  1.00  0.00     0.211 HD
ENDBRANCH   7  15
ENDBRANCH   1   2
BRANCH   1  17
ATOM     17  C   UNL     1      22.540  13.358  12.388  1.00  0.00     0.172 A 
ATOM     18  C   UNL     1      21.304  13.428  11.718  1.00  0.00     0.205 A 
ATOM     19  C   UNL     1      22.568  13.025  13.755  1.00  0.00     0.097 A 
ATOM     20  C   UNL     1      20.112  13.275  12.437  1.00  0.00     0.188 A 
ATOM     21  C   UNL     1      21.382  12.827  14.471  1.00  0.00     0.134 A 
ATOM     22  C   UNL     1      20.140  12.969  13.818  1.00  0.00     0.111 A 
ATOM     23  O   UNL     1      18.954  13.413  11.802  1.00  0.00    -0.452 OA
ATOM     24  C   UNL     1      18.901  12.826  14.480  1.00  0.00     0.197 A 
ATOM     25  C   UNL     1      17.770  13.280  12.396  1.00  0.00     0.138 A 
ATOM     26  C   UNL     1      17.716  12.982  13.764  1.00  0.00     0.100 A 
ATOM     27  O   UNL     1      18.842  12.574  15.714  1.00  0.00    -0.289 OA
BRANCH  18  28
ATOM     28  O   UNL     1      21.214  13.725  10.350  1.00  0.00    -0.490 OA
ATOM     29  C   UNL     1      21.093  15.049   9.839  1.00  0.00     0.278 C 
ENDBRANCH  18  28
BRANCH  21  30
ATOM     30  O   UNL     1      21.448  12.496  15.827  1.00  0.00    -0.507 OA
ATOM     31  H   UNL     1      22.282  12.671  16.378  1.00  0.00     0.293 HD
ENDBRANCH  21  30
BRANCH  25  32
ATOM     32  C   UNL     1      16.542  13.479  11.593  1.00  0.00     0.017 A 
ATOM     33  C   UNL     1      16.151  14.786  11.242  1.00  0.00     0.012 A 
ATOM     34  C   UNL     1      15.757  12.394  11.156  1.00  0.00     0.012 A 
ATOM     35  C   UNL     1      14.989  15.002  10.496  1.00  0.00     0.001 A 
ATOM     36  C   UNL     1      14.595  12.618  10.410  1.00  0.00     0.001 A 
ATOM     37  C   UNL     1      14.212  13.920  10.081  1.00  0.00     0.000 A 
ENDBRANCH  25  32
ENDBRANCH   1  17
TORSDOF 9
ENDMDL
MODEL 5
REMARK VINA RESULT:    -5.821      4.205      9.963
REMARK INTER + INTRA:          -9.664
REMARK INTER:                  -8.560
REMARK INTRA:                  -1.105
REMARK UNBOUND:                -1.462
REMARK SMILES COc1c(O[C@H]2O[C@H](C(=O)[O-])[C@H](O)[C@@H](O)[C@H]2O)cc(O)c2c(=O)cc(-c3ccccc3)oc12
REMARK SMILES IDX 5 1 6 2 8 3 12 4 7 5 14 6 16 7 9 8 10 9 11 10 13 11 15 13
REMARK SMILES IDX 17 15 4 17 3 18 18 19 33 20 19 21 21 22 32 23 22 24 25 25
REMARK SMILES IDX 24 26 23 27 2 28 1 29 20 30 26 32 27 33 31 34 28 35 30 36
REMARK SMILES IDX 29 37
REMARK H PARENT 13 12 15 14 17 16 20 31
REMARK Flexibility Score: inf
ROOT
ATOM      1  O   UNL     1      21.795  13.513  11.411  1.00  0.00    -0.458 OA
ENDROOT
BRANCH   1   2
ATOM      2  C   UNL     1      22.995  14.024  12.013  1.00  0.00     0.339 C 
ATOM      3  C   UNL     1      24.624  13.001  10.650  1.00  0.00     0.199 C 
ATOM      4  C   UNL     1      25.484  14.282  10.426  1.00  0.00     0.180 C 
ATOM      5  O   UNL     1      24.018  13.034  11.934  1.00  0.00    -0.328 OA
ATOM      6  C   UNL     1      24.944  15.462  11.282  1.00  0.00     0.181 C 
ATOM      7  C   UNL     1      23.405  15.386  11.368  1.00  0.00     0.214 C 
BRANCH   3   8
ATOM      8  C   UNL     1      25.427  11.740  10.496  1.00  0.00     0.073 C 
ATOM      9  O   UNL     1      25.704  11.027  11.494  1.00  0.00    -0.547 OA
ATOM     10  O   UNL     1      25.876  11.359   9.240  1.00  0.00    -0.547 OA
ENDBRANCH   3   8
BRANCH   4  11
ATOM     11  O   UNL     1      26.855  14.029  10.658  1.00  0.00    -0.387 OA
ATOM     12  H   UNL     1      27.005  13.754  11.599  1.00  0.00     0.211 HD
ENDBRANCH   4  11
BRANCH   6  13
ATOM     13  O   UNL     1      25.408  16.691  10.764  1.00  0.00    -0.387 OA
ATOM     14  H   UNL     1      26.258  16.929  11.217  1.00  0.00     0.211 HD
ENDBRANCH   6  13
BRANCH   7  15
ATOM     15  O   UNL     1      22.859  15.477  10.075  1.00  0.00    -0.384 OA
ATOM     16  H   UNL     1      23.487  15.028   9.449  1.00  0.00     0.211 HD
ENDBRANCH   7  15
ENDBRANCH   1   2
BRANCH   1  17
ATOM     17  C   UNL     1      20.495  13.764  11.887  1.00  0.00     0.172 A 
ATOM     18  C   UNL     1      20.057  13.141  13.071  1.00  0.00     0.205 A 
ATOM     19  C   UNL     1      19.601  14.572  11.160  1.00  0.00     0.097 A 
ATOM     20  C   UNL     1      18.715  13.241  13.456  1.00  0.00     0.188 A 
ATOM     21  C   UNL     1      18.268  14.713  11.562  1.00  0.00     0.134 A 
ATOM     22  C   UNL     1      17.809  14.030  12.709  1.00  0.00     0.111 A 
ATOM     23  O   UNL     1      18.304  12.590  14.539  1.00  0.00    -0.452 OA
ATOM     24  C   UNL     1      16.471  14.088  13.155  1.00  0.00     0.197 A 
ATOM     25  C   UNL     1      17.052  12.628  14.988  1.00  0.00     0.138 A 
ATOM     26  C   UNL     1      16.095  13.384  14.297  1.00  0.00     0.100 A 
ATOM     27  O   UNL     1      15.600  14.752  12.532  1.00  0.00    -0.289 OA
BRANCH  18  28
ATOM     28  O   UNL     1      20.910  12.349  13.854  1.00  0.00    -0.490 OA
ATOM     29  C   UNL     1      21.547  12.816  15.039  1.00  0.00     0.278 C 
ENDBRANCH  18  28
BRANCH  21  30
ATOM     30  O   UNL     1      17.410  15.525  10.818  1.00  0.00    -0.507 OA
ATOM     31  H   UNL     1      17.715  15.981   9.963  1.00  0.00     0.293 HD
ENDBRANCH  21  30
BRANCH  25  32
ATOM     32  C   UNL     1      16.702  11.842  16.194  1.00  0.00     0.017 A 
ATOM     33  C   UNL     1      17.670  11.654  17.200  1.00  0.00     0.012 A 
ATOM     34  C   UNL     1      15.420  11.287  16.371  1.00  0.00     0.012 A 
ATOM     35  C   UNL     1      17.368  10.906  18.341  1.00  0.00     0.001 A 
ATOM     36  C   UNL     1      15.125  10.539  17.515  1.00  0.00     0.001 A 
ATOM     37  C   UNL     1      16.098  10.349  18.499  1.00  0.00     0.000 A 
ENDBRANCH  25  32
ENDBRANCH   1  17
TORSDOF 9
ENDMDL
MODEL 6
REMARK VINA RESULT:    -5.723      2.322      5.029
REMARK INTER + INTRA:          -9.526
REMARK INTER:                  -8.130
REMARK INTRA:                  -1.396
REMARK UNBOUND:                -1.462
REMARK SMILES COc1c(O[C@H]2O[C@H](C(=O)[O-])[C@H](O)[C@@H](O)[C@H]2O)cc(O)c2c(=O)cc(-c3ccccc3)oc12
REMARK SMILES IDX 5 1 6 2 8 3 12 4 7 5 14 6 16 7 9 8 10 9 11 10 13 11 15 13
REMARK SMILES IDX 17 15 4 17 3 18 18 19 33 20 19 21 21 22 32 23 22 24 25 25
REMARK SMILES IDX 24 26 23 27 2 28 1 29 20 30 26 32 27 33 31 34 28 35 30 36
REMARK SMILES IDX 29 37
REMARK H PARENT 13 12 15 14 17 16 20 31
REMARK Flexibility Score: inf
ROOT
ATOM      1  O   UNL     1      23.297  13.105  10.804  1.00  0.00    -0.458 OA
ENDROOT
BRANCH   1   2
ATOM      2  C   UNL     1      22.762  12.551  12.016  1.00  0.00     0.339 C 
ATOM      3  C   UNL     1      21.673  14.445  12.905  1.00  0.00     0.199 C 
ATOM      4  C   UNL     1      20.341  13.719  13.266  1.00  0.00     0.180 C 
ATOM      5  O   UNL     1      22.770  13.552  13.032  1.00  0.00    -0.328 OA
ATOM      6  C   UNL     1      20.463  12.190  13.008  1.00  0.00     0.181 C 
ATOM      7  C   UNL     1      21.348  11.935  11.770  1.00  0.00     0.214 C 
BRANCH   3   8
ATOM      8  C   UNL     1      21.906  15.665  13.751  1.00  0.00     0.073 C 
ATOM      9  O   UNL     1      21.094  16.625  13.734  1.00  0.00    -0.547 OA
ATOM     10  O   UNL     1      23.034  15.740  14.554  1.00  0.00    -0.547 OA
ENDBRANCH   3   8
BRANCH   4  11
ATOM     11  O   UNL     1      19.936  14.014  14.586  1.00  0.00    -0.387 OA
ATOM     12  H   UNL     1      20.615  14.571  15.045  1.00  0.00     0.211 HD
ENDBRANCH   4  11
BRANCH   6  13
ATOM     13  O   UNL     1      19.179  11.611  12.898  1.00  0.00    -0.387 OA
ATOM     14  H   UNL     1      18.498  12.332  12.935  1.00  0.00     0.211 HD
ENDBRANCH   6  13
BRANCH   7  15
ATOM     15  O   UNL     1      20.761  12.539  10.644  1.00  0.00    -0.384 OA
ATOM     16  H   UNL     1      20.665  13.509  10.835  1.00  0.00     0.211 HD
ENDBRANCH   7  15
ENDBRANCH   1   2
BRANCH   1  17
ATOM     17  C   UNL     1      24.610  12.898  10.343  1.00  0.00     0.172 A 
ATOM     18  C   UNL     1      25.475  13.998  10.197  1.00  0.00     0.205 A 
ATOM     19  C   UNL     1      25.050  11.617   9.960  1.00  0.00     0.097 A 
ATOM     20  C   UNL     1      26.718  13.830   9.574  1.00  0.00     0.188 A 
ATOM     21  C   UNL     1      26.308  11.433   9.377  1.00  0.00     0.134 A 
ATOM     22  C   UNL     1      27.148  12.547   9.163  1.00  0.00     0.111 A 
ATOM     23  O   UNL     1      27.493  14.892   9.383  1.00  0.00    -0.452 OA
ATOM     24  C   UNL     1      28.413  12.450   8.544  1.00  0.00     0.197 A 
ATOM     25  C   UNL     1      28.691  14.833   8.808  1.00  0.00     0.138 A 
ATOM     26  C   UNL     1      29.184  13.597   8.367  1.00  0.00     0.100 A 
ATOM     27  O   UNL     1      28.858  11.345   8.130  1.00  0.00    -0.289 OA
BRANCH  18  28
ATOM     28  O   UNL     1      25.105  15.293  10.589  1.00  0.00    -0.490 OA
ATOM     29  C   UNL     1      25.315  15.807  11.900  1.00  0.00     0.278 C 
ENDBRANCH  18  28
BRANCH  21  30
ATOM     30  O   UNL     1      26.713  10.147   9.011  1.00  0.00    -0.507 OA
ATOM     31  H   UNL     1      27.148   9.961   8.112  1.00  0.00     0.293 HD
ENDBRANCH  21  30
BRANCH  25  32
ATOM     32  C   UNL     1      29.457  16.087   8.624  1.00  0.00     0.017 A 
ATOM     33  C   UNL     1      29.349  17.110   9.586  1.00  0.00     0.012 A 
ATOM     34  C   UNL     1      30.307  16.282   7.517  1.00  0.00     0.012 A 
ATOM     35  C   UNL     1      30.052  18.308   9.430  1.00  0.00     0.001 A 
ATOM     36  C   UNL     1      31.006  17.483   7.366  1.00  0.00     0.001 A 
ATOM     37  C   UNL     1      30.879  18.495   8.321  1.00  0.00     0.000 A 
ENDBRANCH  25  32
ENDBRANCH   1  17
TORSDOF 9
ENDMDL
MODEL 7
REMARK VINA RESULT:    -5.718      3.830      8.851
REMARK INTER + INTRA:          -9.519
REMARK INTER:                  -8.283
REMARK INTRA:                  -1.236
REMARK UNBOUND:                -1.462
REMARK SMILES COc1c(O[C@H]2O[C@H](C(=O)[O-])[C@H](O)[C@@H](O)[C@H]2O)cc(O)c2c(=O)cc(-c3ccccc3)oc12
REMARK SMILES IDX 5 1 6 2 8 3 12 4 7 5 14 6 16 7 9 8 10 9 11 10 13 11 15 13
REMARK SMILES IDX 17 15 4 17 3 18 18 19 33 20 19 21 21 22 32 23 22 24 25 25
REMARK SMILES IDX 24 26 23 27 2 28 1 29 20 30 26 32 27 33 31 34 28 35 30 36
REMARK SMILES IDX 29 37
REMARK H PARENT 13 12 15 14 17 16 20 31
REMARK Flexibility Score: inf
ROOT
ATOM      1  O   UNL     1      23.843  13.741  11.687  1.00  0.00    -0.458 OA
ENDROOT
BRANCH   1   2
ATOM      2  C   UNL     1      24.342  15.082  11.557  1.00  0.00     0.339 C 
ATOM      3  C   UNL     1      26.252  14.961  12.934  1.00  0.00     0.199 C 
ATOM      4  C   UNL     1      27.223  15.660  11.935  1.00  0.00     0.180 C 
ATOM      5  O   UNL     1      24.939  15.481  12.789  1.00  0.00    -0.328 OA
ATOM      6  C   UNL     1      26.451  16.177  10.689  1.00  0.00     0.181 C 
ATOM      7  C   UNL     1      25.310  15.200  10.337  1.00  0.00     0.214 C 
BRANCH   3   8
ATOM      8  C   UNL     1      26.702  15.100  14.361  1.00  0.00     0.073 C 
ATOM      9  O   UNL     1      26.138  15.911  15.138  1.00  0.00    -0.547 OA
ATOM     10  O   UNL     1      27.758  14.331  14.828  1.00  0.00    -0.547 OA
ENDBRANCH   3   8
BRANCH   4  11
ATOM     11  O   UNL     1      27.969  16.678  12.570  1.00  0.00    -0.387 OA
ATOM     12  H   UNL     1      27.479  17.032  13.356  1.00  0.00     0.211 HD
ENDBRANCH   4  11
BRANCH   6  13
ATOM     13  O   UNL     1      27.344  16.392   9.617  1.00  0.00    -0.387 OA
ATOM     14  H   UNL     1      26.820  16.534   8.786  1.00  0.00     0.211 HD
ENDBRANCH   6  13
BRANCH   7  15
ATOM     15  O   UNL     1      25.850  13.936  10.042  1.00  0.00    -0.384 OA
ATOM     16  H   UNL     1      26.840  14.010  10.093  1.00  0.00     0.211 HD
ENDBRANCH   7  15
ENDBRANCH   1   2
BRANCH   1  17
ATOM     17  C   UNL     1      22.660  13.392  12.364  1.00  0.00     0.172 A 
ATOM     18  C   UNL     1      21.428  13.458  11.687  1.00  0.00     0.205 A 
ATOM     19  C   UNL     1      22.681  13.047  13.728  1.00  0.00     0.097 A 
ATOM     20  C   UNL     1      20.233  13.288  12.396  1.00  0.00     0.188 A 
ATOM     21  C   UNL     1      21.492  12.831  14.435  1.00  0.00     0.134 A 
ATOM     22  C   UNL     1      20.253  12.968  13.774  1.00  0.00     0.111 A 
ATOM     23  O   UNL     1      19.077  13.420  11.754  1.00  0.00    -0.452 OA
ATOM     24  C   UNL     1      19.011  12.808  14.426  1.00  0.00     0.197 A 
ATOM     25  C   UNL     1      17.891  13.271  12.338  1.00  0.00     0.138 A 
ATOM     26  C   UNL     1      17.830  12.960  13.703  1.00  0.00     0.100 A 
ATOM     27  O   UNL     1      18.946  12.544  15.657  1.00  0.00    -0.289 OA
BRANCH  18  28
ATOM     28  O   UNL     1      21.345  13.767  10.321  1.00  0.00    -0.490 OA
ATOM     29  C   UNL     1      21.229  15.096   9.822  1.00  0.00     0.278 C 
ENDBRANCH  18  28
BRANCH  21  30
ATOM     30  O   UNL     1      21.552  12.487  15.787  1.00  0.00    -0.507 OA
ATOM     31  H   UNL     1      22.406  12.137  16.211  1.00  0.00     0.293 HD
ENDBRANCH  21  30
BRANCH  25  32
ATOM     32  C   UNL     1      16.667  13.467  11.528  1.00  0.00     0.017 A 
ATOM     33  C   UNL     1      16.243  14.775  11.223  1.00  0.00     0.012 A 
ATOM     34  C   UNL     1      15.917  12.378  11.041  1.00  0.00     0.012 A 
ATOM     35  C   UNL     1      15.084  14.987  10.471  1.00  0.00     0.001 A 
ATOM     36  C   UNL     1      14.758  12.598  10.290  1.00  0.00     0.001 A 
ATOM     37  C   UNL     1      14.342  13.901  10.006  1.00  0.00     0.000 A 
ENDBRANCH  25  32
ENDBRANCH   1  17
TORSDOF 9
ENDMDL
MODEL 8
REMARK VINA RESULT:    -5.711      4.798     10.573
REMARK INTER + INTRA:          -9.510
REMARK INTER:                  -8.079
REMARK INTRA:                  -1.431
REMARK UNBOUND:                -1.462
REMARK SMILES COc1c(O[C@H]2O[C@H](C(=O)[O-])[C@H](O)[C@@H](O)[C@H]2O)cc(O)c2c(=O)cc(-c3ccccc3)oc12
REMARK SMILES IDX 5 1 6 2 8 3 12 4 7 5 14 6 16 7 9 8 10 9 11 10 13 11 15 13
REMARK SMILES IDX 17 15 4 17 3 18 18 19 33 20 19 21 21 22 32 23 22 24 25 25
REMARK SMILES IDX 24 26 23 27 2 28 1 29 20 30 26 32 27 33 31 34 28 35 30 36
REMARK SMILES IDX 29 37
REMARK H PARENT 13 12 15 14 17 16 20 31
REMARK Flexibility Score: inf
ROOT
ATOM      1  O   UNL     1      20.888  14.344  12.108  1.00  0.00    -0.458 OA
ENDROOT
BRANCH   1   2
ATOM      2  C   UNL     1      21.523  13.888  10.903  1.00  0.00     0.339 C 
ATOM      3  C   UNL     1      23.788  14.237  11.457  1.00  0.00     0.199 C 
ATOM      4  C   UNL     1      24.297  12.849  10.962  1.00  0.00     0.180 C 
ATOM      5  O   UNL     1      22.692  14.669  10.664  1.00  0.00    -0.328 OA
ATOM      6  C   UNL     1      23.151  12.059  10.268  1.00  0.00     0.181 C 
ATOM      7  C   UNL     1      21.810  12.354  10.972  1.00  0.00     0.214 C 
BRANCH   3   8
ATOM      8  C   UNL     1      24.870  15.279  11.445  1.00  0.00     0.073 C 
ATOM      9  O   UNL     1      25.239  15.812  10.367  1.00  0.00    -0.547 OA
ATOM     10  O   UNL     1      25.477  15.655  12.634  1.00  0.00    -0.547 OA
ENDBRANCH   3   8
BRANCH   4  11
ATOM     11  O   UNL     1      25.438  12.982  10.140  1.00  0.00    -0.387 OA
ATOM     12  H   UNL     1      25.195  13.383   9.267  1.00  0.00     0.211 HD
ENDBRANCH   4  11
BRANCH   6  13
ATOM     13  O   UNL     1      23.463  10.682  10.228  1.00  0.00    -0.387 OA
ATOM     14  H   UNL     1      22.709  10.171  10.622  1.00  0.00     0.211 HD
ENDBRANCH   6  13
BRANCH   7  15
ATOM     15  O   UNL     1      21.888  11.950  12.316  1.00  0.00    -0.384 OA
ATOM     16  H   UNL     1      22.814  12.126  12.633  1.00  0.00     0.211 HD
ENDBRANCH   7  15
ENDBRANCH   1   2
BRANCH   1  17
ATOM     17  C   UNL     1      19.512  14.230  12.377  1.00  0.00     0.172 A 
ATOM     18  C   UNL     1      19.085  13.545  13.530  1.00  0.00     0.205 A 
ATOM     19  C   UNL     1      18.553  14.729  11.476  1.00  0.00     0.097 A 
ATOM     20  C   UNL     1      17.725  13.271  13.715  1.00  0.00     0.188 A 
ATOM     21  C   UNL     1      17.188  14.497  11.675  1.00  0.00     0.134 A 
ATOM     22  C   UNL     1      16.763  13.749  12.794  1.00  0.00     0.111 A 
ATOM     23  O   UNL     1      17.347  12.565  14.775  1.00  0.00    -0.452 OA
ATOM     24  C   UNL     1      15.409  13.438  13.043  1.00  0.00     0.197 A 
ATOM     25  C   UNL     1      16.079  12.260  15.040  1.00  0.00     0.138 A 
ATOM     26  C   UNL     1      15.069  12.692  14.169  1.00  0.00     0.100 A 
ATOM     27  O   UNL     1      14.496  13.808  12.257  1.00  0.00    -0.289 OA
BRANCH  18  28
ATOM     28  O   UNL     1      19.991  13.052  14.482  1.00  0.00    -0.490 OA
ATOM     29  C   UNL     1      20.527  13.841  15.539  1.00  0.00     0.278 C 
ENDBRANCH  18  28
BRANCH  21  30
ATOM     30  O   UNL     1      16.265  15.010  10.761  1.00  0.00    -0.507 OA
ATOM     31  H   UNL     1      15.804  15.902  10.912  1.00  0.00     0.293 HD
ENDBRANCH  21  30
BRANCH  25  32
ATOM     32  C   UNL     1      15.777  11.444  16.239  1.00  0.00     0.017 A 
ATOM     33  C   UNL     1      16.727  11.360  17.275  1.00  0.00     0.012 A 
ATOM     34  C   UNL     1      14.555  10.758  16.381  1.00  0.00     0.012 A 
ATOM     35  C   UNL     1      16.472  10.587  18.411  1.00  0.00     0.001 A 
ATOM     36  C   UNL     1      14.306   9.985  17.519  1.00  0.00     0.001 A 
ATOM     37  C   UNL     1      15.263   9.900  18.533  1.00  0.00     0.000 A 
ENDBRANCH  25  32
ENDBRANCH   1  17
TORSDOF 9
ENDMDL
MODEL 9
REMARK VINA RESULT:    -5.701      2.637      5.929
REMARK INTER + INTRA:          -9.495
REMARK INTER:                  -8.194
REMARK INTRA:                  -1.301
REMARK UNBOUND:                -1.462
REMARK SMILES COc1c(O[C@H]2O[C@H](C(=O)[O-])[C@H](O)[C@@H](O)[C@H]2O)cc(O)c2c(=O)cc(-c3ccccc3)oc12
REMARK SMILES IDX 5 1 6 2 8 3 12 4 7 5 14 6 16 7 9 8 10 9 11 10 13 11 15 13
REMARK SMILES IDX 17 15 4 17 3 18 18 19 33 20 19 21 21 22 32 23 22 24 25 25
REMARK SMILES IDX 24 26 23 27 2 28 1 29 20 30 26 32 27 33 31 34 28 35 30 36
REMARK SMILES IDX 29 37
REMARK H PARENT 13 12 15 14 17 16 20 31
REMARK Flexibility Score: inf
ROOT
ATOM      1  O   UNL     1      23.984  14.506  10.964  1.00  0.00    -0.458 OA
ENDROOT
BRANCH   1   2
ATOM      2  C   UNL     1      23.661  13.581  12.014  1.00  0.00     0.339 C 
ATOM      3  C   UNL     1      21.787  14.651  12.964  1.00  0.00     0.199 C 
ATOM      4  C   UNL     1      20.890  13.378  13.044  1.00  0.00     0.180 C 
ATOM      5  O   UNL     1      23.153  14.301  13.134  1.00  0.00    -0.328 OA
ATOM      6  C   UNL     1      21.692  12.114  12.622  1.00  0.00     0.181 C 
ATOM      7  C   UNL     1      22.687  12.474  11.499  1.00  0.00     0.214 C 
BRANCH   3   8
ATOM      8  C   UNL     1      21.395  15.690  13.975  1.00  0.00     0.073 C 
ATOM      9  O   UNL     1      22.251  16.191  14.749  1.00  0.00    -0.547 OA
ATOM     10  O   UNL     1      20.073  16.099  14.065  1.00  0.00    -0.547 OA
ENDBRANCH   3   8
BRANCH   4  11
ATOM     11  O   UNL     1      20.300  13.244  14.320  1.00  0.00    -0.387 OA
ATOM     12  H   UNL     1      20.547  14.007  14.902  1.00  0.00     0.211 HD
ENDBRANCH   4  11
BRANCH   6  13
ATOM     13  O   UNL     1      20.807  11.073  12.264  1.00  0.00    -0.387 OA
ATOM     14  H   UNL     1      20.216  11.392  11.534  1.00  0.00     0.211 HD
ENDBRANCH   6  13
BRANCH   7  15
ATOM     15  O   UNL     1      21.978  12.953  10.383  1.00  0.00    -0.384 OA
ATOM     16  H   UNL     1      22.136  12.324   9.630  1.00  0.00     0.211 HD
ENDBRANCH   7  15
ENDBRANCH   1   2
BRANCH   1  17
ATOM     17  C   UNL     1      25.256  14.633  10.375  1.00  0.00     0.172 A 
ATOM     18  C   UNL     1      26.195  15.517  10.937  1.00  0.00     0.205 A 
ATOM     19  C   UNL     1      25.579  13.943   9.192  1.00  0.00     0.097 A 
ATOM     20  C   UNL     1      27.392  15.785  10.262  1.00  0.00     0.188 A 
ATOM     21  C   UNL     1      26.792  14.171   8.533  1.00  0.00     0.134 A 
ATOM     22  C   UNL     1      27.704  15.111   9.058  1.00  0.00     0.111 A 
ATOM     23  O   UNL     1      28.237  16.673  10.773  1.00  0.00    -0.452 OA
ATOM     24  C   UNL     1      28.929  15.428   8.431  1.00  0.00     0.197 A 
ATOM     25  C   UNL     1      29.400  16.990  10.210  1.00  0.00     0.138 A 
ATOM     26  C   UNL     1      29.776  16.370   9.011  1.00  0.00     0.100 A 
ATOM     27  O   UNL     1      29.269  14.887   7.344  1.00  0.00    -0.289 OA
BRANCH  18  28
ATOM     28  O   UNL     1      25.944  16.211  12.131  1.00  0.00    -0.490 OA
ATOM     29  C   UNL     1      26.313  15.721  13.416  1.00  0.00     0.278 C 
ENDBRANCH  18  28
BRANCH  21  30
ATOM     30  O   UNL     1      27.080  13.466   7.363  1.00  0.00    -0.507 OA
ATOM     31  H   UNL     1      26.508  12.684   7.058  1.00  0.00     0.293 HD
ENDBRANCH  21  30
BRANCH  25  32
ATOM     32  C   UNL     1      30.252  18.015  10.857  1.00  0.00     0.017 A 
ATOM     33  C   UNL     1      30.463  17.959  12.248  1.00  0.00     0.012 A 
ATOM     34  C   UNL     1      30.870  19.041  10.116  1.00  0.00     0.012 A 
ATOM     35  C   UNL     1      31.252  18.921  12.885  1.00  0.00     0.001 A 
ATOM     36  C   UNL     1      31.658  20.001  10.759  1.00  0.00     0.001 A 
ATOM     37  C   UNL     1      31.848  19.941  12.142  1.00  0.00     0.000 A 
ENDBRANCH  25  32
ENDBRANCH   1  17
TORSDOF 9
ENDMDL
