MODEL 1
REMARK VINA RESULT:    -3.611      0.000      0.000
REMARK INTER + INTRA:          -4.851
REMARK INTER:                  -4.666
REMARK INTRA:                  -0.185
REMARK UNBOUND:                -0.185
REMARK SMILES CCCCCCC(=O)[O-]
REMARK SMILES IDX 5 1 6 2 7 3 8 4 9 5 4 6 3 7 2 8 1 9
REMARK H PARENT
REMARK Flexibility Score: inf
ROOT
ATOM      1  C   UNL     1      27.882  25.624 -17.289  1.00  0.00     0.006 C 
ENDROOT
BRANCH   1   2
ATOM      2  C   UNL     1      26.473  25.158 -17.665  1.00  0.00     0.053 C 
BRANCH   2   3
ATOM      3  C   UNL     1      26.438  24.693 -19.086  1.00  0.00     0.041 C 
ATOM      4  O   UNL     1      25.755  25.318 -19.940  1.00  0.00    -0.550 OA
ATOM      5  O   UNL     1      27.198  23.599 -19.479  1.00  0.00    -0.550 OA
ENDBRANCH   2   3
ENDBRANCH   1   2
BRANCH   1   6
ATOM      6  C   UNL     1      27.837  26.956 -16.527  1.00  0.00     0.000 C 
BRANCH   6   7
ATOM      7  C   UNL     1      29.091  27.795 -16.814  1.00  0.00    -0.000 C 
BRANCH   7   8
ATOM      8  C   UNL     1      28.754  29.207 -17.319  1.00  0.00    -0.003 C 
ATOM      9  C   UNL     1      27.256  29.412 -17.543  1.00  0.00     0.004 C 
ENDBRANCH   7   8
ENDBRANCH   6   7
ENDBRANCH   1   6
TORSDOF 5
ENDMDL
MODEL 2
REMARK VINA RESULT:    -3.506      1.249      2.108
REMARK INTER + INTRA:          -4.715
REMARK INTER:                  -4.507
REMARK INTRA:                  -0.207
REMARK UNBOUND:                -0.185
REMARK SMILES CCCCCCC(=O)[O-]
REMARK SMILES IDX 5 1 6 2 7 3 8 4 9 5 4 6 3 7 2 8 1 9
REMARK H PARENT
REMARK Flexibility Score: inf
ROOT
ATOM      1  C   UNL     1      28.045  27.180 -16.331  1.00  0.00     0.006 C 
ENDROOT
BRANCH   1   2
ATOM      2  C   UNL     1      28.417  25.702 -16.482  1.00  0.00     0.053 C 
BRANCH   2   3
ATOM      3  C   UNL     1      27.760  25.119 -17.693  1.00  0.00     0.041 C 
ATOM      4  O   UNL     1      28.433  24.441 -18.513  1.00  0.00    -0.550 OA
ATOM      5  O   UNL     1      26.395  25.284 -17.891  1.00  0.00    -0.550 OA
ENDBRANCH   2   3
ENDBRANCH   1   2
BRANCH   1   6
ATOM      6  C   UNL     1      29.206  28.087 -16.758  1.00  0.00     0.000 C 
BRANCH   6   7
ATOM      7  C   UNL     1      28.687  29.358 -17.445  1.00  0.00    -0.000 C 
BRANCH   7   8
ATOM      8  C   UNL     1      27.154  29.387 -17.552  1.00  0.00    -0.003 C 
ATOM      9  C   UNL     1      26.660  30.199 -18.748  1.00  0.00     0.004 C 
ENDBRANCH   7   8
ENDBRANCH   6   7
ENDBRANCH   1   6
TORSDOF 5
ENDMDL
MODEL 3
REMARK VINA RESULT:    -3.498      1.132      2.062
REMARK INTER + INTRA:          -4.705
REMARK INTER:                  -4.494
REMARK INTRA:                  -0.210
REMARK UNBOUND:                -0.185
REMARK SMILES CCCCCCC(=O)[O-]
REMARK SMILES IDX 5 1 6 2 7 3 8 4 9 5 4 6 3 7 2 8 1 9
REMARK H PARENT
REMARK Flexibility Score: inf
ROOT
ATOM      1  C   UNL     1      26.849  25.412 -17.690  1.00  0.00     0.006 C 
ENDROOT
BRANCH   1   2
ATOM      2  C   UNL     1      27.491  24.382 -18.625  1.00  0.00     0.053 C 
BRANCH   2   3
ATOM      3  C   UNL     1      26.787  24.364 -19.944  1.00  0.00     0.041 C 
ATOM      4  O   UNL     1      27.119  23.530 -20.828  1.00  0.00    -0.550 OA
ATOM      5  O   UNL     1      25.733  25.236 -20.183  1.00  0.00    -0.550 OA
ENDBRANCH   2   3
ENDBRANCH   1   2
BRANCH   1   6
ATOM      6  C   UNL     1      27.854  25.905 -16.641  1.00  0.00     0.000 C 
BRANCH   6   7
ATOM      7  C   UNL     1      27.955  27.438 -16.656  1.00  0.00    -0.000 C 
BRANCH   7   8
ATOM      8  C   UNL     1      29.408  27.933 -16.722  1.00  0.00    -0.003 C 
ATOM      9  C   UNL     1      30.416  26.791 -16.850  1.00  0.00     0.004 C 
ENDBRANCH   7   8
ENDBRANCH   6   7
ENDBRANCH   1   6
TORSDOF 5
ENDMDL
MODEL 4
REMARK VINA RESULT:    -3.459      2.687      4.680
REMARK INTER + INTRA:          -4.655
REMARK INTER:                  -4.486
REMARK INTRA:                  -0.169
REMARK UNBOUND:                -0.185
REMARK SMILES CCCCCCC(=O)[O-]
REMARK SMILES IDX 5 1 6 2 7 3 8 4 9 5 4 6 3 7 2 8 1 9
REMARK H PARENT
REMARK Flexibility Score: inf
ROOT
ATOM      1  C   UNL     1      27.280  26.068 -16.751  1.00  0.00     0.006 C 
ENDROOT
BRANCH   1   2
ATOM      2  C   UNL     1      28.647  26.754 -16.666  1.00  0.00     0.053 C 
BRANCH   2   3
ATOM      3  C   UNL     1      28.522  28.209 -16.990  1.00  0.00     0.041 C 
ATOM      4  O   UNL     1      29.546  28.942 -17.017  1.00  0.00    -0.550 OA
ATOM      5  O   UNL     1      27.282  28.747 -17.310  1.00  0.00    -0.550 OA
ENDBRANCH   2   3
ENDBRANCH   1   2
BRANCH   1   6
ATOM      6  C   UNL     1      27.259  25.019 -17.870  1.00  0.00     0.000 C 
BRANCH   6   7
ATOM      7  C   UNL     1      25.936  25.071 -18.648  1.00  0.00    -0.000 C 
BRANCH   7   8
ATOM      8  C   UNL     1      26.132  24.876 -20.160  1.00  0.00    -0.003 C 
ATOM      9  C   UNL     1      27.240  23.876 -20.488  1.00  0.00     0.004 C 
ENDBRANCH   7   8
ENDBRANCH   6   7
ENDBRANCH   1   6
TORSDOF 5
ENDMDL
MODEL 5
REMARK VINA RESULT:    -3.393      3.014      4.751
REMARK INTER + INTRA:          -4.570
REMARK INTER:                  -4.393
REMARK INTRA:                  -0.177
REMARK UNBOUND:                -0.185
REMARK SMILES CCCCCCC(=O)[O-]
REMARK SMILES IDX 5 1 6 2 7 3 8 4 9 5 4 6 3 7 2 8 1 9
REMARK H PARENT
REMARK Flexibility Score: inf
ROOT
ATOM      1  C   UNL     1      28.613  25.519 -17.499  1.00  0.00     0.006 C 
ENDROOT
BRANCH   1   2
ATOM      2  C   UNL     1      28.153  26.669 -16.596  1.00  0.00     0.053 C 
BRANCH   2   3
ATOM      3  C   UNL     1      29.202  27.733 -16.531  1.00  0.00     0.041 C 
ATOM      4  O   UNL     1      30.295  27.510 -15.947  1.00  0.00    -0.550 OA
ATOM      5  O   UNL     1      28.992  28.956 -17.156  1.00  0.00    -0.550 OA
ENDBRANCH   2   3
ENDBRANCH   1   2
BRANCH   1   6
ATOM      6  C   UNL     1      27.453  24.562 -17.804  1.00  0.00     0.000 C 
BRANCH   6   7
ATOM      7  C   UNL     1      26.266  25.317 -18.422  1.00  0.00    -0.000 C 
BRANCH   7   8
ATOM      8  C   UNL     1      26.052  24.969 -19.903  1.00  0.00    -0.003 C 
ATOM      9  C   UNL     1      27.072  23.959 -20.427  1.00  0.00     0.004 C 
ENDBRANCH   7   8
ENDBRANCH   6   7
ENDBRANCH   1   6
TORSDOF 5
ENDMDL
MODEL 6
REMARK VINA RESULT:    -3.383      1.180      1.743
REMARK INTER + INTRA:          -4.556
REMARK INTER:                  -4.312
REMARK INTRA:                  -0.244
REMARK UNBOUND:                -0.185
REMARK SMILES CCCCCCC(=O)[O-]
REMARK SMILES IDX 5 1 6 2 7 3 8 4 9 5 4 6 3 7 2 8 1 9
REMARK H PARENT
REMARK Flexibility Score: inf
ROOT
ATOM      1  C   UNL     1      28.561  24.463 -18.310  1.00  0.00     0.006 C 
ENDROOT
BRANCH   1   2
ATOM      2  C   UNL     1      27.054  24.214 -18.424  1.00  0.00     0.053 C 
BRANCH   2   3
ATOM      3  C   UNL     1      26.599  24.407 -19.836  1.00  0.00     0.041 C 
ATOM      4  O   UNL     1      25.763  25.307 -20.114  1.00  0.00    -0.550 OA
ATOM      5  O   UNL     1      27.133  23.625 -20.852  1.00  0.00    -0.550 OA
ENDBRANCH   2   3
ENDBRANCH   1   2
BRANCH   1   6
ATOM      6  C   UNL     1      28.891  25.268 -17.045  1.00  0.00     0.000 C 
BRANCH   6   7
ATOM      7  C   UNL     1      27.691  26.120 -16.608  1.00  0.00    -0.000 C 
BRANCH   7   8
ATOM      8  C   UNL     1      27.962  27.628 -16.730  1.00  0.00    -0.003 C 
ATOM      9  C   UNL     1      29.454  27.960 -16.744  1.00  0.00     0.004 C 
ENDBRANCH   7   8
ENDBRANCH   6   7
ENDBRANCH   1   6
TORSDOF 5
ENDMDL
MODEL 7
REMARK VINA RESULT:    -3.146      2.280      2.859
REMARK INTER + INTRA:          -4.250
REMARK INTER:                  -4.078
REMARK INTRA:                  -0.172
REMARK UNBOUND:                -0.185
REMARK SMILES CCCCCCC(=O)[O-]
REMARK SMILES IDX 5 1 6 2 7 3 8 4 9 5 4 6 3 7 2 8 1 9
REMARK H PARENT
REMARK Flexibility Score: inf
ROOT
ATOM      1  C   UNL     1      27.985  27.048 -16.875  1.00  0.00     0.006 C 
ENDROOT
BRANCH   1   2
ATOM      2  C   UNL     1      28.833  25.779 -17.006  1.00  0.00     0.053 C 
BRANCH   2   3
ATOM      3  C   UNL     1      28.288  24.694 -16.132  1.00  0.00     0.041 C 
ATOM      4  O   UNL     1      28.044  24.921 -14.918  1.00  0.00    -0.550 OA
ATOM      5  O   UNL     1      28.003  23.445 -16.670  1.00  0.00    -0.550 OA
ENDBRANCH   2   3
ENDBRANCH   1   2
BRANCH   1   6
ATOM      6  C   UNL     1      28.871  28.282 -16.665  1.00  0.00     0.000 C 
BRANCH   6   7
ATOM      7  C   UNL     1      28.454  29.424 -17.604  1.00  0.00    -0.000 C 
BRANCH   7   8
ATOM      8  C   UNL     1      26.929  29.537 -17.755  1.00  0.00    -0.003 C 
ATOM      9  C   UNL     1      26.515  30.494 -18.871  1.00  0.00     0.004 C 
ENDBRANCH   7   8
ENDBRANCH   6   7
ENDBRANCH   1   6
TORSDOF 5
ENDMDL
MODEL 8
REMARK VINA RESULT:    -3.144      2.735      4.239
REMARK INTER + INTRA:          -4.248
REMARK INTER:                  -3.989
REMARK INTRA:                  -0.258
REMARK UNBOUND:                -0.185
REMARK SMILES CCCCCCC(=O)[O-]
REMARK SMILES IDX 5 1 6 2 7 3 8 4 9 5 4 6 3 7 2 8 1 9
REMARK H PARENT
REMARK Flexibility Score: inf
ROOT
ATOM      1  C   UNL     1      29.240  24.920 -17.792  1.00  0.00     0.006 C 
ENDROOT
BRANCH   1   2
ATOM      2  C   UNL     1      29.085  25.592 -16.424  1.00  0.00     0.053 C 
BRANCH   2   3
ATOM      3  C   UNL     1      27.751  26.260 -16.318  1.00  0.00     0.041 C 
ATOM      4  O   UNL     1      26.913  25.869 -15.463  1.00  0.00    -0.550 OA
ATOM      5  O   UNL     1      27.450  27.346 -17.130  1.00  0.00    -0.550 OA
ENDBRANCH   2   3
ENDBRANCH   1   2
BRANCH   1   6
ATOM      6  C   UNL     1      28.002  24.080 -18.136  1.00  0.00     0.000 C 
BRANCH   6   7
ATOM      7  C   UNL     1      27.968  23.740 -19.633  1.00  0.00    -0.000 C 
BRANCH   7   8
ATOM      8  C   UNL     1      26.708  24.275 -20.331  1.00  0.00    -0.003 C 
ATOM      9  C   UNL     1      25.879  25.192 -19.433  1.00  0.00     0.004 C 
ENDBRANCH   7   8
ENDBRANCH   6   7
ENDBRANCH   1   6
TORSDOF 5
ENDMDL
MODEL 9
REMARK VINA RESULT:    -3.066      2.979      5.114
REMARK INTER + INTRA:          -4.147
REMARK INTER:                  -3.907
REMARK INTRA:                  -0.240
REMARK UNBOUND:                -0.185
REMARK SMILES CCCCCCC(=O)[O-]
REMARK SMILES IDX 5 1 6 2 7 3 8 4 9 5 4 6 3 7 2 8 1 9
REMARK H PARENT
REMARK Flexibility Score: inf
ROOT
ATOM      1  C   UNL     1      26.607  24.497 -19.278  1.00  0.00     0.006 C 
ENDROOT
BRANCH   1   2
ATOM      2  C   UNL     1      27.451  24.397 -18.003  1.00  0.00     0.053 C 
BRANCH   2   3
ATOM      3  C   UNL     1      26.992  25.401 -16.994  1.00  0.00     0.041 C 
ATOM      4  O   UNL     1      27.305  26.615 -17.120  1.00  0.00    -0.550 OA
ATOM      5  O   UNL     1      26.179  25.005 -15.939  1.00  0.00    -0.550 OA
ENDBRANCH   2   3
ENDBRANCH   1   2
BRANCH   1   6
ATOM      6  C   UNL     1      27.288  23.770 -20.446  1.00  0.00     0.000 C 
BRANCH   6   7
ATOM      7  C   UNL     1      28.743  23.419 -20.101  1.00  0.00    -0.000 C 
BRANCH   7   8
ATOM      8  C   UNL     1      29.090  21.958 -20.428  1.00  0.00    -0.003 C 
ATOM      9  C   UNL     1      29.537  21.168 -19.198  1.00  0.00     0.004 C 
ENDBRANCH   7   8
ENDBRANCH   6   7
ENDBRANCH   1   6
TORSDOF 5
ENDMDL
