MODEL 1
REMARK VINA RESULT:    -4.296      0.000      0.000
REMARK INTER + INTRA:          -5.840
REMARK INTER:                  -5.552
REMARK INTRA:                  -0.288
REMARK UNBOUND:                -0.288
REMARK SMILES CCO[C@@H]1O[C@H](CO)[C@H](O)[C@@H](O)[C@@H]1O
REMARK SMILES IDX 4 1 13 2 11 3 9 4 6 5 5 6 3 7 2 8 1 9 14 10 12 12 7 14 8 15
REMARK SMILES IDX 10 17
REMARK H PARENT 14 11 12 13 8 16 10 18
REMARK Flexibility Score: inf
ROOT
ATOM      1  C   UNL     1      33.948 141.413 -30.796  1.00  0.00     0.281 C 
ATOM      2  C   UNL     1      32.678 140.642 -30.305  1.00  0.00     0.202 C 
ATOM      3  C   UNL     1      33.054 139.378 -29.500  1.00  0.00     0.179 C 
ATOM      4  C   UNL     1      34.056 139.715 -28.368  1.00  0.00     0.177 C 
ATOM      5  C   UNL     1      34.942 140.941 -28.736  1.00  0.00     0.178 C 
ATOM      6  O   UNL     1      35.144 141.006 -30.135  1.00  0.00    -0.341 OA
ENDROOT
BRANCH   1   7
ATOM      7  O   UNL     1      34.093 141.366 -32.211  1.00  0.00    -0.350 OA
BRANCH   7   8
ATOM      8  C   UNL     1      35.277 140.713 -32.635  1.00  0.00     0.160 C 
ATOM      9  C   UNL     1      34.935 139.361 -33.248  1.00  0.00     0.035 C 
ENDBRANCH   7   8
ENDBRANCH   1   7
BRANCH   2  10
ATOM     10  O   UNL     1      31.798 140.349 -31.364  1.00  0.00    -0.385 OA
ATOM     11  H   UNL     1      31.249 139.566 -31.098  1.00  0.00     0.211 HD
ENDBRANCH   2  10
BRANCH   3  12
ATOM     12  O   UNL     1      31.902 138.804 -28.939  1.00  0.00    -0.387 OA
ATOM     13  H   UNL     1      32.111 137.850 -28.756  1.00  0.00     0.211 HD
ENDBRANCH   3  12
BRANCH   5  14
ATOM     14  C   UNL     1      36.302 140.951 -28.018  1.00  0.00     0.191 C 
BRANCH  14  15
ATOM     15  O   UNL     1      36.895 142.223 -28.061  1.00  0.00    -0.394 OA
ATOM     16  H   UNL     1      37.783 142.141 -27.626  1.00  0.00     0.210 HD
ENDBRANCH  14  15
ENDBRANCH   5  14
BRANCH   4  17
ATOM     17  O   UNL     1      34.847 138.583 -28.100  1.00  0.00    -0.387 OA
ATOM     18  H   UNL     1      34.696 137.944 -28.844  1.00  0.00     0.211 HD
ENDBRANCH   4  17
TORSDOF 7
ENDMDL
MODEL 2
REMARK VINA RESULT:    -4.158     13.058     14.360
REMARK INTER + INTRA:          -5.661
REMARK INTER:                  -5.274
REMARK INTRA:                  -0.388
REMARK UNBOUND:                -0.288
REMARK SMILES CCO[C@@H]1O[C@H](CO)[C@H](O)[C@@H](O)[C@@H]1O
REMARK SMILES IDX 4 1 13 2 11 3 9 4 6 5 5 6 3 7 2 8 1 9 14 10 12 12 7 14 8 15
REMARK SMILES IDX 10 17
REMARK H PARENT 14 11 12 13 8 16 10 18
REMARK Flexibility Score: inf
ROOT
ATOM      1  C   UNL     1      34.054 141.023 -44.055  1.00  0.00     0.281 C 
ATOM      2  C   UNL     1      35.031 141.902 -44.903  1.00  0.00     0.202 C 
ATOM      3  C   UNL     1      36.396 142.080 -44.199  1.00  0.00     0.179 C 
ATOM      4  C   UNL     1      36.989 140.711 -43.782  1.00  0.00     0.177 C 
ATOM      5  C   UNL     1      35.872 139.665 -43.502  1.00  0.00     0.178 C 
ATOM      6  O   UNL     1      34.706 140.301 -43.013  1.00  0.00    -0.341 OA
ENDROOT
BRANCH   1   7
ATOM      7  O   UNL     1      32.949 141.770 -43.560  1.00  0.00    -0.350 OA
BRANCH   7   8
ATOM      8  C   UNL     1      31.700 141.337 -44.075  1.00  0.00     0.160 C 
ATOM      9  C   UNL     1      30.905 142.532 -44.584  1.00  0.00     0.035 C 
ENDBRANCH   7   8
ENDBRANCH   1   7
BRANCH   2  10
ATOM     10  O   UNL     1      34.456 143.138 -45.254  1.00  0.00    -0.385 OA
ATOM     11  H   UNL     1      34.038 143.039 -46.149  1.00  0.00     0.211 HD
ENDBRANCH   2  10
BRANCH   3  12
ATOM     12  O   UNL     1      37.298 142.732 -45.054  1.00  0.00    -0.387 OA
ATOM     13  H   UNL     1      36.870 142.777 -45.949  1.00  0.00     0.211 HD
ENDBRANCH   3  12
BRANCH   5  14
ATOM     14  C   UNL     1      36.301 138.556 -42.526  1.00  0.00     0.191 C 
BRANCH  14  15
ATOM     15  O   UNL     1      37.531 137.992 -42.901  1.00  0.00    -0.394 OA
ATOM     16  H   UNL     1      37.480 137.812 -43.875  1.00  0.00     0.210 HD
ENDBRANCH  14  15
ENDBRANCH   5  14
BRANCH   4  17
ATOM     17  O   UNL     1      37.808 140.889 -42.652  1.00  0.00    -0.387 OA
ATOM     18  H   UNL     1      37.498 140.241 -41.967  1.00  0.00     0.211 HD
ENDBRANCH   4  17
TORSDOF 7
ENDMDL
MODEL 3
REMARK VINA RESULT:    -4.147      1.958      3.888
REMARK INTER + INTRA:          -5.648
REMARK INTER:                  -5.243
REMARK INTRA:                  -0.404
REMARK UNBOUND:                -0.288
REMARK SMILES CCO[C@@H]1O[C@H](CO)[C@H](O)[C@@H](O)[C@@H]1O
REMARK SMILES IDX 4 1 13 2 11 3 9 4 6 5 5 6 3 7 2 8 1 9 14 10 12 12 7 14 8 15
REMARK SMILES IDX 10 17
REMARK H PARENT 14 11 12 13 8 16 10 18
REMARK Flexibility Score: inf
ROOT
ATOM      1  C   UNL     1      31.744 139.910 -29.037  1.00  0.00     0.281 C 
ATOM      2  C   UNL     1      32.009 139.906 -30.578  1.00  0.00     0.202 C 
ATOM      3  C   UNL     1      33.259 140.739 -30.943  1.00  0.00     0.179 C 
ATOM      4  C   UNL     1      34.483 140.308 -30.097  1.00  0.00     0.177 C 
ATOM      5  C   UNL     1      34.051 139.747 -28.712  1.00  0.00     0.178 C 
ATOM      6  O   UNL     1      32.857 140.369 -28.274  1.00  0.00    -0.341 OA
ENDROOT
BRANCH   1   7
ATOM      7  O   UNL     1      30.553 140.612 -28.697  1.00  0.00    -0.350 OA
BRANCH   7   8
ATOM      8  C   UNL     1      29.867 140.053 -27.589  1.00  0.00     0.160 C 
ATOM      9  C   UNL     1      29.219 138.734 -27.989  1.00  0.00     0.035 C 
ENDBRANCH   7   8
ENDBRANCH   1   7
BRANCH   2  10
ATOM     10  O   UNL     1      30.876 140.311 -31.309  1.00  0.00    -0.385 OA
ATOM     11  H   UNL     1      30.231 139.557 -31.317  1.00  0.00     0.211 HD
ENDBRANCH   2  10
BRANCH   3  12
ATOM     12  O   UNL     1      33.562 140.582 -32.305  1.00  0.00    -0.387 OA
ATOM     13  H   UNL     1      34.258 139.877 -32.369  1.00  0.00     0.211 HD
ENDBRANCH   3  12
BRANCH   5  14
ATOM     14  C   UNL     1      35.133 139.890 -27.628  1.00  0.00     0.191 C 
BRANCH  14  15
ATOM     15  O   UNL     1      36.389 139.476 -28.100  1.00  0.00    -0.394 OA
ATOM     16  H   UNL     1      36.587 138.606 -27.665  1.00  0.00     0.210 HD
ENDBRANCH  14  15
ENDBRANCH   5  14
BRANCH   4  17
ATOM     17  O   UNL     1      35.351 141.404 -29.949  1.00  0.00    -0.387 OA
ATOM     18  H   UNL     1      35.257 141.722 -29.013  1.00  0.00     0.211 HD
ENDBRANCH   4  17
TORSDOF 7
ENDMDL
MODEL 4
REMARK VINA RESULT:    -4.068      1.581      4.620
REMARK INTER + INTRA:          -5.546
REMARK INTER:                  -5.055
REMARK INTRA:                  -0.491
REMARK UNBOUND:                -0.288
REMARK SMILES CCO[C@@H]1O[C@H](CO)[C@H](O)[C@@H](O)[C@@H]1O
REMARK SMILES IDX 4 1 13 2 11 3 9 4 6 5 5 6 3 7 2 8 1 9 14 10 12 12 7 14 8 15
REMARK SMILES IDX 10 17
REMARK H PARENT 14 11 12 13 8 16 10 18
REMARK Flexibility Score: inf
ROOT
ATOM      1  C   UNL     1      34.019 140.425 -27.947  1.00  0.00     0.281 C 
ATOM      2  C   UNL     1      34.730 141.339 -28.999  1.00  0.00     0.202 C 
ATOM      3  C   UNL     1      34.630 140.753 -30.425  1.00  0.00     0.179 C 
ATOM      4  C   UNL     1      33.162 140.412 -30.785  1.00  0.00     0.177 C 
ATOM      5  C   UNL     1      32.332 140.054 -29.518  1.00  0.00     0.178 C 
ATOM      6  O   UNL     1      33.156 139.456 -28.536  1.00  0.00    -0.341 OA
ENDROOT
BRANCH   1   7
ATOM      7  O   UNL     1      34.941 139.824 -27.045  1.00  0.00    -0.350 OA
BRANCH   7   8
ATOM      8  C   UNL     1      35.117 138.434 -27.263  1.00  0.00     0.160 C 
ATOM      9  C   UNL     1      36.437 138.182 -27.980  1.00  0.00     0.035 C 
ENDBRANCH   7   8
ENDBRANCH   1   7
BRANCH   2  10
ATOM     10  O   UNL     1      36.063 141.619 -28.639  1.00  0.00    -0.385 OA
ATOM     11  H   UNL     1      36.189 141.343 -27.694  1.00  0.00     0.211 HD
ENDBRANCH   2  10
BRANCH   3  12
ATOM     12  O   UNL     1      35.132 141.672 -31.361  1.00  0.00    -0.387 OA
ATOM     13  H   UNL     1      35.729 142.293 -30.867  1.00  0.00     0.211 HD
ENDBRANCH   3  12
BRANCH   5  14
ATOM     14  C   UNL     1      31.131 139.138 -29.811  1.00  0.00     0.191 C 
BRANCH  14  15
ATOM     15  O   UNL     1      30.497 139.493 -31.012  1.00  0.00    -0.394 OA
ATOM     16  H   UNL     1      30.960 139.000 -31.738  1.00  0.00     0.210 HD
ENDBRANCH  14  15
ENDBRANCH   5  14
BRANCH   4  17
ATOM     17  O   UNL     1      33.148 139.354 -31.712  1.00  0.00    -0.387 OA
ATOM     18  H   UNL     1      34.014 138.877 -31.617  1.00  0.00     0.211 HD
ENDBRANCH   4  17
TORSDOF 7
ENDMDL
MODEL 5
REMARK VINA RESULT:    -4.055      2.280      4.305
REMARK INTER + INTRA:          -5.528
REMARK INTER:                  -5.177
REMARK INTRA:                  -0.352
REMARK UNBOUND:                -0.288
REMARK SMILES CCO[C@@H]1O[C@H](CO)[C@H](O)[C@@H](O)[C@@H]1O
REMARK SMILES IDX 4 1 13 2 11 3 9 4 6 5 5 6 3 7 2 8 1 9 14 10 12 12 7 14 8 15
REMARK SMILES IDX 10 17
REMARK H PARENT 14 11 12 13 8 16 10 18
REMARK Flexibility Score: inf
ROOT
ATOM      1  C   UNL     1      33.932 138.153 -31.747  1.00  0.00     0.281 C 
ATOM      2  C   UNL     1      34.790 139.460 -31.812  1.00  0.00     0.202 C 
ATOM      3  C   UNL     1      33.927 140.721 -31.576  1.00  0.00     0.179 C 
ATOM      4  C   UNL     1      33.088 140.588 -30.281  1.00  0.00     0.177 C 
ATOM      5  C   UNL     1      32.755 139.101 -29.966  1.00  0.00     0.178 C 
ATOM      6  O   UNL     1      32.648 138.351 -31.162  1.00  0.00    -0.341 OA
ENDROOT
BRANCH   1   7
ATOM      7  O   UNL     1      33.836 137.509 -33.012  1.00  0.00    -0.350 OA
BRANCH   7   8
ATOM      8  C   UNL     1      34.244 136.152 -32.985  1.00  0.00     0.160 C 
ATOM      9  C   UNL     1      33.617 135.396 -34.150  1.00  0.00     0.035 C 
ENDBRANCH   7   8
ENDBRANCH   1   7
BRANCH   2  10
ATOM     10  O   UNL     1      35.530 139.546 -33.006  1.00  0.00    -0.385 OA
ATOM     11  H   UNL     1      36.494 139.555 -32.769  1.00  0.00     0.211 HD
ENDBRANCH   2  10
BRANCH   3  12
ATOM     12  O   UNL     1      34.748 141.855 -31.479  1.00  0.00    -0.387 OA
ATOM     13  H   UNL     1      35.503 141.723 -32.111  1.00  0.00     0.211 HD
ENDBRANCH   3  12
BRANCH   5  14
ATOM     14  C   UNL     1      31.476 138.923 -29.130  1.00  0.00     0.191 C 
BRANCH  14  15
ATOM     15  O   UNL     1      30.324 139.104 -29.911  1.00  0.00    -0.394 OA
ATOM     16  H   UNL     1      29.903 138.211 -30.012  1.00  0.00     0.210 HD
ENDBRANCH  14  15
ENDBRANCH   5  14
BRANCH   4  17
ATOM     17  O   UNL     1      31.914 141.351 -30.412  1.00  0.00    -0.387 OA
ATOM     18  H   UNL     1      31.931 141.752 -31.320  1.00  0.00     0.211 HD
ENDBRANCH   4  17
TORSDOF 7
ENDMDL
MODEL 6
REMARK VINA RESULT:    -4.032     13.702     14.459
REMARK INTER + INTRA:          -5.498
REMARK INTER:                  -5.154
REMARK INTRA:                  -0.344
REMARK UNBOUND:                -0.288
REMARK SMILES CCO[C@@H]1O[C@H](CO)[C@H](O)[C@@H](O)[C@@H]1O
REMARK SMILES IDX 4 1 13 2 11 3 9 4 6 5 5 6 3 7 2 8 1 9 14 10 12 12 7 14 8 15
REMARK SMILES IDX 10 17
REMARK H PARENT 14 11 12 13 8 16 10 18
REMARK Flexibility Score: inf
ROOT
ATOM      1  C   UNL     1      33.225 140.641 -43.397  1.00  0.00     0.281 C 
ATOM      2  C   UNL     1      33.544 139.110 -43.397  1.00  0.00     0.202 C 
ATOM      3  C   UNL     1      34.562 138.738 -44.500  1.00  0.00     0.179 C 
ATOM      4  C   UNL     1      35.820 139.639 -44.422  1.00  0.00     0.177 C 
ATOM      5  C   UNL     1      35.486 141.038 -43.828  1.00  0.00     0.178 C 
ATOM      6  O   UNL     1      34.159 141.411 -44.151  1.00  0.00    -0.341 OA
ENDROOT
BRANCH   1   7
ATOM      7  O   UNL     1      31.886 140.912 -43.794  1.00  0.00    -0.350 OA
BRANCH   7   8
ATOM      8  C   UNL     1      31.571 142.295 -43.809  1.00  0.00     0.160 C 
ATOM      9  C   UNL     1      30.768 142.633 -45.058  1.00  0.00     0.035 C 
ENDBRANCH   7   8
ENDBRANCH   1   7
BRANCH   2  10
ATOM     10  O   UNL     1      32.376 138.328 -43.476  1.00  0.00    -0.385 OA
ATOM     11  H   UNL     1      31.744 138.783 -44.092  1.00  0.00     0.211 HD
ENDBRANCH   2  10
BRANCH   3  12
ATOM     12  O   UNL     1      34.948 137.395 -44.367  1.00  0.00    -0.387 OA
ATOM     13  H   UNL     1      34.437 136.878 -45.043  1.00  0.00     0.211 HD
ENDBRANCH   3  12
BRANCH   5  14
ATOM     14  C   UNL     1      36.456 142.143 -44.281  1.00  0.00     0.191 C 
BRANCH  14  15
ATOM     15  O   UNL     1      37.767 141.879 -43.858  1.00  0.00    -0.394 OA
ATOM     16  H   UNL     1      37.960 142.505 -43.113  1.00  0.00     0.210 HD
ENDBRANCH  14  15
ENDBRANCH   5  14
BRANCH   4  17
ATOM     17  O   UNL     1      36.383 139.756 -45.706  1.00  0.00    -0.387 OA
ATOM     18  H   UNL     1      35.802 140.377 -46.218  1.00  0.00     0.211 HD
ENDBRANCH   4  17
TORSDOF 7
ENDMDL
MODEL 7
REMARK VINA RESULT:    -4.028     12.929     14.559
REMARK INTER + INTRA:          -5.494
REMARK INTER:                  -5.105
REMARK INTRA:                  -0.388
REMARK UNBOUND:                -0.288
REMARK SMILES CCO[C@@H]1O[C@H](CO)[C@H](O)[C@@H](O)[C@@H]1O
REMARK SMILES IDX 4 1 13 2 11 3 9 4 6 5 5 6 3 7 2 8 1 9 14 10 12 12 7 14 8 15
REMARK SMILES IDX 10 17
REMARK H PARENT 14 11 12 13 8 16 10 18
REMARK Flexibility Score: inf
ROOT
ATOM      1  C   UNL     1      35.528 141.547 -44.954  1.00  0.00     0.281 C 
ATOM      2  C   UNL     1      36.003 140.169 -44.387  1.00  0.00     0.202 C 
ATOM      3  C   UNL     1      35.232 139.785 -43.103  1.00  0.00     0.179 C 
ATOM      4  C   UNL     1      33.702 139.876 -43.324  1.00  0.00     0.177 C 
ATOM      5  C   UNL     1      33.342 140.941 -44.400  1.00  0.00     0.178 C 
ATOM      6  O   UNL     1      34.292 141.990 -44.398  1.00  0.00    -0.341 OA
ENDROOT
BRANCH   1   7
ATOM      7  O   UNL     1      36.535 142.548 -44.849  1.00  0.00    -0.350 OA
BRANCH   7   8
ATOM      8  C   UNL     1      37.005 143.008 -46.106  1.00  0.00     0.160 C 
ATOM      9  C   UNL     1      38.515 143.203 -46.057  1.00  0.00     0.035 C 
ENDBRANCH   7   8
ENDBRANCH   1   7
BRANCH   2  10
ATOM     10  O   UNL     1      37.397 140.131 -44.193  1.00  0.00    -0.385 OA
ATOM     11  H   UNL     1      37.685 139.182 -44.232  1.00  0.00     0.211 HD
ENDBRANCH   2  10
BRANCH   3  12
ATOM     12  O   UNL     1      35.564 138.477 -42.715  1.00  0.00    -0.387 OA
ATOM     13  H   UNL     1      36.171 138.112 -43.411  1.00  0.00     0.211 HD
ENDBRANCH   3  12
BRANCH   5  14
ATOM     14  C   UNL     1      31.929 141.526 -44.235  1.00  0.00     0.191 C 
BRANCH  14  15
ATOM     15  O   UNL     1      31.905 142.541 -43.266  1.00  0.00    -0.394 OA
ATOM     16  H   UNL     1      30.958 142.655 -42.992  1.00  0.00     0.210 HD
ENDBRANCH  14  15
ENDBRANCH   5  14
BRANCH   4  17
ATOM     17  O   UNL     1      33.075 140.165 -42.098  1.00  0.00    -0.387 OA
ATOM     18  H   UNL     1      32.598 141.028 -42.216  1.00  0.00     0.211 HD
ENDBRANCH   4  17
TORSDOF 7
ENDMDL
MODEL 8
REMARK VINA RESULT:    -3.891      1.795      4.160
REMARK INTER + INTRA:          -5.317
REMARK INTER:                  -4.834
REMARK INTRA:                  -0.483
REMARK UNBOUND:                -0.288
REMARK SMILES CCO[C@@H]1O[C@H](CO)[C@H](O)[C@@H](O)[C@@H]1O
REMARK SMILES IDX 4 1 13 2 11 3 9 4 6 5 5 6 3 7 2 8 1 9 14 10 12 12 7 14 8 15
REMARK SMILES IDX 10 17
REMARK H PARENT 14 11 12 13 8 16 10 18
REMARK Flexibility Score: inf
ROOT
ATOM      1  C   UNL     1      33.795 141.355 -29.347  1.00  0.00     0.281 C 
ATOM      2  C   UNL     1      34.073 140.999 -30.845  1.00  0.00     0.202 C 
ATOM      3  C   UNL     1      33.763 139.514 -31.146  1.00  0.00     0.179 C 
ATOM      4  C   UNL     1      32.339 139.135 -30.668  1.00  0.00     0.177 C 
ATOM      5  C   UNL     1      31.894 140.003 -29.455  1.00  0.00     0.178 C 
ATOM      6  O   UNL     1      33.012 140.374 -28.671  1.00  0.00    -0.341 OA
ENDROOT
BRANCH   1   7
ATOM      7  O   UNL     1      34.989 141.652 -28.633  1.00  0.00    -0.350 OA
BRANCH   7   8
ATOM      8  C   UNL     1      35.290 140.706 -27.620  1.00  0.00     0.160 C 
ATOM      9  C   UNL     1      36.488 139.862 -28.035  1.00  0.00     0.035 C 
ENDBRANCH   7   8
ENDBRANCH   1   7
BRANCH   2  10
ATOM     10  O   UNL     1      35.379 141.352 -31.236  1.00  0.00    -0.385 OA
ATOM     11  H   UNL     1      36.011 140.727 -30.795  1.00  0.00     0.211 HD
ENDBRANCH   2  10
BRANCH   3  12
ATOM     12  O   UNL     1      33.867 139.270 -32.524  1.00  0.00    -0.387 OA
ATOM     13  H   UNL     1      34.298 138.383 -32.631  1.00  0.00     0.211 HD
ENDBRANCH   3  12
BRANCH   5  14
ATOM     14  C   UNL     1      30.845 139.316 -28.563  1.00  0.00     0.191 C 
BRANCH  14  15
ATOM     15  O   UNL     1      29.666 139.044 -29.275  1.00  0.00    -0.394 OA
ATOM     16  H   UNL     1      29.814 139.354 -30.205  1.00  0.00     0.210 HD
ENDBRANCH  14  15
ENDBRANCH   5  14
BRANCH   4  17
ATOM     17  O   UNL     1      32.310 137.766 -30.347  1.00  0.00    -0.387 OA
ATOM     18  H   UNL     1      31.391 137.445 -30.540  1.00  0.00     0.211 HD
ENDBRANCH   4  17
TORSDOF 7
ENDMDL
MODEL 9
REMARK VINA RESULT:    -3.743      1.607      4.177
REMARK INTER + INTRA:          -5.126
REMARK INTER:                  -4.614
REMARK INTRA:                  -0.512
REMARK UNBOUND:                -0.288
REMARK SMILES CCO[C@@H]1O[C@H](CO)[C@H](O)[C@@H](O)[C@@H]1O
REMARK SMILES IDX 4 1 13 2 11 3 9 4 6 5 5 6 3 7 2 8 1 9 14 10 12 12 7 14 8 15
REMARK SMILES IDX 10 17
REMARK H PARENT 14 11 12 13 8 16 10 18
REMARK Flexibility Score: inf
ROOT
ATOM      1  C   UNL     1      34.244 139.223 -28.574  1.00  0.00     0.281 C 
ATOM      2  C   UNL     1      32.764 139.727 -28.599  1.00  0.00     0.202 C 
ATOM      3  C   UNL     1      32.487 140.625 -29.826  1.00  0.00     0.179 C 
ATOM      4  C   UNL     1      32.932 139.930 -31.137  1.00  0.00     0.177 C 
ATOM      5  C   UNL     1      34.112 138.945 -30.889  1.00  0.00     0.178 C 
ATOM      6  O   UNL     1      34.920 139.396 -29.818  1.00  0.00    -0.341 OA
ENDROOT
BRANCH   1   7
ATOM      7  O   UNL     1      34.986 139.782 -27.496  1.00  0.00    -0.350 OA
BRANCH   7   8
ATOM      8  C   UNL     1      35.920 140.767 -27.906  1.00  0.00     0.160 C 
ATOM      9  C   UNL     1      35.455 142.146 -27.453  1.00  0.00     0.035 C 
ENDBRANCH   7   8
ENDBRANCH   1   7
BRANCH   2  10
ATOM     10  O   UNL     1      32.403 140.359 -27.394  1.00  0.00    -0.385 OA
ATOM     11  H   UNL     1      31.412 140.406 -27.357  1.00  0.00     0.211 HD
ENDBRANCH   2  10
BRANCH   3  12
ATOM     12  O   UNL     1      31.118 140.925 -29.906  1.00  0.00    -0.387 OA
ATOM     13  H   UNL     1      30.870 140.898 -30.867  1.00  0.00     0.211 HD
ENDBRANCH   3  12
BRANCH   5  14
ATOM     14  C   UNL     1      34.989 138.714 -32.132  1.00  0.00     0.191 C 
BRANCH  14  15
ATOM     15  O   UNL     1      34.206 138.519 -33.282  1.00  0.00    -0.394 OA
ATOM     16  H   UNL     1      33.697 137.679 -33.143  1.00  0.00     0.210 HD
ENDBRANCH  14  15
ENDBRANCH   5  14
BRANCH   4  17
ATOM     17  O   UNL     1      33.283 140.909 -32.083  1.00  0.00    -0.387 OA
ATOM     18  H   UNL     1      32.786 141.734 -31.840  1.00  0.00     0.211 HD
ENDBRANCH   4  17
TORSDOF 7
ENDMDL
