MODEL 1
REMARK VINA RESULT:    -5.195      0.000      0.000
REMARK INTER + INTRA:         -11.420
REMARK INTER:                  -9.751
REMARK INTRA:                  -1.669
REMARK UNBOUND:                -1.669
REMARK SMILES CCCCCCCCC=CCCCCCCCC(=O)[O-]
REMARK SMILES IDX 10 1 9 2 11 3 12 4 13 5 14 6 15 7 16 8 17 9 18 10 19 11
REMARK SMILES IDX 20 12 8 13 7 14 6 15 5 16 4 17 3 18 2 19 1 20
REMARK H PARENT
REMARK Flexibility Score: inf
ROOT
ATOM      1  C   UNL     1     -12.089 -25.316 -36.043  1.00  0.00    -0.031 C 
ATOM      2  C   UNL     1     -12.691 -24.131 -35.830  1.00  0.00    -0.031 C 
ENDROOT
BRANCH   1   3
ATOM      3  C   UNL     1     -11.264 -26.067 -35.024  1.00  0.00     0.027 C 
BRANCH   3   4
ATOM      4  C   UNL     1     -11.601 -27.564 -35.026  1.00  0.00     0.004 C 
BRANCH   4   5
ATOM      5  C   UNL     1     -13.120 -27.814 -35.013  1.00  0.00     0.000 C 
BRANCH   5   6
ATOM      6  C   UNL     1     -13.759 -27.504 -33.649  1.00  0.00     0.000 C 
BRANCH   6   7
ATOM      7  C   UNL     1     -12.972 -28.111 -32.476  1.00  0.00     0.000 C 
BRANCH   7   8
ATOM      8  C   UNL     1     -12.868 -27.154 -31.277  1.00  0.00     0.006 C 
BRANCH   8   9
ATOM      9  C   UNL     1     -12.610 -25.701 -31.698  1.00  0.00     0.053 C 
BRANCH   9  10
ATOM     10  C   UNL     1     -11.172 -25.347 -31.489  1.00  0.00     0.041 C 
ATOM     11  O   UNL     1     -10.832 -24.144 -31.329  1.00  0.00    -0.550 OA
ATOM     12  O   UNL     1     -10.198 -26.338 -31.520  1.00  0.00    -0.550 OA
ENDBRANCH   9  10
ENDBRANCH   8   9
ENDBRANCH   7   8
ENDBRANCH   6   7
ENDBRANCH   5   6
ENDBRANCH   4   5
ENDBRANCH   3   4
ENDBRANCH   1   3
BRANCH   2  13
ATOM     13  C   UNL     1     -12.688 -23.383 -34.519  1.00  0.00     0.027 C 
BRANCH  13  14
ATOM     14  C   UNL     1     -12.860 -21.869 -34.717  1.00  0.00     0.004 C 
BRANCH  14  15
ATOM     15  C   UNL     1     -12.047 -21.347 -35.911  1.00  0.00     0.000 C 
BRANCH  15  16
ATOM     16  C   UNL     1     -12.311 -19.851 -36.142  1.00  0.00     0.000 C 
BRANCH  16  17
ATOM     17  C   UNL     1     -11.148 -18.965 -35.668  1.00  0.00    -0.000 C 
BRANCH  17  18
ATOM     18  C   UNL     1      -9.772 -19.595 -35.951  1.00  0.00    -0.000 C 
BRANCH  18  19
ATOM     19  C   UNL     1      -9.109 -19.018 -37.211  1.00  0.00    -0.003 C 
ATOM     20  C   UNL     1      -7.624 -19.370 -37.310  1.00  0.00     0.004 C 
ENDBRANCH  18  19
ENDBRANCH  17  18
ENDBRANCH  16  17
ENDBRANCH  15  16
ENDBRANCH  14  15
ENDBRANCH  13  14
ENDBRANCH   2  13
TORSDOF 15
ENDMDL
MODEL 2
REMARK VINA RESULT:    -5.077      2.209      3.885
REMARK INTER + INTRA:         -11.197
REMARK INTER:                  -9.178
REMARK INTRA:                  -2.019
REMARK UNBOUND:                -1.669
REMARK SMILES CCCCCCCCC=CCCCCCCCC(=O)[O-]
REMARK SMILES IDX 10 1 9 2 11 3 12 4 13 5 14 6 15 7 16 8 17 9 18 10 19 11
REMARK SMILES IDX 20 12 8 13 7 14 6 15 5 16 4 17 3 18 2 19 1 20
REMARK H PARENT
REMARK Flexibility Score: inf
ROOT
ATOM      1  C   UNL     1     -10.542 -26.197 -31.588  1.00  0.00    -0.031 C 
ATOM      2  C   UNL     1     -10.774 -25.081 -32.305  1.00  0.00    -0.031 C 
ENDROOT
BRANCH   1   3
ATOM      3  C   UNL     1     -11.460 -26.752 -30.524  1.00  0.00     0.027 C 
BRANCH   3   4
ATOM      4  C   UNL     1     -11.764 -28.236 -30.767  1.00  0.00     0.004 C 
BRANCH   4   5
ATOM      5  C   UNL     1     -13.186 -28.451 -31.316  1.00  0.00     0.000 C 
BRANCH   5   6
ATOM      6  C   UNL     1     -13.302 -28.107 -32.810  1.00  0.00     0.000 C 
BRANCH   6   7
ATOM      7  C   UNL     1     -12.110 -28.627 -33.630  1.00  0.00     0.000 C 
BRANCH   7   8
ATOM      8  C   UNL     1     -11.832 -27.769 -34.877  1.00  0.00     0.006 C 
BRANCH   8   9
ATOM      9  C   UNL     1     -13.042 -26.924 -35.296  1.00  0.00     0.053 C 
BRANCH   9  10
ATOM     10  C   UNL     1     -12.590 -25.666 -35.968  1.00  0.00     0.041 C 
ATOM     11  O   UNL     1     -13.409 -24.970 -36.627  1.00  0.00    -0.550 OA
ATOM     12  O   UNL     1     -11.255 -25.287 -35.911  1.00  0.00    -0.550 OA
ENDBRANCH   9  10
ENDBRANCH   8   9
ENDBRANCH   7   8
ENDBRANCH   6   7
ENDBRANCH   5   6
ENDBRANCH   4   5
ENDBRANCH   3   4
ENDBRANCH   1   3
BRANCH   2  13
ATOM     13  C   UNL     1     -12.017 -24.231 -32.203  1.00  0.00     0.027 C 
BRANCH  13  14
ATOM     14  C   UNL     1     -11.694 -22.778 -31.817  1.00  0.00     0.004 C 
BRANCH  14  15
ATOM     15  C   UNL     1     -11.910 -21.809 -32.988  1.00  0.00     0.000 C 
BRANCH  15  16
ATOM     16  C   UNL     1     -12.697 -22.484 -34.121  1.00  0.00     0.000 C 
BRANCH  16  17
ATOM     17  C   UNL     1     -12.640 -21.689 -35.436  1.00  0.00    -0.000 C 
BRANCH  17  18
ATOM     18  C   UNL     1     -11.498 -20.659 -35.455  1.00  0.00    -0.000 C 
BRANCH  18  19
ATOM     19  C   UNL     1     -12.011 -19.211 -35.446  1.00  0.00    -0.003 C 
ATOM     20  C   UNL     1     -13.339 -19.051 -36.188  1.00  0.00     0.004 C 
ENDBRANCH  18  19
ENDBRANCH  17  18
ENDBRANCH  16  17
ENDBRANCH  15  16
ENDBRANCH  14  15
ENDBRANCH  13  14
ENDBRANCH   2  13
TORSDOF 15
ENDMDL
MODEL 3
REMARK VINA RESULT:    -5.034      3.015      6.708
REMARK INTER + INTRA:         -11.117
REMARK INTER:                  -8.763
REMARK INTRA:                  -2.354
REMARK UNBOUND:                -1.669
REMARK SMILES CCCCCCCCC=CCCCCCCCC(=O)[O-]
REMARK SMILES IDX 10 1 9 2 11 3 12 4 13 5 14 6 15 7 16 8 17 9 18 10 19 11
REMARK SMILES IDX 20 12 8 13 7 14 6 15 5 16 4 17 3 18 2 19 1 20
REMARK H PARENT
REMARK Flexibility Score: inf
ROOT
ATOM      1  C   UNL     1     -13.775 -27.215 -34.338  1.00  0.00    -0.031 C 
ATOM      2  C   UNL     1     -13.777 -27.680 -33.075  1.00  0.00    -0.031 C 
ENDROOT
BRANCH   1   3
ATOM      3  C   UNL     1     -12.609 -27.306 -35.296  1.00  0.00     0.027 C 
BRANCH   3   4
ATOM      4  C   UNL     1     -11.940 -25.940 -35.494  1.00  0.00     0.004 C 
BRANCH   4   5
ATOM      5  C   UNL     1     -12.956 -24.848 -35.871  1.00  0.00     0.000 C 
BRANCH   5   6
ATOM      6  C   UNL     1     -12.362 -23.432 -35.790  1.00  0.00     0.000 C 
BRANCH   6   7
ATOM      7  C   UNL     1     -13.141 -22.519 -34.830  1.00  0.00     0.000 C 
BRANCH   7   8
ATOM      8  C   UNL     1     -12.225 -21.547 -34.066  1.00  0.00     0.006 C 
BRANCH   8   9
ATOM      9  C   UNL     1     -12.740 -20.102 -34.094  1.00  0.00     0.053 C 
BRANCH   9  10
ATOM     10  C   UNL     1     -12.548 -19.507 -35.453  1.00  0.00     0.041 C 
ATOM     11  O   UNL     1     -13.546 -19.170 -36.144  1.00  0.00    -0.550 OA
ATOM     12  O   UNL     1     -11.269 -19.370 -35.979  1.00  0.00    -0.550 OA
ENDBRANCH   9  10
ENDBRANCH   8   9
ENDBRANCH   7   8
ENDBRANCH   6   7
ENDBRANCH   5   6
ENDBRANCH   4   5
ENDBRANCH   3   4
ENDBRANCH   1   3
BRANCH   2  13
ATOM     13  C   UNL     1     -12.634 -28.420 -32.424  1.00  0.00     0.027 C 
BRANCH  13  14
ATOM     14  C   UNL     1     -12.806 -28.526 -30.900  1.00  0.00     0.004 C 
BRANCH  14  15
ATOM     15  C   UNL     1     -11.462 -28.447 -30.162  1.00  0.00     0.000 C 
BRANCH  15  16
ATOM     16  C   UNL     1     -10.497 -27.492 -30.880  1.00  0.00     0.000 C 
BRANCH  16  17
ATOM     17  C   UNL     1     -10.497 -26.081 -30.268  1.00  0.00    -0.000 C 
BRANCH  17  18
ATOM     18  C   UNL     1     -10.172 -24.989 -31.302  1.00  0.00    -0.000 C 
BRANCH  18  19
ATOM     19  C   UNL     1     -11.338 -24.730 -32.269  1.00  0.00    -0.003 C 
ATOM     20  C   UNL     1     -12.668 -24.514 -31.546  1.00  0.00     0.004 C 
ENDBRANCH  18  19
ENDBRANCH  17  18
ENDBRANCH  16  17
ENDBRANCH  15  16
ENDBRANCH  14  15
ENDBRANCH  13  14
ENDBRANCH   2  13
TORSDOF 15
ENDMDL
MODEL 4
REMARK VINA RESULT:    -5.016      2.472      6.829
REMARK INTER + INTRA:         -11.083
REMARK INTER:                  -8.956
REMARK INTRA:                  -2.127
REMARK UNBOUND:                -1.669
REMARK SMILES CCCCCCCCC=CCCCCCCCC(=O)[O-]
REMARK SMILES IDX 10 1 9 2 11 3 12 4 13 5 14 6 15 7 16 8 17 9 18 10 19 11
REMARK SMILES IDX 20 12 8 13 7 14 6 15 5 16 4 17 3 18 2 19 1 20
REMARK H PARENT
REMARK Flexibility Score: inf
ROOT
ATOM      1  C   UNL     1     -10.512 -26.202 -30.305  1.00  0.00    -0.031 C 
ATOM      2  C   UNL     1     -11.104 -27.395 -30.108  1.00  0.00    -0.031 C 
ENDROOT
BRANCH   1   3
ATOM      3  C   UNL     1     -11.232 -24.923 -30.663  1.00  0.00     0.027 C 
BRANCH   3   4
ATOM      4  C   UNL     1     -11.080 -24.594 -32.154  1.00  0.00     0.004 C 
BRANCH   4   5
ATOM      5  C   UNL     1     -12.334 -23.907 -32.724  1.00  0.00     0.000 C 
BRANCH   5   6
ATOM      6  C   UNL     1     -12.028 -22.526 -33.329  1.00  0.00     0.000 C 
BRANCH   6   7
ATOM      7  C   UNL     1     -13.017 -22.138 -34.441  1.00  0.00     0.000 C 
BRANCH   7   8
ATOM      8  C   UNL     1     -12.311 -21.773 -35.758  1.00  0.00     0.006 C 
BRANCH   8   9
ATOM      9  C   UNL     1     -12.048 -20.267 -35.891  1.00  0.00     0.053 C 
BRANCH   9  10
ATOM     10  C   UNL     1     -10.662 -19.939 -35.432  1.00  0.00     0.041 C 
ATOM     11  O   UNL     1     -10.467 -19.506 -34.265  1.00  0.00    -0.550 OA
ATOM     12  O   UNL     1      -9.591 -20.063 -36.308  1.00  0.00    -0.550 OA
ENDBRANCH   9  10
ENDBRANCH   8   9
ENDBRANCH   7   8
ENDBRANCH   6   7
ENDBRANCH   5   6
ENDBRANCH   4   5
ENDBRANCH   3   4
ENDBRANCH   1   3
BRANCH   2  13
ATOM     13  C   UNL     1     -12.592 -27.639 -30.156  1.00  0.00     0.027 C 
BRANCH  13  14
ATOM     14  C   UNL     1     -12.993 -28.535 -31.339  1.00  0.00     0.004 C 
BRANCH  14  15
ATOM     15  C   UNL     1     -13.015 -27.763 -32.666  1.00  0.00     0.000 C 
BRANCH  15  16
ATOM     16  C   UNL     1     -12.288 -28.547 -33.768  1.00  0.00     0.000 C 
BRANCH  16  17
ATOM     17  C   UNL     1     -12.301 -27.816 -35.121  1.00  0.00    -0.000 C 
BRANCH  17  18
ATOM     18  C   UNL     1     -13.533 -26.910 -35.291  1.00  0.00    -0.000 C 
BRANCH  18  19
ATOM     19  C   UNL     1     -13.193 -25.577 -35.976  1.00  0.00    -0.003 C 
ATOM     20  C   UNL     1     -11.687 -25.329 -36.069  1.00  0.00     0.004 C 
ENDBRANCH  18  19
ENDBRANCH  17  18
ENDBRANCH  16  17
ENDBRANCH  15  16
ENDBRANCH  14  15
ENDBRANCH  13  14
ENDBRANCH   2  13
TORSDOF 15
ENDMDL
MODEL 5
REMARK VINA RESULT:    -4.921      1.058      2.236
REMARK INTER + INTRA:         -10.905
REMARK INTER:                  -9.098
REMARK INTRA:                  -1.807
REMARK UNBOUND:                -1.669
REMARK SMILES CCCCCCCCC=CCCCCCCCC(=O)[O-]
REMARK SMILES IDX 10 1 9 2 11 3 12 4 13 5 14 6 15 7 16 8 17 9 18 10 19 11
REMARK SMILES IDX 20 12 8 13 7 14 6 15 5 16 4 17 3 18 2 19 1 20
REMARK H PARENT
REMARK Flexibility Score: inf
ROOT
ATOM      1  C   UNL     1     -11.944 -26.883 -35.172  1.00  0.00    -0.031 C 
ATOM      2  C   UNL     1     -11.809 -25.596 -35.541  1.00  0.00    -0.031 C 
ENDROOT
BRANCH   1   3
ATOM      3  C   UNL     1     -13.255 -27.629 -35.082  1.00  0.00     0.027 C 
BRANCH   3   4
ATOM      4  C   UNL     1     -13.743 -27.727 -33.630  1.00  0.00     0.004 C 
BRANCH   4   5
ATOM      5  C   UNL     1     -12.695 -28.381 -32.713  1.00  0.00     0.000 C 
BRANCH   5   6
ATOM      6  C   UNL     1     -12.950 -28.093 -31.223  1.00  0.00     0.000 C 
BRANCH   6   7
ATOM      7  C   UNL     1     -11.873 -27.188 -30.604  1.00  0.00     0.000 C 
BRANCH   7   8
ATOM      8  C   UNL     1     -12.254 -25.699 -30.653  1.00  0.00     0.006 C 
BRANCH   8   9
ATOM      9  C   UNL     1     -11.663 -24.976 -31.871  1.00  0.00     0.053 C 
BRANCH   9  10
ATOM     10  C   UNL     1     -10.518 -24.108 -31.456  1.00  0.00     0.041 C 
ATOM     11  O   UNL     1      -9.514 -24.613 -30.887  1.00  0.00    -0.550 OA
ATOM     12  O   UNL     1     -10.578 -22.735 -31.654  1.00  0.00    -0.550 OA
ENDBRANCH   9  10
ENDBRANCH   8   9
ENDBRANCH   7   8
ENDBRANCH   6   7
ENDBRANCH   5   6
ENDBRANCH   4   5
ENDBRANCH   3   4
ENDBRANCH   1   3
BRANCH   2  13
ATOM     13  C   UNL     1     -12.941 -24.699 -35.980  1.00  0.00     0.027 C 
BRANCH  13  14
ATOM     14  C   UNL     1     -12.571 -23.210 -35.880  1.00  0.00     0.004 C 
BRANCH  14  15
ATOM     15  C   UNL     1     -12.704 -22.678 -34.446  1.00  0.00     0.000 C 
BRANCH  15  16
ATOM     16  C   UNL     1     -12.758 -21.143 -34.434  1.00  0.00     0.000 C 
BRANCH  16  17
ATOM     17  C   UNL     1     -13.175 -20.555 -35.792  1.00  0.00    -0.000 C 
BRANCH  17  18
ATOM     18  C   UNL     1     -12.217 -19.455 -36.279  1.00  0.00    -0.000 C 
BRANCH  18  19
ATOM     19  C   UNL     1     -10.895 -19.435 -35.495  1.00  0.00    -0.003 C 
ATOM     20  C   UNL     1      -9.704 -19.898 -36.335  1.00  0.00     0.004 C 
ENDBRANCH  18  19
ENDBRANCH  17  18
ENDBRANCH  16  17
ENDBRANCH  15  16
ENDBRANCH  14  15
ENDBRANCH  13  14
ENDBRANCH   2  13
TORSDOF 15
ENDMDL
MODEL 6
REMARK VINA RESULT:    -4.897      3.174      6.915
REMARK INTER + INTRA:         -10.859
REMARK INTER:                  -8.726
REMARK INTRA:                  -2.133
REMARK UNBOUND:                -1.669
REMARK SMILES CCCCCCCCC=CCCCCCCCC(=O)[O-]
REMARK SMILES IDX 10 1 9 2 11 3 12 4 13 5 14 6 15 7 16 8 17 9 18 10 19 11
REMARK SMILES IDX 20 12 8 13 7 14 6 15 5 16 4 17 3 18 2 19 1 20
REMARK H PARENT
REMARK Flexibility Score: inf
ROOT
ATOM      1  C   UNL     1     -10.010 -25.893 -31.396  1.00  0.00    -0.031 C 
ATOM      2  C   UNL     1     -10.582 -26.918 -30.736  1.00  0.00    -0.031 C 
ENDROOT
BRANCH   1   3
ATOM      3  C   UNL     1     -10.727 -24.640 -31.843  1.00  0.00     0.027 C 
BRANCH   3   4
ATOM      4  C   UNL     1     -10.437 -23.464 -30.901  1.00  0.00     0.004 C 
BRANCH   4   5
ATOM      5  C   UNL     1     -11.384 -22.278 -31.150  1.00  0.00     0.000 C 
BRANCH   5   6
ATOM      6  C   UNL     1     -10.733 -21.166 -31.990  1.00  0.00     0.000 C 
BRANCH   6   7
ATOM      7  C   UNL     1     -11.544 -20.827 -33.251  1.00  0.00     0.000 C 
BRANCH   7   8
ATOM      8  C   UNL     1     -12.341 -22.030 -33.782  1.00  0.00     0.006 C 
BRANCH   8   9
ATOM      9  C   UNL     1     -12.859 -21.814 -35.210  1.00  0.00     0.053 C 
BRANCH   9  10
ATOM     10  C   UNL     1     -13.624 -20.531 -35.297  1.00  0.00     0.041 C 
ATOM     11  O   UNL     1     -14.691 -20.384 -34.644  1.00  0.00    -0.550 OA
ATOM     12  O   UNL     1     -13.186 -19.515 -36.137  1.00  0.00    -0.550 OA
ENDBRANCH   9  10
ENDBRANCH   8   9
ENDBRANCH   7   8
ENDBRANCH   6   7
ENDBRANCH   5   6
ENDBRANCH   4   5
ENDBRANCH   3   4
ENDBRANCH   1   3
BRANCH   2  13
ATOM     13  C   UNL     1     -12.021 -26.960 -30.284  1.00  0.00     0.027 C 
BRANCH  13  14
ATOM     14  C   UNL     1     -12.991 -27.161 -31.459  1.00  0.00     0.004 C 
BRANCH  14  15
ATOM     15  C   UNL     1     -12.625 -28.389 -32.305  1.00  0.00     0.000 C 
BRANCH  15  16
ATOM     16  C   UNL     1     -12.844 -28.109 -33.800  1.00  0.00     0.000 C 
BRANCH  16  17
ATOM     17  C   UNL     1     -11.525 -28.022 -34.584  1.00  0.00    -0.000 C 
BRANCH  17  18
ATOM     18  C   UNL     1     -11.171 -26.580 -34.988  1.00  0.00    -0.000 C 
BRANCH  18  19
ATOM     19  C   UNL     1     -12.371 -25.627 -34.876  1.00  0.00    -0.003 C 
ATOM     20  C   UNL     1     -13.009 -25.320 -36.231  1.00  0.00     0.004 C 
ENDBRANCH  18  19
ENDBRANCH  17  18
ENDBRANCH  16  17
ENDBRANCH  15  16
ENDBRANCH  14  15
ENDBRANCH  13  14
ENDBRANCH   2  13
TORSDOF 15
ENDMDL
MODEL 7
REMARK VINA RESULT:    -4.788      2.737      6.602
REMARK INTER + INTRA:         -10.655
REMARK INTER:                  -8.151
REMARK INTRA:                  -2.503
REMARK UNBOUND:                -1.669
REMARK SMILES CCCCCCCCC=CCCCCCCCC(=O)[O-]
REMARK SMILES IDX 10 1 9 2 11 3 12 4 13 5 14 6 15 7 16 8 17 9 18 10 19 11
REMARK SMILES IDX 20 12 8 13 7 14 6 15 5 16 4 17 3 18 2 19 1 20
REMARK H PARENT
REMARK Flexibility Score: inf
ROOT
ATOM      1  C   UNL     1     -12.248 -24.962 -31.992  1.00  0.00    -0.031 C 
ATOM      2  C   UNL     1     -13.119 -25.918 -31.619  1.00  0.00    -0.031 C 
ENDROOT
BRANCH   1   3
ATOM      3  C   UNL     1     -10.758 -25.157 -32.149  1.00  0.00     0.027 C 
BRANCH   3   4
ATOM      4  C   UNL     1      -9.977 -24.392 -31.072  1.00  0.00     0.004 C 
BRANCH   4   5
ATOM      5  C   UNL     1     -10.714 -23.120 -30.619  1.00  0.00     0.000 C 
BRANCH   5   6
ATOM      6  C   UNL     1      -9.955 -21.833 -30.985  1.00  0.00     0.000 C 
BRANCH   6   7
ATOM      7  C   UNL     1     -10.834 -20.823 -31.739  1.00  0.00     0.000 C 
BRANCH   7   8
ATOM      8  C   UNL     1     -11.577 -21.458 -32.926  1.00  0.00     0.006 C 
BRANCH   8   9
ATOM      9  C   UNL     1     -12.548 -20.484 -33.608  1.00  0.00     0.053 C 
BRANCH   9  10
ATOM     10  C   UNL     1     -12.189 -20.316 -35.050  1.00  0.00     0.041 C 
ATOM     11  O   UNL     1     -10.984 -20.377 -35.415  1.00  0.00    -0.550 OA
ATOM     12  O   UNL     1     -13.177 -20.042 -35.986  1.00  0.00    -0.550 OA
ENDBRANCH   9  10
ENDBRANCH   8   9
ENDBRANCH   7   8
ENDBRANCH   6   7
ENDBRANCH   5   6
ENDBRANCH   4   5
ENDBRANCH   3   4
ENDBRANCH   1   3
BRANCH   2  13
ATOM     13  C   UNL     1     -12.758 -27.358 -31.350  1.00  0.00     0.027 C 
BRANCH  13  14
ATOM     14  C   UNL     1     -13.044 -28.262 -32.559  1.00  0.00     0.004 C 
BRANCH  14  15
ATOM     15  C   UNL     1     -11.828 -28.382 -33.489  1.00  0.00     0.000 C 
BRANCH  15  16
ATOM     16  C   UNL     1     -12.172 -27.897 -34.906  1.00  0.00     0.000 C 
BRANCH  16  17
ATOM     17  C   UNL     1     -13.626 -27.413 -35.029  1.00  0.00    -0.000 C 
BRANCH  17  18
ATOM     18  C   UNL     1     -13.756 -26.149 -35.897  1.00  0.00    -0.000 C 
BRANCH  18  19
ATOM     19  C   UNL     1     -12.462 -25.321 -35.929  1.00  0.00    -0.003 C 
ATOM     20  C   UNL     1     -12.694 -23.852 -35.576  1.00  0.00     0.004 C 
ENDBRANCH  18  19
ENDBRANCH  17  18
ENDBRANCH  16  17
ENDBRANCH  15  16
ENDBRANCH  14  15
ENDBRANCH  13  14
ENDBRANCH   2  13
TORSDOF 15
ENDMDL
MODEL 8
REMARK VINA RESULT:    -4.759      2.994      5.654
REMARK INTER + INTRA:         -10.601
REMARK INTER:                  -8.365
REMARK INTRA:                  -2.236
REMARK UNBOUND:                -1.669
REMARK SMILES CCCCCCCCC=CCCCCCCCC(=O)[O-]
REMARK SMILES IDX 10 1 9 2 11 3 12 4 13 5 14 6 15 7 16 8 17 9 18 10 19 11
REMARK SMILES IDX 20 12 8 13 7 14 6 15 5 16 4 17 3 18 2 19 1 20
REMARK H PARENT
REMARK Flexibility Score: inf
ROOT
ATOM      1  C   UNL     1     -12.871 -27.985 -30.275  1.00  0.00    -0.031 C 
ATOM      2  C   UNL     1     -13.038 -28.693 -31.408  1.00  0.00    -0.031 C 
ENDROOT
BRANCH   1   3
ATOM      3  C   UNL     1     -12.075 -26.706 -30.159  1.00  0.00     0.027 C 
BRANCH   3   4
ATOM      4  C   UNL     1     -12.927 -25.482 -30.523  1.00  0.00     0.004 C 
BRANCH   4   5
ATOM      5  C   UNL     1     -12.321 -24.684 -31.691  1.00  0.00     0.000 C 
BRANCH   5   6
ATOM      6  C   UNL     1     -10.838 -25.014 -31.928  1.00  0.00     0.000 C 
BRANCH   6   7
ATOM      7  C   UNL     1      -9.903 -24.249 -30.977  1.00  0.00     0.000 C 
BRANCH   7   8
ATOM      8  C   UNL     1     -10.514 -22.925 -30.488  1.00  0.00     0.006 C 
BRANCH   8   9
ATOM      9  C   UNL     1      -9.859 -21.696 -31.133  1.00  0.00     0.053 C 
BRANCH   9  10
ATOM     10  C   UNL     1     -10.884 -20.880 -31.856  1.00  0.00     0.041 C 
ATOM     11  O   UNL     1     -12.085 -20.889 -31.475  1.00  0.00    -0.550 OA
ATOM     12  O   UNL     1     -10.524 -20.147 -32.979  1.00  0.00    -0.550 OA
ENDBRANCH   9  10
ENDBRANCH   8   9
ENDBRANCH   7   8
ENDBRANCH   6   7
ENDBRANCH   5   6
ENDBRANCH   4   5
ENDBRANCH   3   4
ENDBRANCH   1   3
BRANCH   2  13
ATOM     13  C   UNL     1     -12.504 -28.296 -32.762  1.00  0.00     0.027 C 
BRANCH  13  14
ATOM     14  C   UNL     1     -13.626 -27.884 -33.728  1.00  0.00     0.004 C 
BRANCH  14  15
ATOM     15  C   UNL     1     -13.092 -27.575 -35.134  1.00  0.00     0.000 C 
BRANCH  15  16
ATOM     16  C   UNL     1     -11.625 -27.122 -35.076  1.00  0.00     0.000 C 
BRANCH  16  17
ATOM     17  C   UNL     1     -11.437 -25.665 -35.529  1.00  0.00    -0.000 C 
BRANCH  17  18
ATOM     18  C   UNL     1     -12.774 -24.925 -35.708  1.00  0.00    -0.000 C 
BRANCH  18  19
ATOM     19  C   UNL     1     -12.587 -23.411 -35.895  1.00  0.00    -0.003 C 
ATOM     20  C   UNL     1     -12.784 -22.627 -34.597  1.00  0.00     0.004 C 
ENDBRANCH  18  19
ENDBRANCH  17  18
ENDBRANCH  16  17
ENDBRANCH  15  16
ENDBRANCH  14  15
ENDBRANCH  13  14
ENDBRANCH   2  13
TORSDOF 15
ENDMDL
MODEL 9
REMARK VINA RESULT:    -4.653      2.484      3.880
REMARK INTER + INTRA:         -10.402
REMARK INTER:                  -8.223
REMARK INTRA:                  -2.179
REMARK UNBOUND:                -1.669
REMARK SMILES CCCCCCCCC=CCCCCCCCC(=O)[O-]
REMARK SMILES IDX 10 1 9 2 11 3 12 4 13 5 14 6 15 7 16 8 17 9 18 10 19 11
REMARK SMILES IDX 20 12 8 13 7 14 6 15 5 16 4 17 3 18 2 19 1 20
REMARK H PARENT
REMARK Flexibility Score: inf
ROOT
ATOM      1  C   UNL     1     -12.053 -24.197 -32.607  1.00  0.00    -0.031 C 
ATOM      2  C   UNL     1     -12.137 -22.856 -32.688  1.00  0.00    -0.031 C 
ENDROOT
BRANCH   1   3
ATOM      3  C   UNL     1     -10.903 -24.960 -31.992  1.00  0.00     0.027 C 
BRANCH   3   4
ATOM      4  C   UNL     1     -11.351 -26.340 -31.492  1.00  0.00     0.004 C 
BRANCH   4   5
ATOM      5  C   UNL     1     -12.849 -26.584 -31.740  1.00  0.00     0.000 C 
BRANCH   5   6
ATOM      6  C   UNL     1     -13.110 -27.820 -32.619  1.00  0.00     0.000 C 
BRANCH   6   7
ATOM      7  C   UNL     1     -11.878 -28.229 -33.442  1.00  0.00     0.000 C 
BRANCH   7   8
ATOM      8  C   UNL     1     -12.050 -27.943 -34.943  1.00  0.00     0.006 C 
BRANCH   8   9
ATOM      9  C   UNL     1     -11.816 -26.468 -35.296  1.00  0.00     0.053 C 
BRANCH   9  10
ATOM     10  C   UNL     1     -13.075 -25.852 -35.818  1.00  0.00     0.041 C 
ATOM     11  O   UNL     1     -14.150 -26.509 -35.816  1.00  0.00    -0.550 OA
ATOM     12  O   UNL     1     -13.053 -24.570 -36.353  1.00  0.00    -0.550 OA
ENDBRANCH   9  10
ENDBRANCH   8   9
ENDBRANCH   7   8
ENDBRANCH   6   7
ENDBRANCH   5   6
ENDBRANCH   4   5
ENDBRANCH   3   4
ENDBRANCH   1   3
BRANCH   2  13
ATOM     13  C   UNL     1     -11.122 -21.890 -32.126  1.00  0.00     0.027 C 
BRANCH  13  14
ATOM     14  C   UNL     1     -11.786 -20.678 -31.454  1.00  0.00     0.004 C 
BRANCH  14  15
ATOM     15  C   UNL     1     -11.844 -19.461 -32.388  1.00  0.00     0.000 C 
BRANCH  15  16
ATOM     16  C   UNL     1     -10.738 -19.532 -33.451  1.00  0.00     0.000 C 
BRANCH  16  17
ATOM     17  C   UNL     1     -11.247 -19.183 -34.859  1.00  0.00    -0.000 C 
BRANCH  17  18
ATOM     18  C   UNL     1     -11.199 -20.384 -35.819  1.00  0.00    -0.000 C 
BRANCH  18  19
ATOM     19  C   UNL     1     -12.507 -21.191 -35.820  1.00  0.00    -0.003 C 
ATOM     20  C   UNL     1     -13.724 -20.340 -35.454  1.00  0.00     0.004 C 
ENDBRANCH  18  19
ENDBRANCH  17  18
ENDBRANCH  16  17
ENDBRANCH  15  16
ENDBRANCH  14  15
ENDBRANCH  13  14
ENDBRANCH   2  13
TORSDOF 15
ENDMDL
