MODEL 1
REMARK VINA RESULT:    -1.072      0.000      0.000
REMARK INTER + INTRA:          -0.628
REMARK INTER:                  -1.636
REMARK INTRA:                   1.008
REMARK UNBOUND:                 1.008
REMARK SMILES CC1=CCC[C@@H](C)C(=O)C[C@H](C(C)C)C(=O)C1
REMARK SMILES IDX 8 1 9 2 6 3 7 4 5 5 4 6 3 7 2 8 1 9 10 11 11 12 15 13 16 14
REMARK SMILES IDX 17 15 12 17 13 18 14 19
REMARK H PARENT
REMARK Flexibility Score: 70.00
ROOT
ATOM      1  C   UNL     1      87.225  31.136  64.561  1.00  0.00     0.136 C 
ATOM      2  O   UNL     1      87.773  31.010  63.476  1.00  0.00    -0.299 OA
ENDROOT
BRANCH   1   3
ATOM      3  C   UNL     1      86.888  29.882  65.351  1.00  0.00     0.053 C 
ATOM      4  C   UNL     1      88.124  29.338  66.076  1.00  0.00     0.016 C 
BRANCH   3   5
ATOM      5  C   UNL     1      86.240  28.796  64.472  1.00  0.00     0.015 C 
BRANCH   5   6
ATOM      6  C   UNL     1      84.944  28.223  65.090  1.00  0.00     0.028 C 
BRANCH   6   7
ATOM      7  C   UNL     1      83.731  28.673  64.313  1.00  0.00    -0.028 C 
ATOM      8  C   UNL     1      83.128  29.881  64.432  1.00  0.00    -0.070 CG0
ATOM      9  C   UNL     1      81.956  30.173  63.530  1.00  0.00     0.039 C 
ATOM     10  G   UNL     1      83.533  30.918  65.471  1.00  0.00     0.000 G0
ENDBRANCH   6   7
ENDBRANCH   5   6
ENDBRANCH   3   5
ENDBRANCH   1   3
BRANCH   1  11
ATOM     11  C   UNL     1      86.910  32.536  65.052  1.00  0.00     0.087 C 
BRANCH  11  12
ATOM     12  C   UNL     1      85.557  32.649  65.805  1.00  0.00     0.066 C 
BRANCH  12  13
ATOM     13  C   UNL     1      84.392  32.079  64.999  1.00  0.00     0.140 C 
ATOM     14  O   UNL     1      84.146  32.565  63.904  1.00  0.00    -0.299 OA
BRANCH  13  15
ATOM     15  C   UNL     1      83.506  30.939  65.469  1.00  0.00     0.106 CG0
ATOM     16  G   UNL     1      83.166  29.879  64.430  1.00  0.00     0.000 G0
ENDBRANCH  13  15
ENDBRANCH  12  13
BRANCH  12  17
ATOM     17  C   UNL     1      85.646  32.044  67.242  1.00  0.00    -0.006 C 
ATOM     18  C   UNL     1      86.748  32.725  68.065  1.00  0.00     0.008 C 
ATOM     19  C   UNL     1      84.322  32.072  68.029  1.00  0.00     0.008 C 
ENDBRANCH  12  17
ENDBRANCH  11  12
ENDBRANCH   1  11
TORSDOF 1
ENDMDL
MODEL 2
REMARK VINA RESULT:    -0.974      1.969      4.039
REMARK INTER + INTRA:          -0.478
REMARK INTER:                  -1.487
REMARK INTRA:                   1.009
REMARK UNBOUND:                 1.008
REMARK SMILES CC1=CCC[C@@H](C)C(=O)C[C@H](C(C)C)C(=O)C1
REMARK SMILES IDX 8 1 9 2 6 3 7 4 5 5 4 6 3 7 2 8 1 9 10 11 11 12 15 13 16 14
REMARK SMILES IDX 17 15 12 17 13 18 14 19
REMARK H PARENT
REMARK Flexibility Score: 70.00
ROOT
ATOM      1  C   UNL     1      87.857  31.134  66.056  1.00  0.00     0.136 C 
ATOM      2  O   UNL     1      87.941  30.735  67.208  1.00  0.00    -0.299 OA
ENDROOT
BRANCH   1   3
ATOM      3  C   UNL     1      87.521  32.598  65.822  1.00  0.00     0.053 C 
ATOM      4  C   UNL     1      88.080  33.478  66.945  1.00  0.00     0.016 C 
BRANCH   3   5
ATOM      5  C   UNL     1      86.009  32.828  65.639  1.00  0.00     0.015 C 
BRANCH   5   6
ATOM      6  C   UNL     1      85.156  32.001  66.628  1.00  0.00     0.028 C 
BRANCH   6   7
ATOM      7  C   UNL     1      83.927  31.449  65.949  1.00  0.00    -0.028 C 
ATOM      8  C   UNL     1      83.930  30.582  64.906  1.00  0.00    -0.070 CG0
ATOM      9  C   UNL     1      82.598  30.098  64.393  1.00  0.00     0.039 C 
ATOM     10  G   UNL     1      85.200  30.136  64.196  1.00  0.00     0.000 G0
ENDBRANCH   6   7
ENDBRANCH   5   6
ENDBRANCH   3   5
ENDBRANCH   1   3
BRANCH   1  11
ATOM     11  C   UNL     1      88.087  30.145  64.931  1.00  0.00     0.087 C 
BRANCH  11  12
ATOM     12  C   UNL     1      87.353  28.790  65.124  1.00  0.00     0.066 C 
BRANCH  12  13
ATOM     13  C   UNL     1      85.873  28.871  64.758  1.00  0.00     0.140 C 
ATOM     14  O   UNL     1      85.175  27.881  64.927  1.00  0.00    -0.299 OA
BRANCH  13  15
ATOM     15  C   UNL     1      85.200  30.109  64.192  1.00  0.00     0.106 CG0
ATOM     16  G   UNL     1      83.927  30.564  64.895  1.00  0.00     0.000 G0
ENDBRANCH  13  15
ENDBRANCH  12  13
BRANCH  12  17
ATOM     17  C   UNL     1      88.090  27.627  64.387  1.00  0.00    -0.006 C 
ATOM     18  C   UNL     1      87.532  26.260  64.807  1.00  0.00     0.008 C 
ATOM     19  C   UNL     1      88.081  27.738  62.851  1.00  0.00     0.008 C 
ENDBRANCH  12  17
ENDBRANCH  11  12
ENDBRANCH   1  11
TORSDOF 1
ENDMDL
MODEL 3
REMARK VINA RESULT:    -0.943      2.282      4.065
REMARK INTER + INTRA:          -0.431
REMARK INTER:                  -1.710
REMARK INTRA:                   1.279
REMARK UNBOUND:                 1.008
REMARK SMILES CC1=CCC[C@@H](C)C(=O)C[C@H](C(C)C)C(=O)C1
REMARK SMILES IDX 8 1 9 2 6 3 7 4 5 5 4 6 3 7 2 8 1 9 10 11 11 12 15 13 16 14
REMARK SMILES IDX 17 15 12 17 13 18 14 19
REMARK H PARENT
REMARK Flexibility Score: 70.00
ROOT
ATOM      1  C   UNL     1      86.326  32.182  66.929  1.00  0.00     0.136 C 
ATOM      2  O   UNL     1      86.795  32.331  68.048  1.00  0.00    -0.299 OA
ENDROOT
BRANCH   1   3
ATOM      3  C   UNL     1      87.108  32.714  65.740  1.00  0.00     0.053 C 
ATOM      4  C   UNL     1      86.166  33.188  64.628  1.00  0.00     0.016 C 
BRANCH   3   5
ATOM      5  C   UNL     1      88.125  31.689  65.204  1.00  0.00     0.015 C 
BRANCH   5   6
ATOM      6  C   UNL     1      87.796  31.218  63.768  1.00  0.00     0.028 C 
BRANCH   6   7
ATOM      7  C   UNL     1      88.093  29.748  63.602  1.00  0.00    -0.028 C 
ATOM      8  C   UNL     1      87.549  28.749  64.340  1.00  0.00    -0.070 CG0
ATOM      9  C   UNL     1      87.927  27.332  63.992  1.00  0.00     0.039 C 
ATOM     10  G   UNL     1      86.636  28.996  65.534  1.00  0.00     0.000 G0
ENDBRANCH   6   7
ENDBRANCH   5   6
ENDBRANCH   3   5
ENDBRANCH   1   3
BRANCH   1  11
ATOM     11  C   UNL     1      84.990  31.477  66.796  1.00  0.00     0.087 C 
BRANCH  11  12
ATOM     12  C   UNL     1      84.708  30.927  65.371  1.00  0.00     0.066 C 
BRANCH  12  13
ATOM     13  C   UNL     1      85.194  29.491  65.194  1.00  0.00     0.140 C 
ATOM     14  O   UNL     1      84.414  28.661  64.749  1.00  0.00    -0.299 OA
BRANCH  13  15
ATOM     15  C   UNL     1      86.595  29.015  65.539  1.00  0.00     0.106 CG0
ATOM     16  G   UNL     1      87.532  28.776  64.363  1.00  0.00     0.000 G0
ENDBRANCH  13  15
ENDBRANCH  12  13
BRANCH  12  17
ATOM     17  C   UNL     1      83.209  31.107  64.971  1.00  0.00    -0.006 C 
ATOM     18  C   UNL     1      82.303  31.135  66.210  1.00  0.00     0.008 C 
ATOM     19  C   UNL     1      82.927  32.344  64.097  1.00  0.00     0.008 C 
ENDBRANCH  12  17
ENDBRANCH  11  12
ENDBRANCH   1  11
TORSDOF 1
ENDMDL
MODEL 4
REMARK VINA RESULT:    -0.403      2.156      4.372
REMARK INTER + INTRA:           0.393
REMARK INTER:                  -1.145
REMARK INTRA:                   1.538
REMARK UNBOUND:                 1.008
REMARK SMILES CC1=CCC[C@@H](C)C(=O)C[C@H](C(C)C)C(=O)C1
REMARK SMILES IDX 8 1 9 2 6 3 7 4 5 5 4 6 3 7 2 8 1 9 10 11 11 12 15 13 16 14
REMARK SMILES IDX 17 15 12 17 13 18 14 19
REMARK H PARENT
REMARK Flexibility Score: 70.00
ROOT
ATOM      1  C   UNL     1      86.937  30.263  65.787  1.00  0.00     0.136 C 
ATOM      2  O   UNL     1      87.819  29.550  65.331  1.00  0.00    -0.299 OA
ENDROOT
BRANCH   1   3
ATOM      3  C   UNL     1      87.266  31.149  66.977  1.00  0.00     0.053 C 
ATOM      4  C   UNL     1      85.992  31.588  67.707  1.00  0.00     0.016 C 
BRANCH   3   5
ATOM      5  C   UNL     1      88.123  32.367  66.579  1.00  0.00     0.015 C 
BRANCH   5   6
ATOM      6  C   UNL     1      87.491  33.709  67.015  1.00  0.00     0.028 C 
BRANCH   6   7
ATOM      7  C   UNL     1      87.485  34.697  65.875  1.00  0.00    -0.028 C 
ATOM      8  C   UNL     1      87.114  34.423  64.600  1.00  0.00    -0.070 CG0
ATOM      9  C   UNL     1      87.123  35.556  63.606  1.00  0.00     0.039 C 
ATOM     10  G   UNL     1      86.758  33.023  64.118  1.00  0.00     0.000 G0
ENDBRANCH   6   7
ENDBRANCH   5   6
ENDBRANCH   3   5
ENDBRANCH   1   3
BRANCH   1  11
ATOM     11  C   UNL     1      85.566  30.218  65.140  1.00  0.00     0.087 C 
BRANCH  11  12
ATOM     12  C   UNL     1      84.788  31.560  65.220  1.00  0.00     0.066 C 
BRANCH  12  13
ATOM     13  C   UNL     1      85.309  32.596  64.226  1.00  0.00     0.140 C 
ATOM     14  O   UNL     1      84.513  33.128  63.466  1.00  0.00    -0.299 OA
BRANCH  13  15
ATOM     15  C   UNL     1      86.765  33.014  64.114  1.00  0.00     0.106 CG0
ATOM     16  G   UNL     1      87.101  34.418  64.599  1.00  0.00     0.000 G0
ENDBRANCH  13  15
ENDBRANCH  12  13
BRANCH  12  17
ATOM     17  C   UNL     1      83.247  31.338  65.103  1.00  0.00    -0.006 C 
ATOM     18  C   UNL     1      82.923  29.903  64.664  1.00  0.00     0.008 C 
ATOM     19  C   UNL     1      82.455  31.679  66.380  1.00  0.00     0.008 C 
ENDBRANCH  12  17
ENDBRANCH  11  12
ENDBRANCH   1  11
TORSDOF 1
ENDMDL
MODEL 5
REMARK VINA RESULT:    -0.164      1.675      3.577
REMARK INTER + INTRA:           0.758
REMARK INTER:                  -0.535
REMARK INTRA:                   1.293
REMARK UNBOUND:                 1.008
REMARK SMILES CC1=CCC[C@@H](C)C(=O)C[C@H](C(C)C)C(=O)C1
REMARK SMILES IDX 8 1 9 2 6 3 7 4 5 5 4 6 3 7 2 8 1 9 10 11 11 12 15 13 16 14
REMARK SMILES IDX 17 15 12 17 13 18 14 19
REMARK H PARENT
REMARK Flexibility Score: 70.00
ROOT
ATOM      1  C   UNL     1      84.092  31.947  66.743  1.00  0.00     0.136 C 
ATOM      2  O   UNL     1      84.137  31.605  67.916  1.00  0.00    -0.299 OA
ENDROOT
BRANCH   1   3
ATOM      3  C   UNL     1      82.816  31.682  65.962  1.00  0.00     0.053 C 
ATOM      4  C   UNL     1      81.863  30.778  66.751  1.00  0.00     0.016 C 
BRANCH   3   5
ATOM      5  C   UNL     1      83.099  31.101  64.563  1.00  0.00     0.015 C 
BRANCH   5   6
ATOM      6  C   UNL     1      82.572  29.656  64.400  1.00  0.00     0.028 C 
BRANCH   6   7
ATOM      7  C   UNL     1      83.666  28.651  64.664  1.00  0.00    -0.028 C 
ATOM      8  C   UNL     1      84.995  28.918  64.660  1.00  0.00    -0.070 CG0
ATOM      9  C   UNL     1      85.939  27.793  65.000  1.00  0.00     0.039 C 
ATOM     10  G   UNL     1      85.572  30.271  64.266  1.00  0.00     0.000 G0
ENDBRANCH   6   7
ENDBRANCH   5   6
ENDBRANCH   3   5
ENDBRANCH   1   3
BRANCH   1  11
ATOM     11  C   UNL     1      85.313  32.612  66.138  1.00  0.00     0.087 C 
BRANCH  11  12
ATOM     12  C   UNL     1      86.613  31.769  66.258  1.00  0.00     0.066 C 
BRANCH  12  13
ATOM     13  C   UNL     1      86.759  30.757  65.125  1.00  0.00     0.140 C 
ATOM     14  O   UNL     1      87.871  30.313  64.879  1.00  0.00    -0.299 OA
BRANCH  13  15
ATOM     15  C   UNL     1      85.605  30.258  64.272  1.00  0.00     0.106 CG0
ATOM     16  G   UNL     1      84.993  28.925  64.681  1.00  0.00     0.000 G0
ENDBRANCH  13  15
ENDBRANCH  12  13
BRANCH  12  17
ATOM     17  C   UNL     1      87.873  32.678  66.418  1.00  0.00    -0.006 C 
ATOM     18  C   UNL     1      87.951  33.723  65.297  1.00  0.00     0.008 C 
ATOM     19  C   UNL     1      87.985  33.378  67.785  1.00  0.00     0.008 C 
ENDBRANCH  12  17
ENDBRANCH  11  12
ENDBRANCH   1  11
TORSDOF 1
ENDMDL
MODEL 6
REMARK VINA RESULT:     0.038     13.452     16.050
REMARK INTER + INTRA:           1.067
REMARK INTER:                  -0.556
REMARK INTRA:                   1.623
REMARK UNBOUND:                 1.008
REMARK SMILES CC1=CCC[C@@H](C)C(=O)C[C@H](C(C)C)C(=O)C1
REMARK SMILES IDX 8 1 9 2 6 3 7 4 5 5 4 6 3 7 2 8 1 9 10 11 11 12 15 13 16 14
REMARK SMILES IDX 17 15 12 17 13 18 14 19
REMARK H PARENT
REMARK Flexibility Score: 70.00
ROOT
ATOM      1  C   UNL     1      77.374  35.559  50.829  1.00  0.00     0.136 C 
ATOM      2  O   UNL     1      77.263  35.697  49.619  1.00  0.00    -0.299 OA
ENDROOT
BRANCH   1   3
ATOM      3  C   UNL     1      76.240  34.888  51.586  1.00  0.00     0.053 C 
ATOM      4  C   UNL     1      75.327  35.928  52.247  1.00  0.00     0.016 C 
BRANCH   3   5
ATOM      5  C   UNL     1      76.753  33.867  52.620  1.00  0.00     0.015 C 
BRANCH   5   6
ATOM      6  C   UNL     1      76.927  32.451  52.023  1.00  0.00     0.028 C 
BRANCH   6   7
ATOM      7  C   UNL     1      77.999  31.685  52.758  1.00  0.00    -0.028 C 
ATOM      8  C   UNL     1      79.335  31.845  52.586  1.00  0.00    -0.070 CG0
ATOM      9  C   UNL     1      80.257  31.025  53.451  1.00  0.00     0.039 C 
ATOM     10  G   UNL     1      79.936  32.754  51.522  1.00  0.00     0.000 G0
ENDBRANCH   6   7
ENDBRANCH   5   6
ENDBRANCH   3   5
ENDBRANCH   1   3
BRANCH   1  11
ATOM     11  C   UNL     1      78.633  36.070  51.501  1.00  0.00     0.087 C 
BRANCH  11  12
ATOM     12  C   UNL     1      79.934  35.376  51.012  1.00  0.00     0.066 C 
BRANCH  12  13
ATOM     13  C   UNL     1      80.314  34.176  51.875  1.00  0.00     0.140 C 
ATOM     14  O   UNL     1      80.912  34.376  52.923  1.00  0.00    -0.299 OA
BRANCH  13  15
ATOM     15  C   UNL     1      80.000  32.733  51.518  1.00  0.00     0.106 CG0
ATOM     16  G   UNL     1      79.314  31.907  52.598  1.00  0.00     0.000 G0
ENDBRANCH  13  15
ENDBRANCH  12  13
BRANCH  12  17
ATOM     17  C   UNL     1      79.860  35.023  49.492  1.00  0.00    -0.006 C 
ATOM     18  C   UNL     1      80.498  36.125  48.634  1.00  0.00     0.008 C 
ATOM     19  C   UNL     1      80.476  33.660  49.123  1.00  0.00     0.008 C 
ENDBRANCH  12  17
ENDBRANCH  11  12
ENDBRANCH   1  11
TORSDOF 1
ENDMDL
MODEL 7
REMARK VINA RESULT:     0.910      2.137      4.158
REMARK INTER + INTRA:           2.397
REMARK INTER:                   1.076
REMARK INTRA:                   1.321
REMARK UNBOUND:                 1.008
REMARK SMILES CC1=CCC[C@@H](C)C(=O)C[C@H](C(C)C)C(=O)C1
REMARK SMILES IDX 8 1 9 2 6 3 7 4 5 5 4 6 3 7 2 8 1 9 10 11 11 12 15 13 16 14
REMARK SMILES IDX 17 15 12 17 13 18 14 19
REMARK H PARENT
REMARK Flexibility Score: 70.00
ROOT
ATOM      1  C   UNL     1      85.887  28.629  65.022  1.00  0.00     0.136 C 
ATOM      2  O   UNL     1      84.968  27.863  64.772  1.00  0.00    -0.299 OA
ENDROOT
BRANCH   1   3
ATOM      3  C   UNL     1      87.107  28.615  64.116  1.00  0.00     0.053 C 
ATOM      4  C   UNL     1      87.790  27.243  64.130  1.00  0.00     0.016 C 
BRANCH   3   5
ATOM      5  C   UNL     1      88.107  29.734  64.466  1.00  0.00     0.015 C 
BRANCH   5   6
ATOM      6  C   UNL     1      87.620  31.131  64.018  1.00  0.00     0.028 C 
BRANCH   6   7
ATOM      7  C   UNL     1      88.112  32.201  64.961  1.00  0.00    -0.028 C 
ATOM      8  C   UNL     1      87.324  32.992  65.730  1.00  0.00    -0.070 CG0
ATOM      9  C   UNL     1      88.001  33.972  66.654  1.00  0.00     0.039 C 
ATOM     10  G   UNL     1      85.803  32.982  65.653  1.00  0.00     0.000 G0
ENDBRANCH   6   7
ENDBRANCH   5   6
ENDBRANCH   3   5
ENDBRANCH   1   3
BRANCH   1  11
ATOM     11  C   UNL     1      85.757  29.544  66.224  1.00  0.00     0.087 C 
BRANCH  11  12
ATOM     12  C   UNL     1      84.637  30.611  66.084  1.00  0.00     0.066 C 
BRANCH  12  13
ATOM     13  C   UNL     1      85.087  31.993  66.552  1.00  0.00     0.140 C 
ATOM     14  O   UNL     1      84.861  32.321  67.708  1.00  0.00    -0.299 OA
BRANCH  13  15
ATOM     15  C   UNL     1      85.804  33.001  65.670  1.00  0.00     0.106 CG0
ATOM     16  G   UNL     1      87.324  33.004  65.750  1.00  0.00     0.000 G0
ENDBRANCH  13  15
ENDBRANCH  12  13
BRANCH  12  17
ATOM     17  C   UNL     1      84.039  30.630  64.642  1.00  0.00    -0.006 C 
ATOM     18  C   UNL     1      82.620  30.045  64.621  1.00  0.00     0.008 C 
ATOM     19  C   UNL     1      84.035  32.017  63.972  1.00  0.00     0.008 C 
ENDBRANCH  12  17
ENDBRANCH  11  12
ENDBRANCH   1  11
TORSDOF 1
ENDMDL
MODEL 8
REMARK VINA RESULT:     1.115     14.362     16.391
REMARK INTER + INTRA:           2.710
REMARK INTER:                   2.373
REMARK INTRA:                   0.337
REMARK UNBOUND:                 1.008
REMARK SMILES CC1=CCC[C@@H](C)C(=O)C[C@H](C(C)C)C(=O)C1
REMARK SMILES IDX 8 1 9 2 6 3 7 4 5 5 4 6 3 7 2 8 1 9 10 11 11 12 15 13 16 14
REMARK SMILES IDX 17 15 12 17 13 18 14 19
REMARK H PARENT
REMARK Flexibility Score: 70.00
ROOT
ATOM      1  C   UNL     1      77.209  32.274  52.212  1.00  0.00     0.136 C 
ATOM      2  O   UNL     1      76.531  31.384  52.704  1.00  0.00    -0.299 OA
ENDROOT
BRANCH   1   3
ATOM      3  C   UNL     1      78.719  32.203  52.368  1.00  0.00     0.053 C 
ATOM      4  C   UNL     1      79.237  33.344  53.250  1.00  0.00     0.016 C 
BRANCH   3   5
ATOM      5  C   UNL     1      79.445  32.179  51.010  1.00  0.00     0.015 C 
BRANCH   5   6
ATOM      6  C   UNL     1      80.623  33.179  50.946  1.00  0.00     0.028 C 
BRANCH   6   7
ATOM      7  C   UNL     1      80.488  34.095  49.754  1.00  0.00    -0.028 C 
ATOM      8  C   UNL     1      79.882  35.308  49.761  1.00  0.00    -0.070 CG0
ATOM      9  C   UNL     1      79.892  36.105  48.482  1.00  0.00     0.039 C 
ATOM     10  G   UNL     1      79.141  35.863  50.970  1.00  0.00     0.000 G0
ENDBRANCH   6   7
ENDBRANCH   5   6
ENDBRANCH   3   5
ENDBRANCH   1   3
BRANCH   1  11
ATOM     11  C   UNL     1      76.503  33.399  51.481  1.00  0.00     0.087 C 
BRANCH  11  12
ATOM     12  C   UNL     1      76.883  34.817  51.989  1.00  0.00     0.066 C 
BRANCH  12  13
ATOM     13  C   UNL     1      77.629  35.633  50.936  1.00  0.00     0.140 C 
ATOM     14  O   UNL     1      76.989  36.125  50.018  1.00  0.00    -0.299 OA
BRANCH  13  15
ATOM     15  C   UNL     1      79.128  35.877  50.949  1.00  0.00     0.106 CG0
ATOM     16  G   UNL     1      79.910  35.324  49.765  1.00  0.00     0.000 G0
ENDBRANCH  13  15
ENDBRANCH  12  13
BRANCH  12  17
ATOM     17  C   UNL     1      75.645  35.572  52.567  1.00  0.00    -0.006 C 
ATOM     18  C   UNL     1      74.384  34.698  52.508  1.00  0.00     0.008 C 
ATOM     19  C   UNL     1      75.835  36.106  53.999  1.00  0.00     0.008 C 
ENDBRANCH  12  17
ENDBRANCH  11  12
ENDBRANCH   1  11
TORSDOF 1
ENDMDL
