MODEL 1
REMARK VINA RESULT:    -2.826      0.000      0.000
REMARK INTER + INTRA:          -3.073
REMARK INTER:                  -3.073
REMARK INTRA:                   0.000
REMARK UNBOUND:                 0.000
REMARK SMILES [NH3+]CC(=O)[O-]
REMARK SMILES IDX 2 1 1 2 3 6 4 7 5 8
REMARK H PARENT 1 3 1 4 1 5
REMARK Flexibility Score: inf
ROOT
ATOM      1  C   UNL     1     111.485 122.961 128.969  1.00  0.00     0.312 C 
ENDROOT
BRANCH   1   2
ATOM      2  N   UNL     1     112.360 122.486 127.899  1.00  0.00    -0.353 N 
ATOM      3  H   UNL     1     113.144 123.163 127.750  1.00  0.00     0.344 HD
ATOM      4  H   UNL     1     112.746 121.545 128.143  1.00  0.00     0.344 HD
ATOM      5  H   UNL     1     111.808 122.408 127.015  1.00  0.00     0.344 HD
ENDBRANCH   1   2
BRANCH   1   6
ATOM      6  C   UNL     1     111.973 122.485 130.302  1.00  0.00     0.096 C 
ATOM      7  O   UNL     1     111.157 122.064 131.163  1.00  0.00    -0.544 OA
ATOM      8  O   UNL     1     113.326 122.555 130.612  1.00  0.00    -0.544 OA
ENDBRANCH   1   6
TORSDOF 2
ENDMDL
MODEL 2
REMARK VINA RESULT:    -2.795     16.225     16.514
REMARK INTER + INTRA:          -3.040
REMARK INTER:                  -3.040
REMARK INTRA:                   0.000
REMARK UNBOUND:                 0.000
REMARK SMILES [NH3+]CC(=O)[O-]
REMARK SMILES IDX 2 1 1 2 3 6 4 7 5 8
REMARK H PARENT 1 3 1 4 1 5
REMARK Flexibility Score: inf
ROOT
ATOM      1  C   UNL     1     126.576 114.430 129.120  1.00  0.00     0.312 C 
ENDROOT
BRANCH   1   2
ATOM      2  N   UNL     1     126.182 113.044 128.870  1.00  0.00    -0.353 N 
ATOM      3  H   UNL     1     125.923 112.921 127.864  1.00  0.00     0.344 HD
ATOM      4  H   UNL     1     126.967 112.399 129.116  1.00  0.00     0.344 HD
ATOM      5  H   UNL     1     125.353 112.812 129.464  1.00  0.00     0.344 HD
ENDBRANCH   1   2
BRANCH   1   6
ATOM      6  C   UNL     1     126.457 114.758 130.576  1.00  0.00     0.096 C 
ATOM      7  O   UNL     1     126.520 113.845 131.440  1.00  0.00    -0.544 OA
ATOM      8  O   UNL     1     126.224 116.069 130.976  1.00  0.00    -0.544 OA
ENDBRANCH   1   6
TORSDOF 2
ENDMDL
MODEL 3
REMARK VINA RESULT:    -2.711      2.413      2.798
REMARK INTER + INTRA:          -2.948
REMARK INTER:                  -2.948
REMARK INTRA:                   0.000
REMARK UNBOUND:                 0.000
REMARK SMILES [NH3+]CC(=O)[O-]
REMARK SMILES IDX 2 1 1 2 3 6 4 7 5 8
REMARK H PARENT 1 3 1 4 1 5
REMARK Flexibility Score: inf
ROOT
ATOM      1  C   UNL     1     112.698 122.621 130.497  1.00  0.00     0.312 C 
ENDROOT
BRANCH   1   2
ATOM      2  N   UNL     1     111.842 123.045 131.603  1.00  0.00    -0.353 N 
ATOM      3  H   UNL     1     112.236 122.706 132.512  1.00  0.00     0.344 HD
ATOM      4  H   UNL     1     111.764 124.087 131.617  1.00  0.00     0.344 HD
ATOM      5  H   UNL     1     110.888 122.635 131.474  1.00  0.00     0.344 HD
ENDBRANCH   1   2
BRANCH   1   6
ATOM      6  C   UNL     1     111.972 122.738 129.193  1.00  0.00     0.096 C 
ATOM      7  O   UNL     1     112.354 122.077 128.192  1.00  0.00    -0.544 OA
ATOM      8  O   UNL     1     110.904 123.619 129.069  1.00  0.00    -0.544 OA
ENDBRANCH   1   6
TORSDOF 2
ENDMDL
MODEL 4
REMARK VINA RESULT:    -2.707     15.711     15.963
REMARK INTER + INTRA:          -2.944
REMARK INTER:                  -2.944
REMARK INTRA:                   0.000
REMARK UNBOUND:                 0.000
REMARK SMILES [NH3+]CC(=O)[O-]
REMARK SMILES IDX 2 1 1 2 3 6 4 7 5 8
REMARK H PARENT 1 3 1 4 1 5
REMARK Flexibility Score: inf
ROOT
ATOM      1  C   UNL     1     125.521 115.531 130.034  1.00  0.00     0.312 C 
ENDROOT
BRANCH   1   2
ATOM      2  N   UNL     1     124.163 115.577 130.573  1.00  0.00    -0.353 N 
ATOM      3  H   UNL     1     123.739 114.620 130.562  1.00  0.00     0.344 HD
ATOM      4  H   UNL     1     124.178 115.946 131.551  1.00  0.00     0.344 HD
ATOM      5  H   UNL     1     123.580 116.212 129.980  1.00  0.00     0.344 HD
ENDBRANCH   1   2
BRANCH   1   6
ATOM      6  C   UNL     1     126.105 114.162 130.191  1.00  0.00     0.096 C 
ATOM      7  O   UNL     1     126.145 113.373 129.211  1.00  0.00    -0.544 OA
ATOM      8  O   UNL     1     126.560 113.739 131.434  1.00  0.00    -0.544 OA
ENDBRANCH   1   6
TORSDOF 2
ENDMDL
MODEL 5
REMARK VINA RESULT:    -2.700      2.425      2.598
REMARK INTER + INTRA:          -2.937
REMARK INTER:                  -2.937
REMARK INTRA:                   0.000
REMARK UNBOUND:                 0.000
REMARK SMILES [NH3+]CC(=O)[O-]
REMARK SMILES IDX 2 1 1 2 3 6 4 7 5 8
REMARK H PARENT 1 3 1 4 1 5
REMARK Flexibility Score: inf
ROOT
ATOM      1  C   UNL     1     112.649 122.605 130.502  1.00  0.00     0.312 C 
ENDROOT
BRANCH   1   2
ATOM      2  N   UNL     1     111.858 123.157 131.601  1.00  0.00    -0.353 N 
ATOM      3  H   UNL     1     110.975 123.579 131.231  1.00  0.00     0.344 HD
ATOM      4  H   UNL     1     111.630 122.405 132.290  1.00  0.00     0.344 HD
ATOM      5  H   UNL     1     112.413 123.901 132.082  1.00  0.00     0.344 HD
ENDBRANCH   1   2
BRANCH   1   6
ATOM      6  C   UNL     1     111.947 122.802 129.194  1.00  0.00     0.096 C 
ATOM      7  O   UNL     1     110.968 123.590 129.112  1.00  0.00    -0.544 OA
ATOM      8  O   UNL     1     112.342 122.076 128.077  1.00  0.00    -0.544 OA
ENDBRANCH   1   6
TORSDOF 2
ENDMDL
MODEL 6
REMARK VINA RESULT:    -2.648     15.771     16.026
REMARK INTER + INTRA:          -2.880
REMARK INTER:                  -2.880
REMARK INTRA:                   0.000
REMARK UNBOUND:                 0.000
REMARK SMILES [NH3+]CC(=O)[O-]
REMARK SMILES IDX 2 1 1 2 3 6 4 7 5 8
REMARK H PARENT 1 3 1 4 1 5
REMARK Flexibility Score: inf
ROOT
ATOM      1  C   UNL     1     125.702 115.584 130.560  1.00  0.00     0.312 C 
ENDROOT
BRANCH   1   2
ATOM      2  N   UNL     1     124.245 115.649 130.463  1.00  0.00    -0.353 N 
ATOM      3  H   UNL     1     123.915 116.625 130.648  1.00  0.00     0.344 HD
ATOM      4  H   UNL     1     123.936 115.345 129.511  1.00  0.00     0.344 HD
ATOM      5  H   UNL     1     123.825 115.009 131.176  1.00  0.00     0.344 HD
ENDBRANCH   1   2
BRANCH   1   6
ATOM      6  C   UNL     1     126.169 114.162 130.554  1.00  0.00     0.096 C 
ATOM      7  O   UNL     1     126.583 113.625 131.615  1.00  0.00    -0.544 OA
ATOM      8  O   UNL     1     126.196 113.445 129.364  1.00  0.00    -0.544 OA
ENDBRANCH   1   6
TORSDOF 2
ENDMDL
MODEL 7
REMARK VINA RESULT:    -2.574     16.392     16.483
REMARK INTER + INTRA:          -2.800
REMARK INTER:                  -2.800
REMARK INTRA:                   0.000
REMARK UNBOUND:                 0.000
REMARK SMILES [NH3+]CC(=O)[O-]
REMARK SMILES IDX 2 1 1 2 3 6 4 7 5 8
REMARK H PARENT 1 3 1 4 1 5
REMARK Flexibility Score: inf
ROOT
ATOM      1  C   UNL     1     126.179 114.486 131.262  1.00  0.00     0.312 C 
ENDROOT
BRANCH   1   2
ATOM      2  N   UNL     1     126.194 115.889 131.674  1.00  0.00    -0.353 N 
ATOM      3  H   UNL     1     127.065 116.094 132.217  1.00  0.00     0.344 HD
ATOM      4  H   UNL     1     126.145 116.509 130.834  1.00  0.00     0.344 HD
ATOM      5  H   UNL     1     125.364 116.076 132.283  1.00  0.00     0.344 HD
ENDBRANCH   1   2
BRANCH   1   6
ATOM      6  C   UNL     1     126.383 114.367 129.784  1.00  0.00     0.096 C 
ATOM      7  O   UNL     1     126.117 113.289 129.191  1.00  0.00    -0.544 OA
ATOM      8  O   UNL     1     126.918 115.432 129.068  1.00  0.00    -0.544 OA
ENDBRANCH   1   6
TORSDOF 2
ENDMDL
MODEL 8
REMARK VINA RESULT:    -2.542     14.795     15.248
REMARK INTER + INTRA:          -2.765
REMARK INTER:                  -2.765
REMARK INTRA:                   0.000
REMARK UNBOUND:                 0.000
REMARK SMILES [NH3+]CC(=O)[O-]
REMARK SMILES IDX 2 1 1 2 3 6 4 7 5 8
REMARK H PARENT 1 3 1 4 1 5
REMARK Flexibility Score: inf
ROOT
ATOM      1  C   UNL     1     126.168 115.085 129.093  1.00  0.00     0.312 C 
ENDROOT
BRANCH   1   2
ATOM      2  N   UNL     1     125.468 115.614 127.924  1.00  0.00    -0.353 N 
ATOM      3  H   UNL     1     125.732 115.069 127.070  1.00  0.00     0.344 HD
ATOM      4  H   UNL     1     124.434 115.563 128.072  1.00  0.00     0.344 HD
ATOM      5  H   UNL     1     125.741 116.614 127.785  1.00  0.00     0.344 HD
ENDBRANCH   1   2
BRANCH   1   6
ATOM      6  C   UNL     1     125.587 115.645 130.355  1.00  0.00     0.096 C 
ATOM      7  O   UNL     1     126.299 116.339 131.127  1.00  0.00    -0.544 OA
ATOM      8  O   UNL     1     124.273 115.355 130.703  1.00  0.00    -0.544 OA
ENDBRANCH   1   6
TORSDOF 2
ENDMDL
MODEL 9
REMARK VINA RESULT:    -2.433     23.590     23.988
REMARK INTER + INTRA:          -2.647
REMARK INTER:                  -2.647
REMARK INTRA:                   0.000
REMARK UNBOUND:                 0.000
REMARK SMILES [NH3+]CC(=O)[O-]
REMARK SMILES IDX 2 1 1 2 3 6 4 7 5 8
REMARK H PARENT 1 3 1 4 1 5
REMARK Flexibility Score: inf
ROOT
ATOM      1  C   UNL     1     128.004 111.494 115.882  1.00  0.00     0.312 C 
ENDROOT
BRANCH   1   2
ATOM      2  N   UNL     1     127.251 110.772 114.858  1.00  0.00    -0.353 N 
ATOM      3  H   UNL     1     126.495 111.383 114.471  1.00  0.00     0.344 HD
ATOM      4  H   UNL     1     127.891 110.470 114.089  1.00  0.00     0.344 HD
ATOM      5  H   UNL     1     126.814 109.925 115.288  1.00  0.00     0.344 HD
ENDBRANCH   1   2
BRANCH   1   6
ATOM      6  C   UNL     1     128.398 112.851 115.390  1.00  0.00     0.096 C 
ATOM      7  O   UNL     1     129.125 112.970 114.368  1.00  0.00    -0.544 OA
ATOM      8  O   UNL     1     128.005 113.986 116.090  1.00  0.00    -0.544 OA
ENDBRANCH   1   6
TORSDOF 2
ENDMDL
