MODEL 1
REMARK VINA RESULT:    -4.055      0.000      0.000
REMARK INTER + INTRA:          -5.949
REMARK INTER:                  -5.477
REMARK INTRA:                  -0.471
REMARK UNBOUND:                -0.471
REMARK SMILES CCCCCCC=CC(=O)[O-]
REMARK SMILES IDX 5 1 6 2 7 3 8 4 9 5 10 6 11 7 4 8 3 9 2 10 1 11
REMARK H PARENT
REMARK Flexibility Score: inf
ROOT
ATOM      1  C   UNL     1      -7.520  65.620  30.663  1.00  0.00     0.004 C 
ENDROOT
BRANCH   1   2
ATOM      2  C   UNL     1      -8.297  66.476  31.676  1.00  0.00     0.027 C 
BRANCH   2   3
ATOM      3  C   UNL     1      -7.528  66.632  32.956  1.00  0.00    -0.025 C 
ATOM      4  C   UNL     1      -6.304  67.171  32.974  1.00  0.00     0.020 C 
BRANCH   4   5
ATOM      5  C   UNL     1      -5.546  67.342  34.221  1.00  0.00     0.064 C 
ATOM      6  O   UNL     1      -4.424  66.785  34.348  1.00  0.00    -0.545 OA
ATOM      7  O   UNL     1      -6.047  68.111  35.266  1.00  0.00    -0.545 OA
ENDBRANCH   4   5
ENDBRANCH   2   3
ENDBRANCH   1   2
BRANCH   1   8
ATOM      8  C   UNL     1      -7.211  66.379  29.363  1.00  0.00     0.000 C 
BRANCH   8   9
ATOM      9  C   UNL     1      -5.704  66.427  29.052  1.00  0.00    -0.000 C 
BRANCH   9  10
ATOM     10  C   UNL     1      -4.953  65.201  29.596  1.00  0.00    -0.003 C 
ATOM     11  C   UNL     1      -3.456  65.244  29.293  1.00  0.00     0.004 C 
ENDBRANCH   9  10
ENDBRANCH   8   9
ENDBRANCH   1   8
TORSDOF 6
ENDMDL
MODEL 2
REMARK VINA RESULT:    -3.979      1.573      2.982
REMARK INTER + INTRA:          -5.846
REMARK INTER:                  -5.139
REMARK INTRA:                  -0.708
REMARK UNBOUND:                -0.471
REMARK SMILES CCCCCCC=CC(=O)[O-]
REMARK SMILES IDX 5 1 6 2 7 3 8 4 9 5 10 6 11 7 4 8 3 9 2 10 1 11
REMARK H PARENT
REMARK Flexibility Score: inf
ROOT
ATOM      1  C   UNL     1      -3.709  67.394  30.270  1.00  0.00     0.004 C 
ENDROOT
BRANCH   1   2
ATOM      2  C   UNL     1      -3.387  67.467  31.770  1.00  0.00     0.027 C 
BRANCH   2   3
ATOM      3  C   UNL     1      -4.609  67.814  32.570  1.00  0.00    -0.025 C 
ATOM      4  C   UNL     1      -5.031  67.040  33.575  1.00  0.00     0.020 C 
BRANCH   4   5
ATOM      5  C   UNL     1      -6.217  67.375  34.375  1.00  0.00     0.064 C 
ATOM      6  O   UNL     1      -7.353  66.986  33.996  1.00  0.00    -0.545 OA
ATOM      7  O   UNL     1      -6.106  68.116  35.546  1.00  0.00    -0.545 OA
ENDBRANCH   4   5
ENDBRANCH   2   3
ENDBRANCH   1   2
BRANCH   1   8
ATOM      8  C   UNL     1      -3.380  66.022  29.661  1.00  0.00     0.000 C 
BRANCH   8   9
ATOM      9  C   UNL     1      -4.594  65.076  29.647  1.00  0.00    -0.000 C 
BRANCH   9  10
ATOM     10  C   UNL     1      -5.931  65.836  29.658  1.00  0.00    -0.003 C 
ATOM     11  C   UNL     1      -6.888  65.329  30.735  1.00  0.00     0.004 C 
ENDBRANCH   9  10
ENDBRANCH   8   9
ENDBRANCH   1   8
TORSDOF 6
ENDMDL
MODEL 3
REMARK VINA RESULT:    -3.931      3.401      4.959
REMARK INTER + INTRA:          -5.781
REMARK INTER:                  -5.095
REMARK INTRA:                  -0.686
REMARK UNBOUND:                -0.471
REMARK SMILES CCCCCCC=CC(=O)[O-]
REMARK SMILES IDX 5 1 6 2 7 3 8 4 9 5 10 6 11 7 4 8 3 9 2 10 1 11
REMARK H PARENT
REMARK Flexibility Score: inf
ROOT
ATOM      1  C   UNL     1      -5.762  67.257  31.489  1.00  0.00     0.004 C 
ENDROOT
BRANCH   1   2
ATOM      2  C   UNL     1      -6.614  66.056  31.928  1.00  0.00     0.027 C 
BRANCH   2   3
ATOM      3  C   UNL     1      -8.072  66.305  31.672  1.00  0.00    -0.025 C 
ATOM      4  C   UNL     1      -8.609  67.522  31.813  1.00  0.00     0.020 C 
BRANCH   4   5
ATOM      5  C   UNL     1     -10.031  67.783  31.553  1.00  0.00     0.064 C 
ATOM      6  O   UNL     1     -10.849  66.826  31.550  1.00  0.00    -0.545 OA
ATOM      7  O   UNL     1     -10.490  69.073  31.308  1.00  0.00    -0.545 OA
ENDBRANCH   4   5
ENDBRANCH   2   3
ENDBRANCH   1   2
BRANCH   1   8
ATOM      8  C   UNL     1      -5.020  67.914  32.663  1.00  0.00     0.000 C 
BRANCH   8   9
ATOM      9  C   UNL     1      -5.186  67.132  33.978  1.00  0.00    -0.000 C 
BRANCH   9  10
ATOM     10  C   UNL     1      -5.768  67.998  35.107  1.00  0.00    -0.003 C 
ATOM     11  C   UNL     1      -7.248  67.719  35.362  1.00  0.00     0.004 C 
ENDBRANCH   9  10
ENDBRANCH   8   9
ENDBRANCH   1   8
TORSDOF 6
ENDMDL
MODEL 4
REMARK VINA RESULT:    -3.916      0.919      1.729
REMARK INTER + INTRA:          -5.760
REMARK INTER:                  -5.401
REMARK INTRA:                  -0.360
REMARK UNBOUND:                -0.471
REMARK SMILES CCCCCCC=CC(=O)[O-]
REMARK SMILES IDX 5 1 6 2 7 3 8 4 9 5 10 6 11 7 4 8 3 9 2 10 1 11
REMARK H PARENT
REMARK Flexibility Score: inf
ROOT
ATOM      1  C   UNL     1      -6.699  65.202  29.891  1.00  0.00     0.004 C 
ENDROOT
BRANCH   1   2
ATOM      2  C   UNL     1      -7.409  65.873  31.077  1.00  0.00     0.027 C 
BRANCH   2   3
ATOM      3  C   UNL     1      -6.419  66.515  32.006  1.00  0.00    -0.025 C 
ATOM      4  C   UNL     1      -6.645  66.596  33.321  1.00  0.00     0.020 C 
BRANCH   4   5
ATOM      5  C   UNL     1      -5.679  67.210  34.243  1.00  0.00     0.064 C 
ATOM      6  O   UNL     1      -6.084  68.013  35.124  1.00  0.00    -0.545 OA
ATOM      7  O   UNL     1      -4.322  66.917  34.159  1.00  0.00    -0.545 OA
ENDBRANCH   4   5
ENDBRANCH   2   3
ENDBRANCH   1   2
BRANCH   1   8
ATOM      8  C   UNL     1      -5.387  65.907  29.513  1.00  0.00     0.000 C 
BRANCH   8   9
ATOM      9  C   UNL     1      -4.203  64.929  29.402  1.00  0.00    -0.000 C 
BRANCH   9  10
ATOM     10  C   UNL     1      -2.875  65.645  29.106  1.00  0.00    -0.003 C 
ATOM     11  C   UNL     1      -2.525  66.697  30.157  1.00  0.00     0.004 C 
ENDBRANCH   9  10
ENDBRANCH   8   9
ENDBRANCH   1   8
TORSDOF 6
ENDMDL
MODEL 5
REMARK VINA RESULT:    -3.831      2.553      4.753
REMARK INTER + INTRA:          -5.647
REMARK INTER:                  -5.357
REMARK INTRA:                  -0.290
REMARK UNBOUND:                -0.471
REMARK SMILES CCCCCCC=CC(=O)[O-]
REMARK SMILES IDX 5 1 6 2 7 3 8 4 9 5 10 6 11 7 4 8 3 9 2 10 1 11
REMARK H PARENT
REMARK Flexibility Score: inf
ROOT
ATOM      1  C   UNL     1      -9.353  67.838  31.691  1.00  0.00     0.004 C 
ENDROOT
BRANCH   1   2
ATOM      2  C   UNL     1      -8.592  66.503  31.697  1.00  0.00     0.027 C 
BRANCH   2   3
ATOM      3  C   UNL     1      -7.352  66.590  32.539  1.00  0.00    -0.025 C 
ATOM      4  C   UNL     1      -7.311  67.338  33.646  1.00  0.00     0.020 C 
BRANCH   4   5
ATOM      5  C   UNL     1      -6.109  67.422  34.487  1.00  0.00     0.064 C 
ATOM      6  O   UNL     1      -6.116  68.156  35.511  1.00  0.00    -0.545 OA
ATOM      7  O   UNL     1      -4.961  66.703  34.171  1.00  0.00    -0.545 OA
ENDBRANCH   4   5
ENDBRANCH   2   3
ENDBRANCH   1   2
BRANCH   1   8
ATOM      8  C   UNL     1     -10.839  67.669  31.338  1.00  0.00     0.000 C 
BRANCH   8   9
ATOM      9  C   UNL     1     -11.265  66.191  31.273  1.00  0.00    -0.000 C 
BRANCH   9  10
ATOM     10  C   UNL     1     -12.769  66.025  31.003  1.00  0.00    -0.003 C 
ATOM     11  C   UNL     1     -13.475  65.204  32.080  1.00  0.00     0.004 C 
ENDBRANCH   9  10
ENDBRANCH   8   9
ENDBRANCH   1   8
TORSDOF 6
ENDMDL
MODEL 6
REMARK VINA RESULT:    -3.817      3.662      4.619
REMARK INTER + INTRA:          -5.628
REMARK INTER:                  -4.943
REMARK INTRA:                  -0.685
REMARK UNBOUND:                -0.471
REMARK SMILES CCCCCCC=CC(=O)[O-]
REMARK SMILES IDX 5 1 6 2 7 3 8 4 9 5 10 6 11 7 4 8 3 9 2 10 1 11
REMARK H PARENT
REMARK Flexibility Score: inf
ROOT
ATOM      1  C   UNL     1      -6.731  66.543  33.863  1.00  0.00     0.004 C 
ENDROOT
BRANCH   1   2
ATOM      2  C   UNL     1      -6.940  66.037  32.428  1.00  0.00     0.027 C 
BRANCH   2   3
ATOM      3  C   UNL     1      -8.286  66.442  31.901  1.00  0.00    -0.025 C 
ATOM      4  C   UNL     1      -8.732  67.698  32.016  1.00  0.00     0.020 C 
BRANCH   4   5
ATOM      5  C   UNL     1     -10.042  68.112  31.493  1.00  0.00     0.064 C 
ATOM      6  O   UNL     1     -10.998  67.293  31.491  1.00  0.00    -0.545 OA
ATOM      7  O   UNL     1     -10.243  69.397  30.999  1.00  0.00    -0.545 OA
ENDBRANCH   4   5
ENDBRANCH   2   3
ENDBRANCH   1   2
BRANCH   1   8
ATOM      8  C   UNL     1      -5.301  67.051  34.107  1.00  0.00     0.000 C 
BRANCH   8   9
ATOM      9  C   UNL     1      -4.658  67.635  32.837  1.00  0.00    -0.000 C 
BRANCH   9  10
ATOM     10  C   UNL     1      -4.963  69.131  32.658  1.00  0.00    -0.003 C 
ATOM     11  C   UNL     1      -5.508  69.460  31.270  1.00  0.00     0.004 C 
ENDBRANCH   9  10
ENDBRANCH   8   9
ENDBRANCH   1   8
TORSDOF 6
ENDMDL
MODEL 7
REMARK VINA RESULT:    -3.808      4.525      5.935
REMARK INTER + INTRA:          -5.615
REMARK INTER:                  -5.247
REMARK INTRA:                  -0.368
REMARK UNBOUND:                -0.471
REMARK SMILES CCCCCCC=CC(=O)[O-]
REMARK SMILES IDX 5 1 6 2 7 3 8 4 9 5 10 6 11 7 4 8 3 9 2 10 1 11
REMARK H PARENT
REMARK Flexibility Score: inf
ROOT
ATOM      1  C   UNL     1      -7.948  66.743  31.829  1.00  0.00     0.004 C 
ENDROOT
BRANCH   1   2
ATOM      2  C   UNL     1      -8.967  67.880  31.997  1.00  0.00     0.027 C 
BRANCH   2   3
ATOM      3  C   UNL     1     -10.221  67.601  31.220  1.00  0.00    -0.025 C 
ATOM      4  C   UNL     1     -11.011  66.564  31.517  1.00  0.00     0.020 C 
BRANCH   4   5
ATOM      5  C   UNL     1     -12.249  66.288  30.774  1.00  0.00     0.064 C 
ATOM      6  O   UNL     1     -13.089  65.478  31.245  1.00  0.00    -0.545 OA
ATOM      7  O   UNL     1     -12.508  66.908  29.556  1.00  0.00    -0.545 OA
ENDBRANCH   4   5
ENDBRANCH   2   3
ENDBRANCH   1   2
BRANCH   1   8
ATOM      8  C   UNL     1      -7.278  66.349  33.155  1.00  0.00     0.000 C 
BRANCH   8   9
ATOM      9  C   UNL     1      -5.936  67.070  33.375  1.00  0.00    -0.000 C 
BRANCH   9  10
ATOM     10  C   UNL     1      -5.877  67.802  34.726  1.00  0.00    -0.003 C 
ATOM     11  C   UNL     1      -7.224  67.822  35.445  1.00  0.00     0.004 C 
ENDBRANCH   9  10
ENDBRANCH   8   9
ENDBRANCH   1   8
TORSDOF 6
ENDMDL
MODEL 8
REMARK VINA RESULT:    -3.806      2.890      4.811
REMARK INTER + INTRA:          -5.613
REMARK INTER:                  -5.090
REMARK INTRA:                  -0.523
REMARK UNBOUND:                -0.471
REMARK SMILES CCCCCCC=CC(=O)[O-]
REMARK SMILES IDX 5 1 6 2 7 3 8 4 9 5 10 6 11 7 4 8 3 9 2 10 1 11
REMARK H PARENT
REMARK Flexibility Score: inf
ROOT
ATOM      1  C   UNL     1      -6.644  65.250  31.222  1.00  0.00     0.004 C 
ENDROOT
BRANCH   1   2
ATOM      2  C   UNL     1      -6.329  65.325  29.720  1.00  0.00     0.027 C 
BRANCH   2   3
ATOM      3  C   UNL     1      -4.928  65.809  29.484  1.00  0.00    -0.025 C 
ATOM      4  C   UNL     1      -3.906  64.956  29.355  1.00  0.00     0.020 C 
BRANCH   4   5
ATOM      5  C   UNL     1      -2.532  65.415  29.110  1.00  0.00     0.064 C 
ATOM      6  O   UNL     1      -1.697  64.629  28.590  1.00  0.00    -0.545 OA
ATOM      7  O   UNL     1      -2.137  66.707  29.444  1.00  0.00    -0.545 OA
ENDBRANCH   4   5
ENDBRANCH   2   3
ENDBRANCH   1   2
BRANCH   1   8
ATOM      8  C   UNL     1      -6.529  66.616  31.917  1.00  0.00     0.000 C 
BRANCH   8   9
ATOM      9  C   UNL     1      -6.282  66.488  33.431  1.00  0.00    -0.000 C 
BRANCH   9  10
ATOM     10  C   UNL     1      -4.904  67.024  33.850  1.00  0.00    -0.003 C 
ATOM     11  C   UNL     1      -4.137  67.653  32.687  1.00  0.00     0.004 C 
ENDBRANCH   9  10
ENDBRANCH   8   9
ENDBRANCH   1   8
TORSDOF 6
ENDMDL
MODEL 9
REMARK VINA RESULT:    -3.752      2.721      3.609
REMARK INTER + INTRA:          -5.539
REMARK INTER:                  -4.883
REMARK INTRA:                  -0.656
REMARK UNBOUND:                -0.471
REMARK SMILES CCCCCCC=CC(=O)[O-]
REMARK SMILES IDX 5 1 6 2 7 3 8 4 9 5 10 6 11 7 4 8 3 9 2 10 1 11
REMARK H PARENT
REMARK Flexibility Score: inf
ROOT
ATOM      1  C   UNL     1      -5.063  67.929  32.902  1.00  0.00     0.004 C 
ENDROOT
BRANCH   1   2
ATOM      2  C   UNL     1      -5.849  66.736  33.468  1.00  0.00     0.027 C 
BRANCH   2   3
ATOM      3  C   UNL     1      -7.317  66.870  33.180  1.00  0.00    -0.025 C 
ATOM      4  C   UNL     1      -7.759  67.343  32.010  1.00  0.00     0.020 C 
BRANCH   4   5
ATOM      5  C   UNL     1      -9.192  67.466  31.710  1.00  0.00     0.064 C 
ATOM      6  O   UNL     1      -9.859  66.437  31.425  1.00  0.00    -0.545 OA
ATOM      7  O   UNL     1      -9.826  68.704  31.735  1.00  0.00    -0.545 OA
ENDBRANCH   4   5
ENDBRANCH   2   3
ENDBRANCH   1   2
BRANCH   1   8
ATOM      8  C   UNL     1      -3.911  67.494  31.983  1.00  0.00     0.000 C 
BRANCH   8   9
ATOM      9  C   UNL     1      -4.345  67.369  30.512  1.00  0.00    -0.000 C 
BRANCH   9  10
ATOM     10  C   UNL     1      -4.150  65.947  29.960  1.00  0.00    -0.003 C 
ATOM     11  C   UNL     1      -5.470  65.205  29.762  1.00  0.00     0.004 C 
ENDBRANCH   9  10
ENDBRANCH   8   9
ENDBRANCH   1   8
TORSDOF 6
ENDMDL
