MODEL 1
REMARK VINA RESULT:    -4.290      0.000      0.000
REMARK INTER + INTRA:          -9.414
REMARK INTER:                  -7.299
REMARK INTRA:                  -2.115
REMARK UNBOUND:                -2.115
REMARK SMILES CCCCCCCCCCCCCC(=O)[O-]
REMARK SMILES IDX 8 1 9 2 10 3 11 4 12 5 13 6 14 7 15 8 16 9 7 10 6 11 5 12
REMARK SMILES IDX 4 13 3 14 2 15 1 16
REMARK H PARENT
REMARK Flexibility Score: inf
ROOT
ATOM      1  C   UNL     1       9.216   7.637  24.916  1.00  0.00     0.000 C 
ENDROOT
BRANCH   1   2
ATOM      2  C   UNL     1      10.050   8.272  26.046  1.00  0.00     0.000 C 
BRANCH   2   3
ATOM      3  C   UNL     1      10.954   7.292  26.817  1.00  0.00     0.000 C 
BRANCH   3   4
ATOM      4  C   UNL     1      11.058   7.555  28.333  1.00  0.00     0.000 C 
BRANCH   4   5
ATOM      5  C   UNL     1      10.233   8.753  28.845  1.00  0.00     0.006 C 
BRANCH   5   6
ATOM      6  C   UNL     1       9.221   8.404  29.947  1.00  0.00     0.053 C 
BRANCH   6   7
ATOM      7  C   UNL     1       8.358   9.575  30.304  1.00  0.00     0.041 C 
ATOM      8  O   UNL     1       7.190   9.667  29.843  1.00  0.00    -0.550 OA
ATOM      9  O   UNL     1       8.857  10.582  31.120  1.00  0.00    -0.550 OA
ENDBRANCH   6   7
ENDBRANCH   5   6
ENDBRANCH   4   5
ENDBRANCH   3   4
ENDBRANCH   2   3
ENDBRANCH   1   2
BRANCH   1  10
ATOM     10  C   UNL     1       7.742   7.362  25.275  1.00  0.00     0.000 C 
BRANCH  10  11
ATOM     11  C   UNL     1       7.271   7.966  26.614  1.00  0.00    -0.000 C 
BRANCH  11  12
ATOM     12  C   UNL     1       6.731   6.951  27.638  1.00  0.00    -0.000 C 
BRANCH  12  13
ATOM     13  C   UNL     1       7.058   5.495  27.269  1.00  0.00    -0.000 C 
BRANCH  13  14
ATOM     14  C   UNL     1       8.167   4.888  28.147  1.00  0.00    -0.000 C 
BRANCH  14  15
ATOM     15  C   UNL     1       9.140   3.949  27.412  1.00  0.00    -0.003 C 
ATOM     16  C   UNL     1      10.469   3.769  28.146  1.00  0.00     0.004 C 
ENDBRANCH  14  15
ENDBRANCH  13  14
ENDBRANCH  12  13
ENDBRANCH  11  12
ENDBRANCH  10  11
ENDBRANCH   1  10
TORSDOF 12
ENDMDL
MODEL 2
REMARK VINA RESULT:    -4.251      2.540      5.855
REMARK INTER + INTRA:          -9.347
REMARK INTER:                  -7.634
REMARK INTRA:                  -1.714
REMARK UNBOUND:                -2.115
REMARK SMILES CCCCCCCCCCCCCC(=O)[O-]
REMARK SMILES IDX 8 1 9 2 10 3 11 4 12 5 13 6 14 7 15 8 16 9 7 10 6 11 5 12
REMARK SMILES IDX 4 13 3 14 2 15 1 16
REMARK H PARENT
REMARK Flexibility Score: inf
ROOT
ATOM      1  C   UNL     1       6.784  10.387  32.416  1.00  0.00     0.000 C 
ENDROOT
BRANCH   1   2
ATOM      2  C   UNL     1       5.424  10.907  31.911  1.00  0.00     0.000 C 
BRANCH   2   3
ATOM      3  C   UNL     1       4.548   9.856  31.202  1.00  0.00     0.000 C 
BRANCH   3   4
ATOM      4  C   UNL     1       4.878   9.627  29.714  1.00  0.00     0.000 C 
BRANCH   4   5
ATOM      5  C   UNL     1       5.492   8.251  29.387  1.00  0.00     0.006 C 
BRANCH   5   6
ATOM      6  C   UNL     1       6.262   8.198  28.058  1.00  0.00     0.053 C 
BRANCH   6   7
ATOM      7  C   UNL     1       6.800   6.828  27.778  1.00  0.00     0.041 C 
ATOM      8  O   UNL     1       7.501   6.233  28.638  1.00  0.00    -0.550 OA
ATOM      9  O   UNL     1       6.553   6.222  26.553  1.00  0.00    -0.550 OA
ENDBRANCH   6   7
ENDBRANCH   5   6
ENDBRANCH   4   5
ENDBRANCH   3   4
ENDBRANCH   2   3
ENDBRANCH   1   2
BRANCH   1  10
ATOM     10  C   UNL     1       8.014  11.062  31.778  1.00  0.00     0.000 C 
BRANCH  10  11
ATOM     11  C   UNL     1       8.462  10.463  30.429  1.00  0.00    -0.000 C 
BRANCH  11  12
ATOM     12  C   UNL     1       9.055   9.044  30.504  1.00  0.00    -0.000 C 
BRANCH  12  13
ATOM     13  C   UNL     1       9.983   8.719  29.322  1.00  0.00    -0.000 C 
BRANCH  13  14
ATOM     14  C   UNL     1       9.927   9.777  28.206  1.00  0.00    -0.000 C 
BRANCH  14  15
ATOM     15  C   UNL     1       9.557   9.238  26.813  1.00  0.00    -0.003 C 
ATOM     16  C   UNL     1      10.187   7.878  26.510  1.00  0.00     0.004 C 
ENDBRANCH  14  15
ENDBRANCH  13  14
ENDBRANCH  12  13
ENDBRANCH  11  12
ENDBRANCH  10  11
ENDBRANCH   1  10
TORSDOF 12
ENDMDL
MODEL 3
REMARK VINA RESULT:    -4.244      2.812      5.292
REMARK INTER + INTRA:          -9.336
REMARK INTER:                  -7.773
REMARK INTRA:                  -1.563
REMARK UNBOUND:                -2.115
REMARK SMILES CCCCCCCCCCCCCC(=O)[O-]
REMARK SMILES IDX 8 1 9 2 10 3 11 4 12 5 13 6 14 7 15 8 16 9 7 10 6 11 5 12
REMARK SMILES IDX 4 13 3 14 2 15 1 16
REMARK H PARENT
REMARK Flexibility Score: inf
ROOT
ATOM      1  C   UNL     1       7.286  10.737  32.342  1.00  0.00     0.000 C 
ENDROOT
BRANCH   1   2
ATOM      2  C   UNL     1       8.428  10.607  31.315  1.00  0.00     0.000 C 
BRANCH   2   3
ATOM      3  C   UNL     1       9.176   9.259  31.341  1.00  0.00     0.000 C 
BRANCH   3   4
ATOM      4  C   UNL     1       9.200   8.501  29.999  1.00  0.00     0.000 C 
BRANCH   4   5
ATOM      5  C   UNL     1      10.290   8.960  29.010  1.00  0.00     0.006 C 
BRANCH   5   6
ATOM      6  C   UNL     1      11.151   7.823  28.439  1.00  0.00     0.053 C 
BRANCH   6   7
ATOM      7  C   UNL     1      10.649   7.357  27.108  1.00  0.00     0.041 C 
ATOM      8  O   UNL     1      10.811   6.161  26.751  1.00  0.00    -0.550 OA
ATOM      9  O   UNL     1      10.031   8.254  26.246  1.00  0.00    -0.550 OA
ENDBRANCH   6   7
ENDBRANCH   5   6
ENDBRANCH   4   5
ENDBRANCH   3   4
ENDBRANCH   2   3
ENDBRANCH   1   2
BRANCH   1  10
ATOM     10  C   UNL     1       5.919  11.125  31.744  1.00  0.00     0.000 C 
BRANCH  10  11
ATOM     11  C   UNL     1       4.881   9.985  31.692  1.00  0.00    -0.000 C 
BRANCH  11  12
ATOM     12  C   UNL     1       4.404   9.596  30.281  1.00  0.00    -0.000 C 
BRANCH  12  13
ATOM     13  C   UNL     1       5.472   8.838  29.475  1.00  0.00    -0.000 C 
BRANCH  13  14
ATOM     14  C   UNL     1       6.035   9.663  28.304  1.00  0.00    -0.000 C 
BRANCH  14  15
ATOM     15  C   UNL     1       6.706   8.839  27.190  1.00  0.00    -0.003 C 
ATOM     16  C   UNL     1       6.789   7.348  27.514  1.00  0.00     0.004 C 
ENDBRANCH  14  15
ENDBRANCH  13  14
ENDBRANCH  12  13
ENDBRANCH  11  12
ENDBRANCH  10  11
ENDBRANCH   1  10
TORSDOF 12
ENDMDL
MODEL 4
REMARK VINA RESULT:    -4.205      3.007      5.532
REMARK INTER + INTRA:          -9.269
REMARK INTER:                  -7.463
REMARK INTRA:                  -1.806
REMARK UNBOUND:                -2.115
REMARK SMILES CCCCCCCCCCCCCC(=O)[O-]
REMARK SMILES IDX 8 1 9 2 10 3 11 4 12 5 13 6 14 7 15 8 16 9 7 10 6 11 5 12
REMARK SMILES IDX 4 13 3 14 2 15 1 16
REMARK H PARENT
REMARK Flexibility Score: inf
ROOT
ATOM      1  C   UNL     1       8.521  10.007  31.020  1.00  0.00     0.000 C 
ENDROOT
BRANCH   1   2
ATOM      2  C   UNL     1       8.580  11.039  29.877  1.00  0.00     0.000 C 
BRANCH   2   3
ATOM      3  C   UNL     1       9.439  10.622  28.667  1.00  0.00     0.000 C 
BRANCH   3   4
ATOM      4  C   UNL     1      10.087   9.228  28.777  1.00  0.00     0.000 C 
BRANCH   4   5
ATOM      5  C   UNL     1       9.621   8.207  27.719  1.00  0.00     0.006 C 
BRANCH   5   6
ATOM      6  C   UNL     1       8.821   8.815  26.557  1.00  0.00     0.053 C 
BRANCH   6   7
ATOM      7  C   UNL     1       8.239   7.761  25.667  1.00  0.00     0.041 C 
ATOM      8  O   UNL     1       7.170   7.179  25.987  1.00  0.00    -0.550 OA
ATOM      9  O   UNL     1       8.897   7.397  24.499  1.00  0.00    -0.550 OA
ENDBRANCH   6   7
ENDBRANCH   5   6
ENDBRANCH   4   5
ENDBRANCH   3   4
ENDBRANCH   2   3
ENDBRANCH   1   2
BRANCH   1  10
ATOM     10  C   UNL     1       7.495  10.324  32.127  1.00  0.00     0.000 C 
BRANCH  10  11
ATOM     11  C   UNL     1       6.235  11.077  31.654  1.00  0.00    -0.000 C 
BRANCH  11  12
ATOM     12  C   UNL     1       4.902  10.349  31.905  1.00  0.00    -0.000 C 
BRANCH  12  13
ATOM     13  C   UNL     1       4.214   9.894  30.607  1.00  0.00    -0.000 C 
BRANCH  13  14
ATOM     14  C   UNL     1       4.683   8.506  30.135  1.00  0.00    -0.000 C 
BRANCH  14  15
ATOM     15  C   UNL     1       5.713   8.520  28.992  1.00  0.00    -0.003 C 
ATOM     16  C   UNL     1       5.569   9.730  28.069  1.00  0.00     0.004 C 
ENDBRANCH  14  15
ENDBRANCH  13  14
ENDBRANCH  12  13
ENDBRANCH  11  12
ENDBRANCH  10  11
ENDBRANCH   1  10
TORSDOF 12
ENDMDL
MODEL 5
REMARK VINA RESULT:    -4.145      1.990      3.971
REMARK INTER + INTRA:          -9.167
REMARK INTER:                  -7.291
REMARK INTRA:                  -1.876
REMARK UNBOUND:                -2.115
REMARK SMILES CCCCCCCCCCCCCC(=O)[O-]
REMARK SMILES IDX 8 1 9 2 10 3 11 4 12 5 13 6 14 7 15 8 16 9 7 10 6 11 5 12
REMARK SMILES IDX 4 13 3 14 2 15 1 16
REMARK H PARENT
REMARK Flexibility Score: inf
ROOT
ATOM      1  C   UNL     1       7.734   5.436  27.794  1.00  0.00     0.000 C 
ENDROOT
BRANCH   1   2
ATOM      2  C   UNL     1       7.224   6.672  28.561  1.00  0.00     0.000 C 
BRANCH   2   3
ATOM      3  C   UNL     1       6.178   7.518  27.811  1.00  0.00     0.000 C 
BRANCH   3   4
ATOM      4  C   UNL     1       6.583   8.984  27.558  1.00  0.00     0.000 C 
BRANCH   4   5
ATOM      5  C   UNL     1       5.801  10.028  28.381  1.00  0.00     0.006 C 
BRANCH   5   6
ATOM      6  C   UNL     1       6.066   9.975  29.893  1.00  0.00     0.053 C 
BRANCH   6   7
ATOM      7  C   UNL     1       4.820   9.674  30.668  1.00  0.00     0.041 C 
ATOM      8  O   UNL     1       3.978   8.851  30.223  1.00  0.00    -0.550 OA
ATOM      9  O   UNL     1       4.573  10.328  31.869  1.00  0.00    -0.550 OA
ENDBRANCH   6   7
ENDBRANCH   5   6
ENDBRANCH   4   5
ENDBRANCH   3   4
ENDBRANCH   2   3
ENDBRANCH   1   2
BRANCH   1  10
ATOM     10  C   UNL     1       7.600   5.526  26.260  1.00  0.00     0.000 C 
BRANCH  10  11
ATOM     11  C   UNL     1       8.903   5.864  25.508  1.00  0.00    -0.000 C 
BRANCH  11  12
ATOM     12  C   UNL     1       9.214   7.367  25.377  1.00  0.00    -0.000 C 
BRANCH  12  13
ATOM     13  C   UNL     1      10.452   7.795  26.181  1.00  0.00    -0.000 C 
BRANCH  13  14
ATOM     14  C   UNL     1      10.129   8.829  27.275  1.00  0.00    -0.000 C 
BRANCH  14  15
ATOM     15  C   UNL     1      10.536   8.419  28.701  1.00  0.00    -0.003 C 
ATOM     16  C   UNL     1      11.032   6.976  28.792  1.00  0.00     0.004 C 
ENDBRANCH  14  15
ENDBRANCH  13  14
ENDBRANCH  12  13
ENDBRANCH  11  12
ENDBRANCH  10  11
ENDBRANCH   1  10
TORSDOF 12
ENDMDL
MODEL 6
REMARK VINA RESULT:    -4.133      3.022      5.270
REMARK INTER + INTRA:          -9.148
REMARK INTER:                  -7.466
REMARK INTRA:                  -1.682
REMARK UNBOUND:                -2.115
REMARK SMILES CCCCCCCCCCCCCC(=O)[O-]
REMARK SMILES IDX 8 1 9 2 10 3 11 4 12 5 13 6 14 7 15 8 16 9 7 10 6 11 5 12
REMARK SMILES IDX 4 13 3 14 2 15 1 16
REMARK H PARENT
REMARK Flexibility Score: inf
ROOT
ATOM      1  C   UNL     1       6.279   7.780  28.853  1.00  0.00     0.000 C 
ENDROOT
BRANCH   1   2
ATOM      2  C   UNL     1       6.790   7.866  27.402  1.00  0.00     0.000 C 
BRANCH   2   3
ATOM      3  C   UNL     1       7.017   9.297  26.876  1.00  0.00     0.000 C 
BRANCH   3   4
ATOM      4  C   UNL     1       8.010  10.144  27.697  1.00  0.00     0.000 C 
BRANCH   4   5
ATOM      5  C   UNL     1       9.474  10.082  27.216  1.00  0.00     0.006 C 
BRANCH   5   6
ATOM      6  C   UNL     1      10.250   8.848  27.700  1.00  0.00     0.053 C 
BRANCH   6   7
ATOM      7  C   UNL     1      10.568   7.911  26.575  1.00  0.00     0.041 C 
ATOM      8  O   UNL     1      10.072   8.098  25.434  1.00  0.00    -0.550 OA
ATOM      9  O   UNL     1      11.386   6.811  26.797  1.00  0.00    -0.550 OA
ENDBRANCH   6   7
ENDBRANCH   5   6
ENDBRANCH   4   5
ENDBRANCH   3   4
ENDBRANCH   2   3
ENDBRANCH   1   2
BRANCH   1  10
ATOM     10  C   UNL     1       4.862   8.345  29.076  1.00  0.00     0.000 C 
BRANCH  10  11
ATOM     11  C   UNL     1       4.655   9.086  30.412  1.00  0.00    -0.000 C 
BRANCH  11  12
ATOM     12  C   UNL     1       5.551  10.320  30.624  1.00  0.00    -0.000 C 
BRANCH  12  13
ATOM     13  C   UNL     1       5.818  10.619  32.108  1.00  0.00    -0.000 C 
BRANCH  13  14
ATOM     14  C   UNL     1       7.300  10.469  32.493  1.00  0.00    -0.000 C 
BRANCH  14  15
ATOM     15  C   UNL     1       8.284  10.458  31.309  1.00  0.00    -0.003 C 
ATOM     16  C   UNL     1       9.162   9.207  31.271  1.00  0.00     0.004 C 
ENDBRANCH  14  15
ENDBRANCH  13  14
ENDBRANCH  12  13
ENDBRANCH  11  12
ENDBRANCH  10  11
ENDBRANCH   1  10
TORSDOF 12
ENDMDL
MODEL 7
REMARK VINA RESULT:    -4.132      0.884      1.923
REMARK INTER + INTRA:          -9.146
REMARK INTER:                  -7.246
REMARK INTRA:                  -1.900
REMARK UNBOUND:                -2.115
REMARK SMILES CCCCCCCCCCCCCC(=O)[O-]
REMARK SMILES IDX 8 1 9 2 10 3 11 4 12 5 13 6 14 7 15 8 16 9 7 10 6 11 5 12
REMARK SMILES IDX 4 13 3 14 2 15 1 16
REMARK H PARENT
REMARK Flexibility Score: inf
ROOT
ATOM      1  C   UNL     1       7.314   8.396  26.470  1.00  0.00     0.000 C 
ENDROOT
BRANCH   1   2
ATOM      2  C   UNL     1       8.465   7.762  25.665  1.00  0.00     0.000 C 
BRANCH   2   3
ATOM      3  C   UNL     1       9.842   8.424  25.867  1.00  0.00     0.000 C 
BRANCH   3   4
ATOM      4  C   UNL     1      10.673   7.858  27.035  1.00  0.00     0.000 C 
BRANCH   4   5
ATOM      5  C   UNL     1      10.566   8.648  28.355  1.00  0.00     0.006 C 
BRANCH   5   6
ATOM      6  C   UNL     1       9.862   7.893  29.494  1.00  0.00     0.053 C 
BRANCH   6   7
ATOM      7  C   UNL     1       9.130   8.822  30.411  1.00  0.00     0.041 C 
ATOM      8  O   UNL     1       9.540   9.009  31.587  1.00  0.00    -0.550 OA
ATOM      9  O   UNL     1       7.973   9.458  29.978  1.00  0.00    -0.550 OA
ENDBRANCH   6   7
ENDBRANCH   5   6
ENDBRANCH   4   5
ENDBRANCH   3   4
ENDBRANCH   2   3
ENDBRANCH   1   2
BRANCH   1  10
ATOM     10  C   UNL     1       6.582   7.431  27.424  1.00  0.00     0.000 C 
BRANCH  10  11
ATOM     11  C   UNL     1       6.914   5.938  27.226  1.00  0.00    -0.000 C 
BRANCH  11  12
ATOM     12  C   UNL     1       7.690   5.279  28.381  1.00  0.00    -0.000 C 
BRANCH  12  13
ATOM     13  C   UNL     1       8.431   4.002  27.953  1.00  0.00    -0.000 C 
BRANCH  13  14
ATOM     14  C   UNL     1       9.710   4.292  27.147  1.00  0.00    -0.000 C 
BRANCH  14  15
ATOM     15  C   UNL     1      11.006   3.724  27.753  1.00  0.00    -0.003 C 
ATOM     16  C   UNL     1      11.714   4.708  28.684  1.00  0.00     0.004 C 
ENDBRANCH  14  15
ENDBRANCH  13  14
ENDBRANCH  12  13
ENDBRANCH  11  12
ENDBRANCH  10  11
ENDBRANCH   1  10
TORSDOF 12
ENDMDL
MODEL 8
REMARK VINA RESULT:    -4.084      0.954      3.071
REMARK INTER + INTRA:          -9.063
REMARK INTER:                  -6.988
REMARK INTRA:                  -2.075
REMARK UNBOUND:                -2.115
REMARK SMILES CCCCCCCCCCCCCC(=O)[O-]
REMARK SMILES IDX 8 1 9 2 10 3 11 4 12 5 13 6 14 7 15 8 16 9 7 10 6 11 5 12
REMARK SMILES IDX 4 13 3 14 2 15 1 16
REMARK H PARENT
REMARK Flexibility Score: inf
ROOT
ATOM      1  C   UNL     1       9.764   4.099  27.454  1.00  0.00     0.000 C 
ENDROOT
BRANCH   1   2
ATOM      2  C   UNL     1      11.065   4.924  27.414  1.00  0.00     0.000 C 
BRANCH   2   3
ATOM      3  C   UNL     1      11.210   5.965  28.541  1.00  0.00     0.000 C 
BRANCH   3   4
ATOM      4  C   UNL     1      11.585   7.385  28.073  1.00  0.00     0.000 C 
BRANCH   4   5
ATOM      5  C   UNL     1      10.685   8.512  28.620  1.00  0.00     0.006 C 
BRANCH   5   6
ATOM      6  C   UNL     1       9.851   8.119  29.850  1.00  0.00     0.053 C 
BRANCH   6   7
ATOM      7  C   UNL     1       9.055   9.273  30.376  1.00  0.00     0.041 C 
ATOM      8  O   UNL     1       9.086   9.560  31.601  1.00  0.00    -0.550 OA
ATOM      9  O   UNL     1       8.252  10.012  29.517  1.00  0.00    -0.550 OA
ENDBRANCH   6   7
ENDBRANCH   5   6
ENDBRANCH   4   5
ENDBRANCH   3   4
ENDBRANCH   2   3
ENDBRANCH   1   2
BRANCH   1  10
ATOM     10  C   UNL     1       8.658   4.677  28.359  1.00  0.00     0.000 C 
BRANCH  10  11
ATOM     11  C   UNL     1       7.270   4.803  27.698  1.00  0.00    -0.000 C 
BRANCH  11  12
ATOM     12  C   UNL     1       7.159   5.881  26.604  1.00  0.00    -0.000 C 
BRANCH  12  13
ATOM     13  C   UNL     1       7.324   7.309  27.151  1.00  0.00    -0.000 C 
BRANCH  13  14
ATOM     14  C   UNL     1       8.043   8.249  26.167  1.00  0.00    -0.000 C 
BRANCH  14  15
ATOM     15  C   UNL     1       8.972   7.550  25.158  1.00  0.00    -0.003 C 
ATOM     16  C   UNL     1      10.163   8.413  24.742  1.00  0.00     0.004 C 
ENDBRANCH  14  15
ENDBRANCH  13  14
ENDBRANCH  12  13
ENDBRANCH  11  12
ENDBRANCH  10  11
ENDBRANCH   1  10
TORSDOF 12
ENDMDL
MODEL 9
REMARK VINA RESULT:    -4.045      1.967      4.211
REMARK INTER + INTRA:          -8.998
REMARK INTER:                  -7.297
REMARK INTRA:                  -1.701
REMARK UNBOUND:                -2.115
REMARK SMILES CCCCCCCCCCCCCC(=O)[O-]
REMARK SMILES IDX 8 1 9 2 10 3 11 4 12 5 13 6 14 7 15 8 16 9 7 10 6 11 5 12
REMARK SMILES IDX 4 13 3 14 2 15 1 16
REMARK H PARENT
REMARK Flexibility Score: inf
ROOT
ATOM      1  C   UNL     1       6.707   8.750  27.882  1.00  0.00     0.000 C 
ENDROOT
BRANCH   1   2
ATOM      2  C   UNL     1       5.448   9.415  28.472  1.00  0.00     0.000 C 
BRANCH   2   3
ATOM      3  C   UNL     1       4.917   8.768  29.766  1.00  0.00     0.000 C 
BRANCH   3   4
ATOM      4  C   UNL     1       4.939   9.680  31.009  1.00  0.00     0.000 C 
BRANCH   4   5
ATOM      5  C   UNL     1       6.094  10.701  31.048  1.00  0.00     0.006 C 
BRANCH   5   6
ATOM      6  C   UNL     1       7.265  10.303  31.960  1.00  0.00     0.053 C 
BRANCH   6   7
ATOM      7  C   UNL     1       8.507  10.011  31.177  1.00  0.00     0.041 C 
ATOM      8  O   UNL     1       9.317   9.134  31.575  1.00  0.00    -0.550 OA
ATOM      9  O   UNL     1       8.787  10.731  30.022  1.00  0.00    -0.550 OA
ENDBRANCH   6   7
ENDBRANCH   5   6
ENDBRANCH   4   5
ENDBRANCH   3   4
ENDBRANCH   2   3
ENDBRANCH   1   2
BRANCH   1  10
ATOM     10  C   UNL     1       7.035   7.358  28.456  1.00  0.00     0.000 C 
BRANCH  10  11
ATOM     11  C   UNL     1       8.532   7.093  28.715  1.00  0.00    -0.000 C 
BRANCH  11  12
ATOM     12  C   UNL     1       9.504   7.995  27.932  1.00  0.00    -0.000 C 
BRANCH  12  13
ATOM     13  C   UNL     1      10.112   7.297  26.705  1.00  0.00    -0.000 C 
BRANCH  13  14
ATOM     14  C   UNL     1       9.662   7.924  25.374  1.00  0.00    -0.000 C 
BRANCH  14  15
ATOM     15  C   UNL     1       8.434   7.263  24.723  1.00  0.00    -0.003 C 
ATOM     16  C   UNL     1       8.310   5.775  25.050  1.00  0.00     0.004 C 
ENDBRANCH  14  15
ENDBRANCH  13  14
ENDBRANCH  12  13
ENDBRANCH  11  12
ENDBRANCH  10  11
ENDBRANCH   1  10
TORSDOF 12
ENDMDL
