MODEL 1
REMARK VINA RESULT:    -7.060      0.000      0.000
REMARK INTER + INTRA:         -11.207
REMARK INTER:                  -9.743
REMARK INTRA:                  -1.464
REMARK UNBOUND:                -1.464
REMARK SMILES O=C([O-])[C@H]1O[C@@H](Oc2cc3oc(-c4ccccc4)cc(=O)c3c(O)c2O)[C@H](O)[C@@H](O)[C@@H]1O
REMARK SMILES IDX 7 1 6 2 4 3 31 4 5 5 29 6 27 7 2 8 1 9 3 10 32 11 30 13
REMARK SMILES IDX 28 15 8 17 25 18 9 19 23 20 10 21 22 22 11 23 20 24 12 25
REMARK SMILES IDX 19 26 21 27 26 28 24 30 13 32 14 33 18 34 15 35 17 36 16 37
REMARK H PARENT 32 12 30 14 28 16 26 29 24 31
REMARK Flexibility Score: inf
ROOT
ATOM      1  O   UNL     1     266.383 -30.207  54.787  1.00  0.00    -0.458 OA
ENDROOT
BRANCH   1   2
ATOM      2  C   UNL     1     265.902 -31.340  54.050  1.00  0.00     0.339 C 
ATOM      3  C   UNL     1     267.928 -32.356  53.221  1.00  0.00     0.199 C 
ATOM      4  C   UNL     1     268.123 -30.999  52.500  1.00  0.00     0.180 C 
ATOM      5  O   UNL     1     266.818 -32.427  54.116  1.00  0.00    -0.328 OA
ATOM      6  C   UNL     1     266.825 -30.611  51.769  1.00  0.00     0.181 C 
ATOM      7  C   UNL     1     265.555 -30.926  52.604  1.00  0.00     0.214 C 
BRANCH   3   8
ATOM      8  C   UNL     1     269.178 -32.731  53.966  1.00  0.00     0.073 C 
ATOM      9  O   UNL     1     270.082 -31.876  54.170  1.00  0.00    -0.547 OA
ATOM     10  O   UNL     1     269.364 -34.037  54.402  1.00  0.00    -0.547 OA
ENDBRANCH   3   8
BRANCH   4  11
ATOM     11  O   UNL     1     269.171 -31.107  51.571  1.00  0.00    -0.387 OA
ATOM     12  H   UNL     1     268.841 -30.732  50.715  1.00  0.00     0.211 HD
ENDBRANCH   4  11
BRANCH   6  13
ATOM     13  O   UNL     1     266.863 -29.257  51.392  1.00  0.00    -0.387 OA
ATOM     14  H   UNL     1     267.565 -29.157  50.696  1.00  0.00     0.211 HD
ENDBRANCH   6  13
BRANCH   7  15
ATOM     15  O   UNL     1     264.836 -31.965  51.982  1.00  0.00    -0.384 OA
ATOM     16  H   UNL     1     265.507 -32.571  51.572  1.00  0.00     0.211 HD
ENDBRANCH   7  15
ENDBRANCH   1   2
BRANCH   1  17
ATOM     17  C   UNL     1     265.591 -29.112  55.162  1.00  0.00     0.172 A 
ATOM     18  C   UNL     1     265.715 -27.837  54.569  1.00  0.00     0.201 A 
ATOM     19  C   UNL     1     264.645 -29.311  56.168  1.00  0.00     0.098 A 
ATOM     20  C   UNL     1     264.799 -26.816  54.896  1.00  0.00     0.176 A 
ATOM     21  C   UNL     1     263.755 -28.299  56.523  1.00  0.00     0.146 A 
ATOM     22  C   UNL     1     263.806 -27.045  55.876  1.00  0.00     0.111 A 
ATOM     23  O   UNL     1     262.856 -28.536  57.473  1.00  0.00    -0.456 OA
ATOM     24  C   UNL     1     262.859 -26.074  56.262  1.00  0.00     0.197 A 
ATOM     25  C   UNL     1     261.961 -27.637  57.876  1.00  0.00     0.138 A 
ATOM     26  C   UNL     1     261.937 -26.370  57.267  1.00  0.00     0.100 A 
ATOM     27  O   UNL     1     262.824 -24.937  55.719  1.00  0.00    -0.289 OA
BRANCH  18  28
ATOM     28  O   UNL     1     266.770 -27.540  53.706  1.00  0.00    -0.502 OA
ATOM     29  H   UNL     1     267.574 -28.145  53.601  1.00  0.00     0.293 HD
ENDBRANCH  18  28
BRANCH  20  30
ATOM     30  O   UNL     1     264.889 -25.572  54.264  1.00  0.00    -0.504 OA
ATOM     31  H   UNL     1     264.203 -24.840  54.398  1.00  0.00     0.293 HD
ENDBRANCH  20  30
BRANCH  25  32
ATOM     32  C   UNL     1     261.009 -28.012  58.951  1.00  0.00     0.017 A 
ATOM     33  C   UNL     1     261.266 -27.610  60.277  1.00  0.00     0.012 A 
ATOM     34  C   UNL     1     259.831 -28.737  58.682  1.00  0.00     0.012 A 
ATOM     35  C   UNL     1     260.381 -27.942  61.306  1.00  0.00     0.001 A 
ATOM     36  C   UNL     1     258.946 -29.063  59.714  1.00  0.00     0.001 A 
ATOM     37  C   UNL     1     259.222 -28.668  61.024  1.00  0.00     0.000 A 
ENDBRANCH  25  32
ENDBRANCH   1  17
TORSDOF 9
ENDMDL
MODEL 2
REMARK VINA RESULT:    -6.994      3.590      5.085
REMARK INTER + INTRA:         -11.115
REMARK INTER:                  -9.776
REMARK INTRA:                  -1.339
REMARK UNBOUND:                -1.464
REMARK SMILES O=C([O-])[C@H]1O[C@@H](Oc2cc3oc(-c4ccccc4)cc(=O)c3c(O)c2O)[C@H](O)[C@@H](O)[C@@H]1O
REMARK SMILES IDX 7 1 6 2 4 3 31 4 5 5 29 6 27 7 2 8 1 9 3 10 32 11 30 13
REMARK SMILES IDX 28 15 8 17 25 18 9 19 23 20 10 21 22 22 11 23 20 24 12 25
REMARK SMILES IDX 19 26 21 27 26 28 24 30 13 32 14 33 18 34 15 35 17 36 16 37
REMARK H PARENT 32 12 30 14 28 16 26 29 24 31
REMARK Flexibility Score: inf
ROOT
ATOM      1  O   UNL     1     263.615 -25.881  53.091  1.00  0.00    -0.458 OA
ENDROOT
BRANCH   1   2
ATOM      2  C   UNL     1     264.834 -26.535  52.711  1.00  0.00     0.339 C 
ATOM      3  C   UNL     1     266.085 -26.608  54.773  1.00  0.00     0.199 C 
ATOM      4  C   UNL     1     265.987 -25.064  54.700  1.00  0.00     0.180 C 
ATOM      5  O   UNL     1     265.353 -27.322  53.776  1.00  0.00    -0.328 OA
ATOM      6  C   UNL     1     266.398 -24.585  53.295  1.00  0.00     0.181 C 
ATOM      7  C   UNL     1     265.845 -25.501  52.171  1.00  0.00     0.214 C 
BRANCH   3   8
ATOM      8  C   UNL     1     265.655 -27.090  56.130  1.00  0.00     0.073 C 
ATOM      9  O   UNL     1     265.659 -28.321  56.403  1.00  0.00    -0.547 OA
ATOM     10  O   UNL     1     265.212 -26.182  57.084  1.00  0.00    -0.547 OA
ENDBRANCH   3   8
BRANCH   4  11
ATOM     11  O   UNL     1     266.841 -24.493  55.659  1.00  0.00    -0.387 OA
ATOM     12  H   UNL     1     267.769 -24.624  55.338  1.00  0.00     0.211 HD
ENDBRANCH   4  11
BRANCH   6  13
ATOM     13  O   UNL     1     266.008 -23.249  53.101  1.00  0.00    -0.387 OA
ATOM     14  H   UNL     1     265.663 -22.906  53.968  1.00  0.00     0.211 HD
ENDBRANCH   6  13
BRANCH   7  15
ATOM     15  O   UNL     1     266.916 -26.176  51.553  1.00  0.00    -0.384 OA
ATOM     16  H   UNL     1     266.693 -27.144  51.573  1.00  0.00     0.211 HD
ENDBRANCH   7  15
ENDBRANCH   1   2
BRANCH   1  17
ATOM     17  C   UNL     1     262.493 -26.540  53.616  1.00  0.00     0.172 A 
ATOM     18  C   UNL     1     261.499 -27.127  52.804  1.00  0.00     0.201 A 
ATOM     19  C   UNL     1     262.371 -26.605  55.005  1.00  0.00     0.098 A 
ATOM     20  C   UNL     1     260.470 -27.890  53.391  1.00  0.00     0.176 A 
ATOM     21  C   UNL     1     261.338 -27.329  55.598  1.00  0.00     0.146 A 
ATOM     22  C   UNL     1     260.387 -27.999  54.799  1.00  0.00     0.111 A 
ATOM     23  O   UNL     1     261.270 -27.384  56.925  1.00  0.00    -0.456 OA
ATOM     24  C   UNL     1     259.385 -28.738  55.462  1.00  0.00     0.197 A 
ATOM     25  C   UNL     1     260.327 -28.053  57.582  1.00  0.00     0.138 A 
ATOM     26  C   UNL     1     259.353 -28.761  56.857  1.00  0.00     0.100 A 
ATOM     27  O   UNL     1     258.510 -29.381  54.822  1.00  0.00    -0.289 OA
BRANCH  18  28
ATOM     28  O   UNL     1     261.476 -26.918  51.425  1.00  0.00    -0.502 OA
ATOM     29  H   UNL     1     261.603 -27.668  50.759  1.00  0.00     0.293 HD
ENDBRANCH  18  28
BRANCH  20  30
ATOM     30  O   UNL     1     259.520 -28.519  52.581  1.00  0.00    -0.504 OA
ATOM     31  H   UNL     1     258.603 -28.782  52.917  1.00  0.00     0.293 HD
ENDBRANCH  20  30
BRANCH  25  32
ATOM     32  C   UNL     1     260.347 -28.038  59.067  1.00  0.00     0.017 A 
ATOM     33  C   UNL     1     259.434 -28.840  59.780  1.00  0.00     0.012 A 
ATOM     34  C   UNL     1     261.276 -27.264  59.790  1.00  0.00     0.012 A 
ATOM     35  C   UNL     1     259.438 -28.851  61.178  1.00  0.00     0.001 A 
ATOM     36  C   UNL     1     261.279 -27.283  61.189  1.00  0.00     0.001 A 
ATOM     37  C   UNL     1     260.360 -28.073  61.881  1.00  0.00     0.000 A 
ENDBRANCH  25  32
ENDBRANCH   1  17
TORSDOF 9
ENDMDL
MODEL 3
REMARK VINA RESULT:    -6.994     13.875     15.967
REMARK INTER + INTRA:         -11.115
REMARK INTER:                  -9.940
REMARK INTRA:                  -1.174
REMARK UNBOUND:                -1.464
REMARK SMILES O=C([O-])[C@H]1O[C@@H](Oc2cc3oc(-c4ccccc4)cc(=O)c3c(O)c2O)[C@H](O)[C@@H](O)[C@@H]1O
REMARK SMILES IDX 7 1 6 2 4 3 31 4 5 5 29 6 27 7 2 8 1 9 3 10 32 11 30 13
REMARK SMILES IDX 28 15 8 17 25 18 9 19 23 20 10 21 22 22 11 23 20 24 12 25
REMARK SMILES IDX 19 26 21 27 26 28 24 30 13 32 14 33 18 34 15 35 17 36 16 37
REMARK H PARENT 32 12 30 14 28 16 26 29 24 31
REMARK Flexibility Score: inf
ROOT
ATOM      1  O   UNL     1     252.311 -22.311  45.548  1.00  0.00    -0.458 OA
ENDROOT
BRANCH   1   2
ATOM      2  C   UNL     1     251.640 -23.443  44.976  1.00  0.00     0.339 C 
ATOM      3  C   UNL     1     253.439 -24.693  43.963  1.00  0.00     0.199 C 
ATOM      4  C   UNL     1     253.638 -23.412  43.117  1.00  0.00     0.180 C 
ATOM      5  O   UNL     1     252.466 -24.602  45.004  1.00  0.00    -0.328 OA
ATOM      6  C   UNL     1     252.285 -22.957  42.540  1.00  0.00     0.181 C 
ATOM      7  C   UNL     1     251.126 -23.098  43.563  1.00  0.00     0.214 C 
BRANCH   3   8
ATOM      8  C   UNL     1     254.748 -25.129  44.559  1.00  0.00     0.073 C 
ATOM      9  O   UNL     1     255.032 -24.849  45.755  1.00  0.00    -0.547 OA
ATOM     10  O   UNL     1     255.675 -25.813  43.781  1.00  0.00    -0.547 OA
ENDBRANCH   3   8
BRANCH   4  11
ATOM     11  O   UNL     1     254.532 -23.677  42.065  1.00  0.00    -0.387 OA
ATOM     12  H   UNL     1     254.034 -23.543  41.219  1.00  0.00     0.211 HD
ENDBRANCH   4  11
BRANCH   6  13
ATOM     13  O   UNL     1     252.378 -21.641  42.054  1.00  0.00    -0.387 OA
ATOM     14  H   UNL     1     251.904 -21.608  41.182  1.00  0.00     0.211 HD
ENDBRANCH   6  13
BRANCH   7  15
ATOM     15  O   UNL     1     250.244 -24.107  43.129  1.00  0.00    -0.384 OA
ATOM     16  H   UNL     1     250.775 -24.944  43.067  1.00  0.00     0.211 HD
ENDBRANCH   7  15
ENDBRANCH   1   2
BRANCH   1  17
ATOM     17  C   UNL     1     252.222 -21.935  46.896  1.00  0.00     0.172 A 
ATOM     18  C   UNL     1     251.749 -20.671  47.309  1.00  0.00     0.201 A 
ATOM     19  C   UNL     1     252.624 -22.864  47.856  1.00  0.00     0.098 A 
ATOM     20  C   UNL     1     251.557 -20.404  48.680  1.00  0.00     0.176 A 
ATOM     21  C   UNL     1     252.470 -22.599  49.216  1.00  0.00     0.146 A 
ATOM     22  C   UNL     1     251.914 -21.375  49.645  1.00  0.00     0.111 A 
ATOM     23  O   UNL     1     252.847 -23.520  50.097  1.00  0.00    -0.456 OA
ATOM     24  C   UNL     1     251.758 -21.182  51.033  1.00  0.00     0.197 A 
ATOM     25  C   UNL     1     252.734 -23.363  51.414  1.00  0.00     0.138 A 
ATOM     26  C   UNL     1     252.173 -22.178  51.920  1.00  0.00     0.100 A 
ATOM     27  O   UNL     1     251.251 -20.126  51.498  1.00  0.00    -0.289 OA
BRANCH  18  28
ATOM     28  O   UNL     1     251.523 -19.647  46.390  1.00  0.00    -0.502 OA
ATOM     29  H   UNL     1     251.641 -18.670  46.623  1.00  0.00     0.293 HD
ENDBRANCH  18  28
BRANCH  20  30
ATOM     30  O   UNL     1     251.033 -19.173  49.084  1.00  0.00    -0.504 OA
ATOM     31  H   UNL     1     251.560 -18.310  49.028  1.00  0.00     0.293 HD
ENDBRANCH  20  30
BRANCH  25  32
ATOM     32  C   UNL     1     253.196 -24.458  52.304  1.00  0.00     0.017 A 
ATOM     33  C   UNL     1     253.994 -25.491  51.774  1.00  0.00     0.012 A 
ATOM     34  C   UNL     1     252.886 -24.481  53.678  1.00  0.00     0.012 A 
ATOM     35  C   UNL     1     254.450 -26.529  52.591  1.00  0.00     0.001 A 
ATOM     36  C   UNL     1     253.348 -25.519  54.493  1.00  0.00     0.001 A 
ATOM     37  C   UNL     1     254.127 -26.542  53.950  1.00  0.00     0.000 A 
ENDBRANCH  25  32
ENDBRANCH   1  17
TORSDOF 9
ENDMDL
MODEL 4
REMARK VINA RESULT:    -6.752      2.847      4.840
REMARK INTER + INTRA:         -10.781
REMARK INTER:                  -9.284
REMARK INTRA:                  -1.497
REMARK UNBOUND:                -1.464
REMARK SMILES O=C([O-])[C@H]1O[C@@H](Oc2cc3oc(-c4ccccc4)cc(=O)c3c(O)c2O)[C@H](O)[C@@H](O)[C@@H]1O
REMARK SMILES IDX 7 1 6 2 4 3 31 4 5 5 29 6 27 7 2 8 1 9 3 10 32 11 30 13
REMARK SMILES IDX 28 15 8 17 25 18 9 19 23 20 10 21 22 22 11 23 20 24 12 25
REMARK SMILES IDX 19 26 21 27 26 28 24 30 13 32 14 33 18 34 15 35 17 36 16 37
REMARK H PARENT 32 12 30 14 28 16 26 29 24 31
REMARK Flexibility Score: inf
ROOT
ATOM      1  O   UNL     1     264.279 -25.988  53.709  1.00  0.00    -0.458 OA
ENDROOT
BRANCH   1   2
ATOM      2  C   UNL     1     265.570 -26.505  54.062  1.00  0.00     0.339 C 
ATOM      3  C   UNL     1     266.991 -25.688  52.291  1.00  0.00     0.199 C 
ATOM      4  C   UNL     1     266.057 -26.518  51.376  1.00  0.00     0.180 C 
ATOM      5  O   UNL     1     266.608 -25.617  53.665  1.00  0.00    -0.328 OA
ATOM      6  C   UNL     1     265.891 -27.935  51.955  1.00  0.00     0.181 C 
ATOM      7  C   UNL     1     265.743 -27.932  53.501  1.00  0.00     0.214 C 
BRANCH   3   8
ATOM      8  C   UNL     1     267.135 -24.292  51.754  1.00  0.00     0.073 C 
ATOM      9  O   UNL     1     266.422 -23.356  52.206  1.00  0.00    -0.547 OA
ATOM     10  O   UNL     1     268.031 -24.029  50.725  1.00  0.00    -0.547 OA
ENDBRANCH   3   8
BRANCH   4  11
ATOM     11  O   UNL     1     266.611 -26.598  50.088  1.00  0.00    -0.387 OA
ATOM     12  H   UNL     1     267.445 -26.062  50.095  1.00  0.00     0.211 HD
ENDBRANCH   4  11
BRANCH   6  13
ATOM     13  O   UNL     1     264.809 -28.590  51.341  1.00  0.00    -0.387 OA
ATOM     14  H   UNL     1     264.265 -27.901  50.877  1.00  0.00     0.211 HD
ENDBRANCH   6  13
BRANCH   7  15
ATOM     15  O   UNL     1     266.883 -28.524  54.078  1.00  0.00    -0.384 OA
ATOM     16  H   UNL     1     266.782 -28.441  55.062  1.00  0.00     0.211 HD
ENDBRANCH   7  15
ENDBRANCH   1   2
BRANCH   1  17
ATOM     17  C   UNL     1     263.061 -26.551  54.119  1.00  0.00     0.172 A 
ATOM     18  C   UNL     1     262.080 -27.002  53.210  1.00  0.00     0.201 A 
ATOM     19  C   UNL     1     262.826 -26.660  55.490  1.00  0.00     0.098 A 
ATOM     20  C   UNL     1     260.939 -27.680  53.683  1.00  0.00     0.176 A 
ATOM     21  C   UNL     1     261.685 -27.299  55.972  1.00  0.00     0.146 A 
ATOM     22  C   UNL     1     260.737 -27.837  55.075  1.00  0.00     0.111 A 
ATOM     23  O   UNL     1     261.510 -27.400  57.286  1.00  0.00    -0.456 OA
ATOM     24  C   UNL     1     259.620 -28.497  55.627  1.00  0.00     0.197 A 
ATOM     25  C   UNL     1     260.458 -27.997  57.840  1.00  0.00     0.138 A 
ATOM     26  C   UNL     1     259.478 -28.573  57.013  1.00  0.00     0.100 A 
ATOM     27  O   UNL     1     258.739 -29.022  54.895  1.00  0.00    -0.289 OA
BRANCH  18  28
ATOM     28  O   UNL     1     262.183 -26.736  51.844  1.00  0.00    -0.502 OA
ATOM     29  H   UNL     1     262.984 -27.018  51.294  1.00  0.00     0.293 HD
ENDBRANCH  18  28
BRANCH  20  30
ATOM     30  O   UNL     1     259.998 -28.177  52.777  1.00  0.00    -0.504 OA
ATOM     31  H   UNL     1     260.082 -29.088  52.345  1.00  0.00     0.293 HD
ENDBRANCH  20  30
BRANCH  25  32
ATOM     32  C   UNL     1     260.365 -28.043  59.322  1.00  0.00     0.017 A 
ATOM     33  C   UNL     1     259.390 -28.860  59.929  1.00  0.00     0.012 A 
ATOM     34  C   UNL     1     261.246 -27.316  60.146  1.00  0.00     0.012 A 
ATOM     35  C   UNL     1     259.287 -28.929  61.321  1.00  0.00     0.001 A 
ATOM     36  C   UNL     1     261.142 -27.392  61.538  1.00  0.00     0.001 A 
ATOM     37  C   UNL     1     260.163 -28.195  62.125  1.00  0.00     0.000 A 
ENDBRANCH  25  32
ENDBRANCH   1  17
TORSDOF 9
ENDMDL
MODEL 5
REMARK VINA RESULT:    -6.734      7.021     10.392
REMARK INTER + INTRA:         -10.756
REMARK INTER:                  -9.282
REMARK INTRA:                  -1.475
REMARK UNBOUND:                -1.464
REMARK SMILES O=C([O-])[C@H]1O[C@@H](Oc2cc3oc(-c4ccccc4)cc(=O)c3c(O)c2O)[C@H](O)[C@@H](O)[C@@H]1O
REMARK SMILES IDX 7 1 6 2 4 3 31 4 5 5 29 6 27 7 2 8 1 9 3 10 32 11 30 13
REMARK SMILES IDX 28 15 8 17 25 18 9 19 23 20 10 21 22 22 11 23 20 24 12 25
REMARK SMILES IDX 19 26 21 27 26 28 24 30 13 32 14 33 18 34 15 35 17 36 16 37
REMARK H PARENT 32 12 30 14 28 16 26 29 24 31
REMARK Flexibility Score: inf
ROOT
ATOM      1  O   UNL     1     267.528 -33.839  46.209  1.00  0.00    -0.458 OA
ENDROOT
BRANCH   1   2
ATOM      2  C   UNL     1     268.562 -33.551  45.256  1.00  0.00     0.339 C 
ATOM      3  C   UNL     1     267.332 -32.790  43.325  1.00  0.00     0.199 C 
ATOM      4  C   UNL     1     266.701 -34.203  43.368  1.00  0.00     0.180 C 
ATOM      5  O   UNL     1     268.199 -32.465  44.412  1.00  0.00    -0.328 OA
ATOM      6  C   UNL     1     267.813 -35.261  43.495  1.00  0.00     0.181 C 
ATOM      7  C   UNL     1     268.936 -34.828  44.476  1.00  0.00     0.214 C 
BRANCH   3   8
ATOM      8  C   UNL     1     266.255 -31.745  43.233  1.00  0.00     0.073 C 
ATOM      9  O   UNL     1     265.583 -31.610  42.175  1.00  0.00    -0.547 OA
ATOM     10  O   UNL     1     266.018 -30.892  44.305  1.00  0.00    -0.547 OA
ENDBRANCH   3   8
BRANCH   4  11
ATOM     11  O   UNL     1     265.970 -34.429  42.190  1.00  0.00    -0.387 OA
ATOM     12  H   UNL     1     265.034 -34.162  42.373  1.00  0.00     0.211 HD
ENDBRANCH   4  11
BRANCH   6  13
ATOM     13  O   UNL     1     267.265 -36.503  43.865  1.00  0.00    -0.387 OA
ATOM     14  H   UNL     1     266.864 -36.909  43.052  1.00  0.00     0.211 HD
ENDBRANCH   6  13
BRANCH   7  15
ATOM     15  O   UNL     1     270.122 -34.601  43.751  1.00  0.00    -0.384 OA
ATOM     16  H   UNL     1     269.867 -34.090  42.938  1.00  0.00     0.211 HD
ENDBRANCH   7  15
ENDBRANCH   1   2
BRANCH   1  17
ATOM     17  C   UNL     1     267.509 -33.359  47.526  1.00  0.00     0.172 A 
ATOM     18  C   UNL     1     267.281 -32.003  47.845  1.00  0.00     0.201 A 
ATOM     19  C   UNL     1     267.730 -34.277  48.554  1.00  0.00     0.098 A 
ATOM     20  C   UNL     1     267.140 -31.609  49.191  1.00  0.00     0.176 A 
ATOM     21  C   UNL     1     267.625 -33.893  49.890  1.00  0.00     0.146 A 
ATOM     22  C   UNL     1     267.308 -32.559  50.226  1.00  0.00     0.111 A 
ATOM     23  O   UNL     1     267.822 -34.804  50.838  1.00  0.00    -0.456 OA
ATOM     24  C   UNL     1     267.189 -32.244  51.595  1.00  0.00     0.197 A 
ATOM     25  C   UNL     1     267.739 -34.536  52.139  1.00  0.00     0.138 A 
ATOM     26  C   UNL     1     267.409 -33.234  52.554  1.00  0.00     0.100 A 
ATOM     27  O   UNL     1     266.887 -31.082  51.978  1.00  0.00    -0.289 OA
BRANCH  18  28
ATOM     28  O   UNL     1     267.252 -31.022  46.854  1.00  0.00    -0.502 OA
ATOM     29  H   UNL     1     267.434 -30.046  47.048  1.00  0.00     0.293 HD
ENDBRANCH  18  28
BRANCH  20  30
ATOM     30  O   UNL     1     266.856 -30.276  49.501  1.00  0.00    -0.504 OA
ATOM     31  H   UNL     1     267.528 -29.530  49.374  1.00  0.00     0.293 HD
ENDBRANCH  20  30
BRANCH  25  32
ATOM     32  C   UNL     1     267.986 -35.633  53.109  1.00  0.00     0.017 A 
ATOM     33  C   UNL     1     269.261 -35.764  53.695  1.00  0.00     0.012 A 
ATOM     34  C   UNL     1     266.972 -36.534  53.487  1.00  0.00     0.012 A 
ATOM     35  C   UNL     1     269.517 -36.782  54.618  1.00  0.00     0.001 A 
ATOM     36  C   UNL     1     267.232 -37.548  54.415  1.00  0.00     0.001 A 
ATOM     37  C   UNL     1     268.504 -37.673  54.977  1.00  0.00     0.000 A 
ENDBRANCH  25  32
ENDBRANCH   1  17
TORSDOF 9
ENDMDL
MODEL 6
REMARK VINA RESULT:    -6.574      7.729     10.462
REMARK INTER + INTRA:         -10.536
REMARK INTER:                  -9.410
REMARK INTRA:                  -1.127
REMARK UNBOUND:                -1.464
REMARK SMILES O=C([O-])[C@H]1O[C@@H](Oc2cc3oc(-c4ccccc4)cc(=O)c3c(O)c2O)[C@H](O)[C@@H](O)[C@@H]1O
REMARK SMILES IDX 7 1 6 2 4 3 31 4 5 5 29 6 27 7 2 8 1 9 3 10 32 11 30 13
REMARK SMILES IDX 28 15 8 17 25 18 9 19 23 20 10 21 22 22 11 23 20 24 12 25
REMARK SMILES IDX 19 26 21 27 26 28 24 30 13 32 14 33 18 34 15 35 17 36 16 37
REMARK H PARENT 32 12 30 14 28 16 26 29 24 31
REMARK Flexibility Score: inf
ROOT
ATOM      1  O   UNL     1     266.995 -33.502  46.234  1.00  0.00    -0.458 OA
ENDROOT
BRANCH   1   2
ATOM      2  C   UNL     1     267.776 -33.634  45.038  1.00  0.00     0.339 C 
ATOM      3  C   UNL     1     266.598 -35.339  43.801  1.00  0.00     0.199 C 
ATOM      4  C   UNL     1     266.919 -36.226  45.029  1.00  0.00     0.180 C 
ATOM      5  O   UNL     1     266.958 -33.962  43.921  1.00  0.00    -0.328 OA
ATOM      6  C   UNL     1     268.412 -36.097  45.384  1.00  0.00     0.181 C 
ATOM      7  C   UNL     1     268.927 -34.637  45.263  1.00  0.00     0.214 C 
BRANCH   3   8
ATOM      8  C   UNL     1     265.137 -35.432  43.463  1.00  0.00     0.073 C 
ATOM      9  O   UNL     1     264.346 -34.502  43.781  1.00  0.00    -0.547 OA
ATOM     10  O   UNL     1     264.637 -36.564  42.831  1.00  0.00    -0.547 OA
ENDBRANCH   3   8
BRANCH   4  11
ATOM     11  O   UNL     1     266.622 -37.567  44.731  1.00  0.00    -0.387 OA
ATOM     12  H   UNL     1     265.966 -37.561  43.988  1.00  0.00     0.211 HD
ENDBRANCH   4  11
BRANCH   6  13
ATOM     13  O   UNL     1     268.656 -36.618  46.667  1.00  0.00    -0.387 OA
ATOM     14  H   UNL     1     268.519 -35.884  47.322  1.00  0.00     0.211 HD
ENDBRANCH   6  13
BRANCH   7  15
ATOM     15  O   UNL     1     269.835 -34.552  44.190  1.00  0.00    -0.384 OA
ATOM     16  H   UNL     1     269.580 -35.261  43.543  1.00  0.00     0.211 HD
ENDBRANCH   7  15
ENDBRANCH   1   2
BRANCH   1  17
ATOM     17  C   UNL     1     267.514 -33.122  47.481  1.00  0.00     0.172 A 
ATOM     18  C   UNL     1     268.037 -31.835  47.734  1.00  0.00     0.201 A 
ATOM     19  C   UNL     1     267.506 -34.071  48.503  1.00  0.00     0.098 A 
ATOM     20  C   UNL     1     268.418 -31.474  49.042  1.00  0.00     0.176 A 
ATOM     21  C   UNL     1     267.911 -33.736  49.794  1.00  0.00     0.146 A 
ATOM     22  C   UNL     1     268.352 -32.427  50.085  1.00  0.00     0.111 A 
ATOM     23  O   UNL     1     267.868 -34.666  50.743  1.00  0.00    -0.456 OA
ATOM     24  C   UNL     1     268.720 -32.146  51.417  1.00  0.00     0.197 A 
ATOM     25  C   UNL     1     268.228 -34.440  52.005  1.00  0.00     0.138 A 
ATOM     26  C   UNL     1     268.662 -33.156  52.378  1.00  0.00     0.100 A 
ATOM     27  O   UNL     1     269.105 -30.997  51.764  1.00  0.00    -0.289 OA
BRANCH  18  28
ATOM     28  O   UNL     1     268.246 -30.923  46.699  1.00  0.00    -0.502 OA
ATOM     29  H   UNL     1     267.674 -30.099  46.577  1.00  0.00     0.293 HD
ENDBRANCH  18  28
BRANCH  20  30
ATOM     30  O   UNL     1     268.881 -30.181  49.301  1.00  0.00    -0.504 OA
ATOM     31  H   UNL     1     268.300 -29.360  49.192  1.00  0.00     0.293 HD
ENDBRANCH  20  30
BRANCH  25  32
ATOM     32  C   UNL     1     268.145 -35.558  52.979  1.00  0.00     0.017 A 
ATOM     33  C   UNL     1     266.929 -36.253  53.133  1.00  0.00     0.012 A 
ATOM     34  C   UNL     1     269.258 -35.968  53.738  1.00  0.00     0.012 A 
ATOM     35  C   UNL     1     266.826 -37.315  54.035  1.00  0.00     0.001 A 
ATOM     36  C   UNL     1     269.151 -37.034  54.637  1.00  0.00     0.001 A 
ATOM     37  C   UNL     1     267.937 -37.705  54.787  1.00  0.00     0.000 A 
ENDBRANCH  25  32
ENDBRANCH   1  17
TORSDOF 9
ENDMDL
MODEL 7
REMARK VINA RESULT:    -6.558      1.461      2.632
REMARK INTER + INTRA:         -10.514
REMARK INTER:                  -8.975
REMARK INTRA:                  -1.539
REMARK UNBOUND:                -1.464
REMARK SMILES O=C([O-])[C@H]1O[C@@H](Oc2cc3oc(-c4ccccc4)cc(=O)c3c(O)c2O)[C@H](O)[C@@H](O)[C@@H]1O
REMARK SMILES IDX 7 1 6 2 4 3 31 4 5 5 29 6 27 7 2 8 1 9 3 10 32 11 30 13
REMARK SMILES IDX 28 15 8 17 25 18 9 19 23 20 10 21 22 22 11 23 20 24 12 25
REMARK SMILES IDX 19 26 21 27 26 28 24 30 13 32 14 33 18 34 15 35 17 36 16 37
REMARK H PARENT 32 12 30 14 28 16 26 29 24 31
REMARK Flexibility Score: inf
ROOT
ATOM      1  O   UNL     1     265.538 -29.178  54.062  1.00  0.00    -0.458 OA
ENDROOT
BRANCH   1   2
ATOM      2  C   UNL     1     266.714 -29.991  54.184  1.00  0.00     0.339 C 
ATOM      3  C   UNL     1     267.803 -29.705  52.049  1.00  0.00     0.199 C 
ATOM      4  C   UNL     1     266.499 -30.320  51.482  1.00  0.00     0.180 C 
ATOM      5  O   UNL     1     267.802 -29.439  53.452  1.00  0.00    -0.328 OA
ATOM      6  C   UNL     1     266.148 -31.599  52.264  1.00  0.00     0.181 C 
ATOM      7  C   UNL     1     266.394 -31.449  53.790  1.00  0.00     0.214 C 
BRANCH   3   8
ATOM      8  C   UNL     1     268.139 -28.438  51.315  1.00  0.00     0.073 C 
ATOM      9  O   UNL     1     267.834 -27.316  51.802  1.00  0.00    -0.547 OA
ATOM     10  O   UNL     1     268.755 -28.495  50.070  1.00  0.00    -0.547 OA
ENDBRANCH   3   8
BRANCH   4  11
ATOM     11  O   UNL     1     266.679 -30.634  50.124  1.00  0.00    -0.387 OA
ATOM     12  H   UNL     1     266.826 -31.613  50.069  1.00  0.00     0.211 HD
ENDBRANCH   4  11
BRANCH   6  13
ATOM     13  O   UNL     1     264.823 -31.986  51.998  1.00  0.00    -0.387 OA
ATOM     14  H   UNL     1     264.446 -32.367  52.835  1.00  0.00     0.211 HD
ENDBRANCH   6  13
BRANCH   7  15
ATOM     15  O   UNL     1     267.466 -32.280  54.171  1.00  0.00    -0.384 OA
ATOM     16  H   UNL     1     268.097 -31.713  54.688  1.00  0.00     0.211 HD
ENDBRANCH   7  15
ENDBRANCH   1   2
BRANCH   1  17
ATOM     17  C   UNL     1     265.151 -28.202  54.991  1.00  0.00     0.172 A 
ATOM     18  C   UNL     1     265.670 -26.889  54.986  1.00  0.00     0.201 A 
ATOM     19  C   UNL     1     264.211 -28.563  55.957  1.00  0.00     0.098 A 
ATOM     20  C   UNL     1     265.141 -25.918  55.861  1.00  0.00     0.176 A 
ATOM     21  C   UNL     1     263.703 -27.620  56.849  1.00  0.00     0.146 A 
ATOM     22  C   UNL     1     264.145 -26.281  56.799  1.00  0.00     0.111 A 
ATOM     23  O   UNL     1     262.793 -28.002  57.740  1.00  0.00    -0.456 OA
ATOM     24  C   UNL     1     263.571 -25.370  57.710  1.00  0.00     0.197 A 
ATOM     25  C   UNL     1     262.247 -27.175  58.628  1.00  0.00     0.138 A 
ATOM     26  C   UNL     1     262.622 -25.820  58.629  1.00  0.00     0.100 A 
ATOM     27  O   UNL     1     263.895 -24.153  57.716  1.00  0.00    -0.289 OA
BRANCH  18  28
ATOM     28  O   UNL     1     266.748 -26.540  54.172  1.00  0.00    -0.502 OA
ATOM     29  H   UNL     1     267.544 -26.021  54.516  1.00  0.00     0.293 HD
ENDBRANCH  18  28
BRANCH  20  30
ATOM     30  O   UNL     1     265.616 -24.605  55.814  1.00  0.00    -0.504 OA
ATOM     31  H   UNL     1     266.592 -24.372  55.948  1.00  0.00     0.293 HD
ENDBRANCH  20  30
BRANCH  25  32
ATOM     32  C   UNL     1     261.244 -27.715  59.581  1.00  0.00     0.017 A 
ATOM     33  C   UNL     1     260.161 -28.472  59.091  1.00  0.00     0.012 A 
ATOM     34  C   UNL     1     261.358 -27.520  60.971  1.00  0.00     0.012 A 
ATOM     35  C   UNL     1     259.209 -29.001  59.967  1.00  0.00     0.001 A 
ATOM     36  C   UNL     1     260.405 -28.055  61.844  1.00  0.00     0.001 A 
ATOM     37  C   UNL     1     259.331 -28.792  61.342  1.00  0.00     0.000 A 
ENDBRANCH  25  32
ENDBRANCH   1  17
TORSDOF 9
ENDMDL
MODEL 8
REMARK VINA RESULT:    -6.522      3.494      7.052
REMARK INTER + INTRA:         -10.465
REMARK INTER:                  -9.003
REMARK INTRA:                  -1.461
REMARK UNBOUND:                -1.464
REMARK SMILES O=C([O-])[C@H]1O[C@@H](Oc2cc3oc(-c4ccccc4)cc(=O)c3c(O)c2O)[C@H](O)[C@@H](O)[C@@H]1O
REMARK SMILES IDX 7 1 6 2 4 3 31 4 5 5 29 6 27 7 2 8 1 9 3 10 32 11 30 13
REMARK SMILES IDX 28 15 8 17 25 18 9 19 23 20 10 21 22 22 11 23 20 24 12 25
REMARK SMILES IDX 19 26 21 27 26 28 24 30 13 32 14 33 18 34 15 35 17 36 16 37
REMARK H PARENT 32 12 30 14 28 16 26 29 24 31
REMARK Flexibility Score: inf
ROOT
ATOM      1  O   UNL     1     264.000 -23.591  54.036  1.00  0.00    -0.458 OA
ENDROOT
BRANCH   1   2
ATOM      2  C   UNL     1     264.370 -22.413  54.767  1.00  0.00     0.339 C 
ATOM      3  C   UNL     1     265.331 -20.992  53.070  1.00  0.00     0.199 C 
ATOM      4  C   UNL     1     266.350 -22.146  52.907  1.00  0.00     0.180 C 
ATOM      5  O   UNL     1     264.246 -21.245  53.964  1.00  0.00    -0.328 OA
ATOM      6  C   UNL     1     266.888 -22.560  54.290  1.00  0.00     0.181 C 
ATOM      7  C   UNL     1     265.778 -22.586  55.375  1.00  0.00     0.214 C 
BRANCH   3   8
ATOM      8  C   UNL     1     264.774 -20.601  51.730  1.00  0.00     0.073 C 
ATOM      9  O   UNL     1     265.194 -21.153  50.677  1.00  0.00    -0.547 OA
ATOM     10  O   UNL     1     263.818 -19.597  51.638  1.00  0.00    -0.547 OA
ENDBRANCH   3   8
BRANCH   4  11
ATOM     11  O   UNL     1     267.417 -21.721  52.097  1.00  0.00    -0.387 OA
ATOM     12  H   UNL     1     268.103 -22.437  52.119  1.00  0.00     0.211 HD
ENDBRANCH   4  11
BRANCH   6  13
ATOM     13  O   UNL     1     267.548 -23.798  54.207  1.00  0.00    -0.387 OA
ATOM     14  H   UNL     1     267.978 -23.970  55.085  1.00  0.00     0.211 HD
ENDBRANCH   6  13
BRANCH   7  15
ATOM     15  O   UNL     1     266.013 -21.554  56.305  1.00  0.00    -0.384 OA
ATOM     16  H   UNL     1     265.155 -21.067  56.415  1.00  0.00     0.211 HD
ENDBRANCH   7  15
ENDBRANCH   1   2
BRANCH   1  17
ATOM     17  C   UNL     1     263.915 -24.875  54.593  1.00  0.00     0.172 A 
ATOM     18  C   UNL     1     264.785 -25.927  54.231  1.00  0.00     0.201 A 
ATOM     19  C   UNL     1     262.920 -25.105  55.543  1.00  0.00     0.098 A 
ATOM     20  C   UNL     1     264.734 -27.153  54.924  1.00  0.00     0.176 A 
ATOM     21  C   UNL     1     262.839 -26.325  56.212  1.00  0.00     0.146 A 
ATOM     22  C   UNL     1     263.758 -27.357  55.927  1.00  0.00     0.111 A 
ATOM     23  O   UNL     1     261.888 -26.495  57.126  1.00  0.00    -0.456 OA
ATOM     24  C   UNL     1     263.639 -28.556  56.660  1.00  0.00     0.197 A 
ATOM     25  C   UNL     1     261.734 -27.620  57.821  1.00  0.00     0.138 A 
ATOM     26  C   UNL     1     262.622 -28.688  57.607  1.00  0.00     0.100 A 
ATOM     27  O   UNL     1     264.433 -29.518  56.482  1.00  0.00    -0.289 OA
BRANCH  18  28
ATOM     28  O   UNL     1     265.661 -25.802  53.152  1.00  0.00    -0.502 OA
ATOM     29  H   UNL     1     266.005 -24.908  52.831  1.00  0.00     0.293 HD
ENDBRANCH  18  28
BRANCH  20  30
ATOM     30  O   UNL     1     265.635 -28.172  54.603  1.00  0.00    -0.504 OA
ATOM     31  H   UNL     1     266.017 -28.803  55.296  1.00  0.00     0.293 HD
ENDBRANCH  20  30
BRANCH  25  32
ATOM     32  C   UNL     1     260.630 -27.699  58.812  1.00  0.00     0.017 A 
ATOM     33  C   UNL     1     259.468 -28.429  58.497  1.00  0.00     0.012 A 
ATOM     34  C   UNL     1     260.723 -27.088  60.078  1.00  0.00     0.012 A 
ATOM     35  C   UNL     1     258.419 -28.528  59.415  1.00  0.00     0.001 A 
ATOM     36  C   UNL     1     259.672 -27.193  60.995  1.00  0.00     0.001 A 
ATOM     37  C   UNL     1     258.521 -27.909  60.663  1.00  0.00     0.000 A 
ENDBRANCH  25  32
ENDBRANCH   1  17
TORSDOF 9
ENDMDL
MODEL 9
REMARK VINA RESULT:    -4.329     13.151     16.653
REMARK INTER + INTRA:          -7.438
REMARK INTER:                  -5.953
REMARK INTRA:                  -1.485
REMARK UNBOUND:                -1.464
REMARK SMILES O=C([O-])[C@H]1O[C@@H](Oc2cc3oc(-c4ccccc4)cc(=O)c3c(O)c2O)[C@H](O)[C@@H](O)[C@@H]1O
REMARK SMILES IDX 7 1 6 2 4 3 31 4 5 5 29 6 27 7 2 8 1 9 3 10 32 11 30 13
REMARK SMILES IDX 28 15 8 17 25 18 9 19 23 20 10 21 22 22 11 23 20 24 12 25
REMARK SMILES IDX 19 26 21 27 26 28 24 30 13 32 14 33 18 34 15 35 17 36 16 37
REMARK H PARENT 32 12 30 14 28 16 26 29 24 31
REMARK Flexibility Score: inf
ROOT
ATOM      1  O   UNL     1     253.342 -24.798  50.377  1.00  0.00    -0.458 OA
ENDROOT
BRANCH   1   2
ATOM      2  C   UNL     1     253.894 -23.652  51.039  1.00  0.00     0.339 C 
ATOM      3  C   UNL     1     253.142 -23.918  53.317  1.00  0.00     0.199 C 
ATOM      4  C   UNL     1     251.728 -23.836  52.690  1.00  0.00     0.180 C 
ATOM      5  O   UNL     1     254.229 -23.946  52.391  1.00  0.00    -0.328 OA
ATOM      6  C   UNL     1     251.652 -22.622  51.745  1.00  0.00     0.181 C 
ATOM      7  C   UNL     1     252.941 -22.447  50.898  1.00  0.00     0.214 C 
BRANCH   3   8
ATOM      8  C   UNL     1     253.240 -25.118  54.217  1.00  0.00     0.073 C 
ATOM      9  O   UNL     1     253.004 -25.013  55.451  1.00  0.00    -0.547 OA
ATOM     10  O   UNL     1     253.629 -26.348  53.700  1.00  0.00    -0.547 OA
ENDBRANCH   3   8
BRANCH   4  11
ATOM     11  O   UNL     1     250.770 -23.699  53.709  1.00  0.00    -0.387 OA
ATOM     12  H   UNL     1     251.069 -24.262  54.468  1.00  0.00     0.211 HD
ENDBRANCH   4  11
BRANCH   6  13
ATOM     13  O   UNL     1     250.513 -22.713  50.926  1.00  0.00    -0.387 OA
ATOM     14  H   UNL     1     250.045 -23.559  51.152  1.00  0.00     0.211 HD
ENDBRANCH   6  13
BRANCH   7  15
ATOM     15  O   UNL     1     253.608 -21.275  51.306  1.00  0.00    -0.384 OA
ATOM     16  H   UNL     1     253.014 -20.821  51.960  1.00  0.00     0.211 HD
ENDBRANCH   7  15
ENDBRANCH   1   2
BRANCH   1  17
ATOM     17  C   UNL     1     252.932 -24.817  49.036  1.00  0.00     0.172 A 
ATOM     18  C   UNL     1     251.579 -24.932  48.650  1.00  0.00     0.201 A 
ATOM     19  C   UNL     1     253.919 -24.719  48.055  1.00  0.00     0.098 A 
ATOM     20  C   UNL     1     251.221 -24.809  47.292  1.00  0.00     0.176 A 
ATOM     21  C   UNL     1     253.579 -24.629  46.706  1.00  0.00     0.146 A 
ATOM     22  C   UNL     1     252.225 -24.651  46.308  1.00  0.00     0.111 A 
ATOM     23  O   UNL     1     254.550 -24.516  45.804  1.00  0.00    -0.456 OA
ATOM     24  C   UNL     1     251.948 -24.527  44.931  1.00  0.00     0.197 A 
ATOM     25  C   UNL     1     254.326 -24.418  44.496  1.00  0.00     0.138 A 
ATOM     26  C   UNL     1     253.002 -24.415  44.023  1.00  0.00     0.100 A 
ATOM     27  O   UNL     1     250.766 -24.517  44.496  1.00  0.00    -0.289 OA
BRANCH  18  28
ATOM     28  O   UNL     1     250.583 -25.229  49.581  1.00  0.00    -0.502 OA
ATOM     29  H   UNL     1     250.217 -24.539  50.224  1.00  0.00     0.293 HD
ENDBRANCH  18  28
BRANCH  20  30
ATOM     30  O   UNL     1     249.875 -24.865  46.919  1.00  0.00    -0.504 OA
ATOM     31  H   UNL     1     249.578 -24.957  45.956  1.00  0.00     0.293 HD
ENDBRANCH  20  30
BRANCH  25  32
ATOM     32  C   UNL     1     255.490 -24.303  43.581  1.00  0.00     0.017 A 
ATOM     33  C   UNL     1     255.934 -23.026  43.183  1.00  0.00     0.012 A 
ATOM     34  C   UNL     1     256.189 -25.436  43.120  1.00  0.00     0.012 A 
ATOM     35  C   UNL     1     257.033 -22.889  42.330  1.00  0.00     0.001 A 
ATOM     36  C   UNL     1     257.291 -25.293  42.271  1.00  0.00     0.001 A 
ATOM     37  C   UNL     1     257.710 -24.022  41.875  1.00  0.00     0.000 A 
ENDBRANCH  25  32
ENDBRANCH   1  17
TORSDOF 9
ENDMDL
