MODEL 1
REMARK VINA RESULT:    -6.315      0.000      0.000
REMARK INTER + INTRA:          -7.864
REMARK INTER:                  -7.607
REMARK INTRA:                  -0.257
REMARK UNBOUND:                -0.257
REMARK SMILES O=c1c(O)c(-c2ccc(O)c(O)c2)oc2cc(O)cc(O)c12
REMARK SMILES IDX 5 1 3 2 2 3 1 4 22 5 20 6 19 7 17 8 16 9 15 10 14 11 6 12
REMARK SMILES IDX 7 13 8 14 9 15 13 16 11 17 10 18 12 20 4 22 21 24 18 26
REMARK H PARENT 10 19 12 21 4 23 21 25 18 27
REMARK Flexibility Score: inf
ROOT
ATOM      1  C   UNL     1      27.287  -3.456  35.435  1.00  0.00     0.180 A 
ATOM      2  C   UNL     1      26.510  -2.647  36.287  1.00  0.00     0.208 A 
ATOM      3  C   UNL     1      25.130  -2.885  36.373  1.00  0.00     0.238 A 
ATOM      4  O   UNL     1      24.422  -2.161  37.125  1.00  0.00    -0.285 OA
ATOM      5  C   UNL     1      24.555  -3.934  35.627  1.00  0.00     0.111 A 
ATOM      6  C   UNL     1      23.173  -4.241  35.661  1.00  0.00     0.134 A 
ATOM      7  C   UNL     1      22.679  -5.308  34.895  1.00  0.00     0.093 A 
ATOM      8  C   UNL     1      23.536  -6.070  34.098  1.00  0.00     0.123 A 
ATOM      9  C   UNL     1      24.902  -5.771  34.060  1.00  0.00     0.094 A 
ATOM     10  C   UNL     1      25.414  -4.711  34.815  1.00  0.00     0.146 A 
ATOM     11  O   UNL     1      26.714  -4.445  34.757  1.00  0.00    -0.452 OA
ENDROOT
BRANCH   1  12
ATOM     12  C   UNL     1      28.746  -3.255  35.275  1.00  0.00     0.025 A 
ATOM     13  C   UNL     1      29.234  -2.622  34.121  1.00  0.00     0.016 A 
ATOM     14  C   UNL     1      30.604  -2.403  33.959  1.00  0.00     0.051 A 
ATOM     15  C   UNL     1      31.506  -2.801  34.955  1.00  0.00     0.157 A 
ATOM     16  C   UNL     1      29.653  -3.635  36.281  1.00  0.00     0.062 A 
ATOM     17  C   UNL     1      31.026  -3.416  36.124  1.00  0.00     0.158 A 
BRANCH  15  18
ATOM     18  O   UNL     1      32.873  -2.583  34.789  1.00  0.00    -0.504 OA
ATOM     19  H   UNL     1      33.559  -3.056  35.364  1.00  0.00     0.293 HD
ENDBRANCH  15  18
BRANCH  17  20
ATOM     20  O   UNL     1      31.897  -3.810  37.139  1.00  0.00    -0.504 OA
ATOM     21  H   UNL     1      31.848  -4.728  37.563  1.00  0.00     0.293 HD
ENDBRANCH  17  20
ENDBRANCH   1  12
BRANCH   2  22
ATOM     22  O   UNL     1      27.113  -1.647  37.055  1.00  0.00    -0.502 OA
ATOM     23  H   UNL     1      27.621  -0.876  36.638  1.00  0.00     0.293 HD
ENDBRANCH   2  22
BRANCH   6  24
ATOM     24  O   UNL     1      22.291  -3.499  36.447  1.00  0.00    -0.507 OA
ATOM     25  H   UNL     1      22.593  -2.679  36.958  1.00  0.00     0.293 HD
ENDBRANCH   6  24
BRANCH   8  26
ATOM     26  O   UNL     1      23.019  -7.125  33.348  1.00  0.00    -0.508 OA
ATOM     27  H   UNL     1      23.536  -7.987  33.220  1.00  0.00     0.293 HD
ENDBRANCH   8  26
TORSDOF 6
ENDMDL
MODEL 2
REMARK VINA RESULT:    -6.167      7.319      9.281
REMARK INTER + INTRA:          -7.686
REMARK INTER:                  -7.429
REMARK INTRA:                  -0.256
REMARK UNBOUND:                -0.257
REMARK SMILES O=c1c(O)c(-c2ccc(O)c(O)c2)oc2cc(O)cc(O)c12
REMARK SMILES IDX 5 1 3 2 2 3 1 4 22 5 20 6 19 7 17 8 16 9 15 10 14 11 6 12
REMARK SMILES IDX 7 13 8 14 9 15 13 16 11 17 10 18 12 20 4 22 21 24 18 26
REMARK H PARENT 10 19 12 21 4 23 21 25 18 27
REMARK Flexibility Score: inf
ROOT
ATOM      1  C   UNL     1      26.731  -0.460  42.971  1.00  0.00     0.180 A 
ATOM      2  C   UNL     1      25.997   0.559  43.610  1.00  0.00     0.208 A 
ATOM      3  C   UNL     1      25.635   1.698  42.873  1.00  0.00     0.238 A 
ATOM      4  O   UNL     1      24.987   2.620  43.437  1.00  0.00    -0.285 OA
ATOM      5  C   UNL     1      25.994   1.790  41.513  1.00  0.00     0.111 A 
ATOM      6  C   UNL     1      25.665   2.903  40.700  1.00  0.00     0.134 A 
ATOM      7  C   UNL     1      26.051   2.916  39.351  1.00  0.00     0.093 A 
ATOM      8  C   UNL     1      26.756   1.844  38.801  1.00  0.00     0.123 A 
ATOM      9  C   UNL     1      27.084   0.743  39.599  1.00  0.00     0.094 A 
ATOM     10  C   UNL     1      26.711   0.711  40.946  1.00  0.00     0.146 A 
ATOM     11  O   UNL     1      27.039  -0.344  41.683  1.00  0.00    -0.452 OA
ENDROOT
BRANCH   1  12
ATOM     12  C   UNL     1      27.165  -1.682  43.685  1.00  0.00     0.025 A 
ATOM     13  C   UNL     1      28.215  -1.603  44.613  1.00  0.00     0.016 A 
ATOM     14  C   UNL     1      28.627  -2.740  45.313  1.00  0.00     0.051 A 
ATOM     15  C   UNL     1      27.986  -3.969  45.107  1.00  0.00     0.157 A 
ATOM     16  C   UNL     1      26.511  -2.913  43.496  1.00  0.00     0.062 A 
ATOM     17  C   UNL     1      26.919  -4.053  44.197  1.00  0.00     0.158 A 
BRANCH  15  18
ATOM     18  O   UNL     1      28.401  -5.101  45.806  1.00  0.00    -0.504 OA
ATOM     19  H   UNL     1      28.812  -5.034  46.730  1.00  0.00     0.293 HD
ENDBRANCH  15  18
BRANCH  17  20
ATOM     20  O   UNL     1      26.252  -5.258  43.981  1.00  0.00    -0.504 OA
ATOM     21  H   UNL     1      25.253  -5.298  43.816  1.00  0.00     0.293 HD
ENDBRANCH  17  20
ENDBRANCH   1  12
BRANCH   2  22
ATOM     22  O   UNL     1      25.610   0.419  44.946  1.00  0.00    -0.502 OA
ATOM     23  H   UNL     1      26.241   0.608  45.715  1.00  0.00     0.293 HD
ENDBRANCH   2  22
BRANCH   6  24
ATOM     24  O   UNL     1      24.961   3.990  41.220  1.00  0.00    -0.507 OA
ATOM     25  H   UNL     1      24.626   4.740  40.628  1.00  0.00     0.293 HD
ENDBRANCH   6  24
BRANCH   8  26
ATOM     26  O   UNL     1      27.126   1.883  37.458  1.00  0.00    -0.508 OA
ATOM     27  H   UNL     1      26.742   1.231  36.783  1.00  0.00     0.293 HD
ENDBRANCH   8  26
TORSDOF 6
ENDMDL
MODEL 3
REMARK VINA RESULT:    -5.976      1.175      2.905
REMARK INTER + INTRA:          -7.455
REMARK INTER:                  -7.144
REMARK INTRA:                  -0.312
REMARK UNBOUND:                -0.257
REMARK SMILES O=c1c(O)c(-c2ccc(O)c(O)c2)oc2cc(O)cc(O)c12
REMARK SMILES IDX 5 1 3 2 2 3 1 4 22 5 20 6 19 7 17 8 16 9 15 10 14 11 6 12
REMARK SMILES IDX 7 13 8 14 9 15 13 16 11 17 10 18 12 20 4 22 21 24 18 26
REMARK H PARENT 10 19 12 21 4 23 21 25 18 27
REMARK Flexibility Score: inf
ROOT
ATOM      1  C   UNL     1      27.620  -4.357  34.657  1.00  0.00     0.180 A 
ATOM      2  C   UNL     1      27.309  -5.558  33.991  1.00  0.00     0.208 A 
ATOM      3  C   UNL     1      25.985  -6.024  34.019  1.00  0.00     0.238 A 
ATOM      4  O   UNL     1      25.696  -7.104  33.435  1.00  0.00    -0.285 OA
ATOM      5  C   UNL     1      24.997  -5.277  34.691  1.00  0.00     0.111 A 
ATOM      6  C   UNL     1      23.640  -5.676  34.763  1.00  0.00     0.134 A 
ATOM      7  C   UNL     1      22.714  -4.871  35.444  1.00  0.00     0.093 A 
ATOM      8  C   UNL     1      23.116  -3.680  36.053  1.00  0.00     0.123 A 
ATOM      9  C   UNL     1      24.455  -3.282  35.985  1.00  0.00     0.094 A 
ATOM     10  C   UNL     1      25.394  -4.070  35.313  1.00  0.00     0.146 A 
ATOM     11  O   UNL     1      26.660  -3.671  35.269  1.00  0.00    -0.452 OA
ENDROOT
BRANCH   1  12
ATOM     12  C   UNL     1      28.997  -3.809  34.689  1.00  0.00     0.025 A 
ATOM     13  C   UNL     1      29.448  -3.013  33.625  1.00  0.00     0.016 A 
ATOM     14  C   UNL     1      30.734  -2.469  33.644  1.00  0.00     0.051 A 
ATOM     15  C   UNL     1      31.584  -2.700  34.734  1.00  0.00     0.157 A 
ATOM     16  C   UNL     1      29.844  -4.023  35.791  1.00  0.00     0.062 A 
ATOM     17  C   UNL     1      31.134  -3.477  35.815  1.00  0.00     0.158 A 
BRANCH  15  18
ATOM     18  O   UNL     1      32.867  -2.158  34.749  1.00  0.00    -0.504 OA
ATOM     19  H   UNL     1      33.598  -2.506  34.139  1.00  0.00     0.293 HD
ENDBRANCH  15  18
BRANCH  17  20
ATOM     20  O   UNL     1      31.949  -3.714  36.920  1.00  0.00    -0.504 OA
ATOM     21  H   UNL     1      32.778  -4.293  36.864  1.00  0.00     0.293 HD
ENDBRANCH  17  20
ENDBRANCH   1  12
BRANCH   2  22
ATOM     22  O   UNL     1      28.297  -6.254  33.289  1.00  0.00    -0.502 OA
ATOM     23  H   UNL     1      28.128  -7.160  32.869  1.00  0.00     0.293 HD
ENDBRANCH   2  22
BRANCH   6  24
ATOM     24  O   UNL     1      23.206  -6.860  34.165  1.00  0.00    -0.507 OA
ATOM     25  H   UNL     1      23.257  -7.749  34.646  1.00  0.00     0.293 HD
ENDBRANCH   6  24
BRANCH   8  26
ATOM     26  O   UNL     1      22.176  -2.900  36.723  1.00  0.00    -0.508 OA
ATOM     27  H   UNL     1      21.666  -2.163  36.249  1.00  0.00     0.293 HD
ENDBRANCH   8  26
TORSDOF 6
ENDMDL
MODEL 4
REMARK VINA RESULT:    -5.399      8.002      9.732
REMARK INTER + INTRA:          -6.761
REMARK INTER:                  -6.515
REMARK INTRA:                  -0.246
REMARK UNBOUND:                -0.257
REMARK SMILES O=c1c(O)c(-c2ccc(O)c(O)c2)oc2cc(O)cc(O)c12
REMARK SMILES IDX 5 1 3 2 2 3 1 4 22 5 20 6 19 7 17 8 16 9 15 10 14 11 6 12
REMARK SMILES IDX 7 13 8 14 9 15 13 16 11 17 10 18 12 20 4 22 21 24 18 26
REMARK H PARENT 10 19 12 21 4 23 21 25 18 27
REMARK Flexibility Score: inf
ROOT
ATOM      1  C   UNL     1      26.853  -1.628  43.719  1.00  0.00     0.180 A 
ATOM      2  C   UNL     1      27.992  -1.776  44.535  1.00  0.00     0.208 A 
ATOM      3  C   UNL     1      28.208  -3.005  45.178  1.00  0.00     0.238 A 
ATOM      4  O   UNL     1      29.219  -3.147  45.919  1.00  0.00    -0.285 OA
ATOM      5  C   UNL     1      27.300  -4.065  44.981  1.00  0.00     0.111 A 
ATOM      6  C   UNL     1      27.448  -5.335  45.591  1.00  0.00     0.134 A 
ATOM      7  C   UNL     1      26.505  -6.342  45.336  1.00  0.00     0.093 A 
ATOM      8  C   UNL     1      25.421  -6.105  44.489  1.00  0.00     0.123 A 
ATOM      9  C   UNL     1      25.269  -4.853  43.885  1.00  0.00     0.094 A 
ATOM     10  C   UNL     1      26.196  -3.835  44.127  1.00  0.00     0.146 A 
ATOM     11  O   UNL     1      26.026  -2.654  43.544  1.00  0.00    -0.452 OA
ENDROOT
BRANCH   1  12
ATOM     12  C   UNL     1      26.545  -0.358  43.022  1.00  0.00     0.025 A 
ATOM     13  C   UNL     1      26.090   0.744  43.763  1.00  0.00     0.016 A 
ATOM     14  C   UNL     1      25.814   1.958  43.130  1.00  0.00     0.051 A 
ATOM     15  C   UNL     1      26.003   2.093  41.748  1.00  0.00     0.157 A 
ATOM     16  C   UNL     1      26.754  -0.212  41.639  1.00  0.00     0.062 A 
ATOM     17  C   UNL     1      26.480   1.004  41.000  1.00  0.00     0.158 A 
BRANCH  15  18
ATOM     18  O   UNL     1      25.725   3.305  41.119  1.00  0.00    -0.504 OA
ATOM     19  H   UNL     1      25.523   4.145  41.649  1.00  0.00     0.293 HD
ENDBRANCH  15  18
BRANCH  17  20
ATOM     20  O   UNL     1      26.692   1.111  39.627  1.00  0.00    -0.504 OA
ATOM     21  H   UNL     1      25.927   1.153  38.965  1.00  0.00     0.293 HD
ENDBRANCH  17  20
ENDBRANCH   1  12
BRANCH   2  22
ATOM     22  O   UNL     1      28.903  -0.726  44.673  1.00  0.00    -0.502 OA
ATOM     23  H   UNL     1      29.862  -0.794  44.352  1.00  0.00     0.293 HD
ENDBRANCH   2  22
BRANCH   6  24
ATOM     24  O   UNL     1      28.521  -5.603  46.441  1.00  0.00    -0.507 OA
ATOM     25  H   UNL     1      28.713  -6.538  46.778  1.00  0.00     0.293 HD
ENDBRANCH   6  24
BRANCH   8  26
ATOM     26  O   UNL     1      24.498  -7.123  44.254  1.00  0.00    -0.508 OA
ATOM     27  H   UNL     1      24.158  -7.325  43.320  1.00  0.00     0.293 HD
ENDBRANCH   8  26
TORSDOF 6
ENDMDL
MODEL 5
REMARK VINA RESULT:    -5.354      1.840      3.145
REMARK INTER + INTRA:          -6.707
REMARK INTER:                  -6.380
REMARK INTRA:                  -0.328
REMARK UNBOUND:                -0.257
REMARK SMILES O=c1c(O)c(-c2ccc(O)c(O)c2)oc2cc(O)cc(O)c12
REMARK SMILES IDX 5 1 3 2 2 3 1 4 22 5 20 6 19 7 17 8 16 9 15 10 14 11 6 12
REMARK SMILES IDX 7 13 8 14 9 15 13 16 11 17 10 18 12 20 4 22 21 24 18 26
REMARK H PARENT 10 19 12 21 4 23 21 25 18 27
REMARK Flexibility Score: inf
ROOT
ATOM      1  C   UNL     1      27.464  -4.708  35.728  1.00  0.00     0.180 A 
ATOM      2  C   UNL     1      26.647  -5.854  35.784  1.00  0.00     0.208 A 
ATOM      3  C   UNL     1      25.268  -5.693  35.988  1.00  0.00     0.238 A 
ATOM      4  O   UNL     1      24.528  -6.712  36.050  1.00  0.00    -0.285 OA
ATOM      5  C   UNL     1      24.728  -4.397  36.112  1.00  0.00     0.111 A 
ATOM      6  C   UNL     1      23.348  -4.150  36.316  1.00  0.00     0.134 A 
ATOM      7  C   UNL     1      22.888  -2.828  36.421  1.00  0.00     0.093 A 
ATOM      8  C   UNL     1      23.775  -1.754  36.326  1.00  0.00     0.123 A 
ATOM      9  C   UNL     1      25.138  -1.993  36.125  1.00  0.00     0.094 A 
ATOM     10  C   UNL     1      25.618  -3.302  36.020  1.00  0.00     0.146 A 
ATOM     11  O   UNL     1      26.918  -3.500  35.834  1.00  0.00    -0.452 OA
ENDROOT
BRANCH   1  12
ATOM     12  C   UNL     1      28.930  -4.796  35.534  1.00  0.00     0.025 A 
ATOM     13  C   UNL     1      29.469  -4.606  34.252  1.00  0.00     0.016 A 
ATOM     14  C   UNL     1      30.850  -4.664  34.050  1.00  0.00     0.051 A 
ATOM     15  C   UNL     1      31.714  -4.896  35.129  1.00  0.00     0.157 A 
ATOM     16  C   UNL     1      29.801  -5.008  36.618  1.00  0.00     0.062 A 
ATOM     17  C   UNL     1      31.185  -5.064  36.420  1.00  0.00     0.158 A 
BRANCH  15  18
ATOM     18  O   UNL     1      33.091  -4.954  34.923  1.00  0.00    -0.504 OA
ATOM     19  H   UNL     1      33.740  -5.039  35.696  1.00  0.00     0.293 HD
ENDBRANCH  15  18
BRANCH  17  20
ATOM     20  O   UNL     1      32.019  -5.283  37.515  1.00  0.00    -0.504 OA
ATOM     21  H   UNL     1      32.999  -5.513  37.409  1.00  0.00     0.293 HD
ENDBRANCH  17  20
ENDBRANCH   1  12
BRANCH   2  22
ATOM     22  O   UNL     1      27.201  -7.125  35.607  1.00  0.00    -0.502 OA
ATOM     23  H   UNL     1      27.618  -7.645  36.369  1.00  0.00     0.293 HD
ENDBRANCH   2  22
BRANCH   6  24
ATOM     24  O   UNL     1      22.436  -5.201  36.414  1.00  0.00    -0.507 OA
ATOM     25  H   UNL     1      21.443  -5.036  36.518  1.00  0.00     0.293 HD
ENDBRANCH   6  24
BRANCH   8  26
ATOM     26  O   UNL     1      23.290  -0.452  36.433  1.00  0.00    -0.508 OA
ATOM     27  H   UNL     1      23.638   0.186  37.139  1.00  0.00     0.293 HD
ENDBRANCH   8  26
TORSDOF 6
ENDMDL
MODEL 6
REMARK VINA RESULT:    -5.287      8.090     10.471
REMARK INTER + INTRA:          -6.626
REMARK INTER:                  -6.303
REMARK INTRA:                  -0.323
REMARK UNBOUND:                -0.257
REMARK SMILES O=c1c(O)c(-c2ccc(O)c(O)c2)oc2cc(O)cc(O)c12
REMARK SMILES IDX 5 1 3 2 2 3 1 4 22 5 20 6 19 7 17 8 16 9 15 10 14 11 6 12
REMARK SMILES IDX 7 13 8 14 9 15 13 16 11 17 10 18 12 20 4 22 21 24 18 26
REMARK H PARENT 10 19 12 21 4 23 21 25 18 27
REMARK Flexibility Score: inf
ROOT
ATOM      1  C   UNL     1      26.753  -1.176  43.593  1.00  0.00     0.180 A 
ATOM      2  C   UNL     1      25.976  -2.349  43.524  1.00  0.00     0.208 A 
ATOM      3  C   UNL     1      26.403  -3.487  44.226  1.00  0.00     0.238 A 
ATOM      4  O   UNL     1      25.721  -4.545  44.163  1.00  0.00    -0.285 OA
ATOM      5  C   UNL     1      27.581  -3.428  44.997  1.00  0.00     0.111 A 
ATOM      6  C   UNL     1      28.078  -4.530  45.736  1.00  0.00     0.134 A 
ATOM      7  C   UNL     1      29.255  -4.389  46.487  1.00  0.00     0.093 A 
ATOM      8  C   UNL     1      29.942  -3.174  46.514  1.00  0.00     0.123 A 
ATOM      9  C   UNL     1      29.457  -2.083  45.785  1.00  0.00     0.094 A 
ATOM     10  C   UNL     1      28.287  -2.203  45.029  1.00  0.00     0.146 A 
ATOM     11  O   UNL     1      27.851  -1.153  44.343  1.00  0.00    -0.452 OA
ENDROOT
BRANCH   1  12
ATOM     12  C   UNL     1      26.379   0.060  42.866  1.00  0.00     0.025 A 
ATOM     13  C   UNL     1      25.737   1.100  43.557  1.00  0.00     0.016 A 
ATOM     14  C   UNL     1      25.394   2.281  42.896  1.00  0.00     0.051 A 
ATOM     15  C   UNL     1      25.702   2.449  41.540  1.00  0.00     0.157 A 
ATOM     16  C   UNL     1      26.704   0.238  41.510  1.00  0.00     0.062 A 
ATOM     17  C   UNL     1      26.365   1.423  40.845  1.00  0.00     0.158 A 
BRANCH  15  18
ATOM     18  O   UNL     1      25.357   3.628  40.883  1.00  0.00    -0.504 OA
ATOM     19  H   UNL     1      24.940   3.620  39.960  1.00  0.00     0.293 HD
ENDBRANCH  15  18
BRANCH  17  20
ATOM     20  O   UNL     1      26.697   1.564  39.499  1.00  0.00    -0.504 OA
ATOM     21  H   UNL     1      27.621   1.852  39.199  1.00  0.00     0.293 HD
ENDBRANCH  17  20
ENDBRANCH   1  12
BRANCH   2  22
ATOM     22  O   UNL     1      24.785  -2.364  42.793  1.00  0.00    -0.502 OA
ATOM     23  H   UNL     1      24.081  -1.642  42.887  1.00  0.00     0.293 HD
ENDBRANCH   2  22
BRANCH   6  24
ATOM     24  O   UNL     1      27.414  -5.757  45.731  1.00  0.00    -0.507 OA
ATOM     25  H   UNL     1      26.532  -5.883  45.250  1.00  0.00     0.293 HD
ENDBRANCH   6  24
BRANCH   8  26
ATOM     26  O   UNL     1      31.108  -3.061  47.269  1.00  0.00    -0.508 OA
ATOM     27  H   UNL     1      31.452  -3.832  47.831  1.00  0.00     0.293 HD
ENDBRANCH   8  26
TORSDOF 6
ENDMDL
MODEL 7
REMARK VINA RESULT:    -5.287      3.279      5.687
REMARK INTER + INTRA:          -6.626
REMARK INTER:                  -6.776
REMARK INTRA:                   0.151
REMARK UNBOUND:                -0.257
REMARK SMILES O=c1c(O)c(-c2ccc(O)c(O)c2)oc2cc(O)cc(O)c12
REMARK SMILES IDX 5 1 3 2 2 3 1 4 22 5 20 6 19 7 17 8 16 9 15 10 14 11 6 12
REMARK SMILES IDX 7 13 8 14 9 15 13 16 11 17 10 18 12 20 4 22 21 24 18 26
REMARK H PARENT 10 19 12 21 4 23 21 25 18 27
REMARK Flexibility Score: inf
ROOT
ATOM      1  C   UNL     1      25.936  -1.421  37.088  1.00  0.00     0.180 A 
ATOM      2  C   UNL     1      24.812  -1.793  36.325  1.00  0.00     0.208 A 
ATOM      3  C   UNL     1      24.853  -2.996  35.601  1.00  0.00     0.238 A 
ATOM      4  O   UNL     1      23.857  -3.335  34.907  1.00  0.00    -0.285 OA
ATOM      5  C   UNL     1      26.001  -3.810  35.667  1.00  0.00     0.111 A 
ATOM      6  C   UNL     1      26.121  -5.038  34.970  1.00  0.00     0.134 A 
ATOM      7  C   UNL     1      27.295  -5.796  35.096  1.00  0.00     0.093 A 
ATOM      8  C   UNL     1      28.347  -5.353  35.899  1.00  0.00     0.123 A 
ATOM      9  C   UNL     1      28.235  -4.142  36.588  1.00  0.00     0.094 A 
ATOM     10  C   UNL     1      27.075  -3.370  36.476  1.00  0.00     0.146 A 
ATOM     11  O   UNL     1      26.997  -2.221  37.138  1.00  0.00    -0.452 OA
ENDROOT
BRANCH   1  12
ATOM     12  C   UNL     1      25.977  -0.159  37.863  1.00  0.00     0.025 A 
ATOM     13  C   UNL     1      26.661  -0.124  39.088  1.00  0.00     0.016 A 
ATOM     14  C   UNL     1      26.731   1.060  39.826  1.00  0.00     0.051 A 
ATOM     15  C   UNL     1      26.131   2.231  39.343  1.00  0.00     0.157 A 
ATOM     16  C   UNL     1      25.394   1.022  37.371  1.00  0.00     0.062 A 
ATOM     17  C   UNL     1      25.463   2.212  38.107  1.00  0.00     0.158 A 
BRANCH  15  18
ATOM     18  O   UNL     1      26.200   3.410  40.082  1.00  0.00    -0.504 OA
ATOM     19  H   UNL     1      25.753   3.496  40.987  1.00  0.00     0.293 HD
ENDBRANCH  15  18
BRANCH  17  20
ATOM     20  O   UNL     1      24.868   3.362  37.592  1.00  0.00    -0.504 OA
ATOM     21  H   UNL     1      24.427   3.379  36.681  1.00  0.00     0.293 HD
ENDBRANCH  17  20
ENDBRANCH   1  12
BRANCH   2  22
ATOM     22  O   UNL     1      23.667  -0.993  36.317  1.00  0.00    -0.502 OA
ATOM     23  H   UNL     1      22.952  -1.061  37.032  1.00  0.00     0.293 HD
ENDBRANCH   2  22
BRANCH   6  24
ATOM     24  O   UNL     1      25.087  -5.508  34.160  1.00  0.00    -0.507 OA
ATOM     25  H   UNL     1      24.895  -5.103  33.252  1.00  0.00     0.293 HD
ENDBRANCH   6  24
BRANCH   8  26
ATOM     26  O   UNL     1      29.502  -6.127  36.005  1.00  0.00    -0.508 OA
ATOM     27  H   UNL     1      29.459  -7.138  36.061  1.00  0.00     0.293 HD
ENDBRANCH   8  26
TORSDOF 6
ENDMDL
MODEL 8
REMARK VINA RESULT:    -5.284      1.548      7.099
REMARK INTER + INTRA:          -6.622
REMARK INTER:                  -6.360
REMARK INTRA:                  -0.262
REMARK UNBOUND:                -0.257
REMARK SMILES O=c1c(O)c(-c2ccc(O)c(O)c2)oc2cc(O)cc(O)c12
REMARK SMILES IDX 5 1 3 2 2 3 1 4 22 5 20 6 19 7 17 8 16 9 15 10 14 11 6 12
REMARK SMILES IDX 7 13 8 14 9 15 13 16 11 17 10 18 12 20 4 22 21 24 18 26
REMARK H PARENT 10 19 12 21 4 23 21 25 18 27
REMARK Flexibility Score: inf
ROOT
ATOM      1  C   UNL     1      27.618  -4.092  35.603  1.00  0.00     0.180 A 
ATOM      2  C   UNL     1      28.364  -5.044  36.325  1.00  0.00     0.208 A 
ATOM      3  C   UNL     1      29.760  -5.063  36.178  1.00  0.00     0.238 A 
ATOM      4  O   UNL     1      30.437  -5.918  36.811  1.00  0.00    -0.285 OA
ATOM      5  C   UNL     1      30.385  -4.124  35.334  1.00  0.00     0.111 A 
ATOM      6  C   UNL     1      31.786  -4.075  35.134  1.00  0.00     0.134 A 
ATOM      7  C   UNL     1      32.333  -3.102  34.284  1.00  0.00     0.093 A 
ATOM      8  C   UNL     1      31.511  -2.182  33.631  1.00  0.00     0.123 A 
ATOM      9  C   UNL     1      30.126  -2.226  33.824  1.00  0.00     0.094 A 
ATOM     10  C   UNL     1      29.561  -3.188  34.666  1.00  0.00     0.146 A 
ATOM     11  O   UNL     1      28.243  -3.211  34.827  1.00  0.00    -0.452 OA
ENDROOT
BRANCH   1  12
ATOM     12  C   UNL     1      26.141  -4.020  35.690  1.00  0.00     0.025 A 
ATOM     13  C   UNL     1      25.539  -2.929  36.337  1.00  0.00     0.016 A 
ATOM     14  C   UNL     1      24.148  -2.830  36.412  1.00  0.00     0.051 A 
ATOM     15  C   UNL     1      23.336  -3.812  35.829  1.00  0.00     0.157 A 
ATOM     16  C   UNL     1      25.323  -4.993  35.088  1.00  0.00     0.062 A 
ATOM     17  C   UNL     1      23.928  -4.896  35.159  1.00  0.00     0.158 A 
BRANCH  15  18
ATOM     18  O   UNL     1      21.949  -3.711  35.907  1.00  0.00    -0.504 OA
ATOM     19  H   UNL     1      21.411  -4.279  36.550  1.00  0.00     0.293 HD
ENDBRANCH  15  18
BRANCH  17  20
ATOM     20  O   UNL     1      23.149  -5.881  34.555  1.00  0.00    -0.504 OA
ATOM     21  H   UNL     1      22.748  -6.648  35.081  1.00  0.00     0.293 HD
ENDBRANCH  17  20
ENDBRANCH   1  12
BRANCH   2  22
ATOM     22  O   UNL     1      27.723  -5.931  37.194  1.00  0.00    -0.502 OA
ATOM     23  H   UNL     1      27.246  -5.620  38.032  1.00  0.00     0.293 HD
ENDBRANCH   2  22
BRANCH   6  24
ATOM     24  O   UNL     1      32.635  -4.979  35.773  1.00  0.00    -0.507 OA
ATOM     25  H   UNL     1      32.276  -5.760  36.308  1.00  0.00     0.293 HD
ENDBRANCH   6  24
BRANCH   8  26
ATOM     26  O   UNL     1      32.080  -1.226  32.792  1.00  0.00    -0.508 OA
ATOM     27  H   UNL     1      33.070  -1.010  32.830  1.00  0.00     0.293 HD
ENDBRANCH   8  26
TORSDOF 6
ENDMDL
MODEL 9
REMARK VINA RESULT:    -5.052      1.631      2.119
REMARK INTER + INTRA:          -6.343
REMARK INTER:                  -6.040
REMARK INTRA:                  -0.303
REMARK UNBOUND:                -0.257
REMARK SMILES O=c1c(O)c(-c2ccc(O)c(O)c2)oc2cc(O)cc(O)c12
REMARK SMILES IDX 5 1 3 2 2 3 1 4 22 5 20 6 19 7 17 8 16 9 15 10 14 11 6 12
REMARK SMILES IDX 7 13 8 14 9 15 13 16 11 17 10 18 12 20 4 22 21 24 18 26
REMARK H PARENT 10 19 12 21 4 23 21 25 18 27
REMARK Flexibility Score: inf
ROOT
ATOM      1  C   UNL     1      27.913  -4.618  35.700  1.00  0.00     0.180 A 
ATOM      2  C   UNL     1      27.433  -3.459  36.340  1.00  0.00     0.208 A 
ATOM      3  C   UNL     1      26.048  -3.237  36.392  1.00  0.00     0.238 A 
ATOM      4  O   UNL     1      25.607  -2.198  36.953  1.00  0.00    -0.285 OA
ATOM      5  C   UNL     1      25.169  -4.183  35.824  1.00  0.00     0.111 A 
ATOM      6  C   UNL     1      23.761  -4.035  35.837  1.00  0.00     0.134 A 
ATOM      7  C   UNL     1      22.953  -5.026  35.258  1.00  0.00     0.093 A 
ATOM      8  C   UNL     1      23.523  -6.156  34.669  1.00  0.00     0.123 A 
ATOM      9  C   UNL     1      24.913  -6.306  34.652  1.00  0.00     0.094 A 
ATOM     10  C   UNL     1      25.736  -5.330  35.222  1.00  0.00     0.146 A 
ATOM     11  O   UNL     1      27.054  -5.495  35.188  1.00  0.00    -0.452 OA
ENDROOT
BRANCH   1  12
ATOM     12  C   UNL     1      29.360  -4.913  35.587  1.00  0.00     0.025 A 
ATOM     13  C   UNL     1      30.025  -5.524  36.662  1.00  0.00     0.016 A 
ATOM     14  C   UNL     1      31.385  -5.830  36.570  1.00  0.00     0.051 A 
ATOM     15  C   UNL     1      32.097  -5.545  35.397  1.00  0.00     0.157 A 
ATOM     16  C   UNL     1      30.072  -4.647  34.404  1.00  0.00     0.062 A 
ATOM     17  C   UNL     1      31.434  -4.954  34.307  1.00  0.00     0.158 A 
BRANCH  15  18
ATOM     18  O   UNL     1      33.454  -5.850  35.309  1.00  0.00    -0.504 OA
ATOM     19  H   UNL     1      34.162  -5.126  35.317  1.00  0.00     0.293 HD
ENDBRANCH  15  18
BRANCH  17  20
ATOM     20  O   UNL     1      32.111  -4.671  33.122  1.00  0.00    -0.504 OA
ATOM     21  H   UNL     1      32.295  -5.381  32.424  1.00  0.00     0.293 HD
ENDBRANCH  17  20
ENDBRANCH   1  12
BRANCH   2  22
ATOM     22  O   UNL     1      28.323  -2.563  36.939  1.00  0.00    -0.502 OA
ATOM     23  H   UNL     1      28.406  -1.599  36.640  1.00  0.00     0.293 HD
ENDBRANCH   2  22
BRANCH   6  24
ATOM     24  O   UNL     1      23.160  -2.918  36.419  1.00  0.00    -0.507 OA
ATOM     25  H   UNL     1      22.154  -2.826  36.482  1.00  0.00     0.293 HD
ENDBRANCH   6  24
BRANCH   8  26
ATOM     26  O   UNL     1      22.698  -7.125  34.101  1.00  0.00    -0.508 OA
ATOM     27  H   UNL     1      22.517  -8.006  34.568  1.00  0.00     0.293 HD
ENDBRANCH   8  26
TORSDOF 6
ENDMDL
