MODEL 1
REMARK VINA RESULT:    -3.653      0.000      0.000
REMARK INTER + INTRA:          -5.145
REMARK INTER:                  -4.721
REMARK INTRA:                  -0.425
REMARK UNBOUND:                -0.425
REMARK SMILES CCCCCCC(=O)[O-]
REMARK SMILES IDX 5 1 6 2 7 3 8 4 9 5 4 6 3 7 2 8 1 9
REMARK H PARENT
REMARK Flexibility Score: inf
ROOT
ATOM      1  C   UNL     1     -20.290  44.544  -6.446  1.00  0.00     0.006 C 
ENDROOT
BRANCH   1   2
ATOM      2  C   UNL     1     -20.635  45.106  -7.831  1.00  0.00     0.053 C 
BRANCH   2   3
ATOM      3  C   UNL     1     -20.102  44.239  -8.930  1.00  0.00     0.041 C 
ATOM      4  O   UNL     1     -20.591  43.094  -9.125  1.00  0.00    -0.550 OA
ATOM      5  O   UNL     1     -19.093  44.707  -9.761  1.00  0.00    -0.550 OA
ENDBRANCH   2   3
ENDBRANCH   1   2
BRANCH   1   6
ATOM      6  C   UNL     1     -18.990  45.145  -5.882  1.00  0.00     0.000 C 
BRANCH   6   7
ATOM      7  C   UNL     1     -17.866  44.105  -5.732  1.00  0.00    -0.000 C 
BRANCH   7   8
ATOM      8  C   UNL     1     -16.921  43.995  -6.941  1.00  0.00    -0.003 C 
ATOM      9  C   UNL     1     -16.987  42.632  -7.631  1.00  0.00     0.004 C 
ENDBRANCH   7   8
ENDBRANCH   6   7
ENDBRANCH   1   6
TORSDOF 5
ENDMDL
MODEL 2
REMARK VINA RESULT:    -3.613      2.171      3.616
REMARK INTER + INTRA:          -5.094
REMARK INTER:                  -4.770
REMARK INTRA:                  -0.324
REMARK UNBOUND:                -0.425
REMARK SMILES CCCCCCC(=O)[O-]
REMARK SMILES IDX 5 1 6 2 7 3 8 4 9 5 4 6 3 7 2 8 1 9
REMARK H PARENT
REMARK Flexibility Score: inf
ROOT
ATOM      1  C   UNL     1     -19.152  45.765  -5.848  1.00  0.00     0.006 C 
ENDROOT
BRANCH   1   2
ATOM      2  C   UNL     1     -18.764  44.284  -5.747  1.00  0.00     0.053 C 
BRANCH   2   3
ATOM      3  C   UNL     1     -17.368  44.042  -6.232  1.00  0.00     0.041 C 
ATOM      4  O   UNL     1     -16.441  44.833  -5.912  1.00  0.00    -0.550 OA
ATOM      5  O   UNL     1     -17.083  42.925  -7.007  1.00  0.00    -0.550 OA
ENDBRANCH   2   3
ENDBRANCH   1   2
BRANCH   1   6
ATOM      6  C   UNL     1     -19.845  46.095  -7.182  1.00  0.00     0.000 C 
BRANCH   6   7
ATOM      7  C   UNL     1     -20.688  44.927  -7.723  1.00  0.00    -0.000 C 
BRANCH   7   8
ATOM      8  C   UNL     1     -20.318  44.467  -9.144  1.00  0.00    -0.003 C 
ATOM      9  C   UNL     1     -20.233  42.946  -9.277  1.00  0.00     0.004 C 
ENDBRANCH   7   8
ENDBRANCH   6   7
ENDBRANCH   1   6
TORSDOF 5
ENDMDL
MODEL 3
REMARK VINA RESULT:    -3.583      1.993      3.570
REMARK INTER + INTRA:          -5.055
REMARK INTER:                  -4.663
REMARK INTRA:                  -0.392
REMARK UNBOUND:                -0.425
REMARK SMILES CCCCCCC(=O)[O-]
REMARK SMILES IDX 5 1 6 2 7 3 8 4 9 5 4 6 3 7 2 8 1 9
REMARK H PARENT
REMARK Flexibility Score: inf
ROOT
ATOM      1  C   UNL     1     -17.047  44.092  -7.053  1.00  0.00     0.006 C 
ENDROOT
BRANCH   1   2
ATOM      2  C   UNL     1     -17.945  43.897  -5.825  1.00  0.00     0.053 C 
BRANCH   2   3
ATOM      3  C   UNL     1     -19.262  44.593  -5.985  1.00  0.00     0.041 C 
ATOM      4  O   UNL     1     -20.254  44.235  -5.297  1.00  0.00    -0.550 OA
ATOM      5  O   UNL     1     -19.383  45.661  -6.866  1.00  0.00    -0.550 OA
ENDBRANCH   2   3
ENDBRANCH   1   2
BRANCH   1   6
ATOM      6  C   UNL     1     -17.120  42.898  -8.022  1.00  0.00     0.000 C 
BRANCH   6   7
ATOM      7  C   UNL     1     -17.908  43.216  -9.305  1.00  0.00    -0.000 C 
BRANCH   7   8
ATOM      8  C   UNL     1     -19.210  42.416  -9.478  1.00  0.00    -0.003 C 
ATOM      9  C   UNL     1     -20.465  43.259  -9.247  1.00  0.00     0.004 C 
ENDBRANCH   7   8
ENDBRANCH   6   7
ENDBRANCH   1   6
TORSDOF 5
ENDMDL
MODEL 4
REMARK VINA RESULT:    -3.555      2.336      3.399
REMARK INTER + INTRA:          -5.019
REMARK INTER:                  -4.650
REMARK INTRA:                  -0.368
REMARK UNBOUND:                -0.425
REMARK SMILES CCCCCCC(=O)[O-]
REMARK SMILES IDX 5 1 6 2 7 3 8 4 9 5 4 6 3 7 2 8 1 9
REMARK H PARENT
REMARK Flexibility Score: inf
ROOT
ATOM      1  C   UNL     1     -20.457  45.515  -7.767  1.00  0.00     0.006 C 
ENDROOT
BRANCH   1   2
ATOM      2  C   UNL     1     -20.234  44.577  -6.574  1.00  0.00     0.053 C 
BRANCH   2   3
ATOM      3  C   UNL     1     -18.920  44.835  -5.903  1.00  0.00     0.041 C 
ATOM      4  O   UNL     1     -18.167  43.873  -5.595  1.00  0.00    -0.550 OA
ATOM      5  O   UNL     1     -18.510  46.138  -5.651  1.00  0.00    -0.550 OA
ENDBRANCH   2   3
ENDBRANCH   1   2
BRANCH   1   6
ATOM      6  C   UNL     1     -20.269  44.798  -9.114  1.00  0.00     0.000 C 
BRANCH   6   7
ATOM      7  C   UNL     1     -20.535  43.284  -9.028  1.00  0.00    -0.000 C 
BRANCH   7   8
ATOM      8  C   UNL     1     -19.433  42.400  -9.638  1.00  0.00    -0.003 C 
ATOM      9  C   UNL     1     -18.052  42.667  -9.039  1.00  0.00     0.004 C 
ENDBRANCH   7   8
ENDBRANCH   6   7
ENDBRANCH   1   6
TORSDOF 5
ENDMDL
MODEL 5
REMARK VINA RESULT:    -3.492      1.197      2.971
REMARK INTER + INTRA:          -4.937
REMARK INTER:                  -4.522
REMARK INTRA:                  -0.415
REMARK UNBOUND:                -0.425
REMARK SMILES CCCCCCC(=O)[O-]
REMARK SMILES IDX 5 1 6 2 7 3 8 4 9 5 4 6 3 7 2 8 1 9
REMARK H PARENT
REMARK Flexibility Score: inf
ROOT
ATOM      1  C   UNL     1     -17.067  44.054  -6.661  1.00  0.00     0.006 C 
ENDROOT
BRANCH   1   2
ATOM      2  C   UNL     1     -16.975  42.838  -7.592  1.00  0.00     0.053 C 
BRANCH   2   3
ATOM      3  C   UNL     1     -17.668  43.085  -8.897  1.00  0.00     0.041 C 
ATOM      4  O   UNL     1     -18.664  42.387  -9.226  1.00  0.00    -0.550 OA
ATOM      5  O   UNL     1     -17.238  44.108  -9.732  1.00  0.00    -0.550 OA
ENDBRANCH   2   3
ENDBRANCH   1   2
BRANCH   1   6
ATOM      6  C   UNL     1     -18.343  44.033  -5.802  1.00  0.00     0.000 C 
BRANCH   6   7
ATOM      7  C   UNL     1     -19.142  45.346  -5.885  1.00  0.00    -0.000 C 
BRANCH   7   8
ATOM      8  C   UNL     1     -19.647  45.708  -7.292  1.00  0.00    -0.003 C 
ATOM      9  C   UNL     1     -20.816  44.836  -7.751  1.00  0.00     0.004 C 
ENDBRANCH   7   8
ENDBRANCH   6   7
ENDBRANCH   1   6
TORSDOF 5
ENDMDL
MODEL 6
REMARK VINA RESULT:    -3.458      2.000      2.986
REMARK INTER + INTRA:          -4.893
REMARK INTER:                  -4.464
REMARK INTRA:                  -0.428
REMARK UNBOUND:                -0.425
REMARK SMILES CCCCCCC(=O)[O-]
REMARK SMILES IDX 5 1 6 2 7 3 8 4 9 5 4 6 3 7 2 8 1 9
REMARK H PARENT
REMARK Flexibility Score: inf
ROOT
ATOM      1  C   UNL     1     -17.893  44.009  -5.816  1.00  0.00     0.006 C 
ENDROOT
BRANCH   1   2
ATOM      2  C   UNL     1     -19.362  44.433  -5.941  1.00  0.00     0.053 C 
BRANCH   2   3
ATOM      3  C   UNL     1     -19.498  45.763  -6.618  1.00  0.00     0.041 C 
ATOM      4  O   UNL     1     -20.107  45.854  -7.717  1.00  0.00    -0.550 OA
ATOM      5  O   UNL     1     -18.986  46.906  -6.017  1.00  0.00    -0.550 OA
ENDBRANCH   2   3
ENDBRANCH   1   2
BRANCH   1   6
ATOM      6  C   UNL     1     -17.149  44.083  -7.160  1.00  0.00     0.000 C 
BRANCH   6   7
ATOM      7  C   UNL     1     -17.445  42.881  -8.075  1.00  0.00    -0.000 C 
BRANCH   7   8
ATOM      8  C   UNL     1     -18.235  43.220  -9.351  1.00  0.00    -0.003 C 
ATOM      9  C   UNL     1     -19.587  42.510  -9.424  1.00  0.00     0.004 C 
ENDBRANCH   7   8
ENDBRANCH   6   7
ENDBRANCH   1   6
TORSDOF 5
ENDMDL
MODEL 7
REMARK VINA RESULT:    -3.450      3.155      3.967
REMARK INTER + INTRA:          -4.883
REMARK INTER:                  -4.505
REMARK INTRA:                  -0.378
REMARK UNBOUND:                -0.425
REMARK SMILES CCCCCCC(=O)[O-]
REMARK SMILES IDX 5 1 6 2 7 3 8 4 9 5 4 6 3 7 2 8 1 9
REMARK H PARENT
REMARK Flexibility Score: inf
ROOT
ATOM      1  C   UNL     1     -19.714  46.809  -6.960  1.00  0.00     0.006 C 
ENDROOT
BRANCH   1   2
ATOM      2  C   UNL     1     -18.269  47.324  -6.949  1.00  0.00     0.053 C 
BRANCH   2   3
ATOM      3  C   UNL     1     -17.710  47.377  -5.560  1.00  0.00     0.041 C 
ATOM      4  O   UNL     1     -16.564  46.911  -5.320  1.00  0.00    -0.550 OA
ATOM      5  O   UNL     1     -18.438  47.973  -4.538  1.00  0.00    -0.550 OA
ENDBRANCH   2   3
ENDBRANCH   1   2
BRANCH   1   6
ATOM      6  C   UNL     1     -19.790  45.297  -7.238  1.00  0.00     0.000 C 
BRANCH   6   7
ATOM      7  C   UNL     1     -19.872  44.456  -5.952  1.00  0.00    -0.000 C 
BRANCH   7   8
ATOM      8  C   UNL     1     -18.523  43.916  -5.446  1.00  0.00    -0.003 C 
ATOM      9  C   UNL     1     -17.507  43.699  -6.569  1.00  0.00     0.004 C 
ENDBRANCH   7   8
ENDBRANCH   6   7
ENDBRANCH   1   6
TORSDOF 5
ENDMDL
MODEL 8
REMARK VINA RESULT:    -3.437      1.048      2.497
REMARK INTER + INTRA:          -4.867
REMARK INTER:                  -4.431
REMARK INTRA:                  -0.435
REMARK UNBOUND:                -0.425
REMARK SMILES CCCCCCC(=O)[O-]
REMARK SMILES IDX 5 1 6 2 7 3 8 4 9 5 4 6 3 7 2 8 1 9
REMARK H PARENT
REMARK Flexibility Score: inf
ROOT
ATOM      1  C   UNL     1     -17.249  43.772  -8.403  1.00  0.00     0.006 C 
ENDROOT
BRANCH   1   2
ATOM      2  C   UNL     1     -18.249  43.045  -9.311  1.00  0.00     0.053 C 
BRANCH   2   3
ATOM      3  C   UNL     1     -19.598  43.696  -9.285  1.00  0.00     0.041 C 
ATOM      4  O   UNL     1     -20.636  42.997  -9.143  1.00  0.00    -0.550 OA
ATOM      5  O   UNL     1     -19.706  45.078  -9.380  1.00  0.00    -0.550 OA
ENDBRANCH   2   3
ENDBRANCH   1   2
BRANCH   1   6
ATOM      6  C   UNL     1     -17.271  43.231  -6.963  1.00  0.00     0.000 C 
BRANCH   6   7
ATOM      7  C   UNL     1     -17.359  44.346  -5.906  1.00  0.00    -0.000 C 
BRANCH   7   8
ATOM      8  C   UNL     1     -18.647  45.186  -5.958  1.00  0.00    -0.003 C 
ATOM      9  C   UNL     1     -19.904  44.373  -5.647  1.00  0.00     0.004 C 
ENDBRANCH   7   8
ENDBRANCH   6   7
ENDBRANCH   1   6
TORSDOF 5
ENDMDL
MODEL 9
REMARK VINA RESULT:    -3.345      2.504      3.994
REMARK INTER + INTRA:          -4.747
REMARK INTER:                  -4.417
REMARK INTRA:                  -0.331
REMARK UNBOUND:                -0.425
REMARK SMILES CCCCCCC(=O)[O-]
REMARK SMILES IDX 5 1 6 2 7 3 8 4 9 5 4 6 3 7 2 8 1 9
REMARK H PARENT
REMARK Flexibility Score: inf
ROOT
ATOM      1  C   UNL     1     -17.716  44.024  -6.347  1.00  0.00     0.006 C 
ENDROOT
BRANCH   1   2
ATOM      2  C   UNL     1     -16.572  44.984  -5.994  1.00  0.00     0.053 C 
BRANCH   2   3
ATOM      3  C   UNL     1     -16.979  46.416  -6.162  1.00  0.00     0.041 C 
ATOM      4  O   UNL     1     -17.137  46.897  -7.316  1.00  0.00    -0.550 OA
ATOM      5  O   UNL     1     -17.218  47.209  -5.047  1.00  0.00    -0.550 OA
ENDBRANCH   2   3
ENDBRANCH   1   2
BRANCH   1   6
ATOM      6  C   UNL     1     -18.964  44.264  -5.481  1.00  0.00     0.000 C 
BRANCH   6   7
ATOM      7  C   UNL     1     -20.250  44.418  -6.313  1.00  0.00    -0.000 C 
BRANCH   7   8
ATOM      8  C   UNL     1     -20.027  44.874  -7.766  1.00  0.00    -0.003 C 
ATOM      9  C   UNL     1     -20.458  43.828  -8.794  1.00  0.00     0.004 C 
ENDBRANCH   7   8
ENDBRANCH   6   7
ENDBRANCH   1   6
TORSDOF 5
ENDMDL
