MODEL 1
REMARK VINA RESULT:    -2.549      0.000      0.000
REMARK INTER + INTRA:          -3.866
REMARK INTER:                  -3.592
REMARK INTRA:                  -0.275
REMARK UNBOUND:                -0.275
REMARK SMILES C=C(CC[C@@H](C(=O)[O-])[C@@H]1[C@@H](O)C[C@@]2(C)C3=C(CC[C@]12C)[C@@]1(C)CC[C@H](O)C(C)(C)[C@H]1CC3)C(C)C
REMARK SMILES IDX 4 1 5 2 6 3 7 4 8 5 9 6 10 7 19 8 12 9 13 10 18 11 20 12
REMARK SMILES IDX 14 13 15 14 17 15 16 16 32 17 21 18 31 19 30 20 23 21 22 22
REMARK SMILES IDX 27 23 24 24 25 25 28 26 29 27 11 28 26 30 3 32 2 33 1 34
REMARK SMILES IDX 33 35 34 36 35 37
REMARK H PARENT 11 29 26 31
REMARK Flexibility Score: inf
ROOT
ATOM      1  C   UNL     1       3.651  48.843   7.417  1.00  0.00     0.014 C 
ENDROOT
BRANCH   1   2
ATOM      2  C   UNL     1       2.304  49.321   8.027  1.00  0.00     0.042 C 
BRANCH   2   3
ATOM      3  C   UNL     1       1.788  50.469   7.195  1.00  0.00     0.045 C 
ATOM      4  O   UNL     1       2.578  51.125   6.465  1.00  0.00    -0.550 OA
ATOM      5  O   UNL     1       0.450  50.843   7.262  1.00  0.00    -0.550 OA
ENDBRANCH   2   3
BRANCH   2   6
ATOM      6  C   UNL     1       1.261  48.146   8.099  1.00  0.00     0.033 C 
ATOM      7  C   UNL     1       0.111  48.365   9.141  1.00  0.00     0.119 C 
ATOM      8  C   UNL     1       1.814  46.709   8.446  1.00  0.00    -0.017 C 
ATOM      9  C   UNL     1       0.055  47.116  10.038  1.00  0.00     0.043 C 
ATOM     10  C   UNL     1       1.464  46.517   9.952  1.00  0.00    -0.003 C 
ATOM     11  C   UNL     1       3.320  46.390   8.263  1.00  0.00     0.012 C 
ATOM     12  C   UNL     1       1.036  45.712   7.515  1.00  0.00     0.013 C 
ATOM     13  C   UNL     1       2.366  47.310  10.949  1.00  0.00     0.017 C 
ATOM     14  C   UNL     1       1.612  45.044  10.311  1.00  0.00    -0.064 C 
ATOM     15  C   UNL     1       3.762  45.090   9.005  1.00  0.00     0.032 C 
ATOM     16  C   UNL     1       2.711  44.356   9.875  1.00  0.00    -0.064 C 
ATOM     17  C   UNL     1       0.577  44.373  11.163  1.00  0.00     0.032 C 
ATOM     18  C   UNL     1       2.896  42.831  10.174  1.00  0.00    -0.008 C 
ATOM     19  C   UNL     1       1.243  43.404  12.114  1.00  0.00     0.009 C 
ATOM     20  C   UNL     1       1.921  42.264  11.320  1.00  0.00     0.007 C 
ATOM     21  C   UNL     1       4.392  42.550  10.539  1.00  0.00     0.014 C 
ATOM     22  C   UNL     1       2.571  42.090   8.852  1.00  0.00     0.016 C 
ATOM     23  C   UNL     1       2.575  41.179  12.282  1.00  0.00    -0.006 C 
ATOM     24  C   UNL     1       4.654  42.751  12.025  1.00  0.00     0.033 C 
ATOM     25  C   UNL     1       3.936  41.695  12.887  1.00  0.00     0.120 C 
ATOM     26  C   UNL     1       2.753  39.834  11.512  1.00  0.00     0.014 C 
ATOM     27  C   UNL     1       1.624  40.828  13.464  1.00  0.00     0.014 C 
BRANCH   7  28
ATOM     28  O   UNL     1      -1.116  48.556   8.486  1.00  0.00    -0.393 OA
ATOM     29  H   UNL     1      -0.939  49.163   7.720  1.00  0.00     0.210 HD
ENDBRANCH   7  28
BRANCH  25  30
ATOM     30  O   UNL     1       4.821  40.631  13.136  1.00  0.00    -0.393 OA
ATOM     31  H   UNL     1       5.316  40.854  13.968  1.00  0.00     0.210 HD
ENDBRANCH  25  30
ENDBRANCH   2   6
ENDBRANCH   1   2
BRANCH   1  32
ATOM     32  C   UNL     1       4.863  49.687   7.862  1.00  0.00     0.031 C 
BRANCH  32  33
ATOM     33  C   UNL     1       5.569  49.123   9.079  1.00  0.00    -0.075 C 
ATOM     34  C   UNL     1       6.197  47.936   8.977  1.00  0.00     0.008 C 
BRANCH  33  35
ATOM     35  C   UNL     1       5.417  49.819  10.425  1.00  0.00     0.008 C 
ATOM     36  C   UNL     1       4.106  50.614  10.538  1.00  0.00     0.012 C 
ATOM     37  C   UNL     1       6.624  50.722  10.699  1.00  0.00     0.012 C 
ENDBRANCH  33  35
ENDBRANCH  32  33
ENDBRANCH   1  32
TORSDOF 8
ENDMDL
MODEL 2
REMARK VINA RESULT:    -1.004      2.151      8.929
REMARK INTER + INTRA:          -1.690
REMARK INTER:                  -2.963
REMARK INTRA:                   1.273
REMARK UNBOUND:                -0.275
REMARK SMILES C=C(CC[C@@H](C(=O)[O-])[C@@H]1[C@@H](O)C[C@@]2(C)C3=C(CC[C@]12C)[C@@]1(C)CC[C@H](O)C(C)(C)[C@H]1CC3)C(C)C
REMARK SMILES IDX 4 1 5 2 6 3 7 4 8 5 9 6 10 7 19 8 12 9 13 10 18 11 20 12
REMARK SMILES IDX 14 13 15 14 17 15 16 16 32 17 21 18 31 19 30 20 23 21 22 22
REMARK SMILES IDX 27 23 24 24 25 25 28 26 29 27 11 28 26 30 3 32 2 33 1 34
REMARK SMILES IDX 33 35 34 36 35 37
REMARK H PARENT 11 29 26 31
REMARK Flexibility Score: inf
ROOT
ATOM      1  C   UNL     1       2.669  39.964  12.294  1.00  0.00     0.014 C 
ENDROOT
BRANCH   1   2
ATOM      2  C   UNL     1       2.144  41.319  11.744  1.00  0.00     0.042 C 
BRANCH   2   3
ATOM      3  C   UNL     1       1.164  41.889  12.740  1.00  0.00     0.045 C 
ATOM      4  O   UNL     1       1.264  41.597  13.962  1.00  0.00    -0.550 OA
ATOM      5  O   UNL     1       0.118  42.700  12.315  1.00  0.00    -0.550 OA
ENDBRANCH   2   3
BRANCH   2   6
ATOM      6  C   UNL     1       3.327  42.317  11.461  1.00  0.00     0.033 C 
ATOM      7  C   UNL     1       3.858  43.068  12.730  1.00  0.00     0.119 C 
ATOM      8  C   UNL     1       3.061  43.476  10.423  1.00  0.00    -0.017 C 
ATOM      9  C   UNL     1       3.857  44.573  12.413  1.00  0.00     0.043 C 
ATOM     10  C   UNL     1       2.805  44.732  11.309  1.00  0.00    -0.003 C 
ATOM     11  C   UNL     1       1.893  43.361   9.411  1.00  0.00     0.012 C 
ATOM     12  C   UNL     1       4.373  43.598   9.570  1.00  0.00     0.013 C 
ATOM     13  C   UNL     1       1.407  44.780  12.004  1.00  0.00     0.017 C 
ATOM     14  C   UNL     1       2.899  45.979  10.438  1.00  0.00    -0.064 C 
ATOM     15  C   UNL     1       1.530  44.724   8.742  1.00  0.00     0.032 C 
ATOM     16  C   UNL     1       2.284  45.991   9.217  1.00  0.00    -0.064 C 
ATOM     17  C   UNL     1       3.631  47.188  10.940  1.00  0.00     0.032 C 
ATOM     18  C   UNL     1       2.383  47.226   8.261  1.00  0.00    -0.008 C 
ATOM     19  C   UNL     1       2.902  48.443  10.513  1.00  0.00     0.009 C 
ATOM     20  C   UNL     1       2.916  48.566   8.972  1.00  0.00     0.007 C 
ATOM     21  C   UNL     1       0.992  47.478   7.590  1.00  0.00     0.014 C 
ATOM     22  C   UNL     1       3.392  46.833   7.152  1.00  0.00     0.016 C 
ATOM     23  C   UNL     1       2.224  49.910   8.478  1.00  0.00    -0.006 C 
ATOM     24  C   UNL     1       0.107  48.367   8.452  1.00  0.00     0.033 C 
ATOM     25  C   UNL     1       0.652  49.805   8.551  1.00  0.00     0.120 C 
ATOM     26  C   UNL     1       2.718  50.257   7.040  1.00  0.00     0.014 C 
ATOM     27  C   UNL     1       2.667  51.124   9.346  1.00  0.00     0.014 C 
BRANCH   7  28
ATOM     28  O   UNL     1       5.154  42.633  13.051  1.00  0.00    -0.393 OA
ATOM     29  H   UNL     1       5.251  42.726  14.035  1.00  0.00     0.210 HD
ENDBRANCH   7  28
BRANCH  25  30
ATOM     30  O   UNL     1       0.041  50.594   7.559  1.00  0.00    -0.393 OA
ATOM     31  H   UNL     1       0.172  51.543   7.822  1.00  0.00     0.210 HD
ENDBRANCH  25  30
ENDBRANCH   2   6
ENDBRANCH   1   2
BRANCH   1  32
ATOM     32  C   UNL     1       1.554  39.042  12.828  1.00  0.00     0.031 C 
BRANCH  32  33
ATOM     33  C   UNL     1       1.703  37.603  12.377  1.00  0.00    -0.075 C 
ATOM     34  C   UNL     1       2.831  37.231  11.742  1.00  0.00     0.008 C 
BRANCH  33  35
ATOM     35  C   UNL     1       0.520  36.650  12.499  1.00  0.00     0.008 C 
ATOM     36  C   UNL     1       0.513  35.568  11.408  1.00  0.00     0.012 C 
ATOM     37  C   UNL     1      -0.798  37.433  12.495  1.00  0.00     0.012 C 
ENDBRANCH  33  35
ENDBRANCH  32  33
ENDBRANCH   1  32
TORSDOF 8
ENDMDL
MODEL 3
REMARK VINA RESULT:    -0.116      2.070      8.974
REMARK INTER + INTRA:          -0.438
REMARK INTER:                  -1.122
REMARK INTRA:                   0.684
REMARK UNBOUND:                -0.275
REMARK SMILES C=C(CC[C@@H](C(=O)[O-])[C@@H]1[C@@H](O)C[C@@]2(C)C3=C(CC[C@]12C)[C@@]1(C)CC[C@H](O)C(C)(C)[C@H]1CC3)C(C)C
REMARK SMILES IDX 4 1 5 2 6 3 7 4 8 5 9 6 10 7 19 8 12 9 13 10 18 11 20 12
REMARK SMILES IDX 14 13 15 14 17 15 16 16 32 17 21 18 31 19 30 20 23 21 22 22
REMARK SMILES IDX 27 23 24 24 25 25 28 26 29 27 11 28 26 30 3 32 2 33 1 34
REMARK SMILES IDX 33 35 34 36 35 37
REMARK H PARENT 11 29 26 31
REMARK Flexibility Score: inf
ROOT
ATOM      1  C   UNL     1      -0.239  40.522  12.975  1.00  0.00     0.014 C 
ENDROOT
BRANCH   1   2
ATOM      2  C   UNL     1       0.859  41.603  13.170  1.00  0.00     0.042 C 
BRANCH   2   3
ATOM      3  C   UNL     1       1.645  41.262  14.412  1.00  0.00     0.045 C 
ATOM      4  O   UNL     1       2.736  40.639  14.318  1.00  0.00    -0.550 OA
ATOM      5  O   UNL     1       1.152  41.591  15.670  1.00  0.00    -0.550 OA
ENDBRANCH   2   3
BRANCH   2   6
ATOM      6  C   UNL     1       1.791  41.706  11.907  1.00  0.00     0.033 C 
ATOM      7  C   UNL     1       3.305  41.421  12.194  1.00  0.00     0.119 C 
ATOM      8  C   UNL     1       1.807  43.081  11.133  1.00  0.00    -0.017 C 
ATOM      9  C   UNL     1       4.114  42.601  11.628  1.00  0.00     0.043 C 
ATOM     10  C   UNL     1       3.123  43.770  11.604  1.00  0.00    -0.003 C 
ATOM     11  C   UNL     1       0.647  44.092  11.317  1.00  0.00     0.012 C 
ATOM     12  C   UNL     1       1.834  42.715   9.605  1.00  0.00     0.013 C 
ATOM     13  C   UNL     1       3.077  44.369  13.045  1.00  0.00     0.017 C 
ATOM     14  C   UNL     1       3.440  44.928  10.664  1.00  0.00    -0.064 C 
ATOM     15  C   UNL     1       1.000  45.525  10.807  1.00  0.00     0.032 C 
ATOM     16  C   UNL     1       2.438  45.778  10.287  1.00  0.00    -0.064 C 
ATOM     17  C   UNL     1       4.846  45.143  10.191  1.00  0.00     0.032 C 
ATOM     18  C   UNL     1       2.694  46.956   9.290  1.00  0.00    -0.008 C 
ATOM     19  C   UNL     1       5.146  46.624  10.127  1.00  0.00     0.009 C 
ATOM     20  C   UNL     1       4.248  47.301   9.066  1.00  0.00     0.007 C 
ATOM     21  C   UNL     1       1.916  48.226   9.772  1.00  0.00     0.014 C 
ATOM     22  C   UNL     1       2.097  46.509   7.931  1.00  0.00     0.016 C 
ATOM     23  C   UNL     1       4.578  48.850   8.911  1.00  0.00    -0.006 C 
ATOM     24  C   UNL     1       2.734  49.043  10.762  1.00  0.00     0.033 C 
ATOM     25  C   UNL     1       3.968  49.687  10.099  1.00  0.00     0.120 C 
ATOM     26  C   UNL     1       4.077  49.356   7.524  1.00  0.00     0.014 C 
ATOM     27  C   UNL     1       6.115  49.098   8.885  1.00  0.00     0.014 C 
BRANCH   7  28
ATOM     28  O   UNL     1       3.701  40.217  11.590  1.00  0.00    -0.393 OA
ATOM     29  H   UNL     1       4.673  40.299  11.403  1.00  0.00     0.210 HD
ENDBRANCH   7  28
BRANCH  25  30
ATOM     30  O   UNL     1       3.636  50.990   9.688  1.00  0.00    -0.393 OA
ATOM     31  H   UNL     1       4.419  51.346   9.192  1.00  0.00     0.210 HD
ENDBRANCH  25  30
ENDBRANCH   2   6
ENDBRANCH   1   2
BRANCH   1  32
ATOM     32  C   UNL     1       0.085  39.182  13.667  1.00  0.00     0.031 C 
BRANCH  32  33
ATOM     33  C   UNL     1       0.001  37.992  12.731  1.00  0.00    -0.075 C 
ATOM     34  C   UNL     1      -1.125  37.252  12.715  1.00  0.00     0.008 C 
BRANCH  33  35
ATOM     35  C   UNL     1       1.238  37.558  11.955  1.00  0.00     0.008 C 
ATOM     36  C   UNL     1       1.228  36.060  11.611  1.00  0.00     0.012 C 
ATOM     37  C   UNL     1       2.509  37.929  12.725  1.00  0.00     0.012 C 
ENDBRANCH  33  35
ENDBRANCH  32  33
ENDBRANCH   1  32
TORSDOF 8
ENDMDL
