MODEL 1
REMARK VINA RESULT:    -4.068      0.000      0.000
REMARK INTER + INTRA:         -16.866
REMARK INTER:                 -10.726
REMARK INTRA:                  -6.140
REMARK UNBOUND:                -6.140
REMARK SMILES CCCCCCCCCCCCCCCCCCCCCCCCCCCCCC(=O)[O-]
REMARK SMILES IDX 16 1 17 2 18 3 19 4 20 5 21 6 22 7 23 8 24 9 25 10 26 11
REMARK SMILES IDX 27 12 28 13 29 14 30 15 31 16 32 17 15 18 14 19 13 20 12 21
REMARK SMILES IDX 11 22 10 23 9 24 8 25 7 26 6 27 5 28 4 29 3 30 2 31 1 32
REMARK H PARENT
REMARK Flexibility Score: inf
ROOT
ATOM      1  C   UNL     1      11.139  -7.868  36.809  1.00  0.00     0.000 C 
ENDROOT
BRANCH   1   2
ATOM      2  C   UNL     1      10.423  -7.888  38.170  1.00  0.00     0.000 C 
BRANCH   2   3
ATOM      3  C   UNL     1      10.881  -9.056  39.061  1.00  0.00     0.000 C 
BRANCH   3   4
ATOM      4  C   UNL     1      12.339  -9.459  38.807  1.00  0.00     0.000 C 
BRANCH   4   5
ATOM      5  C   UNL     1      12.486 -10.922  38.355  1.00  0.00     0.000 C 
BRANCH   5   6
ATOM      6  C   UNL     1      11.178 -11.503  37.791  1.00  0.00     0.000 C 
BRANCH   6   7
ATOM      7  C   UNL     1      11.211 -11.672  36.262  1.00  0.00     0.000 C 
BRANCH   7   8
ATOM      8  C   UNL     1       9.834 -11.383  35.648  1.00  0.00     0.000 C 
BRANCH   8   9
ATOM      9  C   UNL     1       8.786 -11.125  36.741  1.00  0.00     0.000 C 
BRANCH   9  10
ATOM     10  C   UNL     1       7.777 -10.028  36.358  1.00  0.00     0.000 C 
BRANCH  10  11
ATOM     11  C   UNL     1       7.189  -9.273  37.570  1.00  0.00     0.000 C 
BRANCH  11  12
ATOM     12  C   UNL     1       6.624  -7.900  37.172  1.00  0.00     0.000 C 
BRANCH  12  13
ATOM     13  C   UNL     1       5.944  -7.911  35.795  1.00  0.00     0.006 C 
BRANCH  13  14
ATOM     14  C   UNL     1       4.717  -6.992  35.737  1.00  0.00     0.053 C 
BRANCH  14  15
ATOM     15  C   UNL     1       3.472  -7.760  36.056  1.00  0.00     0.041 C 
ATOM     16  O   UNL     1       2.604  -7.268  36.823  1.00  0.00    -0.550 OA
ATOM     17  O   UNL     1       3.298  -9.041  35.548  1.00  0.00    -0.550 OA
ENDBRANCH  14  15
ENDBRANCH  13  14
ENDBRANCH  12  13
ENDBRANCH  11  12
ENDBRANCH  10  11
ENDBRANCH   9  10
ENDBRANCH   8   9
ENDBRANCH   7   8
ENDBRANCH   6   7
ENDBRANCH   5   6
ENDBRANCH   4   5
ENDBRANCH   3   4
ENDBRANCH   2   3
ENDBRANCH   1   2
BRANCH   1  18
ATOM     18  C   UNL     1      10.198  -7.588  35.614  1.00  0.00     0.000 C 
BRANCH  18  19
ATOM     19  C   UNL     1      10.704  -8.174  34.281  1.00  0.00     0.000 C 
BRANCH  19  20
ATOM     20  C   UNL     1       9.655  -8.162  33.152  1.00  0.00     0.000 C 
BRANCH  20  21
ATOM     21  C   UNL     1       8.484  -7.203  33.441  1.00  0.00     0.000 C 
BRANCH  21  22
ATOM     22  C   UNL     1       8.676  -5.831  32.769  1.00  0.00     0.000 C 
BRANCH  22  23
ATOM     23  C   UNL     1       8.676  -4.652  33.762  1.00  0.00     0.000 C 
BRANCH  23  24
ATOM     24  C   UNL     1       7.729  -4.880  34.953  1.00  0.00    -0.000 C 
BRANCH  24  25
ATOM     25  C   UNL     1       7.304  -3.568  35.630  1.00  0.00    -0.000 C 
BRANCH  25  26
ATOM     26  C   UNL     1       8.009  -3.335  36.973  1.00  0.00    -0.000 C 
BRANCH  26  27
ATOM     27  C   UNL     1       8.828  -4.572  37.374  1.00  0.00    -0.000 C 
BRANCH  27  28
ATOM     28  C   UNL     1      10.292  -4.240  37.709  1.00  0.00    -0.000 C 
BRANCH  28  29
ATOM     29  C   UNL     1      11.034  -3.585  36.530  1.00  0.00    -0.000 C 
BRANCH  29  30
ATOM     30  C   UNL     1      12.268  -4.391  36.088  1.00  0.00    -0.000 C 
BRANCH  30  31
ATOM     31  C   UNL     1      13.535  -3.529  36.004  1.00  0.00    -0.003 C 
ATOM     32  C   UNL     1      14.610  -4.040  36.960  1.00  0.00     0.004 C 
ENDBRANCH  30  31
ENDBRANCH  29  30
ENDBRANCH  28  29
ENDBRANCH  27  28
ENDBRANCH  26  27
ENDBRANCH  25  26
ENDBRANCH  24  25
ENDBRANCH  23  24
ENDBRANCH  22  23
ENDBRANCH  21  22
ENDBRANCH  20  21
ENDBRANCH  19  20
ENDBRANCH  18  19
ENDBRANCH   1  18
TORSDOF 28
ENDMDL
MODEL 2
REMARK VINA RESULT:    -3.596      2.587      6.019
REMARK INTER + INTRA:         -15.622
REMARK INTER:                 -10.461
REMARK INTRA:                  -5.161
REMARK UNBOUND:                -6.140
REMARK SMILES CCCCCCCCCCCCCCCCCCCCCCCCCCCCCC(=O)[O-]
REMARK SMILES IDX 16 1 17 2 18 3 19 4 20 5 21 6 22 7 23 8 24 9 25 10 26 11
REMARK SMILES IDX 27 12 28 13 29 14 30 15 31 16 32 17 15 18 14 19 13 20 12 21
REMARK SMILES IDX 11 22 10 23 9 24 8 25 7 26 6 27 5 28 4 29 3 30 2 31 1 32
REMARK H PARENT
REMARK Flexibility Score: inf
ROOT
ATOM      1  C   UNL     1      11.698 -11.006  37.698  1.00  0.00     0.000 C 
ENDROOT
BRANCH   1   2
ATOM      2  C   UNL     1      11.173 -10.701  39.111  1.00  0.00     0.000 C 
BRANCH   2   3
ATOM      3  C   UNL     1       9.678 -10.334  39.118  1.00  0.00     0.000 C 
BRANCH   3   4
ATOM      4  C   UNL     1       9.043 -10.406  37.722  1.00  0.00     0.000 C 
BRANCH   4   5
ATOM      5  C   UNL     1       8.208  -9.161  37.380  1.00  0.00     0.000 C 
BRANCH   5   6
ATOM      6  C   UNL     1       8.101  -8.176  38.557  1.00  0.00     0.000 C 
BRANCH   6   7
ATOM      7  C   UNL     1       6.698  -7.561  38.695  1.00  0.00     0.000 C 
BRANCH   7   8
ATOM      8  C   UNL     1       5.630  -8.655  38.835  1.00  0.00     0.000 C 
BRANCH   8   9
ATOM      9  C   UNL     1       4.460  -8.410  37.870  1.00  0.00     0.000 C 
BRANCH   9  10
ATOM     10  C   UNL     1       4.781  -8.822  36.423  1.00  0.00     0.000 C 
BRANCH  10  11
ATOM     11  C   UNL     1       4.992  -7.627  35.467  1.00  0.00     0.000 C 
BRANCH  11  12
ATOM     12  C   UNL     1       4.474  -6.311  36.071  1.00  0.00     0.000 C 
BRANCH  12  13
ATOM     13  C   UNL     1       5.381  -5.112  35.753  1.00  0.00     0.006 C 
BRANCH  13  14
ATOM     14  C   UNL     1       6.825  -5.533  35.449  1.00  0.00     0.053 C 
BRANCH  14  15
ATOM     15  C   UNL     1       7.701  -4.328  35.301  1.00  0.00     0.041 C 
ATOM     16  O   UNL     1       7.854  -3.535  36.267  1.00  0.00    -0.550 OA
ATOM     17  O   UNL     1       8.303  -4.053  34.080  1.00  0.00    -0.550 OA
ENDBRANCH  14  15
ENDBRANCH  13  14
ENDBRANCH  12  13
ENDBRANCH  11  12
ENDBRANCH  10  11
ENDBRANCH   9  10
ENDBRANCH   8   9
ENDBRANCH   7   8
ENDBRANCH   6   7
ENDBRANCH   5   6
ENDBRANCH   4   5
ENDBRANCH   3   4
ENDBRANCH   2   3
ENDBRANCH   1   2
BRANCH   1  18
ATOM     18  C   UNL     1      12.921 -11.954  37.679  1.00  0.00     0.000 C 
BRANCH  18  19
ATOM     19  C   UNL     1      13.610 -12.098  39.050  1.00  0.00     0.000 C 
BRANCH  19  20
ATOM     20  C   UNL     1      15.148 -12.147  38.977  1.00  0.00     0.000 C 
BRANCH  20  21
ATOM     21  C   UNL     1      15.684 -11.858  37.561  1.00  0.00     0.000 C 
BRANCH  21  22
ATOM     22  C   UNL     1      16.414 -10.504  37.481  1.00  0.00     0.000 C 
BRANCH  22  23
ATOM     23  C   UNL     1      16.276  -9.650  38.757  1.00  0.00     0.000 C 
BRANCH  23  24
ATOM     24  C   UNL     1      15.590  -8.298  38.494  1.00  0.00    -0.000 C 
BRANCH  24  25
ATOM     25  C   UNL     1      14.074  -8.347  38.738  1.00  0.00    -0.000 C 
BRANCH  25  26
ATOM     26  C   UNL     1      13.439  -6.951  38.814  1.00  0.00    -0.000 C 
BRANCH  26  27
ATOM     27  C   UNL     1      11.912  -7.045  38.672  1.00  0.00    -0.000 C 
BRANCH  27  28
ATOM     28  C   UNL     1      11.465  -7.504  37.275  1.00  0.00    -0.000 C 
BRANCH  28  29
ATOM     29  C   UNL     1      10.590  -6.458  36.560  1.00  0.00    -0.000 C 
BRANCH  29  30
ATOM     30  C   UNL     1      10.681  -6.561  35.028  1.00  0.00    -0.000 C 
BRANCH  30  31
ATOM     31  C   UNL     1      10.454  -7.991  34.519  1.00  0.00    -0.003 C 
ATOM     32  C   UNL     1       9.256  -8.053  33.575  1.00  0.00     0.004 C 
ENDBRANCH  30  31
ENDBRANCH  29  30
ENDBRANCH  28  29
ENDBRANCH  27  28
ENDBRANCH  26  27
ENDBRANCH  25  26
ENDBRANCH  24  25
ENDBRANCH  23  24
ENDBRANCH  22  23
ENDBRANCH  21  22
ENDBRANCH  20  21
ENDBRANCH  19  20
ENDBRANCH  18  19
ENDBRANCH   1  18
TORSDOF 28
ENDMDL
MODEL 3
REMARK VINA RESULT:    -3.574      1.858      5.514
REMARK INTER + INTRA:         -15.565
REMARK INTER:                 -10.175
REMARK INTRA:                  -5.390
REMARK UNBOUND:                -6.140
REMARK SMILES CCCCCCCCCCCCCCCCCCCCCCCCCCCCCC(=O)[O-]
REMARK SMILES IDX 16 1 17 2 18 3 19 4 20 5 21 6 22 7 23 8 24 9 25 10 26 11
REMARK SMILES IDX 27 12 28 13 29 14 30 15 31 16 32 17 15 18 14 19 13 20 12 21
REMARK SMILES IDX 11 22 10 23 9 24 8 25 7 26 6 27 5 28 4 29 3 30 2 31 1 32
REMARK H PARENT
REMARK Flexibility Score: inf
ROOT
ATOM      1  C   UNL     1       8.658  -6.335  33.327  1.00  0.00     0.000 C 
ENDROOT
BRANCH   1   2
ATOM      2  C   UNL     1       8.146  -5.383  34.420  1.00  0.00     0.000 C 
BRANCH   2   3
ATOM      3  C   UNL     1       9.197  -4.336  34.831  1.00  0.00     0.000 C 
BRANCH   3   4
ATOM      4  C   UNL     1      10.593  -4.649  34.275  1.00  0.00     0.000 C 
BRANCH   4   5
ATOM      5  C   UNL     1      11.654  -4.806  35.378  1.00  0.00     0.000 C 
BRANCH   5   6
ATOM      6  C   UNL     1      11.038  -4.920  36.782  1.00  0.00     0.000 C 
BRANCH   6   7
ATOM      7  C   UNL     1      10.930  -6.375  37.270  1.00  0.00     0.000 C 
BRANCH   7   8
ATOM      8  C   UNL     1      10.047  -6.470  38.522  1.00  0.00     0.000 C 
BRANCH   8   9
ATOM      9  C   UNL     1       9.459  -7.880  38.676  1.00  0.00     0.000 C 
BRANCH   9  10
ATOM     10  C   UNL     1       7.921  -7.887  38.715  1.00  0.00     0.000 C 
BRANCH  10  11
ATOM     11  C   UNL     1       7.268  -6.960  37.666  1.00  0.00     0.000 C 
BRANCH  11  12
ATOM     12  C   UNL     1       5.862  -7.439  37.270  1.00  0.00     0.000 C 
BRANCH  12  13
ATOM     13  C   UNL     1       5.742  -7.762  35.773  1.00  0.00     0.006 C 
BRANCH  13  14
ATOM     14  C   UNL     1       4.508  -8.615  35.453  1.00  0.00     0.053 C 
BRANCH  14  15
ATOM     15  C   UNL     1       4.777  -9.507  34.282  1.00  0.00     0.041 C 
ATOM     16  O   UNL     1       4.598 -10.750  34.379  1.00  0.00    -0.550 OA
ATOM     17  O   UNL     1       5.277  -8.972  33.102  1.00  0.00    -0.550 OA
ENDBRANCH  14  15
ENDBRANCH  13  14
ENDBRANCH  12  13
ENDBRANCH  11  12
ENDBRANCH  10  11
ENDBRANCH   9  10
ENDBRANCH   8   9
ENDBRANCH   7   8
ENDBRANCH   6   7
ENDBRANCH   5   6
ENDBRANCH   4   5
ENDBRANCH   3   4
ENDBRANCH   2   3
ENDBRANCH   1   2
BRANCH   1  18
ATOM     18  C   UNL     1       8.708  -7.818  33.767  1.00  0.00     0.000 C 
BRANCH  18  19
ATOM     19  C   UNL     1      10.140  -8.367  33.922  1.00  0.00     0.000 C 
BRANCH  19  20
ATOM     20  C   UNL     1      10.297  -9.394  35.061  1.00  0.00     0.000 C 
BRANCH  20  21
ATOM     21  C   UNL     1       8.947  -9.807  35.678  1.00  0.00     0.000 C 
BRANCH  21  22
ATOM     22  C   UNL     1       8.960 -11.261  36.186  1.00  0.00     0.000 C 
BRANCH  22  23
ATOM     23  C   UNL     1       8.834 -11.382  37.717  1.00  0.00     0.000 C 
BRANCH  23  24
ATOM     24  C   UNL     1      10.028 -12.116  38.353  1.00  0.00    -0.000 C 
BRANCH  24  25
ATOM     25  C   UNL     1      11.211 -12.269  37.385  1.00  0.00    -0.000 C 
BRANCH  25  26
ATOM     26  C   UNL     1      12.475 -11.546  37.870  1.00  0.00    -0.000 C 
BRANCH  26  27
ATOM     27  C   UNL     1      12.207 -10.043  38.039  1.00  0.00    -0.000 C 
BRANCH  27  28
ATOM     28  C   UNL     1      13.107  -9.388  39.099  1.00  0.00    -0.000 C 
BRANCH  28  29
ATOM     29  C   UNL     1      13.946  -8.231  38.528  1.00  0.00    -0.000 C 
BRANCH  29  30
ATOM     30  C   UNL     1      15.455  -8.434  38.744  1.00  0.00    -0.000 C 
BRANCH  30  31
ATOM     31  C   UNL     1      15.950  -9.785  38.211  1.00  0.00    -0.003 C 
ATOM     32  C   UNL     1      17.155  -9.603  37.291  1.00  0.00     0.004 C 
ENDBRANCH  30  31
ENDBRANCH  29  30
ENDBRANCH  28  29
ENDBRANCH  27  28
ENDBRANCH  26  27
ENDBRANCH  25  26
ENDBRANCH  24  25
ENDBRANCH  23  24
ENDBRANCH  22  23
ENDBRANCH  21  22
ENDBRANCH  20  21
ENDBRANCH  19  20
ENDBRANCH  18  19
ENDBRANCH   1  18
TORSDOF 28
ENDMDL
MODEL 4
REMARK VINA RESULT:    -3.555      1.475      5.426
REMARK INTER + INTRA:         -15.514
REMARK INTER:                 -10.561
REMARK INTRA:                  -4.953
REMARK UNBOUND:                -6.140
REMARK SMILES CCCCCCCCCCCCCCCCCCCCCCCCCCCCCC(=O)[O-]
REMARK SMILES IDX 16 1 17 2 18 3 19 4 20 5 21 6 22 7 23 8 24 9 25 10 26 11
REMARK SMILES IDX 27 12 28 13 29 14 30 15 31 16 32 17 15 18 14 19 13 20 12 21
REMARK SMILES IDX 11 22 10 23 9 24 8 25 7 26 6 27 5 28 4 29 3 30 2 31 1 32
REMARK H PARENT
REMARK Flexibility Score: inf
ROOT
ATOM      1  C   UNL     1       9.387  -8.249  33.072  1.00  0.00     0.000 C 
ENDROOT
BRANCH   1   2
ATOM      2  C   UNL     1       8.446  -7.116  33.515  1.00  0.00     0.000 C 
BRANCH   2   3
ATOM      3  C   UNL     1       8.726  -5.794  32.777  1.00  0.00     0.000 C 
BRANCH   3   4
ATOM      4  C   UNL     1       8.698  -4.577  33.711  1.00  0.00     0.000 C 
BRANCH   4   5
ATOM      5  C   UNL     1       9.027  -4.934  35.170  1.00  0.00     0.000 C 
BRANCH   5   6
ATOM      6  C   UNL     1       8.358  -3.986  36.179  1.00  0.00     0.000 C 
BRANCH   6   7
ATOM      7  C   UNL     1       8.582  -4.413  37.639  1.00  0.00     0.000 C 
BRANCH   7   8
ATOM      8  C   UNL     1       9.286  -5.774  37.712  1.00  0.00     0.000 C 
BRANCH   8   9
ATOM      9  C   UNL     1       8.693  -6.643  38.831  1.00  0.00     0.000 C 
BRANCH   9  10
ATOM     10  C   UNL     1       8.821  -8.151  38.551  1.00  0.00     0.000 C 
BRANCH  10  11
ATOM     11  C   UNL     1       7.465  -8.888  38.483  1.00  0.00     0.000 C 
BRANCH  11  12
ATOM     12  C   UNL     1       6.362  -8.007  37.875  1.00  0.00     0.000 C 
BRANCH  12  13
ATOM     13  C   UNL     1       6.516  -7.821  36.358  1.00  0.00     0.006 C 
BRANCH  13  14
ATOM     14  C   UNL     1       5.981  -9.018  35.562  1.00  0.00     0.053 C 
BRANCH  14  15
ATOM     15  C   UNL     1       5.052  -8.556  34.483  1.00  0.00     0.041 C 
ATOM     16  O   UNL     1       4.087  -7.797  34.761  1.00  0.00    -0.550 OA
ATOM     17  O   UNL     1       5.221  -9.008  33.180  1.00  0.00    -0.550 OA
ENDBRANCH  14  15
ENDBRANCH  13  14
ENDBRANCH  12  13
ENDBRANCH  11  12
ENDBRANCH  10  11
ENDBRANCH   9  10
ENDBRANCH   8   9
ENDBRANCH   7   8
ENDBRANCH   6   7
ENDBRANCH   5   6
ENDBRANCH   4   5
ENDBRANCH   3   4
ENDBRANCH   2   3
ENDBRANCH   1   2
BRANCH   1  18
ATOM     18  C   UNL     1      10.701  -8.321  33.888  1.00  0.00     0.000 C 
BRANCH  18  19
ATOM     19  C   UNL     1      10.486  -8.681  35.371  1.00  0.00     0.000 C 
BRANCH  19  20
ATOM     20  C   UNL     1       9.709  -9.993  35.592  1.00  0.00     0.000 C 
BRANCH  20  21
ATOM     21  C   UNL     1      10.638 -11.210  35.764  1.00  0.00     0.000 C 
BRANCH  21  22
ATOM     22  C   UNL     1      10.432 -11.913  37.119  1.00  0.00     0.000 C 
BRANCH  22  23
ATOM     23  C   UNL     1      11.040 -11.147  38.311  1.00  0.00     0.000 C 
BRANCH  23  24
ATOM     24  C   UNL     1      12.559 -10.944  38.172  1.00  0.00    -0.000 C 
BRANCH  24  25
ATOM     25  C   UNL     1      13.039  -9.628  38.803  1.00  0.00    -0.000 C 
BRANCH  25  26
ATOM     26  C   UNL     1      14.505  -9.313  38.477  1.00  0.00    -0.000 C 
BRANCH  26  27
ATOM     27  C   UNL     1      14.826  -7.844  38.796  1.00  0.00    -0.000 C 
BRANCH  27  28
ATOM     28  C   UNL     1      13.568  -6.971  38.931  1.00  0.00    -0.000 C 
BRANCH  28  29
ATOM     29  C   UNL     1      13.788  -5.535  38.420  1.00  0.00    -0.000 C 
BRANCH  29  30
ATOM     30  C   UNL     1      12.490  -4.884  37.913  1.00  0.00    -0.000 C 
BRANCH  30  31
ATOM     31  C   UNL     1      12.574  -4.476  36.436  1.00  0.00    -0.003 C 
ATOM     32  C   UNL     1      12.217  -3.003  36.254  1.00  0.00     0.004 C 
ENDBRANCH  30  31
ENDBRANCH  29  30
ENDBRANCH  28  29
ENDBRANCH  27  28
ENDBRANCH  26  27
ENDBRANCH  25  26
ENDBRANCH  24  25
ENDBRANCH  23  24
ENDBRANCH  22  23
ENDBRANCH  21  22
ENDBRANCH  20  21
ENDBRANCH  19  20
ENDBRANCH  18  19
ENDBRANCH   1  18
TORSDOF 28
ENDMDL
MODEL 5
REMARK VINA RESULT:    -3.546      1.993      5.120
REMARK INTER + INTRA:         -15.492
REMARK INTER:                 -10.624
REMARK INTRA:                  -4.868
REMARK UNBOUND:                -6.140
REMARK SMILES CCCCCCCCCCCCCCCCCCCCCCCCCCCCCC(=O)[O-]
REMARK SMILES IDX 16 1 17 2 18 3 19 4 20 5 21 6 22 7 23 8 24 9 25 10 26 11
REMARK SMILES IDX 27 12 28 13 29 14 30 15 31 16 32 17 15 18 14 19 13 20 12 21
REMARK SMILES IDX 11 22 10 23 9 24 8 25 7 26 6 27 5 28 4 29 3 30 2 31 1 32
REMARK H PARENT
REMARK Flexibility Score: inf
ROOT
ATOM      1  C   UNL     1      13.027 -11.950  37.796  1.00  0.00     0.000 C 
ENDROOT
BRANCH   1   2
ATOM      2  C   UNL     1      12.818 -13.019  36.710  1.00  0.00     0.000 C 
BRANCH   2   3
ATOM      3  C   UNL     1      11.774 -12.597  35.660  1.00  0.00     0.000 C 
BRANCH   3   4
ATOM      4  C   UNL     1      11.109 -11.254  35.992  1.00  0.00     0.000 C 
BRANCH   4   5
ATOM      5  C   UNL     1       9.573 -11.327  35.974  1.00  0.00     0.000 C 
BRANCH   5   6
ATOM      6  C   UNL     1       8.967 -11.432  37.383  1.00  0.00     0.000 C 
BRANCH   6   7
ATOM      7  C   UNL     1       9.677 -10.530  38.407  1.00  0.00     0.000 C 
BRANCH   7   8
ATOM      8  C   UNL     1       8.869  -9.250  38.665  1.00  0.00     0.000 C 
BRANCH   8   9
ATOM      9  C   UNL     1       9.436  -8.070  37.862  1.00  0.00     0.000 C 
BRANCH   9  10
ATOM     10  C   UNL     1       8.994  -6.703  38.414  1.00  0.00     0.000 C 
BRANCH  10  11
ATOM     11  C   UNL     1       7.705  -6.156  37.761  1.00  0.00     0.000 C 
BRANCH  11  12
ATOM     12  C   UNL     1       7.551  -6.631  36.307  1.00  0.00     0.000 C 
BRANCH  12  13
ATOM     13  C   UNL     1       6.361  -7.584  36.115  1.00  0.00     0.006 C 
BRANCH  13  14
ATOM     14  C   UNL     1       6.566  -8.549  34.940  1.00  0.00     0.053 C 
BRANCH  14  15
ATOM     15  C   UNL     1       5.260  -8.843  34.270  1.00  0.00     0.041 C 
ATOM     16  O   UNL     1       5.215  -9.038  33.027  1.00  0.00    -0.550 OA
ATOM     17  O   UNL     1       4.085  -8.848  35.011  1.00  0.00    -0.550 OA
ENDBRANCH  14  15
ENDBRANCH  13  14
ENDBRANCH  12  13
ENDBRANCH  11  12
ENDBRANCH  10  11
ENDBRANCH   9  10
ENDBRANCH   8   9
ENDBRANCH   7   8
ENDBRANCH   6   7
ENDBRANCH   5   6
ENDBRANCH   4   5
ENDBRANCH   3   4
ENDBRANCH   2   3
ENDBRANCH   1   2
BRANCH   1  18
ATOM     18  C   UNL     1      14.320 -12.147  38.622  1.00  0.00     0.000 C 
BRANCH  18  19
ATOM     19  C   UNL     1      15.574 -11.547  37.956  1.00  0.00     0.000 C 
BRANCH  19  20
ATOM     20  C   UNL     1      16.188 -10.362  38.727  1.00  0.00     0.000 C 
BRANCH  20  21
ATOM     21  C   UNL     1      16.044  -9.026  37.972  1.00  0.00     0.000 C 
BRANCH  21  22
ATOM     22  C   UNL     1      15.123  -8.037  38.711  1.00  0.00     0.000 C 
BRANCH  22  23
ATOM     23  C   UNL     1      13.639  -8.453  38.707  1.00  0.00     0.000 C 
BRANCH  23  24
ATOM     24  C   UNL     1      12.691  -7.267  38.959  1.00  0.00    -0.000 C 
BRANCH  24  25
ATOM     25  C   UNL     1      13.276  -5.930  38.479  1.00  0.00    -0.000 C 
BRANCH  25  26
ATOM     26  C   UNL     1      12.225  -5.020  37.828  1.00  0.00    -0.000 C 
BRANCH  26  27
ATOM     27  C   UNL     1      12.868  -4.142  36.744  1.00  0.00    -0.000 C 
BRANCH  27  28
ATOM     28  C   UNL     1      12.034  -4.071  35.455  1.00  0.00    -0.000 C 
BRANCH  28  29
ATOM     29  C   UNL     1      10.721  -4.869  35.556  1.00  0.00    -0.000 C 
BRANCH  29  30
ATOM     30  C   UNL     1      10.547  -5.866  34.398  1.00  0.00    -0.000 C 
BRANCH  30  31
ATOM     31  C   UNL     1      10.847  -7.312  34.816  1.00  0.00    -0.003 C 
ATOM     32  C   UNL     1      10.258  -8.305  33.817  1.00  0.00     0.004 C 
ENDBRANCH  30  31
ENDBRANCH  29  30
ENDBRANCH  28  29
ENDBRANCH  27  28
ENDBRANCH  26  27
ENDBRANCH  25  26
ENDBRANCH  24  25
ENDBRANCH  23  24
ENDBRANCH  22  23
ENDBRANCH  21  22
ENDBRANCH  20  21
ENDBRANCH  19  20
ENDBRANCH  18  19
ENDBRANCH   1  18
TORSDOF 28
ENDMDL
MODEL 6
REMARK VINA RESULT:    -3.507      3.254      6.068
REMARK INTER + INTRA:         -15.387
REMARK INTER:                  -9.872
REMARK INTRA:                  -5.515
REMARK UNBOUND:                -6.140
REMARK SMILES CCCCCCCCCCCCCCCCCCCCCCCCCCCCCC(=O)[O-]
REMARK SMILES IDX 16 1 17 2 18 3 19 4 20 5 21 6 22 7 23 8 24 9 25 10 26 11
REMARK SMILES IDX 27 12 28 13 29 14 30 15 31 16 32 17 15 18 14 19 13 20 12 21
REMARK SMILES IDX 11 22 10 23 9 24 8 25 7 26 6 27 5 28 4 29 3 30 2 31 1 32
REMARK H PARENT
REMARK Flexibility Score: inf
ROOT
ATOM      1  C   UNL     1      10.380  -8.224  34.128  1.00  0.00     0.000 C 
ENDROOT
BRANCH   1   2
ATOM      2  C   UNL     1      10.864  -9.567  34.700  1.00  0.00     0.000 C 
BRANCH   2   3
ATOM      3  C   UNL     1       9.832 -10.214  35.641  1.00  0.00     0.000 C 
BRANCH   3   4
ATOM      4  C   UNL     1       9.982 -11.739  35.727  1.00  0.00     0.000 C 
BRANCH   4   5
ATOM      5  C   UNL     1      11.450 -12.193  35.794  1.00  0.00     0.000 C 
BRANCH   5   6
ATOM      6  C   UNL     1      11.916 -12.484  37.230  1.00  0.00     0.000 C 
BRANCH   6   7
ATOM      7  C   UNL     1      13.296 -11.882  37.544  1.00  0.00     0.000 C 
BRANCH   7   8
ATOM      8  C   UNL     1      13.164 -10.642  38.439  1.00  0.00     0.000 C 
BRANCH   8   9
ATOM      9  C   UNL     1      11.759 -10.553  39.054  1.00  0.00     0.000 C 
BRANCH   9  10
ATOM     10  C   UNL     1      11.185  -9.126  39.030  1.00  0.00     0.000 C 
BRANCH  10  11
ATOM     11  C   UNL     1      12.096  -8.100  38.321  1.00  0.00     0.000 C 
BRANCH  11  12
ATOM     12  C   UNL     1      11.807  -6.661  38.780  1.00  0.00     0.000 C 
BRANCH  12  13
ATOM     13  C   UNL     1      12.883  -5.663  38.325  1.00  0.00     0.006 C 
BRANCH  13  14
ATOM     14  C   UNL     1      12.380  -4.715  37.228  1.00  0.00     0.053 C 
BRANCH  14  15
ATOM     15  C   UNL     1      13.491  -3.837  36.745  1.00  0.00     0.041 C 
ATOM     16  O   UNL     1      13.244  -2.866  35.982  1.00  0.00    -0.550 OA
ATOM     17  O   UNL     1      14.805  -4.125  37.093  1.00  0.00    -0.550 OA
ENDBRANCH  14  15
ENDBRANCH  13  14
ENDBRANCH  12  13
ENDBRANCH  11  12
ENDBRANCH  10  11
ENDBRANCH   9  10
ENDBRANCH   8   9
ENDBRANCH   7   8
ENDBRANCH   6   7
ENDBRANCH   5   6
ENDBRANCH   4   5
ENDBRANCH   3   4
ENDBRANCH   2   3
ENDBRANCH   1   2
BRANCH   1  18
ATOM     18  C   UNL     1       8.920  -8.256  33.617  1.00  0.00     0.000 C 
BRANCH  18  19
ATOM     19  C   UNL     1       8.188  -6.907  33.759  1.00  0.00     0.000 C 
BRANCH  19  20
ATOM     20  C   UNL     1       8.862  -5.745  33.004  1.00  0.00     0.000 C 
BRANCH  20  21
ATOM     21  C   UNL     1       9.065  -4.501  33.891  1.00  0.00     0.000 C 
BRANCH  21  22
ATOM     22  C   UNL     1       9.384  -4.873  35.351  1.00  0.00     0.000 C 
BRANCH  22  23
ATOM     23  C   UNL     1       8.368  -4.315  36.367  1.00  0.00     0.000 C 
BRANCH  23  24
ATOM     24  C   UNL     1       8.281  -5.166  37.646  1.00  0.00    -0.000 C 
BRANCH  24  25
ATOM     25  C   UNL     1       8.412  -6.670  37.364  1.00  0.00    -0.000 C 
BRANCH  25  26
ATOM     26  C   UNL     1       7.848  -7.539  38.497  1.00  0.00    -0.000 C 
BRANCH  26  27
ATOM     27  C   UNL     1       7.749  -9.007  38.054  1.00  0.00    -0.000 C 
BRANCH  27  28
ATOM     28  C   UNL     1       6.306  -9.454  37.771  1.00  0.00    -0.000 C 
BRANCH  28  29
ATOM     29  C   UNL     1       5.935  -9.343  36.281  1.00  0.00    -0.000 C 
BRANCH  29  30
ATOM     30  C   UNL     1       4.808  -8.327  36.028  1.00  0.00    -0.000 C 
BRANCH  30  31
ATOM     31  C   UNL     1       5.317  -7.033  35.379  1.00  0.00    -0.003 C 
ATOM     32  C   UNL     1       4.852  -5.807  36.161  1.00  0.00     0.004 C 
ENDBRANCH  30  31
ENDBRANCH  29  30
ENDBRANCH  28  29
ENDBRANCH  27  28
ENDBRANCH  26  27
ENDBRANCH  25  26
ENDBRANCH  24  25
ENDBRANCH  23  24
ENDBRANCH  22  23
ENDBRANCH  21  22
ENDBRANCH  20  21
ENDBRANCH  19  20
ENDBRANCH  18  19
ENDBRANCH   1  18
TORSDOF 28
ENDMDL
MODEL 7
REMARK VINA RESULT:    -3.477      2.706      5.801
REMARK INTER + INTRA:         -15.308
REMARK INTER:                 -10.455
REMARK INTRA:                  -4.853
REMARK UNBOUND:                -6.140
REMARK SMILES CCCCCCCCCCCCCCCCCCCCCCCCCCCCCC(=O)[O-]
REMARK SMILES IDX 16 1 17 2 18 3 19 4 20 5 21 6 22 7 23 8 24 9 25 10 26 11
REMARK SMILES IDX 27 12 28 13 29 14 30 15 31 16 32 17 15 18 14 19 13 20 12 21
REMARK SMILES IDX 11 22 10 23 9 24 8 25 7 26 6 27 5 28 4 29 3 30 2 31 1 32
REMARK H PARENT
REMARK Flexibility Score: inf
ROOT
ATOM      1  C   UNL     1       9.350  -9.662  38.315  1.00  0.00     0.000 C 
ENDROOT
BRANCH   1   2
ATOM      2  C   UNL     1      10.294 -10.327  37.301  1.00  0.00     0.000 C 
BRANCH   2   3
ATOM      3  C   UNL     1      11.689 -10.608  37.889  1.00  0.00     0.000 C 
BRANCH   3   4
ATOM      4  C   UNL     1      12.350 -11.851  37.279  1.00  0.00     0.000 C 
BRANCH   4   5
ATOM      5  C   UNL     1      13.793 -12.062  37.768  1.00  0.00     0.000 C 
BRANCH   5   6
ATOM      6  C   UNL     1      14.255 -10.967  38.743  1.00  0.00     0.000 C 
BRANCH   6   7
ATOM      7  C   UNL     1      15.710 -10.529  38.503  1.00  0.00     0.000 C 
BRANCH   7   8
ATOM      8  C   UNL     1      15.797  -9.013  38.273  1.00  0.00     0.000 C 
BRANCH   8   9
ATOM      9  C   UNL     1      14.495  -8.316  38.696  1.00  0.00     0.000 C 
BRANCH   9  10
ATOM     10  C   UNL     1      14.611  -6.782  38.699  1.00  0.00     0.000 C 
BRANCH  10  11
ATOM     11  C   UNL     1      13.269  -6.057  38.945  1.00  0.00     0.000 C 
BRANCH  11  12
ATOM     12  C   UNL     1      12.063  -6.963  38.648  1.00  0.00     0.000 C 
BRANCH  12  13
ATOM     13  C   UNL     1      10.783  -6.171  38.341  1.00  0.00     0.006 C 
BRANCH  13  14
ATOM     14  C   UNL     1      11.029  -5.013  37.365  1.00  0.00     0.053 C 
BRANCH  14  15
ATOM     15  C   UNL     1      10.021  -3.927  37.577  1.00  0.00     0.041 C 
ATOM     16  O   UNL     1      10.397  -2.740  37.761  1.00  0.00    -0.550 OA
ATOM     17  O   UNL     1       8.667  -4.237  37.625  1.00  0.00    -0.550 OA
ENDBRANCH  14  15
ENDBRANCH  13  14
ENDBRANCH  12  13
ENDBRANCH  11  12
ENDBRANCH  10  11
ENDBRANCH   9  10
ENDBRANCH   8   9
ENDBRANCH   7   8
ENDBRANCH   6   7
ENDBRANCH   5   6
ENDBRANCH   4   5
ENDBRANCH   3   4
ENDBRANCH   2   3
ENDBRANCH   1   2
BRANCH   1  18
ATOM     18  C   UNL     1       8.137 -10.540  38.706  1.00  0.00     0.000 C 
BRANCH  18  19
ATOM     19  C   UNL     1       6.810 -10.075  38.074  1.00  0.00     0.000 C 
BRANCH  19  20
ATOM     20  C   UNL     1       6.459  -8.603  38.365  1.00  0.00     0.000 C 
BRANCH  20  21
ATOM     21  C   UNL     1       4.942  -8.374  38.511  1.00  0.00     0.000 C 
BRANCH  21  22
ATOM     22  C   UNL     1       4.118  -9.516  37.887  1.00  0.00     0.000 C 
BRANCH  22  23
ATOM     23  C   UNL     1       3.690  -9.247  36.431  1.00  0.00     0.000 C 
BRANCH  23  24
ATOM     24  C   UNL     1       3.274  -7.784  36.198  1.00  0.00    -0.000 C 
BRANCH  24  25
ATOM     25  C   UNL     1       4.144  -7.084  35.143  1.00  0.00    -0.000 C 
BRANCH  25  26
ATOM     26  C   UNL     1       5.129  -6.078  35.756  1.00  0.00    -0.000 C 
BRANCH  26  27
ATOM     27  C   UNL     1       6.572  -6.429  35.364  1.00  0.00    -0.000 C 
BRANCH  27  28
ATOM     28  C   UNL     1       6.703  -7.826  34.736  1.00  0.00    -0.000 C 
BRANCH  28  29
ATOM     29  C   UNL     1       8.119  -8.411  34.884  1.00  0.00    -0.000 C 
BRANCH  29  30
ATOM     30  C   UNL     1       9.151  -7.355  35.315  1.00  0.00    -0.000 C 
BRANCH  30  31
ATOM     31  C   UNL     1      10.548  -7.629  34.742  1.00  0.00    -0.003 C 
ATOM     32  C   UNL     1      10.484  -8.644  33.603  1.00  0.00     0.004 C 
ENDBRANCH  30  31
ENDBRANCH  29  30
ENDBRANCH  28  29
ENDBRANCH  27  28
ENDBRANCH  26  27
ENDBRANCH  25  26
ENDBRANCH  24  25
ENDBRANCH  23  24
ENDBRANCH  22  23
ENDBRANCH  21  22
ENDBRANCH  20  21
ENDBRANCH  19  20
ENDBRANCH  18  19
ENDBRANCH   1  18
TORSDOF 28
ENDMDL
MODEL 8
REMARK VINA RESULT:    -3.464      1.984      5.849
REMARK INTER + INTRA:         -15.274
REMARK INTER:                 -10.669
REMARK INTRA:                  -4.605
REMARK UNBOUND:                -6.140
REMARK SMILES CCCCCCCCCCCCCCCCCCCCCCCCCCCCCC(=O)[O-]
REMARK SMILES IDX 16 1 17 2 18 3 19 4 20 5 21 6 22 7 23 8 24 9 25 10 26 11
REMARK SMILES IDX 27 12 28 13 29 14 30 15 31 16 32 17 15 18 14 19 13 20 12 21
REMARK SMILES IDX 11 22 10 23 9 24 8 25 7 26 6 27 5 28 4 29 3 30 2 31 1 32
REMARK H PARENT
REMARK Flexibility Score: inf
ROOT
ATOM      1  C   UNL     1       9.137  -6.855  33.315  1.00  0.00     0.000 C 
ENDROOT
BRANCH   1   2
ATOM      2  C   UNL     1       8.892  -5.337  33.303  1.00  0.00     0.000 C 
BRANCH   2   3
ATOM      3  C   UNL     1       8.988  -4.713  34.707  1.00  0.00     0.000 C 
BRANCH   3   4
ATOM      4  C   UNL     1       7.612  -4.464  35.339  1.00  0.00     0.000 C 
BRANCH   4   5
ATOM      5  C   UNL     1       7.495  -5.035  36.763  1.00  0.00     0.000 C 
BRANCH   5   6
ATOM      6  C   UNL     1       8.863  -5.360  37.385  1.00  0.00     0.000 C 
BRANCH   6   7
ATOM      7  C   UNL     1       8.753  -6.260  38.629  1.00  0.00     0.000 C 
BRANCH   7   8
ATOM      8  C   UNL     1       7.314  -6.757  38.822  1.00  0.00     0.000 C 
BRANCH   8   9
ATOM      9  C   UNL     1       7.160  -8.204  38.330  1.00  0.00     0.000 C 
BRANCH   9  10
ATOM     10  C   UNL     1       5.732  -8.749  38.511  1.00  0.00     0.000 C 
BRANCH  10  11
ATOM     11  C   UNL     1       4.685  -7.659  38.829  1.00  0.00     0.000 C 
BRANCH  11  12
ATOM     12  C   UNL     1       3.653  -7.507  37.700  1.00  0.00     0.000 C 
BRANCH  12  13
ATOM     13  C   UNL     1       4.225  -6.800  36.462  1.00  0.00     0.006 C 
BRANCH  13  14
ATOM     14  C   UNL     1       3.859  -7.517  35.155  1.00  0.00     0.053 C 
BRANCH  14  15
ATOM     15  C   UNL     1       5.044  -8.252  34.612  1.00  0.00     0.041 C 
ATOM     16  O   UNL     1       4.884  -9.206  33.807  1.00  0.00    -0.550 OA
ATOM     17  O   UNL     1       6.324  -7.917  35.038  1.00  0.00    -0.550 OA
ENDBRANCH  14  15
ENDBRANCH  13  14
ENDBRANCH  12  13
ENDBRANCH  11  12
ENDBRANCH  10  11
ENDBRANCH   9  10
ENDBRANCH   8   9
ENDBRANCH   7   8
ENDBRANCH   6   7
ENDBRANCH   5   6
ENDBRANCH   4   5
ENDBRANCH   3   4
ENDBRANCH   2   3
ENDBRANCH   1   2
BRANCH   1  18
ATOM     18  C   UNL     1       9.886  -7.355  34.573  1.00  0.00     0.000 C 
BRANCH  18  19
ATOM     19  C   UNL     1       9.957  -8.891  34.678  1.00  0.00     0.000 C 
BRANCH  19  20
ATOM     20  C   UNL     1       9.941  -9.422  36.125  1.00  0.00     0.000 C 
BRANCH  20  21
ATOM     21  C   UNL     1      11.016  -8.763  37.010  1.00  0.00     0.000 C 
BRANCH  21  22
ATOM     22  C   UNL     1      10.894  -9.184  38.487  1.00  0.00     0.000 C 
BRANCH  22  23
ATOM     23  C   UNL     1      12.192  -9.774  39.071  1.00  0.00     0.000 C 
BRANCH  23  24
ATOM     24  C   UNL     1      12.693 -10.999  38.285  1.00  0.00    -0.000 C 
BRANCH  24  25
ATOM     25  C   UNL     1      13.964 -11.611  38.893  1.00  0.00    -0.000 C 
BRANCH  25  26
ATOM     26  C   UNL     1      15.218 -11.337  38.050  1.00  0.00    -0.000 C 
BRANCH  26  27
ATOM     27  C   UNL     1      16.067 -10.228  38.690  1.00  0.00    -0.000 C 
BRANCH  27  28
ATOM     28  C   UNL     1      15.803  -8.842  38.081  1.00  0.00    -0.000 C 
BRANCH  28  29
ATOM     29  C   UNL     1      15.044  -7.909  39.041  1.00  0.00    -0.000 C 
BRANCH  29  30
ATOM     30  C   UNL     1      14.617  -6.592  38.371  1.00  0.00    -0.000 C 
BRANCH  30  31
ATOM     31  C   UNL     1      13.362  -5.985  39.012  1.00  0.00    -0.003 C 
ATOM     32  C   UNL     1      12.503  -5.274  37.968  1.00  0.00     0.004 C 
ENDBRANCH  30  31
ENDBRANCH  29  30
ENDBRANCH  28  29
ENDBRANCH  27  28
ENDBRANCH  26  27
ENDBRANCH  25  26
ENDBRANCH  24  25
ENDBRANCH  23  24
ENDBRANCH  22  23
ENDBRANCH  21  22
ENDBRANCH  20  21
ENDBRANCH  19  20
ENDBRANCH  18  19
ENDBRANCH   1  18
TORSDOF 28
ENDMDL
MODEL 9
REMARK VINA RESULT:    -3.419      3.456      7.278
REMARK INTER + INTRA:         -15.155
REMARK INTER:                  -9.516
REMARK INTRA:                  -5.639
REMARK UNBOUND:                -6.140
REMARK SMILES CCCCCCCCCCCCCCCCCCCCCCCCCCCCCC(=O)[O-]
REMARK SMILES IDX 16 1 17 2 18 3 19 4 20 5 21 6 22 7 23 8 24 9 25 10 26 11
REMARK SMILES IDX 27 12 28 13 29 14 30 15 31 16 32 17 15 18 14 19 13 20 12 21
REMARK SMILES IDX 11 22 10 23 9 24 8 25 7 26 6 27 5 28 4 29 3 30 2 31 1 32
REMARK H PARENT
REMARK Flexibility Score: inf
ROOT
ATOM      1  C   UNL     1      10.876  -4.814  35.006  1.00  0.00     0.000 C 
ENDROOT
BRANCH   1   2
ATOM      2  C   UNL     1       9.432  -4.498  34.585  1.00  0.00     0.000 C 
BRANCH   2   3
ATOM      3  C   UNL     1       8.999  -5.280  33.331  1.00  0.00     0.000 C 
BRANCH   3   4
ATOM      4  C   UNL     1       8.416  -6.660  33.665  1.00  0.00     0.000 C 
BRANCH   4   5
ATOM      5  C   UNL     1       9.438  -7.797  33.500  1.00  0.00     0.000 C 
BRANCH   5   6
ATOM      6  C   UNL     1       9.150  -8.992  34.423  1.00  0.00     0.000 C 
BRANCH   6   7
ATOM      7  C   UNL     1      10.419  -9.776  34.799  1.00  0.00     0.000 C 
BRANCH   7   8
ATOM      8  C   UNL     1      10.062 -11.106  35.479  1.00  0.00     0.000 C 
BRANCH   8   9
ATOM      9  C   UNL     1      11.301 -11.743  36.126  1.00  0.00     0.000 C 
BRANCH   9  10
ATOM     10  C   UNL     1      10.994 -12.407  37.480  1.00  0.00     0.000 C 
BRANCH  10  11
ATOM     11  C   UNL     1      12.097 -12.195  38.541  1.00  0.00     0.000 C 
BRANCH  11  12
ATOM     12  C   UNL     1      13.379 -11.609  37.928  1.00  0.00     0.000 C 
BRANCH  12  13
ATOM     13  C   UNL     1      14.082 -10.609  38.859  1.00  0.00     0.006 C 
BRANCH  13  14
ATOM     14  C   UNL     1      13.591  -9.170  38.653  1.00  0.00     0.053 C 
BRANCH  14  15
ATOM     15  C   UNL     1      14.750  -8.225  38.593  1.00  0.00     0.041 C 
ATOM     16  O   UNL     1      15.916  -8.663  38.410  1.00  0.00    -0.550 OA
ATOM     17  O   UNL     1      14.548  -6.865  38.795  1.00  0.00    -0.550 OA
ENDBRANCH  14  15
ENDBRANCH  13  14
ENDBRANCH  12  13
ENDBRANCH  11  12
ENDBRANCH  10  11
ENDBRANCH   9  10
ENDBRANCH   8   9
ENDBRANCH   7   8
ENDBRANCH   6   7
ENDBRANCH   5   6
ENDBRANCH   4   5
ENDBRANCH   3   4
ENDBRANCH   2   3
ENDBRANCH   1   2
BRANCH   1  18
ATOM     18  C   UNL     1      11.229  -4.328  36.433  1.00  0.00     0.000 C 
BRANCH  18  19
ATOM     19  C   UNL     1      11.451  -5.476  37.437  1.00  0.00     0.000 C 
BRANCH  19  20
ATOM     20  C   UNL     1      11.014  -6.859  36.916  1.00  0.00     0.000 C 
BRANCH  20  21
ATOM     21  C   UNL     1       9.764  -7.397  37.638  1.00  0.00     0.000 C 
BRANCH  21  22
ATOM     22  C   UNL     1      10.054  -8.697  38.412  1.00  0.00     0.000 C 
BRANCH  22  23
ATOM     23  C   UNL     1       8.808  -9.579  38.627  1.00  0.00     0.000 C 
BRANCH  23  24
ATOM     24  C   UNL     1       7.649  -9.206  37.686  1.00  0.00    -0.000 C 
BRANCH  24  25
ATOM     25  C   UNL     1       6.371  -8.821  38.447  1.00  0.00    -0.000 C 
BRANCH  25  26
ATOM     26  C   UNL     1       5.757  -7.504  37.952  1.00  0.00    -0.000 C 
BRANCH  26  27
ATOM     27  C   UNL     1       6.268  -7.166  36.543  1.00  0.00    -0.000 C 
BRANCH  27  28
ATOM     28  C   UNL     1       5.190  -7.324  35.459  1.00  0.00    -0.000 C 
BRANCH  28  29
ATOM     29  C   UNL     1       5.395  -8.587  34.602  1.00  0.00    -0.000 C 
BRANCH  29  30
ATOM     30  C   UNL     1       4.357  -9.681  34.906  1.00  0.00    -0.000 C 
BRANCH  30  31
ATOM     31  C   UNL     1       5.004 -10.997  35.356  1.00  0.00    -0.003 C 
ATOM     32  C   UNL     1       4.500 -11.412  36.737  1.00  0.00     0.004 C 
ENDBRANCH  30  31
ENDBRANCH  29  30
ENDBRANCH  28  29
ENDBRANCH  27  28
ENDBRANCH  26  27
ENDBRANCH  25  26
ENDBRANCH  24  25
ENDBRANCH  23  24
ENDBRANCH  22  23
ENDBRANCH  21  22
ENDBRANCH  20  21
ENDBRANCH  19  20
ENDBRANCH  18  19
ENDBRANCH   1  18
TORSDOF 28
ENDMDL
