MODEL 1
REMARK VINA RESULT:    28.336      0.000      0.000
REMARK INTER + INTRA:          34.640
REMARK INTER:                  34.962
REMARK INTRA:                  -0.323
REMARK UNBOUND:                -0.323
REMARK SMILES O=c1c(O)c(-c2cc(O)c(O)c(O)c2)oc2cc(O)cc(O)c12
REMARK SMILES IDX 5 1 3 2 2 3 1 4 23 5 21 6 20 7 18 8 17 9 16 10 15 11 6 12
REMARK SMILES IDX 7 13 8 14 14 15 10 16 12 17 9 18 11 20 13 22 4 24 22 26
REMARK SMILES IDX 19 28
REMARK H PARENT 9 19 11 21 13 23 4 25 22 27 19 29
REMARK Flexibility Score: inf
ROOT
ATOM      1  C   UNL     1      29.352  33.433  49.086  1.00  0.00     0.180 A 
ATOM      2  C   UNL     1      29.782  32.479  50.023  1.00  0.00     0.208 A 
ATOM      3  C   UNL     1      29.513  31.121  49.787  1.00  0.00     0.238 A 
ATOM      4  O   UNL     1      29.853  30.277  50.657  1.00  0.00    -0.285 OA
ATOM      5  C   UNL     1      28.831  30.734  48.608  1.00  0.00     0.111 A 
ATOM      6  C   UNL     1      28.540  29.384  48.248  1.00  0.00     0.134 A 
ATOM      7  C   UNL     1      27.745  29.126  47.123  1.00  0.00     0.093 A 
ATOM      8  C   UNL     1      27.287  30.166  46.311  1.00  0.00     0.123 A 
ATOM      9  C   UNL     1      27.615  31.483  46.623  1.00  0.00     0.094 A 
ATOM     10  C   UNL     1      28.376  31.775  47.757  1.00  0.00     0.146 A 
ATOM     11  O   UNL     1      28.658  33.045  48.024  1.00  0.00    -0.452 OA
ENDROOT
BRANCH   1  12
ATOM     12  C   UNL     1      29.622  34.880  49.255  1.00  0.00     0.029 A 
ATOM     13  C   UNL     1      30.895  35.383  48.956  1.00  0.00     0.062 A 
ATOM     14  C   UNL     1      31.183  36.740  49.123  1.00  0.00     0.162 A 
ATOM     15  C   UNL     1      28.646  35.750  49.765  1.00  0.00     0.062 A 
ATOM     16  C   UNL     1      30.198  37.618  49.613  1.00  0.00     0.200 A 
ATOM     17  C   UNL     1      28.919  37.111  49.943  1.00  0.00     0.162 A 
BRANCH  14  18
ATOM     18  O   UNL     1      32.459  37.199  48.797  1.00  0.00    -0.504 OA
ATOM     19  H   UNL     1      33.289  36.634  48.930  1.00  0.00     0.293 HD
ENDBRANCH  14  18
BRANCH  16  20
ATOM     20  O   UNL     1      30.525  38.969  49.757  1.00  0.00    -0.502 OA
ATOM     21  H   UNL     1      30.036  39.609  50.366  1.00  0.00     0.293 HD
ENDBRANCH  16  20
BRANCH  17  22
ATOM     22  O   UNL     1      27.897  37.916  50.455  1.00  0.00    -0.504 OA
ATOM     23  H   UNL     1      28.034  38.627  51.157  1.00  0.00     0.293 HD
ENDBRANCH  17  22
ENDBRANCH   1  12
BRANCH   2  24
ATOM     24  O   UNL     1      30.435  32.885  51.191  1.00  0.00    -0.502 OA
ATOM     25  H   UNL     1      31.042  32.268  51.718  1.00  0.00     0.293 HD
ENDBRANCH   2  24
BRANCH   6  26
ATOM     26  O   UNL     1      29.025  28.270  48.938  1.00  0.00    -0.507 OA
ATOM     27  H   UNL     1      28.447  27.543  49.333  1.00  0.00     0.293 HD
ENDBRANCH   6  26
BRANCH   8  28
ATOM     28  O   UNL     1      26.510  29.900  45.186  1.00  0.00    -0.508 OA
ATOM     29  H   UNL     1      26.616  29.039  44.661  1.00  0.00     0.293 HD
ENDBRANCH   8  28
TORSDOF 7
ENDMDL
MODEL 2
REMARK VINA RESULT:    28.456      1.219      2.806
REMARK INTER + INTRA:          34.787
REMARK INTER:                  35.075
REMARK INTRA:                  -0.288
REMARK UNBOUND:                -0.323
REMARK SMILES O=c1c(O)c(-c2cc(O)c(O)c(O)c2)oc2cc(O)cc(O)c12
REMARK SMILES IDX 5 1 3 2 2 3 1 4 23 5 21 6 20 7 18 8 17 9 16 10 15 11 6 12
REMARK SMILES IDX 7 13 8 14 14 15 10 16 12 17 9 18 11 20 13 22 4 24 22 26
REMARK SMILES IDX 19 28
REMARK H PARENT 9 19 11 21 13 23 4 25 22 27 19 29
REMARK Flexibility Score: inf
ROOT
ATOM      1  C   UNL     1      29.078  33.240  48.505  1.00  0.00     0.180 A 
ATOM      2  C   UNL     1      28.267  32.972  47.389  1.00  0.00     0.208 A 
ATOM      3  C   UNL     1      28.001  31.638  47.045  1.00  0.00     0.238 A 
ATOM      4  O   UNL     1      27.319  31.405  46.013  1.00  0.00    -0.285 OA
ATOM      5  C   UNL     1      28.535  30.588  47.830  1.00  0.00     0.111 A 
ATOM      6  C   UNL     1      28.297  29.200  47.597  1.00  0.00     0.134 A 
ATOM      7  C   UNL     1      28.982  28.245  48.358  1.00  0.00     0.093 A 
ATOM      8  C   UNL     1      29.846  28.628  49.387  1.00  0.00     0.123 A 
ATOM      9  C   UNL     1      30.039  29.980  49.660  1.00  0.00     0.094 A 
ATOM     10  C   UNL     1      29.398  30.956  48.895  1.00  0.00     0.146 A 
ATOM     11  O   UNL     1      29.618  32.234  49.182  1.00  0.00    -0.452 OA
ENDROOT
BRANCH   1  12
ATOM     12  C   UNL     1      29.383  34.622  48.944  1.00  0.00     0.029 A 
ATOM     13  C   UNL     1      30.687  35.117  48.808  1.00  0.00     0.062 A 
ATOM     14  C   UNL     1      31.008  36.409  49.232  1.00  0.00     0.162 A 
ATOM     15  C   UNL     1      28.407  35.428  49.551  1.00  0.00     0.062 A 
ATOM     16  C   UNL     1      30.024  37.227  49.818  1.00  0.00     0.200 A 
ATOM     17  C   UNL     1      28.712  36.723  49.984  1.00  0.00     0.162 A 
BRANCH  14  18
ATOM     18  O   UNL     1      32.315  36.865  49.060  1.00  0.00    -0.504 OA
ATOM     19  H   UNL     1      32.727  37.568  49.662  1.00  0.00     0.293 HD
ENDBRANCH  14  18
BRANCH  16  20
ATOM     20  O   UNL     1      30.385  38.516  50.219  1.00  0.00    -0.502 OA
ATOM     21  H   UNL     1      31.320  38.785  50.488  1.00  0.00     0.293 HD
ENDBRANCH  16  20
BRANCH  17  22
ATOM     22  O   UNL     1      27.687  37.466  50.577  1.00  0.00    -0.504 OA
ATOM     23  H   UNL     1      27.655  38.474  50.595  1.00  0.00     0.293 HD
ENDBRANCH  17  22
ENDBRANCH   1  12
BRANCH   2  24
ATOM     24  O   UNL     1      27.768  34.024  46.615  1.00  0.00    -0.502 OA
ATOM     25  H   UNL     1      28.307  34.859  46.419  1.00  0.00     0.293 HD
ENDBRANCH   2  24
BRANCH   6  26
ATOM     26  O   UNL     1      27.385  28.712  46.657  1.00  0.00    -0.507 OA
ATOM     27  H   UNL     1      26.551  28.191  46.883  1.00  0.00     0.293 HD
ENDBRANCH   6  26
BRANCH   8  28
ATOM     28  O   UNL     1      30.511  27.671  50.149  1.00  0.00    -0.508 OA
ATOM     29  H   UNL     1      31.106  27.933  50.927  1.00  0.00     0.293 HD
ENDBRANCH   8  28
TORSDOF 7
ENDMDL
MODEL 3
REMARK VINA RESULT:    29.271      1.391      7.058
REMARK INTER + INTRA:          35.793
REMARK INTER:                  36.150
REMARK INTRA:                  -0.357
REMARK UNBOUND:                -0.323
REMARK SMILES O=c1c(O)c(-c2cc(O)c(O)c(O)c2)oc2cc(O)cc(O)c12
REMARK SMILES IDX 5 1 3 2 2 3 1 4 23 5 21 6 20 7 18 8 17 9 16 10 15 11 6 12
REMARK SMILES IDX 7 13 8 14 14 15 10 16 12 17 9 18 11 20 13 22 4 24 22 26
REMARK SMILES IDX 19 28
REMARK H PARENT 9 19 11 21 13 23 4 25 22 27 19 29
REMARK Flexibility Score: inf
ROOT
ATOM      1  C   UNL     1      29.118  33.907  49.074  1.00  0.00     0.180 A 
ATOM      2  C   UNL     1      30.338  34.568  48.857  1.00  0.00     0.208 A 
ATOM      3  C   UNL     1      30.432  35.938  49.145  1.00  0.00     0.238 A 
ATOM      4  O   UNL     1      31.512  36.536  48.897  1.00  0.00    -0.285 OA
ATOM      5  C   UNL     1      29.309  36.627  49.663  1.00  0.00     0.111 A 
ATOM      6  C   UNL     1      29.303  38.007  50.029  1.00  0.00     0.134 A 
ATOM      7  C   UNL     1      28.099  38.615  50.407  1.00  0.00     0.093 A 
ATOM      8  C   UNL     1      26.916  37.878  50.496  1.00  0.00     0.123 A 
ATOM      9  C   UNL     1      26.925  36.518  50.198  1.00  0.00     0.094 A 
ATOM     10  C   UNL     1      28.102  35.890  49.782  1.00  0.00     0.146 A 
ATOM     11  O   UNL     1      28.064  34.594  49.498  1.00  0.00    -0.452 OA
ENDROOT
BRANCH   1  12
ATOM     12  C   UNL     1      28.950  32.458  48.816  1.00  0.00     0.029 A 
ATOM     13  C   UNL     1      29.260  31.537  49.826  1.00  0.00     0.062 A 
ATOM     14  C   UNL     1      29.130  30.164  49.605  1.00  0.00     0.162 A 
ATOM     15  C   UNL     1      28.543  31.981  47.560  1.00  0.00     0.062 A 
ATOM     16  C   UNL     1      28.699  29.686  48.354  1.00  0.00     0.200 A 
ATOM     17  C   UNL     1      28.411  30.609  47.320  1.00  0.00     0.162 A 
BRANCH  14  18
ATOM     18  O   UNL     1      29.433  29.286  50.646  1.00  0.00    -0.504 OA
ATOM     19  H   UNL     1      28.790  28.567  50.953  1.00  0.00     0.293 HD
ENDBRANCH  14  18
BRANCH  16  20
ATOM     20  O   UNL     1      28.573  28.305  48.177  1.00  0.00    -0.502 OA
ATOM     21  H   UNL     1      29.313  27.707  47.838  1.00  0.00     0.293 HD
ENDBRANCH  16  20
BRANCH  17  22
ATOM     22  O   UNL     1      28.000  30.210  46.045  1.00  0.00    -0.504 OA
ATOM     23  H   UNL     1      28.608  30.170  45.240  1.00  0.00     0.293 HD
ENDBRANCH  17  22
ENDBRANCH   1  12
BRANCH   2  24
ATOM     24  O   UNL     1      31.428  33.873  48.324  1.00  0.00    -0.502 OA
ATOM     25  H   UNL     1      31.336  33.225  47.551  1.00  0.00     0.293 HD
ENDBRANCH   2  24
BRANCH   6  26
ATOM     26  O   UNL     1      30.445  38.811  50.063  1.00  0.00    -0.507 OA
ATOM     27  H   UNL     1      31.385  38.480  49.902  1.00  0.00     0.293 HD
ENDBRANCH   6  26
BRANCH   8  28
ATOM     28  O   UNL     1      25.727  38.487  50.888  1.00  0.00    -0.508 OA
ATOM     29  H   UNL     1      25.586  39.486  50.792  1.00  0.00     0.293 HD
ENDBRANCH   8  28
TORSDOF 7
ENDMDL
MODEL 4
REMARK VINA RESULT:    29.396     10.635     12.086
REMARK INTER + INTRA:          35.948
REMARK INTER:                  35.467
REMARK INTRA:                   0.481
REMARK UNBOUND:                -0.323
REMARK SMILES O=c1c(O)c(-c2cc(O)c(O)c(O)c2)oc2cc(O)cc(O)c12
REMARK SMILES IDX 5 1 3 2 2 3 1 4 23 5 21 6 20 7 18 8 17 9 16 10 15 11 6 12
REMARK SMILES IDX 7 13 8 14 14 15 10 16 12 17 9 18 11 20 13 22 4 24 22 26
REMARK SMILES IDX 19 28
REMARK H PARENT 9 19 11 21 13 23 4 25 22 27 19 29
REMARK Flexibility Score: inf
ROOT
ATOM      1  C   UNL     1      28.924  23.549  45.393  1.00  0.00     0.180 A 
ATOM      2  C   UNL     1      29.025  24.315  44.220  1.00  0.00     0.208 A 
ATOM      3  C   UNL     1      30.295  24.571  43.680  1.00  0.00     0.238 A 
ATOM      4  O   UNL     1      30.382  25.303  42.660  1.00  0.00    -0.285 OA
ATOM      5  C   UNL     1      31.447  24.042  44.310  1.00  0.00     0.111 A 
ATOM      6  C   UNL     1      32.781  24.205  43.828  1.00  0.00     0.134 A 
ATOM      7  C   UNL     1      33.855  23.750  44.603  1.00  0.00     0.093 A 
ATOM      8  C   UNL     1      33.641  23.082  45.810  1.00  0.00     0.123 A 
ATOM      9  C   UNL     1      32.340  22.867  46.260  1.00  0.00     0.094 A 
ATOM     10  C   UNL     1      31.249  23.340  45.527  1.00  0.00     0.146 A 
ATOM     11  O   UNL     1      30.026  23.123  45.997  1.00  0.00    -0.452 OA
ENDROOT
BRANCH   1  12
ATOM     12  C   UNL     1      27.617  23.217  46.007  1.00  0.00     0.029 A 
ATOM     13  C   UNL     1      26.436  23.490  45.306  1.00  0.00     0.062 A 
ATOM     14  C   UNL     1      25.189  23.206  45.869  1.00  0.00     0.162 A 
ATOM     15  C   UNL     1      27.533  22.688  47.305  1.00  0.00     0.062 A 
ATOM     16  C   UNL     1      25.104  22.654  47.160  1.00  0.00     0.200 A 
ATOM     17  C   UNL     1      26.293  22.401  47.886  1.00  0.00     0.162 A 
BRANCH  14  18
ATOM     18  O   UNL     1      24.041  23.480  45.126  1.00  0.00    -0.504 OA
ATOM     19  H   UNL     1      24.080  23.860  44.188  1.00  0.00     0.293 HD
ENDBRANCH  14  18
BRANCH  16  20
ATOM     20  O   UNL     1      23.838  22.376  47.682  1.00  0.00    -0.502 OA
ATOM     21  H   UNL     1      23.542  22.626  48.615  1.00  0.00     0.293 HD
ENDBRANCH  16  20
BRANCH  17  22
ATOM     22  O   UNL     1      26.289  21.875  49.181  1.00  0.00    -0.504 OA
ATOM     23  H   UNL     1      25.504  21.397  49.596  1.00  0.00     0.293 HD
ENDBRANCH  17  22
ENDBRANCH   1  12
BRANCH   2  24
ATOM     24  O   UNL     1      27.875  24.845  43.626  1.00  0.00    -0.502 OA
ATOM     25  H   UNL     1      27.658  24.711  42.645  1.00  0.00     0.293 HD
ENDBRANCH   2  24
BRANCH   6  26
ATOM     26  O   UNL     1      33.100  24.776  42.593  1.00  0.00    -0.507 OA
ATOM     27  H   UNL     1      32.469  24.838  41.808  1.00  0.00     0.293 HD
ENDBRANCH   6  26
BRANCH   8  28
ATOM     28  O   UNL     1      34.714  22.619  46.567  1.00  0.00    -0.508 OA
ATOM     29  H   UNL     1      35.179  23.211  47.246  1.00  0.00     0.293 HD
ENDBRANCH   8  28
TORSDOF 7
ENDMDL
