MODEL 1
REMARK VINA RESULT:    -6.689      0.000      0.000
REMARK INTER + INTRA:          -8.605
REMARK INTER:                  -8.253
REMARK INTRA:                  -0.352
REMARK UNBOUND:                -0.352
REMARK SMILES O=c1c(O)c(-c2cc(O)c(O)c(O)c2)oc2cc(O)cc(O)c12
REMARK SMILES IDX 5 1 3 2 2 3 1 4 23 5 21 6 20 7 18 8 17 9 16 10 15 11 6 12
REMARK SMILES IDX 7 13 8 14 14 15 10 16 12 17 9 18 11 20 13 22 4 24 22 26
REMARK SMILES IDX 19 28
REMARK H PARENT 9 19 11 21 13 23 4 25 22 27 19 29
REMARK Flexibility Score: inf
ROOT
ATOM      1  C   UNL     1     106.796 121.266 120.234  1.00  0.00     0.180 A 
ATOM      2  C   UNL     1     105.779 120.711 121.030  1.00  0.00     0.208 A 
ATOM      3  C   UNL     1     104.494 121.272 120.981  1.00  0.00     0.238 A 
ATOM      4  O   UNL     1     103.574 120.737 121.654  1.00  0.00    -0.285 OA
ATOM      5  C   UNL     1     104.243 122.389 120.148  1.00  0.00     0.111 A 
ATOM      6  C   UNL     1     102.988 123.063 120.051  1.00  0.00     0.134 A 
ATOM      7  C   UNL     1     102.820 124.075 119.097  1.00  0.00     0.093 A 
ATOM      8  C   UNL     1     103.880 124.482 118.285  1.00  0.00     0.123 A 
ATOM      9  C   UNL     1     105.126 123.872 118.415  1.00  0.00     0.094 A 
ATOM     10  C   UNL     1     105.314 122.834 119.331  1.00  0.00     0.146 A 
ATOM     11  O   UNL     1     106.514 122.273 119.414  1.00  0.00    -0.452 OA
ENDROOT
BRANCH   1  12
ATOM     12  C   UNL     1     108.182 120.746 120.250  1.00  0.00     0.029 A 
ATOM     13  C   UNL     1     108.607 119.771 119.334  1.00  0.00     0.062 A 
ATOM     14  C   UNL     1     109.911 119.265 119.372  1.00  0.00     0.162 A 
ATOM     15  C   UNL     1     109.074 121.187 121.235  1.00  0.00     0.062 A 
ATOM     16  C   UNL     1     110.816 119.737 120.354  1.00  0.00     0.200 A 
ATOM     17  C   UNL     1     110.382 120.697 121.287  1.00  0.00     0.162 A 
BRANCH  14  18
ATOM     18  O   UNL     1     110.260 118.298 118.427  1.00  0.00    -0.504 OA
ATOM     19  H   UNL     1     110.564 117.364 118.657  1.00  0.00     0.293 HD
ENDBRANCH  14  18
BRANCH  16  20
ATOM     20  O   UNL     1     112.134 119.280 120.434  1.00  0.00    -0.502 OA
ATOM     21  H   UNL     1     112.634 118.854 119.667  1.00  0.00     0.293 HD
ENDBRANCH  16  20
BRANCH  17  22
ATOM     22  O   UNL     1     111.240 121.179 122.276  1.00  0.00    -0.504 OA
ATOM     23  H   UNL     1     112.241 121.242 122.140  1.00  0.00     0.293 HD
ENDBRANCH  17  22
ENDBRANCH   1  12
BRANCH   2  24
ATOM     24  O   UNL     1     106.043 119.594 121.829  1.00  0.00    -0.502 OA
ATOM     25  H   UNL     1     105.875 119.589 122.828  1.00  0.00     0.293 HD
ENDBRANCH   2  24
BRANCH   6  26
ATOM     26  O   UNL     1     101.892 122.795 120.878  1.00  0.00    -0.507 OA
ATOM     27  H   UNL     1     100.968 122.559 120.549  1.00  0.00     0.293 HD
ENDBRANCH   6  26
BRANCH   8  28
ATOM     28  O   UNL     1     103.708 125.501 117.351  1.00  0.00    -0.508 OA
ATOM     29  H   UNL     1     104.492 126.045 117.008  1.00  0.00     0.293 HD
ENDBRANCH   8  28
TORSDOF 7
ENDMDL
MODEL 2
REMARK VINA RESULT:    -6.469      1.223      2.914
REMARK INTER + INTRA:          -8.333
REMARK INTER:                  -7.964
REMARK INTRA:                  -0.369
REMARK UNBOUND:                -0.352
REMARK SMILES O=c1c(O)c(-c2cc(O)c(O)c(O)c2)oc2cc(O)cc(O)c12
REMARK SMILES IDX 5 1 3 2 2 3 1 4 23 5 21 6 20 7 18 8 17 9 16 10 15 11 6 12
REMARK SMILES IDX 7 13 8 14 14 15 10 16 12 17 9 18 11 20 13 22 4 24 22 26
REMARK SMILES IDX 19 28
REMARK H PARENT 9 19 11 21 13 23 4 25 22 27 19 29
REMARK Flexibility Score: inf
ROOT
ATOM      1  C   UNL     1     107.637 122.122 119.432  1.00  0.00     0.180 A 
ATOM      2  C   UNL     1     107.712 123.204 118.537  1.00  0.00     0.208 A 
ATOM      3  C   UNL     1     106.542 123.912 118.224  1.00  0.00     0.238 A 
ATOM      4  O   UNL     1     106.624 124.913 117.465  1.00  0.00    -0.285 OA
ATOM      5  C   UNL     1     105.308 123.521 118.798  1.00  0.00     0.111 A 
ATOM      6  C   UNL     1     104.052 124.142 118.520  1.00  0.00     0.134 A 
ATOM      7  C   UNL     1     102.917 123.757 119.245  1.00  0.00     0.093 A 
ATOM      8  C   UNL     1     102.978 122.729 120.188  1.00  0.00     0.123 A 
ATOM      9  C   UNL     1     104.187 122.077 120.422  1.00  0.00     0.094 A 
ATOM     10  C   UNL     1     105.344 122.464 119.742  1.00  0.00     0.146 A 
ATOM     11  O   UNL     1     106.477 121.822 120.004  1.00  0.00    -0.452 OA
ENDROOT
BRANCH   1  12
ATOM     12  C   UNL     1     108.824 121.313 119.791  1.00  0.00     0.029 A 
ATOM     13  C   UNL     1     109.205 120.198 119.029  1.00  0.00     0.062 A 
ATOM     14  C   UNL     1     110.313 119.422 119.390  1.00  0.00     0.162 A 
ATOM     15  C   UNL     1     109.548 121.627 120.947  1.00  0.00     0.062 A 
ATOM     16  C   UNL     1     111.058 119.763 120.545  1.00  0.00     0.200 A 
ATOM     17  C   UNL     1     110.661 120.867 121.321  1.00  0.00     0.162 A 
BRANCH  14  18
ATOM     18  O   UNL     1     110.631 118.329 118.582  1.00  0.00    -0.504 OA
ATOM     19  H   UNL     1     111.564 118.111 118.265  1.00  0.00     0.293 HD
ENDBRANCH  14  18
BRANCH  16  20
ATOM     20  O   UNL     1     112.181 119.036 120.949  1.00  0.00    -0.502 OA
ATOM     21  H   UNL     1     113.111 119.423 121.020  1.00  0.00     0.293 HD
ENDBRANCH  16  20
BRANCH  17  22
ATOM     22  O   UNL     1     111.362 121.227 122.473  1.00  0.00    -0.504 OA
ATOM     23  H   UNL     1     111.589 120.559 123.199  1.00  0.00     0.293 HD
ENDBRANCH  17  22
ENDBRANCH   1  12
BRANCH   2  24
ATOM     24  O   UNL     1     108.945 123.586 117.999  1.00  0.00    -0.502 OA
ATOM     25  H   UNL     1     109.303 123.199 117.133  1.00  0.00     0.293 HD
ENDBRANCH   2  24
BRANCH   6  26
ATOM     26  O   UNL     1     103.863 125.115 117.533  1.00  0.00    -0.507 OA
ATOM     27  H   UNL     1     104.606 125.638 117.093  1.00  0.00     0.293 HD
ENDBRANCH   6  26
BRANCH   8  28
ATOM     28  O   UNL     1     101.840 122.342 120.892  1.00  0.00    -0.508 OA
ATOM     29  H   UNL     1     101.322 122.998 121.465  1.00  0.00     0.293 HD
ENDBRANCH   8  28
TORSDOF 7
ENDMDL
MODEL 3
REMARK VINA RESULT:    -6.435      1.209      3.389
REMARK INTER + INTRA:          -8.291
REMARK INTER:                  -7.947
REMARK INTRA:                  -0.344
REMARK UNBOUND:                -0.352
REMARK SMILES O=c1c(O)c(-c2cc(O)c(O)c(O)c2)oc2cc(O)cc(O)c12
REMARK SMILES IDX 5 1 3 2 2 3 1 4 23 5 21 6 20 7 18 8 17 9 16 10 15 11 6 12
REMARK SMILES IDX 7 13 8 14 14 15 10 16 12 17 9 18 11 20 13 22 4 24 22 26
REMARK SMILES IDX 19 28
REMARK H PARENT 9 19 11 21 13 23 4 25 22 27 19 29
REMARK Flexibility Score: inf
ROOT
ATOM      1  C   UNL     1     107.568 122.095 119.471  1.00  0.00     0.180 A 
ATOM      2  C   UNL     1     107.653 123.181 118.581  1.00  0.00     0.208 A 
ATOM      3  C   UNL     1     106.479 123.862 118.225  1.00  0.00     0.238 A 
ATOM      4  O   UNL     1     106.569 124.866 117.471  1.00  0.00    -0.285 OA
ATOM      5  C   UNL     1     105.234 123.442 118.750  1.00  0.00     0.111 A 
ATOM      6  C   UNL     1     103.976 124.035 118.425  1.00  0.00     0.134 A 
ATOM      7  C   UNL     1     102.822 123.623 119.105  1.00  0.00     0.093 A 
ATOM      8  C   UNL     1     102.871 122.594 120.048  1.00  0.00     0.123 A 
ATOM      9  C   UNL     1     104.084 121.969 120.327  1.00  0.00     0.094 A 
ATOM     10  C   UNL     1     105.258 122.383 119.693  1.00  0.00     0.146 A 
ATOM     11  O   UNL     1     106.394 121.767 119.998  1.00  0.00    -0.452 OA
ENDROOT
BRANCH   1  12
ATOM     12  C   UNL     1     108.758 121.312 119.874  1.00  0.00     0.029 A 
ATOM     13  C   UNL     1     109.460 121.605 121.055  1.00  0.00     0.062 A 
ATOM     14  C   UNL     1     110.599 120.877 121.416  1.00  0.00     0.162 A 
ATOM     15  C   UNL     1     109.233 120.296 119.036  1.00  0.00     0.062 A 
ATOM     16  C   UNL     1     111.057 119.833 120.576  1.00  0.00     0.200 A 
ATOM     17  C   UNL     1     110.366 119.555 119.382  1.00  0.00     0.162 A 
BRANCH  14  18
ATOM     18  O   UNL     1     111.242 121.226 122.605  1.00  0.00    -0.504 OA
ATOM     19  H   UNL     1     111.234 122.153 123.003  1.00  0.00     0.293 HD
ENDBRANCH  14  18
BRANCH  16  20
ATOM     20  O   UNL     1     112.179 119.061 120.890  1.00  0.00    -0.502 OA
ATOM     21  H   UNL     1     113.118 119.429 120.961  1.00  0.00     0.293 HD
ENDBRANCH  16  20
BRANCH  17  22
ATOM     22  O   UNL     1     110.793 118.542 118.522  1.00  0.00    -0.504 OA
ATOM     23  H   UNL     1     110.165 118.082 117.875  1.00  0.00     0.293 HD
ENDBRANCH  17  22
ENDBRANCH   1  12
BRANCH   2  24
ATOM     24  O   UNL     1     108.897 123.591 118.092  1.00  0.00    -0.502 OA
ATOM     25  H   UNL     1     109.708 122.984 118.091  1.00  0.00     0.293 HD
ENDBRANCH   2  24
BRANCH   6  26
ATOM     26  O   UNL     1     103.803 125.006 117.433  1.00  0.00    -0.507 OA
ATOM     27  H   UNL     1     104.246 125.912 117.433  1.00  0.00     0.293 HD
ENDBRANCH   6  26
BRANCH   8  28
ATOM     28  O   UNL     1     101.716 122.180 120.707  1.00  0.00    -0.508 OA
ATOM     29  H   UNL     1     101.758 121.647 121.568  1.00  0.00     0.293 HD
ENDBRANCH   8  28
TORSDOF 7
ENDMDL
MODEL 4
REMARK VINA RESULT:    -6.276      1.796      6.547
REMARK INTER + INTRA:          -8.095
REMARK INTER:                  -7.799
REMARK INTRA:                  -0.296
REMARK UNBOUND:                -0.352
REMARK SMILES O=c1c(O)c(-c2cc(O)c(O)c(O)c2)oc2cc(O)cc(O)c12
REMARK SMILES IDX 5 1 3 2 2 3 1 4 23 5 21 6 20 7 18 8 17 9 16 10 15 11 6 12
REMARK SMILES IDX 7 13 8 14 14 15 10 16 12 17 9 18 11 20 13 22 4 24 22 26
REMARK SMILES IDX 19 28
REMARK H PARENT 9 19 11 21 13 23 4 25 22 27 19 29
REMARK Flexibility Score: inf
ROOT
ATOM      1  C   UNL     1     106.254 121.438 119.997  1.00  0.00     0.180 A 
ATOM      2  C   UNL     1     105.739 120.770 121.121  1.00  0.00     0.208 A 
ATOM      3  C   UNL     1     106.631 120.186 122.034  1.00  0.00     0.238 A 
ATOM      4  O   UNL     1     106.167 119.636 123.066  1.00  0.00    -0.285 OA
ATOM      5  C   UNL     1     108.026 120.266 121.805  1.00  0.00     0.111 A 
ATOM      6  C   UNL     1     109.020 119.677 122.644  1.00  0.00     0.134 A 
ATOM      7  C   UNL     1     110.375 119.931 122.392  1.00  0.00     0.093 A 
ATOM      8  C   UNL     1     110.772 120.697 121.294  1.00  0.00     0.123 A 
ATOM      9  C   UNL     1     109.811 121.226 120.435  1.00  0.00     0.094 A 
ATOM     10  C   UNL     1     108.451 121.021 120.682  1.00  0.00     0.146 A 
ATOM     11  O   UNL     1     107.568 121.553 119.844  1.00  0.00    -0.452 OA
ENDROOT
BRANCH   1  12
ATOM     12  C   UNL     1     105.376 122.057 118.978  1.00  0.00     0.029 A 
ATOM     13  C   UNL     1     104.644 121.273 118.072  1.00  0.00     0.062 A 
ATOM     14  C   UNL     1     103.836 121.866 117.094  1.00  0.00     0.162 A 
ATOM     15  C   UNL     1     105.317 123.452 118.872  1.00  0.00     0.062 A 
ATOM     16  C   UNL     1     103.760 123.277 117.012  1.00  0.00     0.200 A 
ATOM     17  C   UNL     1     104.513 124.062 117.905  1.00  0.00     0.162 A 
BRANCH  14  18
ATOM     18  O   UNL     1     103.137 121.021 116.230  1.00  0.00    -0.504 OA
ATOM     19  H   UNL     1     103.318 120.946 115.241  1.00  0.00     0.293 HD
ENDBRANCH  14  18
BRANCH  16  20
ATOM     20  O   UNL     1     102.961 123.927 116.067  1.00  0.00    -0.502 OA
ATOM     21  H   UNL     1     101.979 123.737 115.928  1.00  0.00     0.293 HD
ENDBRANCH  16  20
BRANCH  17  22
ATOM     22  O   UNL     1     104.474 125.456 117.848  1.00  0.00    -0.504 OA
ATOM     23  H   UNL     1     104.051 125.954 117.075  1.00  0.00     0.293 HD
ENDBRANCH  17  22
ENDBRANCH   1  12
BRANCH   2  24
ATOM     24  O   UNL     1     104.359 120.721 121.338  1.00  0.00    -0.502 OA
ATOM     25  H   UNL     1     103.892 119.892 121.686  1.00  0.00     0.293 HD
ENDBRANCH   2  24
BRANCH   6  26
ATOM     26  O   UNL     1     108.733 118.821 123.712  1.00  0.00    -0.507 OA
ATOM     27  H   UNL     1     108.337 119.114 124.592  1.00  0.00     0.293 HD
ENDBRANCH   6  26
BRANCH   8  28
ATOM     28  O   UNL     1     112.122 120.931 121.042  1.00  0.00    -0.508 OA
ATOM     29  H   UNL     1     112.841 120.647 121.698  1.00  0.00     0.293 HD
ENDBRANCH   8  28
TORSDOF 7
ENDMDL
MODEL 5
REMARK VINA RESULT:    -6.244      1.775      6.760
REMARK INTER + INTRA:          -8.057
REMARK INTER:                  -7.800
REMARK INTRA:                  -0.257
REMARK UNBOUND:                -0.352
REMARK SMILES O=c1c(O)c(-c2cc(O)c(O)c(O)c2)oc2cc(O)cc(O)c12
REMARK SMILES IDX 5 1 3 2 2 3 1 4 23 5 21 6 20 7 18 8 17 9 16 10 15 11 6 12
REMARK SMILES IDX 7 13 8 14 14 15 10 16 12 17 9 18 11 20 13 22 4 24 22 26
REMARK SMILES IDX 19 28
REMARK H PARENT 9 19 11 21 13 23 4 25 22 27 19 29
REMARK Flexibility Score: inf
ROOT
ATOM      1  C   UNL     1     106.352 121.532 119.989  1.00  0.00     0.180 A 
ATOM      2  C   UNL     1     105.817 120.894 121.122  1.00  0.00     0.208 A 
ATOM      3  C   UNL     1     106.691 120.288 122.038  1.00  0.00     0.238 A 
ATOM      4  O   UNL     1     106.211 119.766 123.077  1.00  0.00    -0.285 OA
ATOM      5  C   UNL     1     108.087 120.316 121.803  1.00  0.00     0.111 A 
ATOM      6  C   UNL     1     109.063 119.699 122.645  1.00  0.00     0.134 A 
ATOM      7  C   UNL     1     110.424 119.902 122.386  1.00  0.00     0.093 A 
ATOM      8  C   UNL     1     110.845 120.642 121.279  1.00  0.00     0.123 A 
ATOM      9  C   UNL     1     109.900 121.197 120.418  1.00  0.00     0.094 A 
ATOM     10  C   UNL     1     108.535 121.043 120.671  1.00  0.00     0.146 A 
ATOM     11  O   UNL     1     107.669 121.598 119.831  1.00  0.00    -0.452 OA
ENDROOT
BRANCH   1  12
ATOM     12  C   UNL     1     105.493 122.171 118.966  1.00  0.00     0.029 A 
ATOM     13  C   UNL     1     105.408 123.568 118.853  1.00  0.00     0.062 A 
ATOM     14  C   UNL     1     104.574 124.165 117.900  1.00  0.00     0.162 A 
ATOM     15  C   UNL     1     104.701 121.372 118.132  1.00  0.00     0.062 A 
ATOM     16  C   UNL     1     103.798 123.349 117.042  1.00  0.00     0.200 A 
ATOM     17  C   UNL     1     103.865 121.950 117.172  1.00  0.00     0.162 A 
BRANCH  14  18
ATOM     18  O   UNL     1     104.545 125.560 117.846  1.00  0.00    -0.504 OA
ATOM     19  H   UNL     1     103.807 126.127 118.236  1.00  0.00     0.293 HD
ENDBRANCH  14  18
BRANCH  16  20
ATOM     20  O   UNL     1     102.957 123.886 116.062  1.00  0.00    -0.502 OA
ATOM     21  H   UNL     1     102.451 123.333 115.385  1.00  0.00     0.293 HD
ENDBRANCH  16  20
BRANCH  17  22
ATOM     22  O   UNL     1     103.107 121.113 116.353  1.00  0.00    -0.504 OA
ATOM     23  H   UNL     1     102.558 120.347 116.723  1.00  0.00     0.293 HD
ENDBRANCH  17  22
ENDBRANCH   1  12
BRANCH   2  24
ATOM     24  O   UNL     1     104.437 120.898 121.344  1.00  0.00    -0.502 OA
ATOM     25  H   UNL     1     103.973 121.629 121.871  1.00  0.00     0.293 HD
ENDBRANCH   2  24
BRANCH   6  26
ATOM     26  O   UNL     1     108.749 118.865 123.723  1.00  0.00    -0.507 OA
ATOM     27  H   UNL     1     109.361 118.156 124.097  1.00  0.00     0.293 HD
ENDBRANCH   6  26
BRANCH   8  28
ATOM     28  O   UNL     1     112.201 120.824 121.020  1.00  0.00    -0.508 OA
ATOM     29  H   UNL     1     112.859 120.054 121.069  1.00  0.00     0.293 HD
ENDBRANCH   8  28
TORSDOF 7
ENDMDL
MODEL 6
REMARK VINA RESULT:    -6.007     10.115     11.622
REMARK INTER + INTRA:          -7.763
REMARK INTER:                  -7.413
REMARK INTRA:                  -0.350
REMARK UNBOUND:                -0.352
REMARK SMILES O=c1c(O)c(-c2cc(O)c(O)c(O)c2)oc2cc(O)cc(O)c12
REMARK SMILES IDX 5 1 3 2 2 3 1 4 23 5 21 6 20 7 18 8 17 9 16 10 15 11 6 12
REMARK SMILES IDX 7 13 8 14 14 15 10 16 12 17 9 18 11 20 13 22 4 24 22 26
REMARK SMILES IDX 19 28
REMARK H PARENT 9 19 11 21 13 23 4 25 22 27 19 29
REMARK Flexibility Score: inf
ROOT
ATOM      1  C   UNL     1     101.959 115.647 113.269  1.00  0.00     0.180 A 
ATOM      2  C   UNL     1     100.994 115.124 112.389  1.00  0.00     0.208 A 
ATOM      3  C   UNL     1     100.556 113.803 112.566  1.00  0.00     0.238 A 
ATOM      4  O   UNL     1      99.653 113.358 111.809  1.00  0.00    -0.285 OA
ATOM      5  C   UNL     1     101.097 113.015 113.610  1.00  0.00     0.111 A 
ATOM      6  C   UNL     1     100.755 111.651 113.857  1.00  0.00     0.134 A 
ATOM      7  C   UNL     1     101.255 111.009 114.997  1.00  0.00     0.093 A 
ATOM      8  C   UNL     1     102.136 111.661 115.863  1.00  0.00     0.123 A 
ATOM      9  C   UNL     1     102.522 112.973 115.597  1.00  0.00     0.094 A 
ATOM     10  C   UNL     1     102.012 113.651 114.488  1.00  0.00     0.146 A 
ATOM     11  O   UNL     1     102.398 114.904 114.278  1.00  0.00    -0.452 OA
ENDROOT
BRANCH   1  12
ATOM     12  C   UNL     1     102.487 117.022 113.131  1.00  0.00     0.029 A 
ATOM     13  C   UNL     1     103.694 117.277 112.460  1.00  0.00     0.062 A 
ATOM     14  C   UNL     1     104.200 118.578 112.356  1.00  0.00     0.162 A 
ATOM     15  C   UNL     1     101.805 118.087 113.732  1.00  0.00     0.062 A 
ATOM     16  C   UNL     1     103.490 119.654 112.942  1.00  0.00     0.200 A 
ATOM     17  C   UNL     1     102.293 119.394 113.635  1.00  0.00     0.162 A 
BRANCH  14  18
ATOM     18  O   UNL     1     105.405 118.753 111.672  1.00  0.00    -0.504 OA
ATOM     19  H   UNL     1     105.770 118.104 110.992  1.00  0.00     0.293 HD
ENDBRANCH  14  18
BRANCH  16  20
ATOM     20  O   UNL     1     103.937 120.975 112.861  1.00  0.00    -0.502 OA
ATOM     21  H   UNL     1     104.178 121.440 111.997  1.00  0.00     0.293 HD
ENDBRANCH  16  20
BRANCH  17  22
ATOM     22  O   UNL     1     101.570 120.425 114.236  1.00  0.00    -0.504 OA
ATOM     23  H   UNL     1     101.028 121.090 113.699  1.00  0.00     0.293 HD
ENDBRANCH  17  22
ENDBRANCH   1  12
BRANCH   2  24
ATOM     24  O   UNL     1     100.458 115.927 111.378  1.00  0.00    -0.502 OA
ATOM     25  H   UNL     1     101.003 116.230 110.579  1.00  0.00     0.293 HD
ENDBRANCH   2  24
BRANCH   6  26
ATOM     26  O   UNL     1      99.956 110.880 113.006  1.00  0.00    -0.507 OA
ATOM     27  H   UNL     1     100.136 110.737 112.023  1.00  0.00     0.293 HD
ENDBRANCH   6  26
BRANCH   8  28
ATOM     28  O   UNL     1     102.640 111.010 116.986  1.00  0.00    -0.508 OA
ATOM     29  H   UNL     1     102.067 110.843 117.805  1.00  0.00     0.293 HD
ENDBRANCH   8  28
TORSDOF 7
ENDMDL
MODEL 7
REMARK VINA RESULT:    -5.849      2.194      4.178
REMARK INTER + INTRA:          -7.568
REMARK INTER:                  -7.203
REMARK INTRA:                  -0.365
REMARK UNBOUND:                -0.352
REMARK SMILES O=c1c(O)c(-c2cc(O)c(O)c(O)c2)oc2cc(O)cc(O)c12
REMARK SMILES IDX 5 1 3 2 2 3 1 4 23 5 21 6 20 7 18 8 17 9 16 10 15 11 6 12
REMARK SMILES IDX 7 13 8 14 14 15 10 16 12 17 9 18 11 20 13 22 4 24 22 26
REMARK SMILES IDX 19 28
REMARK H PARENT 9 19 11 21 13 23 4 25 22 27 19 29
REMARK Flexibility Score: inf
ROOT
ATOM      1  C   UNL     1     106.826 120.146 121.262  1.00  0.00     0.180 A 
ATOM      2  C   UNL     1     105.934 120.999 120.588  1.00  0.00     0.208 A 
ATOM      3  C   UNL     1     104.554 120.778 120.713  1.00  0.00     0.238 A 
ATOM      4  O   UNL     1     103.760 121.577 120.152  1.00  0.00    -0.285 OA
ATOM      5  C   UNL     1     104.082 119.698 121.498  1.00  0.00     0.111 A 
ATOM      6  C   UNL     1     102.705 119.357 121.662  1.00  0.00     0.134 A 
ATOM      7  C   UNL     1     102.347 118.349 122.567  1.00  0.00     0.093 A 
ATOM      8  C   UNL     1     103.320 117.626 123.262  1.00  0.00     0.123 A 
ATOM      9  C   UNL     1     104.668 117.912 123.063  1.00  0.00     0.094 A 
ATOM     10  C   UNL     1     105.055 118.937 122.195  1.00  0.00     0.146 A 
ATOM     11  O   UNL     1     106.351 119.183 122.043  1.00  0.00    -0.452 OA
ENDROOT
BRANCH   1  12
ATOM     12  C   UNL     1     108.295 120.301 121.159  1.00  0.00     0.029 A 
ATOM     13  C   UNL     1     109.033 119.625 120.175  1.00  0.00     0.062 A 
ATOM     14  C   UNL     1     110.425 119.757 120.100  1.00  0.00     0.162 A 
ATOM     15  C   UNL     1     108.973 121.089 122.096  1.00  0.00     0.062 A 
ATOM     16  C   UNL     1     111.101 120.578 121.035  1.00  0.00     0.200 A 
ATOM     17  C   UNL     1     110.362 121.237 122.035  1.00  0.00     0.162 A 
BRANCH  14  18
ATOM     18  O   UNL     1     111.090 119.054 119.094  1.00  0.00    -0.504 OA
ATOM     19  H   UNL     1     110.726 118.916 118.163  1.00  0.00     0.293 HD
ENDBRANCH  14  18
BRANCH  16  20
ATOM     20  O   UNL     1     112.486 120.760 121.003  1.00  0.00    -0.502 OA
ATOM     21  H   UNL     1     113.036 120.776 120.156  1.00  0.00     0.293 HD
ENDBRANCH  16  20
BRANCH  17  22
ATOM     22  O   UNL     1     110.992 122.046 122.981  1.00  0.00    -0.504 OA
ATOM     23  H   UNL     1     111.884 122.491 122.804  1.00  0.00     0.293 HD
ENDBRANCH  17  22
ENDBRANCH   1  12
BRANCH   2  24
ATOM     24  O   UNL     1     106.422 122.072 119.836  1.00  0.00    -0.502 OA
ATOM     25  H   UNL     1     106.927 122.845 120.255  1.00  0.00     0.293 HD
ENDBRANCH   2  24
BRANCH   6  26
ATOM     26  O   UNL     1     101.662 119.954 120.947  1.00  0.00    -0.507 OA
ATOM     27  H   UNL     1     101.770 120.737 120.320  1.00  0.00     0.293 HD
ENDBRANCH   6  26
BRANCH   8  28
ATOM     28  O   UNL     1     102.954 116.615 124.147  1.00  0.00    -0.508 OA
ATOM     29  H   UNL     1     103.579 115.846 124.362  1.00  0.00     0.293 HD
ENDBRANCH   8  28
TORSDOF 7
ENDMDL
MODEL 8
REMARK VINA RESULT:    -5.743      3.013      7.047
REMARK INTER + INTRA:          -7.438
REMARK INTER:                  -7.072
REMARK INTRA:                  -0.365
REMARK UNBOUND:                -0.352
REMARK SMILES O=c1c(O)c(-c2cc(O)c(O)c(O)c2)oc2cc(O)cc(O)c12
REMARK SMILES IDX 5 1 3 2 2 3 1 4 23 5 21 6 20 7 18 8 17 9 16 10 15 11 6 12
REMARK SMILES IDX 7 13 8 14 14 15 10 16 12 17 9 18 11 20 13 22 4 24 22 26
REMARK SMILES IDX 19 28
REMARK H PARENT 9 19 11 21 13 23 4 25 22 27 19 29
REMARK Flexibility Score: inf
ROOT
ATOM      1  C   UNL     1     105.716 120.288 122.486  1.00  0.00     0.180 A 
ATOM      2  C   UNL     1     105.310 121.055 121.380  1.00  0.00     0.208 A 
ATOM      3  C   UNL     1     106.279 121.506 120.471  1.00  0.00     0.238 A 
ATOM      4  O   UNL     1     105.904 122.147 119.455  1.00  0.00    -0.285 OA
ATOM      5  C   UNL     1     107.644 121.197 120.686  1.00  0.00     0.111 A 
ATOM      6  C   UNL     1     108.716 121.636 119.850  1.00  0.00     0.134 A 
ATOM      7  C   UNL     1     110.012 121.161 120.084  1.00  0.00     0.093 A 
ATOM      8  C   UNL     1     110.287 120.317 121.163  1.00  0.00     0.123 A 
ATOM      9  C   UNL     1     109.258 119.932 122.019  1.00  0.00     0.094 A 
ATOM     10  C   UNL     1     107.948 120.359 121.789  1.00  0.00     0.146 A 
ATOM     11  O   UNL     1     106.995 119.959 122.624  1.00  0.00    -0.452 OA
ENDROOT
BRANCH   1  12
ATOM     12  C   UNL     1     104.755 119.797 123.500  1.00  0.00     0.029 A 
ATOM     13  C   UNL     1     104.375 120.594 124.591  1.00  0.00     0.062 A 
ATOM     14  C   UNL     1     103.486 120.114 125.560  1.00  0.00     0.162 A 
ATOM     15  C   UNL     1     104.260 118.491 123.406  1.00  0.00     0.062 A 
ATOM     16  C   UNL     1     102.967 118.802 125.443  1.00  0.00     0.200 A 
ATOM     17  C   UNL     1     103.367 117.995 124.362  1.00  0.00     0.162 A 
BRANCH  14  18
ATOM     18  O   UNL     1     103.153 120.966 126.614  1.00  0.00    -0.504 OA
ATOM     19  H   UNL     1     103.428 120.815 127.573  1.00  0.00     0.293 HD
ENDBRANCH  14  18
BRANCH  16  20
ATOM     20  O   UNL     1     102.066 118.271 126.370  1.00  0.00    -0.502 OA
ATOM     21  H   UNL     1     102.112 118.438 127.365  1.00  0.00     0.293 HD
ENDBRANCH  16  20
BRANCH  17  22
ATOM     22  O   UNL     1     102.888 116.693 124.218  1.00  0.00    -0.504 OA
ATOM     23  H   UNL     1     103.201 116.080 123.476  1.00  0.00     0.293 HD
ENDBRANCH  17  22
ENDBRANCH   1  12
BRANCH   2  24
ATOM     24  O   UNL     1     103.954 121.331 121.176  1.00  0.00    -0.502 OA
ATOM     25  H   UNL     1     103.282 121.342 121.935  1.00  0.00     0.293 HD
ENDBRANCH   2  24
BRANCH   6  26
ATOM     26  O   UNL     1     108.565 122.551 118.803  1.00  0.00    -0.507 OA
ATOM     27  H   UNL     1     109.289 122.792 118.143  1.00  0.00     0.293 HD
ENDBRANCH   6  26
BRANCH   8  28
ATOM     28  O   UNL     1     111.582 119.863 121.397  1.00  0.00    -0.508 OA
ATOM     29  H   UNL     1     111.837 118.891 121.263  1.00  0.00     0.293 HD
ENDBRANCH   8  28
TORSDOF 7
ENDMDL
MODEL 9
REMARK VINA RESULT:    -5.588      3.046      5.930
REMARK INTER + INTRA:          -7.246
REMARK INTER:                  -6.911
REMARK INTRA:                  -0.335
REMARK UNBOUND:                -0.352
REMARK SMILES O=c1c(O)c(-c2cc(O)c(O)c(O)c2)oc2cc(O)cc(O)c12
REMARK SMILES IDX 5 1 3 2 2 3 1 4 23 5 21 6 20 7 18 8 17 9 16 10 15 11 6 12
REMARK SMILES IDX 7 13 8 14 14 15 10 16 12 17 9 18 11 20 13 22 4 24 22 26
REMARK SMILES IDX 19 28
REMARK H PARENT 9 19 11 21 13 23 4 25 22 27 19 29
REMARK Flexibility Score: inf
ROOT
ATOM      1  C   UNL     1     105.918 120.353 122.248  1.00  0.00     0.180 A 
ATOM      2  C   UNL     1     107.297 120.082 122.298  1.00  0.00     0.208 A 
ATOM      3  C   UNL     1     108.139 120.656 121.333  1.00  0.00     0.238 A 
ATOM      4  O   UNL     1     109.379 120.454 121.415  1.00  0.00    -0.285 OA
ATOM      5  C   UNL     1     107.592 121.482 120.321  1.00  0.00     0.111 A 
ATOM      6  C   UNL     1     108.347 122.083 119.269  1.00  0.00     0.134 A 
ATOM      7  C   UNL     1     107.722 122.987 118.400  1.00  0.00     0.093 A 
ATOM      8  C   UNL     1     106.356 123.259 118.505  1.00  0.00     0.123 A 
ATOM      9  C   UNL     1     105.599 122.630 119.491  1.00  0.00     0.094 A 
ATOM     10  C   UNL     1     106.202 121.753 120.395  1.00  0.00     0.146 A 
ATOM     11  O   UNL     1     105.444 121.184 121.326  1.00  0.00    -0.452 OA
ENDROOT
BRANCH   1  12
ATOM     12  C   UNL     1     104.964 119.765 123.215  1.00  0.00     0.029 A 
ATOM     13  C   UNL     1     104.524 118.438 123.092  1.00  0.00     0.062 A 
ATOM     14  C   UNL     1     103.602 117.897 123.996  1.00  0.00     0.162 A 
ATOM     15  C   UNL     1     104.442 120.562 124.240  1.00  0.00     0.062 A 
ATOM     16  C   UNL     1     103.099 118.702 125.047  1.00  0.00     0.200 A 
ATOM     17  C   UNL     1     103.523 120.039 125.156  1.00  0.00     0.162 A 
BRANCH  14  18
ATOM     18  O   UNL     1     103.213 116.569 123.810  1.00  0.00    -0.504 OA
ATOM     19  H   UNL     1     103.635 115.783 124.281  1.00  0.00     0.293 HD
ENDBRANCH  14  18
BRANCH  16  20
ATOM     20  O   UNL     1     102.188 118.215 125.988  1.00  0.00    -0.502 OA
ATOM     21  H   UNL     1     101.605 117.402 125.846  1.00  0.00     0.293 HD
ENDBRANCH  16  20
BRANCH  17  22
ATOM     22  O   UNL     1     103.042 120.867 126.170  1.00  0.00    -0.504 OA
ATOM     23  H   UNL     1     102.111 121.264 126.148  1.00  0.00     0.293 HD
ENDBRANCH  17  22
ENDBRANCH   1  12
BRANCH   2  24
ATOM     24  O   UNL     1     107.819 119.281 123.318  1.00  0.00    -0.502 OA
ATOM     25  H   UNL     1     107.492 119.340 124.276  1.00  0.00     0.293 HD
ENDBRANCH   2  24
BRANCH   6  26
ATOM     26  O   UNL     1     109.696 121.809 119.021  1.00  0.00    -0.507 OA
ATOM     27  H   UNL     1     110.040 120.961 118.597  1.00  0.00     0.293 HD
ENDBRANCH   6  26
BRANCH   8  28
ATOM     28  O   UNL     1     105.739 124.146 117.626  1.00  0.00    -0.508 OA
ATOM     29  H   UNL     1     105.147 124.898 117.959  1.00  0.00     0.293 HD
ENDBRANCH   8  28
TORSDOF 7
ENDMDL
