MODEL 1
REMARK VINA RESULT:    -3.022      0.000      0.000
REMARK INTER + INTRA:          -5.141
REMARK INTER:                  -4.435
REMARK INTRA:                  -0.706
REMARK UNBOUND:                -0.706
REMARK SMILES CCCCCCCCCC=O
REMARK SMILES IDX 6 1 5 2 4 3 3 4 2 5 1 6 7 7 8 8 9 9 10 10 11 11
REMARK H PARENT
REMARK Flexibility Score: inf
ROOT
ATOM      1  C   UNL     1     161.099 175.235 167.376  1.00  0.00     0.000 C 
ENDROOT
BRANCH   1   2
ATOM      2  C   UNL     1     162.287 175.048 166.417  1.00  0.00     0.000 C 
BRANCH   2   3
ATOM      3  C   UNL     1     163.237 173.918 166.856  1.00  0.00    -0.000 C 
BRANCH   3   4
ATOM      4  C   UNL     1     163.073 173.469 168.320  1.00  0.00    -0.000 C 
BRANCH   4   5
ATOM      5  C   UNL     1     163.214 171.950 168.500  1.00  0.00    -0.003 C 
ATOM      6  C   UNL     1     162.352 171.452 169.656  1.00  0.00     0.004 C 
ENDBRANCH   4   5
ENDBRANCH   3   4
ENDBRANCH   2   3
ENDBRANCH   1   2
BRANCH   1   7
ATOM      7  C   UNL     1     159.738 175.023 166.689  1.00  0.00     0.000 C 
BRANCH   7   8
ATOM      8  C   UNL     1     158.689 174.292 167.546  1.00  0.00     0.008 C 
BRANCH   8   9
ATOM      9  C   UNL     1     159.315 173.355 168.588  1.00  0.00     0.072 C 
BRANCH   9  10
ATOM     10  C   UNL     1     158.816 171.952 168.413  1.00  0.00     0.224 C 
ATOM     11  O   UNL     1     158.533 171.270 169.387  1.00  0.00    -0.303 OA
ENDBRANCH   9  10
ENDBRANCH   8   9
ENDBRANCH   7   8
ENDBRANCH   1   7
TORSDOF 8
ENDMDL
MODEL 2
REMARK VINA RESULT:    -2.946     16.101     18.593
REMARK INTER + INTRA:          -5.029
REMARK INTER:                  -4.337
REMARK INTRA:                  -0.692
REMARK UNBOUND:                -0.706
REMARK SMILES CCCCCCCCCC=O
REMARK SMILES IDX 6 1 5 2 4 3 3 4 2 5 1 6 7 7 8 8 9 9 10 10 11 11
REMARK H PARENT
REMARK Flexibility Score: inf
ROOT
ATOM      1  C   UNL     1     170.073 156.111 167.799  1.00  0.00     0.000 C 
ENDROOT
BRANCH   1   2
ATOM      2  C   UNL     1     169.043 156.363 166.685  1.00  0.00     0.000 C 
BRANCH   2   3
ATOM      3  C   UNL     1     167.965 157.387 167.087  1.00  0.00    -0.000 C 
BRANCH   3   4
ATOM      4  C   UNL     1     168.048 157.872 168.546  1.00  0.00    -0.000 C 
BRANCH   4   5
ATOM      5  C   UNL     1     167.943 159.399 168.676  1.00  0.00    -0.003 C 
ATOM      6  C   UNL     1     168.819 159.915 169.814  1.00  0.00     0.004 C 
ENDBRANCH   4   5
ENDBRANCH   3   4
ENDBRANCH   2   3
ENDBRANCH   1   2
BRANCH   1   7
ATOM      7  C   UNL     1     171.525 156.153 167.290  1.00  0.00     0.000 C 
BRANCH   7   8
ATOM      8  C   UNL     1     172.339 157.371 167.759  1.00  0.00     0.008 C 
BRANCH   8   9
ATOM      9  C   UNL     1     171.942 157.853 169.161  1.00  0.00     0.072 C 
BRANCH   9  10
ATOM     10  C   UNL     1     172.394 159.265 169.388  1.00  0.00     0.224 C 
ATOM     11  O   UNL     1     172.675 159.985 168.442  1.00  0.00    -0.303 OA
ENDBRANCH   9  10
ENDBRANCH   8   9
ENDBRANCH   7   8
ENDBRANCH   1   7
TORSDOF 8
ENDMDL
MODEL 3
REMARK VINA RESULT:    -2.927      0.791      3.377
REMARK INTER + INTRA:          -5.001
REMARK INTER:                  -4.337
REMARK INTRA:                  -0.664
REMARK UNBOUND:                -0.706
REMARK SMILES CCCCCCCCCC=O
REMARK SMILES IDX 6 1 5 2 4 3 3 4 2 5 1 6 7 7 8 8 9 9 10 10 11 11
REMARK H PARENT
REMARK Flexibility Score: inf
ROOT
ATOM      1  C   UNL     1     162.988 173.449 168.445  1.00  0.00     0.000 C 
ENDROOT
BRANCH   1   2
ATOM      2  C   UNL     1     163.380 173.780 166.995  1.00  0.00     0.000 C 
BRANCH   2   3
ATOM      3  C   UNL     1     162.457 174.833 166.352  1.00  0.00    -0.000 C 
BRANCH   3   4
ATOM      4  C   UNL     1     161.316 175.331 167.257  1.00  0.00    -0.000 C 
BRANCH   4   5
ATOM      5  C   UNL     1     159.997 175.538 166.500  1.00  0.00    -0.003 C 
ATOM      6  C   UNL     1     158.900 174.630 167.049  1.00  0.00     0.004 C 
ENDBRANCH   4   5
ENDBRANCH   3   4
ENDBRANCH   2   3
ENDBRANCH   1   2
BRANCH   1   7
ATOM      7  C   UNL     1     162.804 171.940 168.685  1.00  0.00     0.000 C 
BRANCH   7   8
ATOM      8  C   UNL     1     161.681 171.575 169.672  1.00  0.00     0.008 C 
BRANCH   8   9
ATOM      9  C   UNL     1     160.422 172.433 169.491  1.00  0.00     0.072 C 
BRANCH   9  10
ATOM     10  C   UNL     1     159.185 171.588 169.556  1.00  0.00     0.224 C 
ATOM     11  O   UNL     1     158.642 171.205 168.531  1.00  0.00    -0.303 OA
ENDBRANCH   9  10
ENDBRANCH   8   9
ENDBRANCH   7   8
ENDBRANCH   1   7
TORSDOF 8
ENDMDL
MODEL 4
REMARK VINA RESULT:    -2.900      2.323      5.146
REMARK INTER + INTRA:          -4.963
REMARK INTER:                  -4.231
REMARK INTRA:                  -0.731
REMARK UNBOUND:                -0.706
REMARK SMILES CCCCCCCCCC=O
REMARK SMILES IDX 6 1 5 2 4 3 3 4 2 5 1 6 7 7 8 8 9 9 10 10 11 11
REMARK H PARENT
REMARK Flexibility Score: inf
ROOT
ATOM      1  C   UNL     1     161.543 172.088 170.405  1.00  0.00     0.000 C 
ENDROOT
BRANCH   1   2
ATOM      2  C   UNL     1     160.378 171.138 170.727  1.00  0.00     0.000 C 
BRANCH   2   3
ATOM      3  C   UNL     1     159.040 171.607 170.125  1.00  0.00    -0.000 C 
BRANCH   3   4
ATOM      4  C   UNL     1     159.042 171.769 168.593  1.00  0.00    -0.000 C 
BRANCH   4   5
ATOM      5  C   UNL     1     158.859 173.226 168.144  1.00  0.00    -0.003 C 
ATOM      6  C   UNL     1     158.435 174.112 169.312  1.00  0.00     0.004 C 
ENDBRANCH   4   5
ENDBRANCH   3   4
ENDBRANCH   2   3
ENDBRANCH   1   2
BRANCH   1   7
ATOM      7  C   UNL     1     162.731 171.372 169.738  1.00  0.00     0.000 C 
BRANCH   7   8
ATOM      8  C   UNL     1     163.089 171.885 168.332  1.00  0.00     0.008 C 
BRANCH   8   9
ATOM      9  C   UNL     1     162.885 173.398 168.177  1.00  0.00     0.072 C 
BRANCH   9  10
ATOM     10  C   UNL     1     163.423 173.879 166.863  1.00  0.00     0.224 C 
ATOM     11  O   UNL     1     162.859 174.775 166.253  1.00  0.00    -0.303 OA
ENDBRANCH   9  10
ENDBRANCH   8   9
ENDBRANCH   7   8
ENDBRANCH   1   7
TORSDOF 8
ENDMDL
MODEL 5
REMARK VINA RESULT:    -2.874      2.097      4.431
REMARK INTER + INTRA:          -4.923
REMARK INTER:                  -4.207
REMARK INTRA:                  -0.716
REMARK UNBOUND:                -0.706
REMARK SMILES CCCCCCCCCC=O
REMARK SMILES IDX 6 1 5 2 4 3 3 4 2 5 1 6 7 7 8 8 9 9 10 10 11 11
REMARK H PARENT
REMARK Flexibility Score: inf
ROOT
ATOM      1  C   UNL     1     163.043 172.378 168.415  1.00  0.00     0.000 C 
ENDROOT
BRANCH   1   2
ATOM      2  C   UNL     1     162.176 171.566 169.391  1.00  0.00     0.000 C 
BRANCH   2   3
ATOM      3  C   UNL     1     160.939 172.343 169.879  1.00  0.00    -0.000 C 
BRANCH   3   4
ATOM      4  C   UNL     1     159.608 171.578 169.759  1.00  0.00    -0.000 C 
BRANCH   4   5
ATOM      5  C   UNL     1     158.877 171.849 168.436  1.00  0.00    -0.003 C 
ATOM      6  C   UNL     1     158.850 173.342 168.120  1.00  0.00     0.004 C 
ENDBRANCH   4   5
ENDBRANCH   3   4
ENDBRANCH   2   3
ENDBRANCH   1   2
BRANCH   1   7
ATOM      7  C   UNL     1     162.584 173.841 168.283  1.00  0.00     0.000 C 
BRANCH   7   8
ATOM      8  C   UNL     1     162.621 174.404 166.851  1.00  0.00     0.008 C 
BRANCH   8   9
ATOM      9  C   UNL     1     161.780 175.677 166.686  1.00  0.00     0.072 C 
BRANCH   9  10
ATOM     10  C   UNL     1     161.192 175.756 165.309  1.00  0.00     0.224 C 
ATOM     11  O   UNL     1     160.049 175.379 165.102  1.00  0.00    -0.303 OA
ENDBRANCH   9  10
ENDBRANCH   8   9
ENDBRANCH   7   8
ENDBRANCH   1   7
TORSDOF 8
ENDMDL
MODEL 6
REMARK VINA RESULT:    -2.830     16.033     17.454
REMARK INTER + INTRA:          -4.859
REMARK INTER:                  -3.990
REMARK INTRA:                  -0.868
REMARK UNBOUND:                -0.706
REMARK SMILES CCCCCCCCCC=O
REMARK SMILES IDX 6 1 5 2 4 3 3 4 2 5 1 6 7 7 8 8 9 9 10 10 11 11
REMARK H PARENT
REMARK Flexibility Score: inf
ROOT
ATOM      1  C   UNL     1     168.393 158.797 170.499  1.00  0.00     0.000 C 
ENDROOT
BRANCH   1   2
ATOM      2  C   UNL     1     169.820 158.806 171.072  1.00  0.00     0.000 C 
BRANCH   2   3
ATOM      3  C   UNL     1     170.635 160.035 170.628  1.00  0.00    -0.000 C 
BRANCH   3   4
ATOM      4  C   UNL     1     172.043 159.718 170.091  1.00  0.00    -0.000 C 
BRANCH   4   5
ATOM      5  C   UNL     1     172.052 159.390 168.591  1.00  0.00    -0.003 C 
ATOM      6  C   UNL     1     172.151 157.885 168.359  1.00  0.00     0.004 C 
ENDBRANCH   4   5
ENDBRANCH   3   4
ENDBRANCH   2   3
ENDBRANCH   1   2
BRANCH   1   7
ATOM      7  C   UNL     1     168.256 159.648 169.224  1.00  0.00     0.000 C 
BRANCH   7   8
ATOM      8  C   UNL     1     168.076 158.842 167.925  1.00  0.00     0.008 C 
BRANCH   8   9
ATOM      9  C   UNL     1     168.399 157.351 168.096  1.00  0.00     0.072 C 
BRANCH   9  10
ATOM     10  C   UNL     1     168.623 156.697 166.766  1.00  0.00     0.224 C 
ATOM     11  O   UNL     1     167.709 156.606 165.960  1.00  0.00    -0.303 OA
ENDBRANCH   9  10
ENDBRANCH   8   9
ENDBRANCH   7   8
ENDBRANCH   1   7
TORSDOF 8
ENDMDL
MODEL 7
REMARK VINA RESULT:    -2.808     15.900     18.051
REMARK INTER + INTRA:          -4.826
REMARK INTER:                  -3.946
REMARK INTRA:                  -0.880
REMARK UNBOUND:                -0.706
REMARK SMILES CCCCCCCCCC=O
REMARK SMILES IDX 6 1 5 2 4 3 3 4 2 5 1 6 7 7 8 8 9 9 10 10 11 11
REMARK H PARENT
REMARK Flexibility Score: inf
ROOT
ATOM      1  C   UNL     1     168.894 156.809 169.255  1.00  0.00     0.000 C 
ENDROOT
BRANCH   1   2
ATOM      2  C   UNL     1     168.418 157.612 168.032  1.00  0.00     0.000 C 
BRANCH   2   3
ATOM      3  C   UNL     1     168.163 159.097 168.355  1.00  0.00    -0.000 C 
BRANCH   3   4
ATOM      4  C   UNL     1     167.805 159.386 169.824  1.00  0.00    -0.000 C 
BRANCH   4   5
ATOM      5  C   UNL     1     168.783 160.359 170.499  1.00  0.00    -0.003 C 
ATOM      6  C   UNL     1     169.620 159.650 171.559  1.00  0.00     0.004 C 
ENDBRANCH   4   5
ENDBRANCH   3   4
ENDBRANCH   2   3
ENDBRANCH   1   2
BRANCH   1   7
ATOM      7  C   UNL     1     170.423 156.645 169.303  1.00  0.00     0.000 C 
BRANCH   7   8
ATOM      8  C   UNL     1     171.136 156.828 167.951  1.00  0.00     0.008 C 
BRANCH   8   9
ATOM      9  C   UNL     1     172.359 157.752 168.039  1.00  0.00     0.072 C 
BRANCH   9  10
ATOM     10  C   UNL     1     172.006 159.042 168.718  1.00  0.00     0.224 C 
ATOM     11  O   UNL     1     172.718 160.026 168.584  1.00  0.00    -0.303 OA
ENDBRANCH   9  10
ENDBRANCH   8   9
ENDBRANCH   7   8
ENDBRANCH   1   7
TORSDOF 8
ENDMDL
MODEL 8
REMARK VINA RESULT:    -2.805      1.814      3.761
REMARK INTER + INTRA:          -4.823
REMARK INTER:                  -4.001
REMARK INTRA:                  -0.822
REMARK UNBOUND:                -0.706
REMARK SMILES CCCCCCCCCC=O
REMARK SMILES IDX 6 1 5 2 4 3 3 4 2 5 1 6 7 7 8 8 9 9 10 10 11 11
REMARK H PARENT
REMARK Flexibility Score: inf
ROOT
ATOM      1  C   UNL     1     161.941 171.093 171.429  1.00  0.00     0.000 C 
ENDROOT
BRANCH   1   2
ATOM      2  C   UNL     1     163.038 170.726 170.415  1.00  0.00     0.000 C 
BRANCH   2   3
ATOM      3  C   UNL     1     163.599 171.953 169.671  1.00  0.00    -0.000 C 
BRANCH   3   4
ATOM      4  C   UNL     1     162.986 172.201 168.281  1.00  0.00    -0.000 C 
BRANCH   4   5
ATOM      5  C   UNL     1     162.467 173.636 168.102  1.00  0.00    -0.003 C 
ATOM      6  C   UNL     1     162.162 174.282 169.450  1.00  0.00     0.004 C 
ENDBRANCH   4   5
ENDBRANCH   3   4
ENDBRANCH   2   3
ENDBRANCH   1   2
BRANCH   1   7
ATOM      7  C   UNL     1     160.521 170.929 170.859  1.00  0.00     0.000 C 
BRANCH   7   8
ATOM      8  C   UNL     1     159.508 171.984 171.336  1.00  0.00     0.008 C 
BRANCH   8   9
ATOM      9  C   UNL     1     158.550 172.439 170.227  1.00  0.00     0.072 C 
BRANCH   9  10
ATOM     10  C   UNL     1     159.062 172.031 168.878  1.00  0.00     0.224 C 
ATOM     11  O   UNL     1     158.456 171.207 168.209  1.00  0.00    -0.303 OA
ENDBRANCH   9  10
ENDBRANCH   8   9
ENDBRANCH   7   8
ENDBRANCH   1   7
TORSDOF 8
ENDMDL
MODEL 9
REMARK VINA RESULT:    -2.779      1.405      2.105
REMARK INTER + INTRA:          -4.784
REMARK INTER:                  -3.870
REMARK INTRA:                  -0.913
REMARK UNBOUND:                -0.706
REMARK SMILES CCCCCCCCCC=O
REMARK SMILES IDX 6 1 5 2 4 3 3 4 2 5 1 6 7 7 8 8 9 9 10 10 11 11
REMARK H PARENT
REMARK Flexibility Score: inf
ROOT
ATOM      1  C   UNL     1     159.716 174.239 167.618  1.00  0.00     0.000 C 
ENDROOT
BRANCH   1   2
ATOM      2  C   UNL     1     160.576 174.968 168.663  1.00  0.00     0.000 C 
BRANCH   2   3
ATOM      3  C   UNL     1     161.830 174.170 169.069  1.00  0.00    -0.000 C 
BRANCH   3   4
ATOM      4  C   UNL     1     162.679 173.660 167.890  1.00  0.00    -0.000 C 
BRANCH   4   5
ATOM      5  C   UNL     1     163.114 172.196 168.055  1.00  0.00    -0.003 C 
ATOM      6  C   UNL     1     162.664 171.637 169.402  1.00  0.00     0.004 C 
ENDBRANCH   4   5
ENDBRANCH   3   4
ENDBRANCH   2   3
ENDBRANCH   1   2
BRANCH   1   7
ATOM      7  C   UNL     1     158.574 173.423 168.249  1.00  0.00     0.000 C 
BRANCH   7   8
ATOM      8  C   UNL     1     158.876 171.925 168.435  1.00  0.00     0.008 C 
BRANCH   8   9
ATOM      9  C   UNL     1     159.015 171.521 169.909  1.00  0.00     0.072 C 
BRANCH   9  10
ATOM     10  C   UNL     1     158.109 172.342 170.777  1.00  0.00     0.224 C 
ATOM     11  O   UNL     1     157.069 171.868 171.209  1.00  0.00    -0.303 OA
ENDBRANCH   9  10
ENDBRANCH   8   9
ENDBRANCH   7   8
ENDBRANCH   1   7
TORSDOF 8
ENDMDL
