MODEL 1
REMARK VINA RESULT:    -5.016      0.000      0.000
REMARK INTER + INTRA:          -5.530
REMARK INTER:                  -5.456
REMARK INTRA:                  -0.074
REMARK UNBOUND:                -0.074
REMARK SMILES CCc1cccc(O)c1
REMARK SMILES IDX 3 1 9 2 7 3 6 4 5 5 4 6 2 7 1 8 8 9
REMARK H PARENT 8 10
REMARK Flexibility Score: inf
ROOT
ATOM      1  C   UNL     1     -12.942  45.065  22.896  1.00  0.00    -0.045 A 
ATOM      2  C   UNL     1     -12.809  45.937  23.990  1.00  0.00     0.049 A 
ATOM      3  C   UNL     1     -13.770  45.940  25.012  1.00  0.00     0.115 A 
ATOM      4  C   UNL     1     -14.860  45.066  24.946  1.00  0.00     0.046 A 
ATOM      5  C   UNL     1     -14.989  44.188  23.867  1.00  0.00     0.004 A 
ATOM      6  C   UNL     1     -14.034  44.182  22.847  1.00  0.00     0.004 A 
ENDROOT
BRANCH   1   7
ATOM      7  C   UNL     1     -11.894  45.037  21.816  1.00  0.00     0.032 C 
ATOM      8  C   UNL     1     -11.850  43.670  21.142  1.00  0.00     0.009 C 
ENDBRANCH   1   7
BRANCH   3   9
ATOM      9  O   UNL     1     -13.648  46.806  26.097  1.00  0.00    -0.508 OA
ATOM     10  H   UNL     1     -13.011  47.593  26.077  1.00  0.00     0.293 HD
ENDBRANCH   3   9
TORSDOF 2
ENDMDL
MODEL 2
REMARK VINA RESULT:    -4.960      1.993      3.674
REMARK INTER + INTRA:          -5.469
REMARK INTER:                  -5.419
REMARK INTRA:                  -0.050
REMARK UNBOUND:                -0.074
REMARK SMILES CCc1cccc(O)c1
REMARK SMILES IDX 3 1 9 2 7 3 6 4 5 5 4 6 2 7 1 8 8 9
REMARK H PARENT 8 10
REMARK Flexibility Score: inf
ROOT
ATOM      1  C   UNL     1     -13.927  44.702  23.389  1.00  0.00    -0.045 A 
ATOM      2  C   UNL     1     -12.768  45.386  22.983  1.00  0.00     0.049 A 
ATOM      3  C   UNL     1     -12.086  44.994  21.821  1.00  0.00     0.115 A 
ATOM      4  C   UNL     1     -12.567  43.923  21.060  1.00  0.00     0.046 A 
ATOM      5  C   UNL     1     -13.726  43.249  21.451  1.00  0.00     0.004 A 
ATOM      6  C   UNL     1     -14.408  43.637  22.608  1.00  0.00     0.004 A 
ENDROOT
BRANCH   1   7
ATOM      7  C   UNL     1     -14.679  45.144  24.616  1.00  0.00     0.032 C 
ATOM      8  C   UNL     1     -13.773  45.943  25.546  1.00  0.00     0.009 C 
ENDBRANCH   1   7
BRANCH   3   9
ATOM      9  O   UNL     1     -10.933  45.663  21.416  1.00  0.00    -0.508 OA
ATOM     10  H   UNL     1     -10.163  45.823  22.054  1.00  0.00     0.293 HD
ENDBRANCH   3   9
TORSDOF 2
ENDMDL
MODEL 3
REMARK VINA RESULT:    -4.811      2.017      2.613
REMARK INTER + INTRA:          -5.307
REMARK INTER:                  -5.261
REMARK INTRA:                  -0.046
REMARK UNBOUND:                -0.074
REMARK SMILES CCc1cccc(O)c1
REMARK SMILES IDX 3 1 9 2 7 3 6 4 5 5 4 6 2 7 1 8 8 9
REMARK H PARENT 8 10
REMARK Flexibility Score: inf
ROOT
ATOM      1  C   UNL     1     -12.560  44.725  22.178  1.00  0.00    -0.045 A 
ATOM      2  C   UNL     1     -13.621  43.818  22.015  1.00  0.00     0.049 A 
ATOM      3  C   UNL     1     -14.667  43.776  22.950  1.00  0.00     0.115 A 
ATOM      4  C   UNL     1     -14.656  44.648  24.044  1.00  0.00     0.046 A 
ATOM      5  C   UNL     1     -13.612  45.562  24.203  1.00  0.00     0.004 A 
ATOM      6  C   UNL     1     -12.569  45.605  23.273  1.00  0.00     0.004 A 
ENDROOT
BRANCH   1   7
ATOM      7  C   UNL     1     -11.456  44.793  21.158  1.00  0.00     0.032 C 
ATOM      8  C   UNL     1     -10.733  43.455  21.054  1.00  0.00     0.009 C 
ENDBRANCH   1   7
BRANCH   3   9
ATOM      9  O   UNL     1     -15.718  42.875  22.799  1.00  0.00    -0.508 OA
ATOM     10  H   UNL     1     -15.569  41.946  22.425  1.00  0.00     0.293 HD
ENDBRANCH   3   9
TORSDOF 2
ENDMDL
MODEL 4
REMARK VINA RESULT:    -4.643      2.596      4.365
REMARK INTER + INTRA:          -5.124
REMARK INTER:                  -5.048
REMARK INTRA:                  -0.075
REMARK UNBOUND:                -0.074
REMARK SMILES CCc1cccc(O)c1
REMARK SMILES IDX 3 1 9 2 7 3 6 4 5 5 4 6 2 7 1 8 8 9
REMARK H PARENT 8 10
REMARK Flexibility Score: inf
ROOT
ATOM      1  C   UNL     1     -13.846  44.708  23.073  1.00  0.00    -0.045 A 
ATOM      2  C   UNL     1     -14.325  43.938  21.999  1.00  0.00     0.049 A 
ATOM      3  C   UNL     1     -13.568  43.817  20.823  1.00  0.00     0.115 A 
ATOM      4  C   UNL     1     -12.329  44.458  20.724  1.00  0.00     0.046 A 
ATOM      5  C   UNL     1     -11.842  45.212  21.794  1.00  0.00     0.004 A 
ATOM      6  C   UNL     1     -12.593  45.335  22.967  1.00  0.00     0.004 A 
ENDROOT
BRANCH   1   7
ATOM      7  C   UNL     1     -14.642  44.811  24.347  1.00  0.00     0.032 C 
ATOM      8  C   UNL     1     -13.981  45.782  25.319  1.00  0.00     0.009 C 
ENDBRANCH   1   7
BRANCH   3   9
ATOM      9  O   UNL     1     -14.039  43.061  19.752  1.00  0.00    -0.508 OA
ATOM     10  H   UNL     1     -15.031  42.953  19.576  1.00  0.00     0.293 HD
ENDBRANCH   3   9
TORSDOF 2
ENDMDL
MODEL 5
REMARK VINA RESULT:    -4.629      1.620      3.833
REMARK INTER + INTRA:          -5.109
REMARK INTER:                  -5.039
REMARK INTRA:                  -0.071
REMARK UNBOUND:                -0.074
REMARK SMILES CCc1cccc(O)c1
REMARK SMILES IDX 3 1 9 2 7 3 6 4 5 5 4 6 2 7 1 8 8 9
REMARK H PARENT 8 10
REMARK Flexibility Score: inf
ROOT
ATOM      1  C   UNL     1     -15.092  45.032  25.451  1.00  0.00    -0.045 A 
ATOM      2  C   UNL     1     -13.937  45.790  25.196  1.00  0.00     0.049 A 
ATOM      3  C   UNL     1     -13.232  45.624  23.995  1.00  0.00     0.115 A 
ATOM      4  C   UNL     1     -13.687  44.706  23.043  1.00  0.00     0.046 A 
ATOM      5  C   UNL     1     -14.843  43.960  23.284  1.00  0.00     0.004 A 
ATOM      6  C   UNL     1     -15.547  44.123  24.480  1.00  0.00     0.004 A 
ENDROOT
BRANCH   1   7
ATOM      7  C   UNL     1     -15.868  45.234  26.725  1.00  0.00     0.032 C 
ATOM      8  C   UNL     1     -16.514  43.929  27.176  1.00  0.00     0.009 C 
ENDBRANCH   1   7
BRANCH   3   9
ATOM      9  O   UNL     1     -12.082  46.368  23.738  1.00  0.00    -0.508 OA
ATOM     10  H   UNL     1     -12.113  47.218  23.188  1.00  0.00     0.293 HD
ENDBRANCH   3   9
TORSDOF 2
ENDMDL
MODEL 6
REMARK VINA RESULT:    -4.623     18.808     20.200
REMARK INTER + INTRA:          -5.102
REMARK INTER:                  -5.035
REMARK INTRA:                  -0.068
REMARK UNBOUND:                -0.074
REMARK SMILES CCc1cccc(O)c1
REMARK SMILES IDX 3 1 9 2 7 3 6 4 5 5 4 6 2 7 1 8 8 9
REMARK H PARENT 8 10
REMARK Flexibility Score: inf
ROOT
ATOM      1  C   UNL     1     -22.919  61.863  29.990  1.00  0.00    -0.045 A 
ATOM      2  C   UNL     1     -21.617  61.977  30.507  1.00  0.00     0.049 A 
ATOM      3  C   UNL     1     -20.506  61.875  29.655  1.00  0.00     0.115 A 
ATOM      4  C   UNL     1     -20.697  61.667  28.286  1.00  0.00     0.046 A 
ATOM      5  C   UNL     1     -21.990  61.567  27.764  1.00  0.00     0.004 A 
ATOM      6  C   UNL     1     -23.098  61.669  28.610  1.00  0.00     0.004 A 
ENDROOT
BRANCH   1   7
ATOM      7  C   UNL     1     -24.111  62.008  30.898  1.00  0.00     0.032 C 
ATOM      8  C   UNL     1     -25.059  63.082  30.378  1.00  0.00     0.009 C 
ENDBRANCH   1   7
BRANCH   3   9
ATOM      9  O   UNL     1     -19.213  61.980  30.161  1.00  0.00    -0.508 OA
ATOM     10  H   UNL     1     -18.903  62.809  30.655  1.00  0.00     0.293 HD
ENDBRANCH   3   9
TORSDOF 2
ENDMDL
MODEL 7
REMARK VINA RESULT:    -4.442     19.711     21.051
REMARK INTER + INTRA:          -4.905
REMARK INTER:                  -4.832
REMARK INTRA:                  -0.073
REMARK UNBOUND:                -0.074
REMARK SMILES CCc1cccc(O)c1
REMARK SMILES IDX 3 1 9 2 7 3 6 4 5 5 4 6 2 7 1 8 8 9
REMARK H PARENT 8 10
REMARK Flexibility Score: inf
ROOT
ATOM      1  C   UNL     1     -24.800  61.004  29.462  1.00  0.00    -0.045 A 
ATOM      2  C   UNL     1     -25.582  60.044  30.126  1.00  0.00     0.049 A 
ATOM      3  C   UNL     1     -26.282  60.386  31.292  1.00  0.00     0.115 A 
ATOM      4  C   UNL     1     -26.207  61.690  31.791  1.00  0.00     0.046 A 
ATOM      5  C   UNL     1     -25.443  62.653  31.127  1.00  0.00     0.004 A 
ATOM      6  C   UNL     1     -24.745  62.315  29.964  1.00  0.00     0.004 A 
ENDROOT
BRANCH   1   7
ATOM      7  C   UNL     1     -24.076  60.647  28.191  1.00  0.00     0.032 C 
ATOM      8  C   UNL     1     -22.924  61.613  27.935  1.00  0.00     0.009 C 
ENDBRANCH   1   7
BRANCH   3   9
ATOM      9  O   UNL     1     -27.053  59.437  31.960  1.00  0.00    -0.508 OA
ATOM     10  H   UNL     1     -28.059  59.399  31.847  1.00  0.00     0.293 HD
ENDBRANCH   3   9
TORSDOF 2
ENDMDL
MODEL 8
REMARK VINA RESULT:    -4.378      1.677      2.548
REMARK INTER + INTRA:          -4.836
REMARK INTER:                  -4.785
REMARK INTRA:                  -0.051
REMARK UNBOUND:                -0.074
REMARK SMILES CCc1cccc(O)c1
REMARK SMILES IDX 3 1 9 2 7 3 6 4 5 5 4 6 2 7 1 8 8 9
REMARK H PARENT 8 10
REMARK Flexibility Score: inf
ROOT
ATOM      1  C   UNL     1     -14.734  44.250  23.642  1.00  0.00    -0.045 A 
ATOM      2  C   UNL     1     -13.496  44.785  23.246  1.00  0.00     0.049 A 
ATOM      3  C   UNL     1     -12.875  45.778  24.018  1.00  0.00     0.115 A 
ATOM      4  C   UNL     1     -13.487  46.231  25.192  1.00  0.00     0.046 A 
ATOM      5  C   UNL     1     -14.710  45.692  25.598  1.00  0.00     0.004 A 
ATOM      6  C   UNL     1     -15.331  44.703  24.830  1.00  0.00     0.004 A 
ENDROOT
BRANCH   1   7
ATOM      7  C   UNL     1     -15.384  43.161  22.832  1.00  0.00     0.032 C 
ATOM      8  C   UNL     1     -14.583  42.877  21.566  1.00  0.00     0.009 C 
ENDBRANCH   1   7
BRANCH   3   9
ATOM      9  O   UNL     1     -11.651  46.318  23.628  1.00  0.00    -0.508 OA
ATOM     10  H   UNL     1     -10.933  46.545  24.306  1.00  0.00     0.293 HD
ENDBRANCH   3   9
TORSDOF 2
ENDMDL
MODEL 9
REMARK VINA RESULT:    -4.371     19.252     20.217
REMARK INTER + INTRA:          -4.828
REMARK INTER:                  -4.776
REMARK INTRA:                  -0.052
REMARK UNBOUND:                -0.074
REMARK SMILES CCc1cccc(O)c1
REMARK SMILES IDX 3 1 9 2 7 3 6 4 5 5 4 6 2 7 1 8 8 9
REMARK H PARENT 8 10
REMARK Flexibility Score: inf
ROOT
ATOM      1  C   UNL     1     -23.444  61.305  28.452  1.00  0.00    -0.045 A 
ATOM      2  C   UNL     1     -24.010  62.292  29.277  1.00  0.00     0.049 A 
ATOM      3  C   UNL     1     -25.121  61.992  30.079  1.00  0.00     0.115 A 
ATOM      4  C   UNL     1     -25.662  60.702  30.063  1.00  0.00     0.046 A 
ATOM      5  C   UNL     1     -25.094  59.713  29.256  1.00  0.00     0.004 A 
ATOM      6  C   UNL     1     -23.987  60.009  28.456  1.00  0.00     0.004 A 
ENDROOT
BRANCH   1   7
ATOM      7  C   UNL     1     -22.230  61.617  27.618  1.00  0.00     0.032 C 
ATOM      8  C   UNL     1     -20.960  61.524  28.456  1.00  0.00     0.009 C 
ENDBRANCH   1   7
BRANCH   3   9
ATOM      9  O   UNL     1     -25.692  62.967  30.894  1.00  0.00    -0.508 OA
ATOM     10  H   UNL     1     -25.472  63.027  31.880  1.00  0.00     0.293 HD
ENDBRANCH   3   9
TORSDOF 2
ENDMDL
