MODEL 1
REMARK VINA RESULT:    -3.791      0.000      0.000
REMARK INTER + INTRA:          -4.545
REMARK INTER:                  -4.456
REMARK INTRA:                  -0.090
REMARK UNBOUND:                -0.090
REMARK SMILES CCCCC(=O)[O-]
REMARK SMILES IDX 4 1 5 2 6 3 7 4 3 5 2 6 1 7
REMARK H PARENT
REMARK Flexibility Score: inf
ROOT
ATOM      1  C   UNL     1      -2.777  29.589  43.560  1.00  0.00     0.053 C 
ENDROOT
BRANCH   1   2
ATOM      2  C   UNL     1      -1.834  29.418  44.712  1.00  0.00     0.041 C 
ATOM      3  O   UNL     1      -1.128  30.385  45.101  1.00  0.00    -0.550 OA
ATOM      4  O   UNL     1      -1.711  28.183  45.337  1.00  0.00    -0.550 OA
ENDBRANCH   1   2
BRANCH   1   5
ATOM      5  C   UNL     1      -2.141  29.198  42.214  1.00  0.00     0.006 C 
BRANCH   5   6
ATOM      6  C   UNL     1      -2.148  30.330  41.171  1.00  0.00    -0.003 C 
ATOM      7  C   UNL     1      -1.164  31.453  41.493  1.00  0.00     0.004 C 
ENDBRANCH   5   6
ENDBRANCH   1   5
TORSDOF 3
ENDMDL
MODEL 2
REMARK VINA RESULT:    -3.789     22.264     22.983
REMARK INTER + INTRA:          -4.543
REMARK INTER:                  -4.460
REMARK INTRA:                  -0.084
REMARK UNBOUND:                -0.090
REMARK SMILES CCCCC(=O)[O-]
REMARK SMILES IDX 4 1 5 2 6 3 7 4 3 5 2 6 1 7
REMARK H PARENT
REMARK Flexibility Score: inf
ROOT
ATOM      1  C   UNL     1      15.949  14.898  44.989  1.00  0.00     0.053 C 
ENDROOT
BRANCH   1   2
ATOM      2  C   UNL     1      14.869  13.987  44.488  1.00  0.00     0.041 C 
ATOM      3  O   UNL     1      14.496  13.006  45.182  1.00  0.00    -0.550 OA
ATOM      4  O   UNL     1      14.296  14.203  43.241  1.00  0.00    -0.550 OA
ENDBRANCH   1   2
BRANCH   1   5
ATOM      5  C   UNL     1      15.935  15.042  46.521  1.00  0.00     0.006 C 
BRANCH   5   6
ATOM      6  C   UNL     1      14.871  16.024  47.044  1.00  0.00    -0.003 C 
ATOM      7  C   UNL     1      14.177  15.539  48.316  1.00  0.00     0.004 C 
ENDBRANCH   5   6
ENDBRANCH   1   5
TORSDOF 3
ENDMDL
MODEL 3
REMARK VINA RESULT:    -3.788     22.047     22.667
REMARK INTER + INTRA:          -4.541
REMARK INTER:                  -4.471
REMARK INTRA:                  -0.071
REMARK UNBOUND:                -0.090
REMARK SMILES CCCCC(=O)[O-]
REMARK SMILES IDX 4 1 5 2 6 3 7 4 3 5 2 6 1 7
REMARK H PARENT
REMARK Flexibility Score: inf
ROOT
ATOM      1  C   UNL     1      14.074  13.721  47.017  1.00  0.00     0.053 C 
ENDROOT
BRANCH   1   2
ATOM      2  C   UNL     1      14.912  14.865  47.500  1.00  0.00     0.041 C 
ATOM      3  O   UNL     1      14.515  15.583  48.454  1.00  0.00    -0.550 OA
ATOM      4  O   UNL     1      16.119  15.159  46.877  1.00  0.00    -0.550 OA
ENDBRANCH   1   2
BRANCH   1   5
ATOM      5  C   UNL     1      14.355  13.363  45.547  1.00  0.00     0.006 C 
BRANCH   5   6
ATOM      6  C   UNL     1      13.557  14.206  44.537  1.00  0.00    -0.003 C 
ATOM      7  C   UNL     1      14.296  14.426  43.218  1.00  0.00     0.004 C 
ENDBRANCH   5   6
ENDBRANCH   1   5
TORSDOF 3
ENDMDL
MODEL 4
REMARK VINA RESULT:    -3.726      3.190      4.030
REMARK INTER + INTRA:          -4.469
REMARK INTER:                  -4.359
REMARK INTRA:                  -0.109
REMARK UNBOUND:                -0.090
REMARK SMILES CCCCC(=O)[O-]
REMARK SMILES IDX 4 1 5 2 6 3 7 4 3 5 2 6 1 7
REMARK H PARENT
REMARK Flexibility Score: inf
ROOT
ATOM      1  C   UNL     1      -0.172  30.624  41.362  1.00  0.00     0.053 C 
ENDROOT
BRANCH   1   2
ATOM      2  C   UNL     1      -0.142  29.479  40.395  1.00  0.00     0.041 C 
ATOM      3  O   UNL     1       0.952  29.087  39.913  1.00  0.00    -0.550 OA
ATOM      4  O   UNL     1      -1.325  28.865  40.002  1.00  0.00    -0.550 OA
ENDBRANCH   1   2
BRANCH   1   5
ATOM      5  C   UNL     1      -1.596  31.158  41.600  1.00  0.00     0.006 C 
BRANCH   5   6
ATOM      6  C   UNL     1      -2.120  30.915  43.027  1.00  0.00    -0.003 C 
ATOM      7  C   UNL     1      -2.896  29.607  43.169  1.00  0.00     0.004 C 
ENDBRANCH   5   6
ENDBRANCH   1   5
TORSDOF 3
ENDMDL
MODEL 5
REMARK VINA RESULT:    -3.715     21.792     22.516
REMARK INTER + INTRA:          -4.456
REMARK INTER:                  -4.348
REMARK INTRA:                  -0.108
REMARK UNBOUND:                -0.090
REMARK SMILES CCCCC(=O)[O-]
REMARK SMILES IDX 4 1 5 2 6 3 7 4 3 5 2 6 1 7
REMARK H PARENT
REMARK Flexibility Score: inf
ROOT
ATOM      1  C   UNL     1      14.880  15.988  47.178  1.00  0.00     0.053 C 
ENDROOT
BRANCH   1   2
ATOM      2  C   UNL     1      13.807  15.598  48.148  1.00  0.00     0.041 C 
ATOM      3  O   UNL     1      13.273  16.468  48.884  1.00  0.00    -0.550 OA
ATOM      4  O   UNL     1      13.417  14.270  48.262  1.00  0.00    -0.550 OA
ENDBRANCH   1   2
BRANCH   1   5
ATOM      5  C   UNL     1      15.848  14.831  46.871  1.00  0.00     0.006 C 
BRANCH   5   6
ATOM      6  C   UNL     1      15.831  14.379  45.401  1.00  0.00    -0.003 C 
ATOM      7  C   UNL     1      14.799  13.288  45.117  1.00  0.00     0.004 C 
ENDBRANCH   5   6
ENDBRANCH   1   5
TORSDOF 3
ENDMDL
MODEL 6
REMARK VINA RESULT:    -3.701      2.606      3.638
REMARK INTER + INTRA:          -4.440
REMARK INTER:                  -4.335
REMARK INTRA:                  -0.105
REMARK UNBOUND:                -0.090
REMARK SMILES CCCCC(=O)[O-]
REMARK SMILES IDX 4 1 5 2 6 3 7 4 3 5 2 6 1 7
REMARK H PARENT
REMARK Flexibility Score: inf
ROOT
ATOM      1  C   UNL     1      -2.019  29.482  41.459  1.00  0.00     0.053 C 
ENDROOT
BRANCH   1   2
ATOM      2  C   UNL     1      -1.039  30.537  41.045  1.00  0.00     0.041 C 
ATOM      3  O   UNL     1      -1.204  31.731  41.406  1.00  0.00    -0.550 OA
ATOM      4  O   UNL     1       0.041  30.208  40.234  1.00  0.00    -0.550 OA
ENDBRANCH   1   2
BRANCH   1   5
ATOM      5  C   UNL     1      -2.680  29.790  42.814  1.00  0.00     0.006 C 
BRANCH   5   6
ATOM      6  C   UNL     1      -1.993  29.109  44.011  1.00  0.00    -0.003 C 
ATOM      7  C   UNL     1      -1.116  30.059  44.824  1.00  0.00     0.004 C 
ENDBRANCH   5   6
ENDBRANCH   1   5
TORSDOF 3
ENDMDL
MODEL 7
REMARK VINA RESULT:    -3.669     22.103     22.817
REMARK INTER + INTRA:          -4.403
REMARK INTER:                  -4.295
REMARK INTRA:                  -0.108
REMARK UNBOUND:                -0.090
REMARK SMILES CCCCC(=O)[O-]
REMARK SMILES IDX 4 1 5 2 6 3 7 4 3 5 2 6 1 7
REMARK H PARENT
REMARK Flexibility Score: inf
ROOT
ATOM      1  C   UNL     1      13.733  14.143  44.582  1.00  0.00     0.053 C 
ENDROOT
BRANCH   1   2
ATOM      2  C   UNL     1      14.253  15.029  43.490  1.00  0.00     0.041 C 
ATOM      3  O   UNL     1      13.529  15.301  42.498  1.00  0.00    -0.550 OA
ATOM      4  O   UNL     1      15.548  15.529  43.553  1.00  0.00    -0.550 OA
ENDBRANCH   1   2
BRANCH   1   5
ATOM      5  C   UNL     1      14.849  13.338  45.270  1.00  0.00     0.006 C 
BRANCH   5   6
ATOM      6  C   UNL     1      15.015  13.657  46.766  1.00  0.00    -0.003 C 
ATOM      7  C   UNL     1      15.974  14.817  47.032  1.00  0.00     0.004 C 
ENDBRANCH   5   6
ENDBRANCH   1   5
TORSDOF 3
ENDMDL
MODEL 8
REMARK VINA RESULT:    -3.562     10.858     11.367
REMARK INTER + INTRA:          -4.277
REMARK INTER:                  -4.186
REMARK INTRA:                  -0.091
REMARK UNBOUND:                -0.090
REMARK SMILES CCCCC(=O)[O-]
REMARK SMILES IDX 4 1 5 2 6 3 7 4 3 5 2 6 1 7
REMARK H PARENT
REMARK Flexibility Score: inf
ROOT
ATOM      1  C   UNL     1       7.976  23.920  42.501  1.00  0.00     0.053 C 
ENDROOT
BRANCH   1   2
ATOM      2  C   UNL     1       7.240  24.345  43.735  1.00  0.00     0.041 C 
ATOM      3  O   UNL     1       7.584  23.901  44.862  1.00  0.00    -0.550 OA
ATOM      4  O   UNL     1       6.154  25.207  43.640  1.00  0.00    -0.550 OA
ENDBRANCH   1   2
BRANCH   1   5
ATOM      5  C   UNL     1       7.765  22.431  42.172  1.00  0.00     0.006 C 
BRANCH   5   6
ATOM      6  C   UNL     1       6.294  22.049  41.932  1.00  0.00    -0.003 C 
ATOM      7  C   UNL     1       6.016  20.562  42.141  1.00  0.00     0.004 C 
ENDBRANCH   5   6
ENDBRANCH   1   5
TORSDOF 3
ENDMDL
MODEL 9
REMARK VINA RESULT:    -1.405      1.672      2.037
REMARK INTER + INTRA:          -1.741
REMARK INTER:                  -1.635
REMARK INTRA:                  -0.106
REMARK UNBOUND:                -0.090
REMARK SMILES CCCCC(=O)[O-]
REMARK SMILES IDX 4 1 5 2 6 3 7 4 3 5 2 6 1 7
REMARK H PARENT
REMARK Flexibility Score: inf
ROOT
ATOM      1  C   UNL     1      -0.758  29.837  43.156  1.00  0.00     0.053 C 
ENDROOT
BRANCH   1   2
ATOM      2  C   UNL     1      -2.042  29.463  43.833  1.00  0.00     0.041 C 
ATOM      3  O   UNL     1      -3.125  29.487  43.193  1.00  0.00    -0.550 OA
ATOM      4  O   UNL     1      -2.048  29.117  45.178  1.00  0.00    -0.550 OA
ENDBRANCH   1   2
BRANCH   1   5
ATOM      5  C   UNL     1      -0.952  30.917  42.078  1.00  0.00     0.006 C 
BRANCH   5   6
ATOM      6  C   UNL     1      -0.471  30.492  40.679  1.00  0.00    -0.003 C 
ATOM      7  C   UNL     1      -0.980  29.115  40.258  1.00  0.00     0.004 C 
ENDBRANCH   5   6
ENDBRANCH   1   5
TORSDOF 3
ENDMDL
