MODEL 1
REMARK VINA RESULT:    -3.602      0.000      0.000
REMARK INTER + INTRA:          -4.377
REMARK INTER:                  -4.234
REMARK INTRA:                  -0.143
REMARK UNBOUND:                -0.143
REMARK SMILES O=C([O-])CCC(=O)[O-]
REMARK SMILES IDX 4 1 2 2 1 3 3 4 5 5 6 6 7 7 8 8
REMARK H PARENT
REMARK Flexibility Score: inf
ROOT
ATOM      1  C   UNL     1      61.238  27.099  27.753  1.00  0.00     0.059 C 
ENDROOT
BRANCH   1   2
ATOM      2  C   UNL     1      61.204  28.536  28.168  1.00  0.00     0.042 C 
ATOM      3  O   UNL     1      60.410  28.916  29.068  1.00  0.00    -0.550 OA
ATOM      4  O   UNL     1      62.085  29.446  27.598  1.00  0.00    -0.550 OA
ENDBRANCH   1   2
BRANCH   1   5
ATOM      5  C   UNL     1      61.634  26.977  26.281  1.00  0.00     0.059 C 
BRANCH   5   6
ATOM      6  C   UNL     1      60.462  27.265  25.397  1.00  0.00     0.042 C 
ATOM      7  O   UNL     1      60.441  28.308  24.692  1.00  0.00    -0.550 OA
ATOM      8  O   UNL     1      59.369  26.408  25.391  1.00  0.00    -0.550 OA
ENDBRANCH   5   6
ENDBRANCH   1   5
TORSDOF 3
ENDMDL
MODEL 2
REMARK VINA RESULT:    -3.599      0.086      3.655
REMARK INTER + INTRA:          -4.372
REMARK INTER:                  -4.234
REMARK INTRA:                  -0.139
REMARK UNBOUND:                -0.143
REMARK SMILES O=C([O-])CCC(=O)[O-]
REMARK SMILES IDX 4 1 2 2 1 3 3 4 5 5 6 6 7 7 8 8
REMARK H PARENT
REMARK Flexibility Score: inf
ROOT
ATOM      1  C   UNL     1      61.555  26.906  26.279  1.00  0.00     0.059 C 
ENDROOT
BRANCH   1   2
ATOM      2  C   UNL     1      60.383  27.215  25.402  1.00  0.00     0.042 C 
ATOM      3  O   UNL     1      60.391  28.240  24.672  1.00  0.00    -0.550 OA
ATOM      4  O   UNL     1      59.302  26.344  25.353  1.00  0.00    -0.550 OA
ENDBRANCH   1   2
BRANCH   1   5
ATOM      5  C   UNL     1      61.171  27.039  27.753  1.00  0.00     0.059 C 
BRANCH   5   6
ATOM      6  C   UNL     1      61.205  28.473  28.176  1.00  0.00     0.042 C 
ATOM      7  O   UNL     1      60.407  28.894  29.054  1.00  0.00    -0.550 OA
ATOM      8  O   UNL     1      62.084  29.358  27.564  1.00  0.00    -0.550 OA
ENDBRANCH   5   6
ENDBRANCH   1   5
TORSDOF 3
ENDMDL
MODEL 3
REMARK VINA RESULT:    -3.578     14.238     16.155
REMARK INTER + INTRA:          -4.348
REMARK INTER:                  -4.264
REMARK INTRA:                  -0.084
REMARK UNBOUND:                -0.143
REMARK SMILES O=C([O-])CCC(=O)[O-]
REMARK SMILES IDX 4 1 2 2 1 3 3 4 5 5 6 6 7 7 8 8
REMARK H PARENT
REMARK Flexibility Score: inf
ROOT
ATOM      1  C   UNL     1      61.460  29.507  10.741  1.00  0.00     0.059 C 
ENDROOT
BRANCH   1   2
ATOM      2  C   UNL     1      62.073  28.615   9.708  1.00  0.00     0.042 C 
ATOM      3  O   UNL     1      61.354  27.809   9.061  1.00  0.00    -0.550 OA
ATOM      4  O   UNL     1      63.429  28.708   9.424  1.00  0.00    -0.550 OA
ENDBRANCH   1   2
BRANCH   1   5
ATOM      5  C   UNL     1      59.996  29.130  10.974  1.00  0.00     0.059 C 
BRANCH   5   6
ATOM      6  C   UNL     1      59.817  28.547  12.340  1.00  0.00     0.042 C 
ATOM      7  O   UNL     1      58.746  27.959  12.641  1.00  0.00    -0.550 OA
ATOM      8  O   UNL     1      60.812  28.699  13.297  1.00  0.00    -0.550 OA
ENDBRANCH   5   6
ENDBRANCH   1   5
TORSDOF 3
ENDMDL
MODEL 4
REMARK VINA RESULT:    -3.575     14.174     15.929
REMARK INTER + INTRA:          -4.345
REMARK INTER:                  -4.258
REMARK INTRA:                  -0.086
REMARK UNBOUND:                -0.143
REMARK SMILES O=C([O-])CCC(=O)[O-]
REMARK SMILES IDX 4 1 2 2 1 3 3 4 5 5 6 6 7 7 8 8
REMARK H PARENT
REMARK Flexibility Score: inf
ROOT
ATOM      1  C   UNL     1      60.118  29.285  11.109  1.00  0.00     0.059 C 
ENDROOT
BRANCH   1   2
ATOM      2  C   UNL     1      59.873  28.582  12.407  1.00  0.00     0.042 C 
ATOM      3  O   UNL     1      60.739  28.619  13.320  1.00  0.00    -0.550 OA
ATOM      4  O   UNL     1      58.668  27.928  12.628  1.00  0.00    -0.550 OA
ENDBRANCH   1   2
BRANCH   1   5
ATOM      5  C   UNL     1      61.617  29.491  10.886  1.00  0.00     0.059 C 
BRANCH   5   6
ATOM      6  C   UNL     1      62.105  28.621   9.771  1.00  0.00     0.042 C 
ATOM      7  O   UNL     1      61.313  27.837   9.187  1.00  0.00    -0.550 OA
ATOM      8  O   UNL     1      63.446  28.639   9.411  1.00  0.00    -0.550 OA
ENDBRANCH   5   6
ENDBRANCH   1   5
TORSDOF 3
ENDMDL
MODEL 5
REMARK VINA RESULT:    -3.558      0.795      1.427
REMARK INTER + INTRA:          -4.324
REMARK INTER:                  -4.239
REMARK INTRA:                  -0.086
REMARK UNBOUND:                -0.143
REMARK SMILES O=C([O-])CCC(=O)[O-]
REMARK SMILES IDX 4 1 2 2 1 3 3 4 5 5 6 6 7 7 8 8
REMARK H PARENT
REMARK Flexibility Score: inf
ROOT
ATOM      1  C   UNL     1      62.169  28.305  26.840  1.00  0.00     0.059 C 
ENDROOT
BRANCH   1   2
ATOM      2  C   UNL     1      61.677  29.160  27.964  1.00  0.00     0.042 C 
ATOM      3  O   UNL     1      60.633  28.842  28.592  1.00  0.00    -0.550 OA
ATOM      4  O   UNL     1      62.398  30.283  28.352  1.00  0.00    -0.550 OA
ENDBRANCH   1   2
BRANCH   1   5
ATOM      5  C   UNL     1      61.287  27.065  26.685  1.00  0.00     0.059 C 
BRANCH   5   6
ATOM      6  C   UNL     1      60.380  27.212  25.505  1.00  0.00     0.042 C 
ATOM      7  O   UNL     1      59.409  26.426  25.351  1.00  0.00    -0.550 OA
ATOM      8  O   UNL     1      60.636  28.186  24.547  1.00  0.00    -0.550 OA
ENDBRANCH   5   6
ENDBRANCH   1   5
TORSDOF 3
ENDMDL
MODEL 6
REMARK VINA RESULT:    -3.554     14.227     16.114
REMARK INTER + INTRA:          -4.320
REMARK INTER:                  -4.230
REMARK INTRA:                  -0.089
REMARK UNBOUND:                -0.143
REMARK SMILES O=C([O-])CCC(=O)[O-]
REMARK SMILES IDX 4 1 2 2 1 3 3 4 5 5 6 6 7 7 8 8
REMARK H PARENT
REMARK Flexibility Score: inf
ROOT
ATOM      1  C   UNL     1      61.666  29.562  10.823  1.00  0.00     0.059 C 
ENDROOT
BRANCH   1   2
ATOM      2  C   UNL     1      62.148  28.657   9.734  1.00  0.00     0.042 C 
ATOM      3  O   UNL     1      61.342  27.893   9.142  1.00  0.00    -0.550 OA
ATOM      4  O   UNL     1      63.480  28.693   9.338  1.00  0.00    -0.550 OA
ENDBRANCH   1   2
BRANCH   1   5
ATOM      5  C   UNL     1      60.170  29.355  11.068  1.00  0.00     0.059 C 
BRANCH   5   6
ATOM      6  C   UNL     1      59.944  28.657  12.372  1.00  0.00     0.042 C 
ATOM      7  O   UNL     1      60.844  28.654  13.253  1.00  0.00    -0.550 OA
ATOM      8  O   UNL     1      58.760  27.967  12.595  1.00  0.00    -0.550 OA
ENDBRANCH   5   6
ENDBRANCH   1   5
TORSDOF 3
ENDMDL
MODEL 7
REMARK VINA RESULT:    -3.422      2.544      3.966
REMARK INTER + INTRA:          -4.165
REMARK INTER:                  -4.116
REMARK INTRA:                  -0.048
REMARK UNBOUND:                -0.143
REMARK SMILES O=C([O-])CCC(=O)[O-]
REMARK SMILES IDX 4 1 2 2 1 3 3 4 5 5 6 6 7 7 8 8
REMARK H PARENT
REMARK Flexibility Score: inf
ROOT
ATOM      1  C   UNL     1      61.211  28.951  28.590  1.00  0.00     0.059 C 
ENDROOT
BRANCH   1   2
ATOM      2  C   UNL     1      60.999  27.473  28.498  1.00  0.00     0.042 C 
ATOM      3  O   UNL     1      60.037  26.932  29.104  1.00  0.00    -0.550 OA
ATOM      4  O   UNL     1      61.834  26.698  27.703  1.00  0.00    -0.550 OA
ENDBRANCH   1   2
BRANCH   1   5
ATOM      5  C   UNL     1      62.182  29.420  27.506  1.00  0.00     0.059 C 
BRANCH   5   6
ATOM      6  C   UNL     1      63.107  30.465  28.048  1.00  0.00     0.042 C 
ATOM      7  O   UNL     1      64.259  30.605  27.562  1.00  0.00    -0.550 OA
ATOM      8  O   UNL     1      62.714  31.250  29.125  1.00  0.00    -0.550 OA
ENDBRANCH   5   6
ENDBRANCH   1   5
TORSDOF 3
ENDMDL
MODEL 8
REMARK VINA RESULT:    -3.406      1.775      2.446
REMARK INTER + INTRA:          -4.146
REMARK INTER:                  -4.034
REMARK INTRA:                  -0.113
REMARK UNBOUND:                -0.143
REMARK SMILES O=C([O-])CCC(=O)[O-]
REMARK SMILES IDX 4 1 2 2 1 3 3 4 5 5 6 6 7 7 8 8
REMARK H PARENT
REMARK Flexibility Score: inf
ROOT
ATOM      1  C   UNL     1      62.470  28.749  28.576  1.00  0.00     0.059 C 
ENDROOT
BRANCH   1   2
ATOM      2  C   UNL     1      62.735  30.152  28.130  1.00  0.00     0.042 C 
ATOM      3  O   UNL     1      62.706  31.097  28.960  1.00  0.00    -0.550 OA
ATOM      4  O   UNL     1      63.064  30.410  26.805  1.00  0.00    -0.550 OA
ENDBRANCH   1   2
BRANCH   1   5
ATOM      5  C   UNL     1      61.114  28.269  28.056  1.00  0.00     0.059 C 
BRANCH   5   6
ATOM      6  C   UNL     1      61.298  27.246  26.980  1.00  0.00     0.042 C 
ATOM      7  O   UNL     1      60.301  26.793  26.359  1.00  0.00    -0.550 OA
ATOM      8  O   UNL     1      62.566  26.754  26.698  1.00  0.00    -0.550 OA
ENDBRANCH   5   6
ENDBRANCH   1   5
TORSDOF 3
ENDMDL
