MODEL 1
REMARK VINA RESULT:    -2.417      0.000      0.000
REMARK INTER + INTRA:          -6.533
REMARK INTER:                  -4.537
REMARK INTRA:                  -1.996
REMARK UNBOUND:                -1.996
REMARK SMILES CCCCCCCCC=CCCCCCCCC(=O)[O-]
REMARK SMILES IDX 10 1 9 2 11 3 12 4 13 5 14 6 15 7 16 8 17 9 18 10 19 11
REMARK SMILES IDX 20 12 8 13 7 14 6 15 5 16 4 17 3 18 2 19 1 20
REMARK H PARENT
REMARK Flexibility Score: inf
ROOT
ATOM      1  C   UNL     1       8.407 -15.918 -21.615  1.00  0.00    -0.031 C 
ATOM      2  C   UNL     1       7.350 -15.700 -20.818  1.00  0.00    -0.031 C 
ENDROOT
BRANCH   1   3
ATOM      3  C   UNL     1       8.361 -15.608 -23.086  1.00  0.00     0.027 C 
BRANCH   3   4
ATOM      4  C   UNL     1       6.977 -15.090 -23.499  1.00  0.00     0.004 C 
BRANCH   4   5
ATOM      5  C   UNL     1       7.055 -13.631 -23.971  1.00  0.00     0.000 C 
BRANCH   5   6
ATOM      6  C   UNL     1       6.978 -12.623 -22.811  1.00  0.00     0.000 C 
BRANCH   6   7
ATOM      7  C   UNL     1       7.842 -11.357 -22.987  1.00  0.00     0.000 C 
BRANCH   7   8
ATOM      8  C   UNL     1       9.074 -11.271 -22.065  1.00  0.00     0.006 C 
BRANCH   8   9
ATOM      9  C   UNL     1       9.588 -12.630 -21.563  1.00  0.00     0.053 C 
BRANCH   9  10
ATOM     10  C   UNL     1      11.082 -12.660 -21.462  1.00  0.00     0.041 C 
ATOM     11  O   UNL     1      11.759 -11.646 -21.780  1.00  0.00    -0.550 OA
ATOM     12  O   UNL     1      11.729 -13.817 -21.049  1.00  0.00    -0.550 OA
ENDBRANCH   9  10
ENDBRANCH   8   9
ENDBRANCH   7   8
ENDBRANCH   6   7
ENDBRANCH   5   6
ENDBRANCH   4   5
ENDBRANCH   3   4
ENDBRANCH   1   3
BRANCH   2  13
ATOM     13  C   UNL     1       7.390 -16.024 -19.350  1.00  0.00     0.027 C 
BRANCH  13  14
ATOM     14  C   UNL     1       8.038 -17.395 -19.104  1.00  0.00     0.004 C 
BRANCH  14  15
ATOM     15  C   UNL     1       7.129 -18.559 -19.527  1.00  0.00     0.000 C 
BRANCH  15  16
ATOM     16  C   UNL     1       7.749 -19.419 -20.644  1.00  0.00     0.000 C 
BRANCH  16  17
ATOM     17  C   UNL     1       6.901 -19.425 -21.927  1.00  0.00    -0.000 C 
BRANCH  17  18
ATOM     18  C   UNL     1       7.730 -19.112 -23.183  1.00  0.00    -0.000 C 
BRANCH  18  19
ATOM     19  C   UNL     1       6.875 -19.084 -24.460  1.00  0.00    -0.003 C 
ATOM     20  C   UNL     1       7.257 -20.182 -25.453  1.00  0.00     0.004 C 
ENDBRANCH  18  19
ENDBRANCH  17  18
ENDBRANCH  16  17
ENDBRANCH  15  16
ENDBRANCH  14  15
ENDBRANCH  13  14
ENDBRANCH   2  13
TORSDOF 15
ENDMDL
MODEL 2
REMARK VINA RESULT:    -2.121      2.103      3.649
REMARK INTER + INTRA:          -5.978
REMARK INTER:                  -5.106
REMARK INTRA:                  -0.872
REMARK UNBOUND:                -1.996
REMARK SMILES CCCCCCCCC=CCCCCCCCC(=O)[O-]
REMARK SMILES IDX 10 1 9 2 11 3 12 4 13 5 14 6 15 7 16 8 17 9 18 10 19 11
REMARK SMILES IDX 20 12 8 13 7 14 6 15 5 16 4 17 3 18 2 19 1 20
REMARK H PARENT
REMARK Flexibility Score: inf
ROOT
ATOM      1  C   UNL     1       7.971 -17.113 -20.859  1.00  0.00    -0.031 C 
ATOM      2  C   UNL     1       7.299 -17.424 -21.978  1.00  0.00    -0.031 C 
ENDROOT
BRANCH   1   3
ATOM      3  C   UNL     1       7.813 -15.774 -20.194  1.00  0.00     0.027 C 
BRANCH   3   4
ATOM      4  C   UNL     1       8.359 -14.648 -21.080  1.00  0.00     0.004 C 
BRANCH   4   5
ATOM      5  C   UNL     1       7.215 -13.872 -21.749  1.00  0.00     0.000 C 
BRANCH   5   6
ATOM      6  C   UNL     1       7.661 -13.126 -23.019  1.00  0.00     0.000 C 
BRANCH   6   7
ATOM      7  C   UNL     1       7.889 -11.611 -22.841  1.00  0.00     0.000 C 
BRANCH   7   8
ATOM      8  C   UNL     1       9.349 -11.195 -22.571  1.00  0.00     0.006 C 
BRANCH   8   9
ATOM      9  C   UNL     1       9.879 -11.601 -21.186  1.00  0.00     0.053 C 
BRANCH   9  10
ATOM     10  C   UNL     1      11.263 -12.168 -21.261  1.00  0.00     0.041 C 
ATOM     11  O   UNL     1      12.259 -11.401 -21.331  1.00  0.00    -0.550 OA
ATOM     12  O   UNL     1      11.451 -13.544 -21.287  1.00  0.00    -0.550 OA
ENDBRANCH   9  10
ENDBRANCH   8   9
ENDBRANCH   7   8
ENDBRANCH   6   7
ENDBRANCH   5   6
ENDBRANCH   4   5
ENDBRANCH   3   4
ENDBRANCH   1   3
BRANCH   2  13
ATOM     13  C   UNL     1       7.467 -18.758 -22.653  1.00  0.00     0.027 C 
BRANCH  13  14
ATOM     14  C   UNL     1       6.980 -19.900 -21.749  1.00  0.00     0.004 C 
BRANCH  14  15
ATOM     15  C   UNL     1       8.137 -20.642 -21.062  1.00  0.00     0.000 C 
BRANCH  15  16
ATOM     16  C   UNL     1       8.247 -20.310 -19.563  1.00  0.00     0.000 C 
BRANCH  16  17
ATOM     17  C   UNL     1       6.990 -20.709 -18.773  1.00  0.00    -0.000 C 
BRANCH  17  18
ATOM     18  C   UNL     1       6.876 -22.230 -18.578  1.00  0.00    -0.000 C 
BRANCH  18  19
ATOM     19  C   UNL     1       7.226 -22.667 -17.146  1.00  0.00    -0.003 C 
ATOM     20  C   UNL     1       8.643 -23.230 -17.028  1.00  0.00     0.004 C 
ENDBRANCH  18  19
ENDBRANCH  17  18
ENDBRANCH  16  17
ENDBRANCH  15  16
ENDBRANCH  14  15
ENDBRANCH  13  14
ENDBRANCH   2  13
TORSDOF 15
ENDMDL
MODEL 3
REMARK VINA RESULT:    -1.747      2.002      2.887
REMARK INTER + INTRA:          -5.274
REMARK INTER:                  -4.631
REMARK INTRA:                  -0.644
REMARK UNBOUND:                -1.996
REMARK SMILES CCCCCCCCC=CCCCCCCCC(=O)[O-]
REMARK SMILES IDX 10 1 9 2 11 3 12 4 13 5 14 6 15 7 16 8 17 9 18 10 19 11
REMARK SMILES IDX 20 12 8 13 7 14 6 15 5 16 4 17 3 18 2 19 1 20
REMARK H PARENT
REMARK Flexibility Score: inf
ROOT
ATOM      1  C   UNL     1       8.001 -15.925 -20.810  1.00  0.00    -0.031 C 
ATOM      2  C   UNL     1       8.223 -16.366 -19.562  1.00  0.00    -0.031 C 
ENDROOT
BRANCH   1   3
ATOM      3  C   UNL     1       9.053 -15.173 -21.577  1.00  0.00     0.027 C 
BRANCH   3   4
ATOM      4  C   UNL     1      10.249 -14.825 -20.681  1.00  0.00     0.004 C 
BRANCH   4   5
ATOM      5  C   UNL     1      11.288 -13.998 -21.450  1.00  0.00     0.000 C 
BRANCH   5   6
ATOM      6  C   UNL     1      11.057 -12.481 -21.323  1.00  0.00     0.000 C 
BRANCH   6   7
ATOM      7  C   UNL     1       9.770 -11.958 -21.994  1.00  0.00     0.000 C 
BRANCH   7   8
ATOM      8  C   UNL     1       8.470 -12.213 -21.206  1.00  0.00     0.006 C 
BRANCH   8   9
ATOM      9  C   UNL     1       7.197 -11.705 -21.901  1.00  0.00     0.053 C 
BRANCH   9  10
ATOM     10  C   UNL     1       7.218 -11.974 -23.374  1.00  0.00     0.041 C 
ATOM     11  O   UNL     1       7.414 -11.033 -24.188  1.00  0.00    -0.550 OA
ATOM     12  O   UNL     1       6.990 -13.259 -23.851  1.00  0.00    -0.550 OA
ENDBRANCH   9  10
ENDBRANCH   8   9
ENDBRANCH   7   8
ENDBRANCH   6   7
ENDBRANCH   5   6
ENDBRANCH   4   5
ENDBRANCH   3   4
ENDBRANCH   1   3
BRANCH   2  13
ATOM     13  C   UNL     1       7.165 -17.105 -18.788  1.00  0.00     0.027 C 
BRANCH  13  14
ATOM     14  C   UNL     1       6.877 -18.476 -19.417  1.00  0.00     0.004 C 
BRANCH  14  15
ATOM     15  C   UNL     1       8.139 -19.138 -19.990  1.00  0.00     0.000 C 
BRANCH  15  16
ATOM     16  C   UNL     1       7.947 -19.630 -21.436  1.00  0.00     0.000 C 
BRANCH  16  17
ATOM     17  C   UNL     1       6.875 -18.831 -22.196  1.00  0.00    -0.000 C 
BRANCH  17  18
ATOM     18  C   UNL     1       7.392 -18.276 -23.533  1.00  0.00    -0.000 C 
BRANCH  18  19
ATOM     19  C   UNL     1       8.221 -19.307 -24.317  1.00  0.00    -0.003 C 
ATOM     20  C   UNL     1       7.414 -20.008 -25.410  1.00  0.00     0.004 C 
ENDBRANCH  18  19
ENDBRANCH  17  18
ENDBRANCH  16  17
ENDBRANCH  15  16
ENDBRANCH  14  15
ENDBRANCH  13  14
ENDBRANCH   2  13
TORSDOF 15
ENDMDL
MODEL 4
REMARK VINA RESULT:    -1.499      1.520      2.249
REMARK INTER + INTRA:          -4.809
REMARK INTER:                  -3.683
REMARK INTRA:                  -1.125
REMARK UNBOUND:                -1.996
REMARK SMILES CCCCCCCCC=CCCCCCCCC(=O)[O-]
REMARK SMILES IDX 10 1 9 2 11 3 12 4 13 5 14 6 15 7 16 8 17 9 18 10 19 11
REMARK SMILES IDX 20 12 8 13 7 14 6 15 5 16 4 17 3 18 2 19 1 20
REMARK H PARENT
REMARK Flexibility Score: inf
ROOT
ATOM      1  C   UNL     1       7.389 -16.329 -20.102  1.00  0.00    -0.031 C 
ATOM      2  C   UNL     1       6.876 -17.159 -19.180  1.00  0.00    -0.031 C 
ENDROOT
BRANCH   1   3
ATOM      3  C   UNL     1       7.373 -14.838 -19.913  1.00  0.00     0.027 C 
BRANCH   3   4
ATOM      4  C   UNL     1       6.875 -14.125 -21.177  1.00  0.00     0.004 C 
BRANCH   4   5
ATOM      5  C   UNL     1       7.414 -12.689 -21.247  1.00  0.00     0.000 C 
BRANCH   5   6
ATOM      6  C   UNL     1       8.136 -12.386 -22.572  1.00  0.00     0.000 C 
BRANCH   6   7
ATOM      7  C   UNL     1       9.504 -11.689 -22.426  1.00  0.00     0.000 C 
BRANCH   7   8
ATOM      8  C   UNL     1      10.233 -11.946 -21.092  1.00  0.00     0.006 C 
BRANCH   8   9
ATOM      9  C   UNL     1      11.622 -12.586 -21.240  1.00  0.00     0.053 C 
BRANCH   9  10
ATOM     10  C   UNL     1      11.566 -14.078 -21.125  1.00  0.00     0.041 C 
ATOM     11  O   UNL     1      10.472 -14.655 -20.887  1.00  0.00    -0.550 OA
ATOM     12  O   UNL     1      12.727 -14.831 -21.249  1.00  0.00    -0.550 OA
ENDBRANCH   9  10
ENDBRANCH   8   9
ENDBRANCH   7   8
ENDBRANCH   6   7
ENDBRANCH   5   6
ENDBRANCH   4   5
ENDBRANCH   3   4
ENDBRANCH   1   3
BRANCH   2  13
ATOM     13  C   UNL     1       6.878 -18.651 -19.375  1.00  0.00     0.027 C 
BRANCH  13  14
ATOM     14  C   UNL     1       8.083 -19.097 -20.217  1.00  0.00     0.004 C 
BRANCH  14  15
ATOM     15  C   UNL     1       7.665 -19.736 -21.550  1.00  0.00     0.000 C 
BRANCH  15  16
ATOM     16  C   UNL     1       7.933 -18.818 -22.757  1.00  0.00     0.000 C 
BRANCH  16  17
ATOM     17  C   UNL     1       6.936 -19.043 -23.905  1.00  0.00    -0.000 C 
BRANCH  17  18
ATOM     18  C   UNL     1       7.619 -19.544 -25.188  1.00  0.00    -0.000 C 
BRANCH  18  19
ATOM     19  C   UNL     1       6.875 -20.729 -25.827  1.00  0.00    -0.003 C 
ATOM     20  C   UNL     1       7.587 -21.278 -27.064  1.00  0.00     0.004 C 
ENDBRANCH  18  19
ENDBRANCH  17  18
ENDBRANCH  16  17
ENDBRANCH  15  16
ENDBRANCH  14  15
ENDBRANCH  13  14
ENDBRANCH   2  13
TORSDOF 15
ENDMDL
MODEL 5
REMARK VINA RESULT:    -1.376      2.066      3.131
REMARK INTER + INTRA:          -4.578
REMARK INTER:                  -3.597
REMARK INTRA:                  -0.981
REMARK UNBOUND:                -1.996
REMARK SMILES CCCCCCCCC=CCCCCCCCC(=O)[O-]
REMARK SMILES IDX 10 1 9 2 11 3 12 4 13 5 14 6 15 7 16 8 17 9 18 10 19 11
REMARK SMILES IDX 20 12 8 13 7 14 6 15 5 16 4 17 3 18 2 19 1 20
REMARK H PARENT
REMARK Flexibility Score: inf
ROOT
ATOM      1  C   UNL     1       9.961 -14.776 -20.497  1.00  0.00    -0.031 C 
ATOM      2  C   UNL     1       8.837 -15.384 -20.906  1.00  0.00    -0.031 C 
ENDROOT
BRANCH   1   3
ATOM      3  C   UNL     1      10.994 -14.291 -21.475  1.00  0.00     0.027 C 
BRANCH   3   4
ATOM      4  C   UNL     1      11.262 -12.791 -21.300  1.00  0.00     0.004 C 
BRANCH   4   5
ATOM      5  C   UNL     1       9.946 -12.000 -21.258  1.00  0.00     0.000 C 
BRANCH   5   6
ATOM      6  C   UNL     1       9.422 -11.638 -22.659  1.00  0.00     0.000 C 
BRANCH   6   7
ATOM      7  C   UNL     1       8.048 -10.938 -22.681  1.00  0.00     0.000 C 
BRANCH   7   8
ATOM      8  C   UNL     1       6.876 -11.810 -23.176  1.00  0.00     0.006 C 
BRANCH   8   9
ATOM      9  C   UNL     1       6.875 -13.244 -22.624  1.00  0.00     0.053 C 
BRANCH   9  10
ATOM     10  C   UNL     1       7.008 -14.263 -23.714  1.00  0.00     0.041 C 
ATOM     11  O   UNL     1       6.884 -15.489 -23.454  1.00  0.00    -0.550 OA
ATOM     12  O   UNL     1       7.302 -13.861 -25.010  1.00  0.00    -0.550 OA
ENDBRANCH   9  10
ENDBRANCH   8   9
ENDBRANCH   7   8
ENDBRANCH   6   7
ENDBRANCH   5   6
ENDBRANCH   4   5
ENDBRANCH   3   4
ENDBRANCH   1   3
BRANCH   2  13
ATOM     13  C   UNL     1       7.810 -15.884 -19.927  1.00  0.00     0.027 C 
BRANCH  13  14
ATOM     14  C   UNL     1       7.015 -17.060 -20.512  1.00  0.00     0.004 C 
BRANCH  14  15
ATOM     15  C   UNL     1       7.156 -18.341 -19.676  1.00  0.00     0.000 C 
BRANCH  15  16
ATOM     16  C   UNL     1       7.393 -19.591 -20.543  1.00  0.00     0.000 C 
BRANCH  16  17
ATOM     17  C   UNL     1       8.179 -19.282 -21.827  1.00  0.00    -0.000 C 
BRANCH  17  18
ATOM     18  C   UNL     1       7.261 -19.056 -23.040  1.00  0.00    -0.000 C 
BRANCH  18  19
ATOM     19  C   UNL     1       7.919 -19.478 -24.363  1.00  0.00    -0.003 C 
ATOM     20  C   UNL     1       6.900 -19.827 -25.448  1.00  0.00     0.004 C 
ENDBRANCH  18  19
ENDBRANCH  17  18
ENDBRANCH  16  17
ENDBRANCH  15  16
ENDBRANCH  14  15
ENDBRANCH  13  14
ENDBRANCH   2  13
TORSDOF 15
ENDMDL
MODEL 6
REMARK VINA RESULT:    -1.246      2.775      6.681
REMARK INTER + INTRA:          -4.335
REMARK INTER:                  -3.736
REMARK INTRA:                  -0.599
REMARK UNBOUND:                -1.996
REMARK SMILES CCCCCCCCC=CCCCCCCCC(=O)[O-]
REMARK SMILES IDX 10 1 9 2 11 3 12 4 13 5 14 6 15 7 16 8 17 9 18 10 19 11
REMARK SMILES IDX 20 12 8 13 7 14 6 15 5 16 4 17 3 18 2 19 1 20
REMARK H PARENT
REMARK Flexibility Score: inf
ROOT
ATOM      1  C   UNL     1       9.250 -15.736 -21.209  1.00  0.00    -0.031 C 
ATOM      2  C   UNL     1       9.795 -14.571 -20.829  1.00  0.00    -0.031 C 
ENDROOT
BRANCH   1   3
ATOM      3  C   UNL     1       7.858 -16.125 -20.796  1.00  0.00     0.027 C 
BRANCH   3   4
ATOM      4  C   UNL     1       7.088 -16.751 -21.967  1.00  0.00     0.004 C 
BRANCH   4   5
ATOM      5  C   UNL     1       7.874 -16.611 -23.278  1.00  0.00     0.000 C 
BRANCH   5   6
ATOM      6  C   UNL     1       8.397 -17.958 -23.808  1.00  0.00     0.000 C 
BRANCH   6   7
ATOM      7  C   UNL     1       7.409 -19.137 -23.684  1.00  0.00     0.000 C 
BRANCH   7   8
ATOM      8  C   UNL     1       6.876 -19.398 -22.262  1.00  0.00     0.006 C 
BRANCH   8   9
ATOM      9  C   UNL     1       7.916 -19.981 -21.291  1.00  0.00     0.053 C 
BRANCH   9  10
ATOM     10  C   UNL     1       7.408 -20.014 -19.883  1.00  0.00     0.041 C 
ATOM     11  O   UNL     1       7.233 -18.941 -19.247  1.00  0.00    -0.550 OA
ATOM     12  O   UNL     1       7.160 -21.230 -19.260  1.00  0.00    -0.550 OA
ENDBRANCH   9  10
ENDBRANCH   8   9
ENDBRANCH   7   8
ENDBRANCH   6   7
ENDBRANCH   5   6
ENDBRANCH   4   5
ENDBRANCH   3   4
ENDBRANCH   1   3
BRANCH   2  13
ATOM     13  C   UNL     1      11.194 -14.188 -21.229  1.00  0.00     0.027 C 
BRANCH  13  14
ATOM     14  C   UNL     1      11.354 -12.661 -21.282  1.00  0.00     0.004 C 
BRANCH  14  15
ATOM     15  C   UNL     1      10.006 -11.926 -21.261  1.00  0.00     0.000 C 
BRANCH  15  16
ATOM     16  C   UNL     1       9.641 -11.317 -22.627  1.00  0.00     0.000 C 
BRANCH  16  17
ATOM     17  C   UNL     1       8.153 -10.945 -22.732  1.00  0.00    -0.000 C 
BRANCH  17  18
ATOM     18  C   UNL     1       7.295 -11.638 -21.660  1.00  0.00    -0.000 C 
BRANCH  18  19
ATOM     19  C   UNL     1       6.875 -13.059 -22.071  1.00  0.00    -0.003 C 
ATOM     20  C   UNL     1       6.878 -13.263 -23.586  1.00  0.00     0.004 C 
ENDBRANCH  18  19
ENDBRANCH  17  18
ENDBRANCH  16  17
ENDBRANCH  15  16
ENDBRANCH  14  15
ENDBRANCH  13  14
ENDBRANCH   2  13
TORSDOF 15
ENDMDL
MODEL 7
REMARK VINA RESULT:    -1.110      2.253      3.796
REMARK INTER + INTRA:          -4.079
REMARK INTER:                  -2.816
REMARK INTRA:                  -1.264
REMARK UNBOUND:                -1.996
REMARK SMILES CCCCCCCCC=CCCCCCCCC(=O)[O-]
REMARK SMILES IDX 10 1 9 2 11 3 12 4 13 5 14 6 15 7 16 8 17 9 18 10 19 11
REMARK SMILES IDX 20 12 8 13 7 14 6 15 5 16 4 17 3 18 2 19 1 20
REMARK H PARENT
REMARK Flexibility Score: inf
ROOT
ATOM      1  C   UNL     1       9.832 -15.298 -21.233  1.00  0.00    -0.031 C 
ATOM      2  C   UNL     1       8.931 -15.640 -20.300  1.00  0.00    -0.031 C 
ENDROOT
BRANCH   1   3
ATOM      3  C   UNL     1      11.160 -14.699 -20.862  1.00  0.00     0.027 C 
BRANCH   3   4
ATOM      4  C   UNL     1      11.563 -13.594 -21.846  1.00  0.00     0.004 C 
BRANCH   4   5
ATOM      5  C   UNL     1      11.260 -12.205 -21.266  1.00  0.00     0.000 C 
BRANCH   5   6
ATOM      6  C   UNL     1       9.859 -11.693 -21.644  1.00  0.00     0.000 C 
BRANCH   6   7
ATOM      7  C   UNL     1       8.724 -12.137 -20.698  1.00  0.00     0.000 C 
BRANCH   7   8
ATOM      8  C   UNL     1       7.352 -12.339 -21.371  1.00  0.00     0.006 C 
BRANCH   8   9
ATOM      9  C   UNL     1       6.971 -11.243 -22.379  1.00  0.00     0.053 C 
BRANCH   9  10
ATOM     10  C   UNL     1       7.116 -11.711 -23.795  1.00  0.00     0.041 C 
ATOM     11  O   UNL     1       7.235 -10.875 -24.729  1.00  0.00    -0.550 OA
ATOM     12  O   UNL     1       7.087 -13.069 -24.087  1.00  0.00    -0.550 OA
ENDBRANCH   9  10
ENDBRANCH   8   9
ENDBRANCH   7   8
ENDBRANCH   6   7
ENDBRANCH   5   6
ENDBRANCH   4   5
ENDBRANCH   3   4
ENDBRANCH   1   3
BRANCH   2  13
ATOM     13  C   UNL     1       7.595 -16.224 -20.671  1.00  0.00     0.027 C 
BRANCH  13  14
ATOM     14  C   UNL     1       7.085 -15.639 -21.996  1.00  0.00     0.004 C 
BRANCH  14  15
ATOM     15  C   UNL     1       7.059 -16.677 -23.128  1.00  0.00     0.000 C 
BRANCH  15  16
ATOM     16  C   UNL     1       7.960 -17.891 -22.838  1.00  0.00     0.000 C 
BRANCH  16  17
ATOM     17  C   UNL     1       7.159 -19.141 -22.434  1.00  0.00    -0.000 C 
BRANCH  17  18
ATOM     18  C   UNL     1       7.996 -20.137 -21.614  1.00  0.00    -0.000 C 
BRANCH  18  19
ATOM     19  C   UNL     1       8.002 -19.804 -20.113  1.00  0.00    -0.003 C 
ATOM     20  C   UNL     1       7.581 -20.988 -19.242  1.00  0.00     0.004 C 
ENDBRANCH  18  19
ENDBRANCH  17  18
ENDBRANCH  16  17
ENDBRANCH  15  16
ENDBRANCH  14  15
ENDBRANCH  13  14
ENDBRANCH   2  13
TORSDOF 15
ENDMDL
MODEL 8
REMARK VINA RESULT:    -0.960      2.347      6.400
REMARK INTER + INTRA:          -3.799
REMARK INTER:                  -3.854
REMARK INTRA:                   0.055
REMARK UNBOUND:                -1.996
REMARK SMILES CCCCCCCCC=CCCCCCCCC(=O)[O-]
REMARK SMILES IDX 10 1 9 2 11 3 12 4 13 5 14 6 15 7 16 8 17 9 18 10 19 11
REMARK SMILES IDX 20 12 8 13 7 14 6 15 5 16 4 17 3 18 2 19 1 20
REMARK H PARENT
REMARK Flexibility Score: inf
ROOT
ATOM      1  C   UNL     1      10.196 -14.899 -21.328  1.00  0.00    -0.031 C 
ATOM      2  C   UNL     1      11.060 -14.195 -20.581  1.00  0.00    -0.031 C 
ENDROOT
BRANCH   1   3
ATOM      3  C   UNL     1       9.264 -15.906 -20.713  1.00  0.00     0.027 C 
BRANCH   3   4
ATOM      4  C   UNL     1       7.860 -15.319 -20.525  1.00  0.00     0.004 C 
BRANCH   4   5
ATOM      5  C   UNL     1       7.356 -15.549 -19.093  1.00  0.00     0.000 C 
BRANCH   5   6
ATOM      6  C   UNL     1       6.877 -16.992 -18.853  1.00  0.00     0.000 C 
BRANCH   6   7
ATOM      7  C   UNL     1       7.673 -18.078 -19.606  1.00  0.00     0.000 C 
BRANCH   7   8
ATOM      8  C   UNL     1       6.886 -18.828 -20.699  1.00  0.00     0.006 C 
BRANCH   8   9
ATOM      9  C   UNL     1       7.760 -19.440 -21.804  1.00  0.00     0.053 C 
BRANCH   9  10
ATOM     10  C   UNL     1       7.686 -18.652 -23.076  1.00  0.00     0.041 C 
ATOM     11  O   UNL     1       7.753 -17.395 -23.048  1.00  0.00    -0.550 OA
ATOM     12  O   UNL     1       7.509 -19.304 -24.290  1.00  0.00    -0.550 OA
ENDBRANCH   9  10
ENDBRANCH   8   9
ENDBRANCH   7   8
ENDBRANCH   6   7
ENDBRANCH   5   6
ENDBRANCH   4   5
ENDBRANCH   3   4
ENDBRANCH   1   3
BRANCH   2  13
ATOM     13  C   UNL     1      12.004 -13.198 -21.196  1.00  0.00     0.027 C 
BRANCH  13  14
ATOM     14  C   UNL     1      11.252 -11.942 -21.663  1.00  0.00     0.004 C 
BRANCH  14  15
ATOM     15  C   UNL     1       9.727 -12.112 -21.602  1.00  0.00     0.000 C 
BRANCH  15  16
ATOM     16  C   UNL     1       8.974 -10.932 -22.245  1.00  0.00     0.000 C 
BRANCH  16  17
ATOM     17  C   UNL     1       7.467 -11.201 -22.391  1.00  0.00    -0.000 C 
BRANCH  17  18
ATOM     18  C   UNL     1       7.143 -12.103 -23.593  1.00  0.00    -0.000 C 
BRANCH  18  19
ATOM     19  C   UNL     1       6.875 -13.560 -23.180  1.00  0.00    -0.003 C 
ATOM     20  C   UNL     1       7.309 -14.567 -24.245  1.00  0.00     0.004 C 
ENDBRANCH  18  19
ENDBRANCH  17  18
ENDBRANCH  16  17
ENDBRANCH  15  16
ENDBRANCH  14  15
ENDBRANCH  13  14
ENDBRANCH   2  13
TORSDOF 15
ENDMDL
