MODEL 1
REMARK VINA RESULT:    -4.879      0.000      0.000
REMARK INTER + INTRA:          -5.300
REMARK INTER:                  -5.165
REMARK INTRA:                  -0.135
REMARK UNBOUND:                -0.135
REMARK SMILES CC1=CCC(C(C)C)=CC1
REMARK SMILES IDX 1 1 2 2 3 3 4 4 5 5 9 6 10 7 6 8 7 9 8 10
REMARK H PARENT
REMARK Flexibility Score: inf
ROOT
ATOM      1  C   UNL     1      50.863  47.125  43.513  1.00  0.00     0.039 C 
ATOM      2  C   UNL     1      52.239  46.667  43.116  1.00  0.00    -0.073 C 
ATOM      3  C   UNL     1      53.313  47.102  43.801  1.00  0.00    -0.023 C 
ATOM      4  C   UNL     1      54.708  46.697  43.392  1.00  0.00     0.058 C 
ATOM      5  C   UNL     1      54.727  45.316  42.768  1.00  0.00    -0.068 C 
ATOM      6  C   UNL     1      53.646  44.885  42.079  1.00  0.00    -0.023 C 
ATOM      7  C   UNL     1      52.426  45.758  41.920  1.00  0.00     0.057 C 
ENDROOT
BRANCH   5   8
ATOM      8  C   UNL     1      55.977  44.459  42.891  1.00  0.00     0.009 C 
ATOM      9  C   UNL     1      57.093  44.958  41.964  1.00  0.00     0.012 C 
ATOM     10  C   UNL     1      55.664  42.981  42.633  1.00  0.00     0.012 C 
ENDBRANCH   5   8
TORSDOF 1
ENDMDL
MODEL 2
REMARK VINA RESULT:    -4.806      1.837      3.705
REMARK INTER + INTRA:          -5.222
REMARK INTER:                  -5.054
REMARK INTRA:                  -0.167
REMARK UNBOUND:                -0.135
REMARK SMILES CC1=CCC(C(C)C)=CC1
REMARK SMILES IDX 1 1 2 2 3 3 4 4 5 5 9 6 10 7 6 8 7 9 8 10
REMARK H PARENT
REMARK Flexibility Score: inf
ROOT
ATOM      1  C   UNL     1      53.459  44.940  42.188  1.00  0.00     0.039 C 
ATOM      2  C   UNL     1      54.943  44.716  42.283  1.00  0.00    -0.073 C 
ATOM      3  C   UNL     1      55.430  43.462  42.309  1.00  0.00    -0.023 C 
ATOM      4  C   UNL     1      56.911  43.209  42.453  1.00  0.00     0.058 C 
ATOM      5  C   UNL     1      57.730  44.317  41.822  1.00  0.00    -0.068 C 
ATOM      6  C   UNL     1      57.236  45.576  41.800  1.00  0.00    -0.023 C 
ATOM      7  C   UNL     1      55.888  45.893  42.397  1.00  0.00     0.057 C 
ENDROOT
BRANCH   5   8
ATOM      8  C   UNL     1      59.108  44.000  41.264  1.00  0.00     0.009 C 
ATOM      9  C   UNL     1      59.412  44.838  40.015  1.00  0.00     0.012 C 
ATOM     10  C   UNL     1      59.259  42.502  40.974  1.00  0.00     0.012 C 
ENDBRANCH   5   8
TORSDOF 1
ENDMDL
MODEL 3
REMARK VINA RESULT:    -4.659      1.377      4.802
REMARK INTER + INTRA:          -5.067
REMARK INTER:                  -4.907
REMARK INTRA:                  -0.160
REMARK UNBOUND:                -0.135
REMARK SMILES CC1=CCC(C(C)C)=CC1
REMARK SMILES IDX 1 1 2 2 3 3 4 4 5 5 9 6 10 7 6 8 7 9 8 10
REMARK H PARENT
REMARK Flexibility Score: inf
ROOT
ATOM      1  C   UNL     1      59.133  44.494  40.354  1.00  0.00     0.039 C 
ATOM      2  C   UNL     1      58.016  44.773  41.321  1.00  0.00    -0.073 C 
ATOM      3  C   UNL     1      57.652  46.043  41.575  1.00  0.00    -0.023 C 
ATOM      4  C   UNL     1      56.568  46.353  42.578  1.00  0.00     0.058 C 
ATOM      5  C   UNL     1      55.529  45.251  42.634  1.00  0.00    -0.068 C 
ATOM      6  C   UNL     1      55.901  43.976  42.379  1.00  0.00    -0.023 C 
ATOM      7  C   UNL     1      57.332  43.634  42.047  1.00  0.00     0.057 C 
ENDROOT
BRANCH   5   8
ATOM      8  C   UNL     1      54.098  45.594  43.015  1.00  0.00     0.009 C 
ATOM      9  C   UNL     1      53.131  45.333  41.853  1.00  0.00     0.012 C 
ATOM     10  C   UNL     1      53.987  47.040  43.512  1.00  0.00     0.012 C 
ENDBRANCH   5   8
TORSDOF 1
ENDMDL
MODEL 4
REMARK VINA RESULT:    -4.469      1.425      2.436
REMARK INTER + INTRA:          -4.865
REMARK INTER:                  -4.714
REMARK INTRA:                  -0.151
REMARK UNBOUND:                -0.135
REMARK SMILES CC1=CCC(C(C)C)=CC1
REMARK SMILES IDX 1 1 2 2 3 3 4 4 5 5 9 6 10 7 6 8 7 9 8 10
REMARK H PARENT
REMARK Flexibility Score: inf
ROOT
ATOM      1  C   UNL     1      53.145  46.702  43.411  1.00  0.00     0.039 C 
ATOM      2  C   UNL     1      54.225  45.794  42.889  1.00  0.00    -0.073 C 
ATOM      3  C   UNL     1      55.506  46.205  42.897  1.00  0.00    -0.023 C 
ATOM      4  C   UNL     1      56.602  45.334  42.335  1.00  0.00     0.058 C 
ATOM      5  C   UNL     1      56.287  43.861  42.505  1.00  0.00    -0.068 C 
ATOM      6  C   UNL     1      54.997  43.454  42.495  1.00  0.00    -0.023 C 
ATOM      7  C   UNL     1      53.871  44.441  42.311  1.00  0.00     0.057 C 
ENDROOT
BRANCH   5   8
ATOM      8  C   UNL     1      57.427  42.865  42.644  1.00  0.00     0.009 C 
ATOM      9  C   UNL     1      58.010  42.875  44.063  1.00  0.00     0.012 C 
ATOM     10  C   UNL     1      58.518  43.121  41.597  1.00  0.00     0.012 C 
ENDBRANCH   5   8
TORSDOF 1
ENDMDL
MODEL 5
REMARK VINA RESULT:    -4.114     22.209     23.774
REMARK INTER + INTRA:          -4.490
REMARK INTER:                  -4.324
REMARK INTRA:                  -0.166
REMARK UNBOUND:                -0.135
REMARK SMILES CC1=CCC(C(C)C)=CC1
REMARK SMILES IDX 1 1 2 2 3 3 4 4 5 5 9 6 10 7 6 8 7 9 8 10
REMARK H PARENT
REMARK Flexibility Score: inf
ROOT
ATOM      1  C   UNL     1      57.846  26.875  26.125  1.00  0.00     0.039 C 
ATOM      2  C   UNL     1      57.165  28.210  26.011  1.00  0.00    -0.073 C 
ATOM      3  C   UNL     1      56.868  28.708  24.796  1.00  0.00    -0.023 C 
ATOM      4  C   UNL     1      56.229  30.068  24.652  1.00  0.00     0.058 C 
ATOM      5  C   UNL     1      55.336  30.392  25.833  1.00  0.00    -0.068 C 
ATOM      6  C   UNL     1      55.640  29.890  27.051  1.00  0.00    -0.023 C 
ATOM      7  C   UNL     1      56.854  29.018  27.253  1.00  0.00     0.057 C 
ENDROOT
BRANCH   5   8
ATOM      8  C   UNL     1      54.139  31.309  25.633  1.00  0.00     0.009 C 
ATOM      9  C   UNL     1      52.908  30.796  26.390  1.00  0.00     0.012 C 
ATOM     10  C   UNL     1      53.832  31.504  24.144  1.00  0.00     0.012 C 
ENDBRANCH   5   8
TORSDOF 1
ENDMDL
MODEL 6
REMARK VINA RESULT:    -3.979      1.945      5.547
REMARK INTER + INTRA:          -4.347
REMARK INTER:                  -4.195
REMARK INTRA:                  -0.152
REMARK UNBOUND:                -0.135
REMARK SMILES CC1=CCC(C(C)C)=CC1
REMARK SMILES IDX 1 1 2 2 3 3 4 4 5 5 9 6 10 7 6 8 7 9 8 10
REMARK H PARENT
REMARK Flexibility Score: inf
ROOT
ATOM      1  C   UNL     1      60.368  42.772  41.975  1.00  0.00     0.039 C 
ATOM      2  C   UNL     1      58.997  43.376  41.845  1.00  0.00    -0.073 C 
ATOM      3  C   UNL     1      57.941  42.768  42.417  1.00  0.00    -0.023 C 
ATOM      4  C   UNL     1      56.548  43.326  42.260  1.00  0.00     0.058 C 
ATOM      5  C   UNL     1      56.563  44.836  42.132  1.00  0.00    -0.068 C 
ATOM      6  C   UNL     1      57.626  45.441  41.555  1.00  0.00    -0.023 C 
ATOM      7  C   UNL     1      58.791  44.637  41.034  1.00  0.00     0.057 C 
ENDROOT
BRANCH   5   8
ATOM      8  C   UNL     1      55.365  45.637  42.616  1.00  0.00     0.009 C 
ATOM      9  C   UNL     1      55.443  45.904  44.124  1.00  0.00     0.012 C 
ATOM     10  C   UNL     1      54.048  44.947  42.243  1.00  0.00     0.012 C 
ENDBRANCH   5   8
TORSDOF 1
ENDMDL
MODEL 7
REMARK VINA RESULT:    -3.975      2.352      5.847
REMARK INTER + INTRA:          -4.343
REMARK INTER:                  -4.206
REMARK INTRA:                  -0.136
REMARK UNBOUND:                -0.135
REMARK SMILES CC1=CCC(C(C)C)=CC1
REMARK SMILES IDX 1 1 2 2 3 3 4 4 5 5 9 6 10 7 6 8 7 9 8 10
REMARK H PARENT
REMARK Flexibility Score: inf
ROOT
ATOM      1  C   UNL     1      60.792  42.245  42.588  1.00  0.00     0.039 C 
ATOM      2  C   UNL     1      59.481  42.982  42.614  1.00  0.00    -0.073 C 
ATOM      3  C   UNL     1      59.057  43.631  41.514  1.00  0.00    -0.023 C 
ATOM      4  C   UNL     1      57.770  44.419  41.527  1.00  0.00     0.058 C 
ATOM      5  C   UNL     1      56.755  43.813  42.476  1.00  0.00    -0.068 C 
ATOM      6  C   UNL     1      57.187  43.162  43.581  1.00  0.00    -0.023 C 
ATOM      7  C   UNL     1      58.659  43.036  43.884  1.00  0.00     0.057 C 
ENDROOT
BRANCH   5   8
ATOM      8  C   UNL     1      55.272  43.983  42.190  1.00  0.00     0.009 C 
ATOM      9  C   UNL     1      54.671  45.131  43.012  1.00  0.00     0.012 C 
ATOM     10  C   UNL     1      54.507  42.675  42.427  1.00  0.00     0.012 C 
ENDBRANCH   5   8
TORSDOF 1
ENDMDL
MODEL 8
REMARK VINA RESULT:    -3.587     22.244     23.557
REMARK INTER + INTRA:          -3.932
REMARK INTER:                  -3.771
REMARK INTRA:                  -0.161
REMARK UNBOUND:                -0.135
REMARK SMILES CC1=CCC(C(C)C)=CC1
REMARK SMILES IDX 1 1 2 2 3 3 4 4 5 5 9 6 10 7 6 8 7 9 8 10
REMARK H PARENT
REMARK Flexibility Score: inf
ROOT
ATOM      1  C   UNL     1      52.027  30.444  26.439  1.00  0.00     0.039 C 
ATOM      2  C   UNL     1      53.453  29.983  26.549  1.00  0.00    -0.073 C 
ATOM      3  C   UNL     1      53.722  28.731  26.966  1.00  0.00    -0.023 C 
ATOM      4  C   UNL     1      55.145  28.259  27.132  1.00  0.00     0.058 C 
ATOM      5  C   UNL     1      56.076  28.935  26.145  1.00  0.00    -0.068 C 
ATOM      6  C   UNL     1      55.802  30.193  25.731  1.00  0.00    -0.023 C 
ATOM      7  C   UNL     1      54.590  30.933  26.239  1.00  0.00     0.057 C 
ENDROOT
BRANCH   5   8
ATOM      8  C   UNL     1      57.321  28.202  25.672  1.00  0.00     0.009 C 
ATOM      9  C   UNL     1      57.300  27.984  24.154  1.00  0.00     0.012 C 
ATOM     10  C   UNL     1      57.501  26.875  26.419  1.00  0.00     0.012 C 
ENDBRANCH   5   8
TORSDOF 1
ENDMDL
MODEL 9
REMARK VINA RESULT:    -3.395     22.132     23.245
REMARK INTER + INTRA:          -3.729
REMARK INTER:                  -3.576
REMARK INTRA:                  -0.152
REMARK UNBOUND:                -0.135
REMARK SMILES CC1=CCC(C(C)C)=CC1
REMARK SMILES IDX 1 1 2 2 3 3 4 4 5 5 9 6 10 7 6 8 7 9 8 10
REMARK H PARENT
REMARK Flexibility Score: inf
ROOT
ATOM      1  C   UNL     1      50.841  28.504  28.244  1.00  0.00     0.039 C 
ATOM      2  C   UNL     1      52.177  28.415  27.559  1.00  0.00    -0.073 C 
ATOM      3  C   UNL     1      52.585  29.413  26.754  1.00  0.00    -0.023 C 
ATOM      4  C   UNL     1      53.898  29.326  26.017  1.00  0.00     0.058 C 
ATOM      5  C   UNL     1      54.923  28.527  26.796  1.00  0.00    -0.068 C 
ATOM      6  C   UNL     1      54.508  27.523  27.603  1.00  0.00    -0.023 C 
ATOM      7  C   UNL     1      53.044  27.186  27.733  1.00  0.00     0.057 C 
ENDROOT
BRANCH   5   8
ATOM      8  C   UNL     1      56.401  28.841  26.626  1.00  0.00     0.009 C 
ATOM      9  C   UNL     1      57.248  27.562  26.617  1.00  0.00     0.012 C 
ATOM     10  C   UNL     1      56.888  29.819  27.701  1.00  0.00     0.012 C 
ENDBRANCH   5   8
TORSDOF 1
ENDMDL
