MODEL 1
REMARK VINA RESULT:    -5.860      0.000      0.000
REMARK INTER + INTRA:          -8.621
REMARK INTER:                  -8.087
REMARK INTRA:                  -0.534
REMARK UNBOUND:                -0.534
REMARK SMILES CCCCc1cccc(O)c1CCCC
REMARK SMILES IDX 5 1 11 2 9 3 8 4 7 5 6 6 4 7 3 8 2 9 1 10 12 11 13 12 14 13
REMARK SMILES IDX 15 14 10 15
REMARK H PARENT 10 16
REMARK Flexibility Score: inf
ROOT
ATOM      1  C   UNL     1     -13.857  60.856  39.024  1.00  0.00    -0.041 A 
ATOM      2  C   UNL     1     -13.769  62.277  38.908  1.00  0.00    -0.003 A 
ATOM      3  C   UNL     1     -14.875  62.991  38.388  1.00  0.00     0.119 A 
ATOM      4  C   UNL     1     -16.049  62.318  38.033  1.00  0.00     0.046 A 
ATOM      5  C   UNL     1     -16.144  60.939  38.187  1.00  0.00     0.004 A 
ATOM      6  C   UNL     1     -15.060  60.214  38.677  1.00  0.00     0.004 A 
ENDROOT
BRANCH   1   7
ATOM      7  C   UNL     1     -12.712  59.986  39.503  1.00  0.00     0.036 C 
BRANCH   7   8
ATOM      8  C   UNL     1     -12.309  60.327  40.941  1.00  0.00     0.004 C 
BRANCH   8   9
ATOM      9  C   UNL     1     -13.515  60.253  41.885  1.00  0.00    -0.003 C 
ATOM     10  C   UNL     1     -13.105  60.542  43.326  1.00  0.00     0.004 C 
ENDBRANCH   8   9
ENDBRANCH   7   8
ENDBRANCH   1   7
BRANCH   2  11
ATOM     11  C   UNL     1     -12.549  63.064  39.358  1.00  0.00     0.040 C 
BRANCH  11  12
ATOM     12  C   UNL     1     -11.403  62.943  38.337  1.00  0.00     0.005 C 
BRANCH  12  13
ATOM     13  C   UNL     1     -10.072  63.481  38.884  1.00  0.00    -0.003 C 
ATOM     14  C   UNL     1      -9.655  62.802  40.190  1.00  0.00     0.004 C 
ENDBRANCH  12  13
ENDBRANCH  11  12
ENDBRANCH   2  11
BRANCH   3  15
ATOM     15  O   UNL     1     -14.803  64.374  38.223  1.00  0.00    -0.508 OA
ATOM     16  H   UNL     1     -14.289  64.963  38.869  1.00  0.00     0.293 HD
ENDBRANCH   3  15
TORSDOF 7
ENDMDL
MODEL 2
REMARK VINA RESULT:    -5.779      1.774      2.742
REMARK INTER + INTRA:          -8.508
REMARK INTER:                  -7.744
REMARK INTRA:                  -0.764
REMARK UNBOUND:                -0.534
REMARK SMILES CCCCc1cccc(O)c1CCCC
REMARK SMILES IDX 5 1 11 2 9 3 8 4 7 5 6 6 4 7 3 8 2 9 1 10 12 11 13 12 14 13
REMARK SMILES IDX 15 14 10 15
REMARK H PARENT 10 16
REMARK Flexibility Score: inf
ROOT
ATOM      1  C   UNL     1     -11.341  61.355  40.307  1.00  0.00    -0.041 A 
ATOM      2  C   UNL     1     -11.848  62.427  39.510  1.00  0.00    -0.003 A 
ATOM      3  C   UNL     1     -13.116  62.284  38.899  1.00  0.00     0.119 A 
ATOM      4  C   UNL     1     -13.878  61.130  39.109  1.00  0.00     0.046 A 
ATOM      5  C   UNL     1     -13.398  60.108  39.920  1.00  0.00     0.004 A 
ATOM      6  C   UNL     1     -12.143  60.218  40.514  1.00  0.00     0.004 A 
ENDROOT
BRANCH   1   7
ATOM      7  C   UNL     1      -9.969  61.372  40.951  1.00  0.00     0.036 C 
BRANCH   7   8
ATOM      8  C   UNL     1      -9.939  62.275  42.188  1.00  0.00     0.004 C 
BRANCH   8   9
ATOM      9  C   UNL     1     -10.526  61.559  43.409  1.00  0.00    -0.003 C 
ATOM     10  C   UNL     1      -9.533  61.539  44.567  1.00  0.00     0.004 C 
ENDBRANCH   8   9
ENDBRANCH   7   8
ENDBRANCH   1   7
BRANCH   2  11
ATOM     11  C   UNL     1     -11.098  63.735  39.320  1.00  0.00     0.040 C 
BRANCH  11  12
ATOM     12  C   UNL     1     -10.071  63.626  38.178  1.00  0.00     0.005 C 
BRANCH  12  13
ATOM     13  C   UNL     1      -8.899  64.604  38.347  1.00  0.00    -0.003 C 
ATOM     14  C   UNL     1      -8.207  64.465  39.705  1.00  0.00     0.004 C 
ENDBRANCH  12  13
ENDBRANCH  11  12
ENDBRANCH   2  11
BRANCH   3  15
ATOM     15  O   UNL     1     -13.618  63.296  38.080  1.00  0.00    -0.508 OA
ATOM     16  H   UNL     1     -14.418  63.856  38.353  1.00  0.00     0.293 HD
ENDBRANCH   3  15
TORSDOF 7
ENDMDL
MODEL 3
REMARK VINA RESULT:    -5.727     11.130     14.115
REMARK INTER + INTRA:          -8.437
REMARK INTER:                  -7.770
REMARK INTRA:                  -0.667
REMARK UNBOUND:                -0.534
REMARK SMILES CCCCc1cccc(O)c1CCCC
REMARK SMILES IDX 5 1 11 2 9 3 8 4 7 5 6 6 4 7 3 8 2 9 1 10 12 11 13 12 14 13
REMARK SMILES IDX 15 14 10 15
REMARK H PARENT 10 16
REMARK Flexibility Score: inf
ROOT
ATOM      1  C   UNL     1      -6.604  64.702  50.144  1.00  0.00    -0.041 A 
ATOM      2  C   UNL     1      -6.652  65.348  51.417  1.00  0.00    -0.003 A 
ATOM      3  C   UNL     1      -5.855  66.496  51.633  1.00  0.00     0.119 A 
ATOM      4  C   UNL     1      -5.065  67.014  50.601  1.00  0.00     0.046 A 
ATOM      5  C   UNL     1      -5.053  66.407  49.351  1.00  0.00     0.004 A 
ATOM      6  C   UNL     1      -5.814  65.262  49.123  1.00  0.00     0.004 A 
ENDROOT
BRANCH   1   7
ATOM      7  C   UNL     1      -7.362  63.429  49.825  1.00  0.00     0.036 C 
BRANCH   7   8
ATOM      8  C   UNL     1      -8.552  63.700  48.898  1.00  0.00     0.004 C 
BRANCH   8   9
ATOM      9  C   UNL     1      -9.087  62.399  48.291  1.00  0.00    -0.003 C 
ATOM     10  C   UNL     1      -8.958  62.406  46.771  1.00  0.00     0.004 C 
ENDBRANCH   8   9
ENDBRANCH   7   8
ENDBRANCH   1   7
BRANCH   2  11
ATOM     11  C   UNL     1      -7.558  64.875  52.543  1.00  0.00     0.040 C 
BRANCH  11  12
ATOM     12  C   UNL     1      -6.834  63.864  53.450  1.00  0.00     0.005 C 
BRANCH  12  13
ATOM     13  C   UNL     1      -7.809  62.928  54.180  1.00  0.00    -0.003 C 
ATOM     14  C   UNL     1      -7.774  61.500  53.633  1.00  0.00     0.004 C 
ENDBRANCH  12  13
ENDBRANCH  11  12
ENDBRANCH   2  11
BRANCH   3  15
ATOM     15  O   UNL     1      -5.850  67.123  52.880  1.00  0.00    -0.508 OA
ATOM     16  H   UNL     1      -5.267  67.931  53.068  1.00  0.00     0.293 HD
ENDBRANCH   3  15
TORSDOF 7
ENDMDL
MODEL 4
REMARK VINA RESULT:    -5.641     11.669     14.528
REMARK INTER + INTRA:          -8.319
REMARK INTER:                  -7.726
REMARK INTRA:                  -0.593
REMARK UNBOUND:                -0.534
REMARK SMILES CCCCc1cccc(O)c1CCCC
REMARK SMILES IDX 5 1 11 2 9 3 8 4 7 5 6 6 4 7 3 8 2 9 1 10 12 11 13 12 14 13
REMARK SMILES IDX 15 14 10 15
REMARK H PARENT 10 16
REMARK Flexibility Score: inf
ROOT
ATOM      1  C   UNL     1      -6.802  64.166  52.441  1.00  0.00    -0.041 A 
ATOM      2  C   UNL     1      -6.385  64.566  51.134  1.00  0.00    -0.003 A 
ATOM      3  C   UNL     1      -5.964  65.901  50.929  1.00  0.00     0.119 A 
ATOM      4  C   UNL     1      -5.919  66.802  51.999  1.00  0.00     0.046 A 
ATOM      5  C   UNL     1      -6.287  66.396  53.277  1.00  0.00     0.004 A 
ATOM      6  C   UNL     1      -6.724  65.092  53.497  1.00  0.00     0.004 A 
ENDROOT
BRANCH   1   7
ATOM      7  C   UNL     1      -7.335  62.783  52.759  1.00  0.00     0.036 C 
BRANCH   7   8
ATOM      8  C   UNL     1      -7.837  62.692  54.204  1.00  0.00     0.004 C 
BRANCH   8   9
ATOM      9  C   UNL     1      -7.033  61.663  55.005  1.00  0.00    -0.003 C 
ATOM     10  C   UNL     1      -6.117  60.850  54.095  1.00  0.00     0.004 C 
ENDBRANCH   8   9
ENDBRANCH   7   8
ENDBRANCH   1   7
BRANCH   2  11
ATOM     11  C   UNL     1      -6.334  63.604  49.959  1.00  0.00     0.040 C 
BRANCH  11  12
ATOM     12  C   UNL     1      -7.743  63.344  49.394  1.00  0.00     0.005 C 
BRANCH  12  13
ATOM     13  C   UNL     1      -8.625  64.602  49.416  1.00  0.00    -0.003 C 
ATOM     14  C   UNL     1      -9.710  64.579  48.338  1.00  0.00     0.004 C 
ENDBRANCH  12  13
ENDBRANCH  11  12
ENDBRANCH   2  11
BRANCH   3  15
ATOM     15  O   UNL     1      -5.592  66.332  49.656  1.00  0.00    -0.508 OA
ATOM     16  H   UNL     1      -5.858  65.823  48.821  1.00  0.00     0.293 HD
ENDBRANCH   3  15
TORSDOF 7
ENDMDL
MODEL 5
REMARK VINA RESULT:    -5.622      2.693      5.261
REMARK INTER + INTRA:          -8.292
REMARK INTER:                  -7.718
REMARK INTRA:                  -0.574
REMARK UNBOUND:                -0.534
REMARK SMILES CCCCc1cccc(O)c1CCCC
REMARK SMILES IDX 5 1 11 2 9 3 8 4 7 5 6 6 4 7 3 8 2 9 1 10 12 11 13 12 14 13
REMARK SMILES IDX 15 14 10 15
REMARK H PARENT 10 16
REMARK Flexibility Score: inf
ROOT
ATOM      1  C   UNL     1     -10.117  62.650  41.584  1.00  0.00    -0.041 A 
ATOM      2  C   UNL     1     -10.494  62.119  40.313  1.00  0.00    -0.003 A 
ATOM      3  C   UNL     1     -10.342  62.928  39.162  1.00  0.00     0.119 A 
ATOM      4  C   UNL     1      -9.792  64.210  39.265  1.00  0.00     0.046 A 
ATOM      5  C   UNL     1      -9.388  64.706  40.500  1.00  0.00     0.004 A 
ATOM      6  C   UNL     1      -9.548  63.935  41.649  1.00  0.00     0.004 A 
ENDROOT
BRANCH   1   7
ATOM      7  C   UNL     1     -10.299  61.899  42.889  1.00  0.00     0.036 C 
BRANCH   7   8
ATOM      8  C   UNL     1      -9.636  62.634  44.058  1.00  0.00     0.004 C 
BRANCH   8   9
ATOM      9  C   UNL     1      -9.252  61.659  45.177  1.00  0.00    -0.003 C 
ATOM     10  C   UNL     1      -9.105  62.383  46.512  1.00  0.00     0.004 C 
ENDBRANCH   8   9
ENDBRANCH   7   8
ENDBRANCH   1   7
BRANCH   2  11
ATOM     11  C   UNL     1     -11.016  60.703  40.137  1.00  0.00     0.040 C 
BRANCH  11  12
ATOM     12  C   UNL     1     -12.550  60.658  40.260  1.00  0.00     0.005 C 
BRANCH  12  13
ATOM     13  C   UNL     1     -13.213  59.944  39.072  1.00  0.00    -0.003 C 
ATOM     14  C   UNL     1     -14.420  60.709  38.526  1.00  0.00     0.004 C 
ENDBRANCH  12  13
ENDBRANCH  11  12
ENDBRANCH   2  11
BRANCH   3  15
ATOM     15  O   UNL     1     -10.741  62.453  37.913  1.00  0.00    -0.508 OA
ATOM     16  H   UNL     1     -11.521  61.814  37.809  1.00  0.00     0.293 HD
ENDBRANCH   3  15
TORSDOF 7
ENDMDL
MODEL 6
REMARK VINA RESULT:    -5.527      2.801      6.271
REMARK INTER + INTRA:          -8.161
REMARK INTER:                  -7.253
REMARK INTRA:                  -0.908
REMARK UNBOUND:                -0.534
REMARK SMILES CCCCc1cccc(O)c1CCCC
REMARK SMILES IDX 5 1 11 2 9 3 8 4 7 5 6 6 4 7 3 8 2 9 1 10 12 11 13 12 14 13
REMARK SMILES IDX 15 14 10 15
REMARK H PARENT 10 16
REMARK Flexibility Score: inf
ROOT
ATOM      1  C   UNL     1      -9.710  64.018  41.172  1.00  0.00    -0.041 A 
ATOM      2  C   UNL     1      -9.959  62.746  40.574  1.00  0.00    -0.003 A 
ATOM      3  C   UNL     1     -10.122  61.617  41.411  1.00  0.00     0.119 A 
ATOM      4  C   UNL     1     -10.082  61.755  42.803  1.00  0.00     0.046 A 
ATOM      5  C   UNL     1      -9.880  63.003  43.381  1.00  0.00     0.004 A 
ATOM      6  C   UNL     1      -9.696  64.125  42.575  1.00  0.00     0.004 A 
ENDROOT
BRANCH   1   7
ATOM      7  C   UNL     1      -9.453  65.280  40.372  1.00  0.00     0.036 C 
BRANCH   7   8
ATOM      8  C   UNL     1      -8.060  65.853  40.655  1.00  0.00     0.004 C 
BRANCH   8   9
ATOM      9  C   UNL     1      -7.062  65.441  39.567  1.00  0.00    -0.003 C 
ATOM     10  C   UNL     1      -7.738  65.358  38.202  1.00  0.00     0.004 C 
ENDBRANCH   8   9
ENDBRANCH   7   8
ENDBRANCH   1   7
BRANCH   2  11
ATOM     11  C   UNL     1     -10.098  62.557  39.072  1.00  0.00     0.040 C 
BRANCH  11  12
ATOM     12  C   UNL     1     -11.447  63.100  38.567  1.00  0.00     0.005 C 
BRANCH  12  13
ATOM     13  C   UNL     1     -12.634  62.236  39.021  1.00  0.00    -0.003 C 
ATOM     14  C   UNL     1     -13.979  62.939  38.833  1.00  0.00     0.004 C 
ENDBRANCH  12  13
ENDBRANCH  11  12
ENDBRANCH   2  11
BRANCH   3  15
ATOM     15  O   UNL     1     -10.325  60.354  40.855  1.00  0.00    -0.508 OA
ATOM     16  H   UNL     1     -10.961  60.208  40.079  1.00  0.00     0.293 HD
ENDBRANCH   3  15
TORSDOF 7
ENDMDL
MODEL 7
REMARK VINA RESULT:    -5.489     17.854     20.242
REMARK INTER + INTRA:          -8.109
REMARK INTER:                  -7.361
REMARK INTRA:                  -0.748
REMARK UNBOUND:                -0.534
REMARK SMILES CCCCc1cccc(O)c1CCCC
REMARK SMILES IDX 5 1 11 2 9 3 8 4 7 5 6 6 4 7 3 8 2 9 1 10 12 11 13 12 14 13
REMARK SMILES IDX 15 14 10 15
REMARK H PARENT 10 16
REMARK Flexibility Score: inf
ROOT
ATOM      1  C   UNL     1     -12.028  49.090  54.280  1.00  0.00    -0.041 A 
ATOM      2  C   UNL     1     -10.817  49.277  55.014  1.00  0.00    -0.003 A 
ATOM      3  C   UNL     1     -10.053  50.446  54.787  1.00  0.00     0.119 A 
ATOM      4  C   UNL     1     -10.500  51.421  53.889  1.00  0.00     0.046 A 
ATOM      5  C   UNL     1     -11.701  51.253  53.207  1.00  0.00     0.004 A 
ATOM      6  C   UNL     1     -12.458  50.099  53.400  1.00  0.00     0.004 A 
ENDROOT
BRANCH   1   7
ATOM      7  C   UNL     1     -12.888  47.846  54.393  1.00  0.00     0.036 C 
BRANCH   7   8
ATOM      8  C   UNL     1     -13.742  47.637  53.139  1.00  0.00     0.004 C 
BRANCH   8   9
ATOM      9  C   UNL     1     -15.235  47.618  53.483  1.00  0.00    -0.003 C 
ATOM     10  C   UNL     1     -15.957  48.814  52.868  1.00  0.00     0.004 C 
ENDBRANCH   8   9
ENDBRANCH   7   8
ENDBRANCH   1   7
BRANCH   2  11
ATOM     11  C   UNL     1     -10.332  48.290  56.063  1.00  0.00     0.040 C 
BRANCH  11  12
ATOM     12  C   UNL     1      -9.315  47.300  55.465  1.00  0.00     0.005 C 
BRANCH  12  13
ATOM     13  C   UNL     1      -8.003  47.253  56.264  1.00  0.00    -0.003 C 
ATOM     14  C   UNL     1      -6.798  47.719  55.446  1.00  0.00     0.004 C 
ENDBRANCH  12  13
ENDBRANCH  11  12
ENDBRANCH   2  11
BRANCH   3  15
ATOM     15  O   UNL     1      -8.845  50.636  55.458  1.00  0.00    -0.508 OA
ATOM     16  H   UNL     1      -8.724  50.366  56.427  1.00  0.00     0.293 HD
ENDBRANCH   3  15
TORSDOF 7
ENDMDL
MODEL 8
REMARK VINA RESULT:    -5.472      2.604      4.732
REMARK INTER + INTRA:          -8.086
REMARK INTER:                  -7.523
REMARK INTRA:                  -0.562
REMARK UNBOUND:                -0.534
REMARK SMILES CCCCc1cccc(O)c1CCCC
REMARK SMILES IDX 5 1 11 2 9 3 8 4 7 5 6 6 4 7 3 8 2 9 1 10 12 11 13 12 14 13
REMARK SMILES IDX 15 14 10 15
REMARK H PARENT 10 16
REMARK Flexibility Score: inf
ROOT
ATOM      1  C   UNL     1     -11.148  61.772  39.891  1.00  0.00    -0.041 A 
ATOM      2  C   UNL     1     -10.005  62.338  40.533  1.00  0.00    -0.003 A 
ATOM      3  C   UNL     1      -9.248  63.316  39.845  1.00  0.00     0.119 A 
ATOM      4  C   UNL     1      -9.639  63.749  38.574  1.00  0.00     0.046 A 
ATOM      5  C   UNL     1     -10.776  63.224  37.970  1.00  0.00     0.004 A 
ATOM      6  C   UNL     1     -11.524  62.245  38.621  1.00  0.00     0.004 A 
ENDROOT
BRANCH   1   7
ATOM      7  C   UNL     1     -11.991  60.672  40.506  1.00  0.00     0.036 C 
BRANCH   7   8
ATOM      8  C   UNL     1     -12.895  60.007  39.464  1.00  0.00     0.004 C 
BRANCH   8   9
ATOM      9  C   UNL     1     -14.364  60.380  39.689  1.00  0.00    -0.003 C 
ATOM     10  C   UNL     1     -15.053  60.728  38.373  1.00  0.00     0.004 C 
ENDBRANCH   8   9
ENDBRANCH   7   8
ENDBRANCH   1   7
BRANCH   2  11
ATOM     11  C   UNL     1      -9.588  61.965  41.946  1.00  0.00     0.040 C 
BRANCH  11  12
ATOM     12  C   UNL     1      -9.963  63.074  42.946  1.00  0.00     0.005 C 
BRANCH  12  13
ATOM     13  C   UNL     1      -9.558  62.726  44.387  1.00  0.00    -0.003 C 
ATOM     14  C   UNL     1      -9.554  61.219  44.650  1.00  0.00     0.004 C 
ENDBRANCH  12  13
ENDBRANCH  11  12
ENDBRANCH   2  11
BRANCH   3  15
ATOM     15  O   UNL     1      -8.102  63.856  40.430  1.00  0.00    -0.508 OA
ATOM     16  H   UNL     1      -8.000  64.853  40.582  1.00  0.00     0.293 HD
ENDBRANCH   3  15
TORSDOF 7
ENDMDL
