MODEL 1
REMARK VINA RESULT:    -5.172      0.000      0.000
REMARK INTER + INTRA:          -5.751
REMARK INTER:                  -5.626
REMARK INTRA:                  -0.125
REMARK UNBOUND:                -0.125
REMARK SMILES Cc1ccc(C(C)C)cc1O
REMARK SMILES IDX 1 1 2 2 10 3 9 4 5 5 4 6 3 7 11 8 6 10 7 11 8 12
REMARK H PARENT 11 9
REMARK Flexibility Score: inf
ROOT
ATOM      1  C   UNL     1      21.746   9.759  22.252  1.00  0.00     0.048 C 
ATOM      2  C   UNL     1      23.169   9.285  22.338  1.00  0.00    -0.009 A 
ATOM      3  C   UNL     1      23.466   8.036  22.911  1.00  0.00     0.118 A 
ATOM      4  C   UNL     1      24.797   7.602  22.989  1.00  0.00     0.050 A 
ATOM      5  C   UNL     1      25.844   8.401  22.499  1.00  0.00    -0.042 A 
ATOM      6  C   UNL     1      25.537   9.649  21.928  1.00  0.00     0.004 A 
ATOM      7  C   UNL     1      24.213  10.086  21.849  1.00  0.00     0.007 A 
ENDROOT
BRANCH   3   8
ATOM      8  O   UNL     1      22.439   7.231  23.402  1.00  0.00    -0.508 OA
ATOM      9  H   UNL     1      22.483   6.220  23.346  1.00  0.00     0.293 HD
ENDBRANCH   3   8
BRANCH   5  10
ATOM     10  C   UNL     1      27.278   7.915  22.592  1.00  0.00     0.013 C 
ATOM     11  C   UNL     1      28.253   9.089  22.738  1.00  0.00     0.012 C 
ATOM     12  C   UNL     1      27.645   7.040  21.387  1.00  0.00     0.012 C 
ENDBRANCH   5  10
TORSDOF 2
ENDMDL
MODEL 2
REMARK VINA RESULT:    -5.170      2.909      3.822
REMARK INTER + INTRA:          -5.749
REMARK INTER:                  -5.624
REMARK INTRA:                  -0.125
REMARK UNBOUND:                -0.125
REMARK SMILES Cc1ccc(C(C)C)cc1O
REMARK SMILES IDX 1 1 2 2 10 3 9 4 5 5 4 6 3 7 11 8 6 10 7 11 8 12
REMARK H PARENT 11 9
REMARK Flexibility Score: inf
ROOT
ATOM      1  C   UNL     1      21.916   4.301  24.700  1.00  0.00     0.048 C 
ATOM      2  C   UNL     1      23.225   4.990  24.435  1.00  0.00    -0.009 A 
ATOM      3  C   UNL     1      23.983   4.659  23.299  1.00  0.00     0.118 A 
ATOM      4  C   UNL     1      25.204   5.305  23.060  1.00  0.00     0.050 A 
ATOM      5  C   UNL     1      25.683   6.287  23.945  1.00  0.00    -0.042 A 
ATOM      6  C   UNL     1      24.917   6.611  25.079  1.00  0.00     0.004 A 
ATOM      7  C   UNL     1      23.701   5.968  25.322  1.00  0.00     0.007 A 
ENDROOT
BRANCH   3   8
ATOM      8  O   UNL     1      23.521   3.688  22.411  1.00  0.00    -0.508 OA
ATOM      9  H   UNL     1      23.963   3.538  21.511  1.00  0.00     0.293 HD
ENDBRANCH   3   8
BRANCH   5  10
ATOM     10  C   UNL     1      27.006   6.976  23.670  1.00  0.00     0.013 C 
ATOM     11  C   UNL     1      27.732   7.320  24.976  1.00  0.00     0.012 C 
ATOM     12  C   UNL     1      26.809   8.226  22.803  1.00  0.00     0.012 C 
ENDBRANCH   5  10
TORSDOF 2
ENDMDL
MODEL 3
REMARK VINA RESULT:    -5.162      3.436      4.252
REMARK INTER + INTRA:          -5.741
REMARK INTER:                  -5.614
REMARK INTRA:                  -0.126
REMARK UNBOUND:                -0.125
REMARK SMILES Cc1ccc(C(C)C)cc1O
REMARK SMILES IDX 1 1 2 2 10 3 9 4 5 5 4 6 3 7 11 8 6 10 7 11 8 12
REMARK H PARENT 11 9
REMARK Flexibility Score: inf
ROOT
ATOM      1  C   UNL     1      21.933   3.365  22.839  1.00  0.00     0.048 C 
ATOM      2  C   UNL     1      23.010   4.297  23.320  1.00  0.00    -0.009 A 
ATOM      3  C   UNL     1      22.856   4.991  24.532  1.00  0.00     0.118 A 
ATOM      4  C   UNL     1      23.864   5.860  24.973  1.00  0.00     0.050 A 
ATOM      5  C   UNL     1      25.034   6.045  24.216  1.00  0.00    -0.042 A 
ATOM      6  C   UNL     1      25.179   5.346  23.005  1.00  0.00     0.004 A 
ATOM      7  C   UNL     1      24.176   4.481  22.561  1.00  0.00     0.007 A 
ENDROOT
BRANCH   3   8
ATOM      8  O   UNL     1      21.701   4.818  25.294  1.00  0.00    -0.508 OA
ATOM      9  H   UNL     1      21.712   4.300  26.166  1.00  0.00     0.293 HD
ENDBRANCH   3   8
BRANCH   5  10
ATOM     10  C   UNL     1      26.115   6.989  24.709  1.00  0.00     0.013 C 
ATOM     11  C   UNL     1      27.474   6.647  24.087  1.00  0.00     0.012 C 
ATOM     12  C   UNL     1      26.194   6.990  26.240  1.00  0.00     0.012 C 
ENDBRANCH   5  10
TORSDOF 2
ENDMDL
MODEL 4
REMARK VINA RESULT:    -5.153      2.985      3.746
REMARK INTER + INTRA:          -5.730
REMARK INTER:                  -5.605
REMARK INTRA:                  -0.125
REMARK UNBOUND:                -0.125
REMARK SMILES Cc1ccc(C(C)C)cc1O
REMARK SMILES IDX 1 1 2 2 10 3 9 4 5 5 4 6 3 7 11 8 6 10 7 11 8 12
REMARK H PARENT 11 9
REMARK Flexibility Score: inf
ROOT
ATOM      1  C   UNL     1      23.776   7.875  17.375  1.00  0.00     0.048 C 
ATOM      2  C   UNL     1      24.726   7.488  18.473  1.00  0.00    -0.009 A 
ATOM      3  C   UNL     1      24.471   7.875  19.800  1.00  0.00     0.118 A 
ATOM      4  C   UNL     1      25.363   7.511  20.818  1.00  0.00     0.050 A 
ATOM      5  C   UNL     1      26.514   6.758  20.530  1.00  0.00    -0.042 A 
ATOM      6  C   UNL     1      26.760   6.375  19.200  1.00  0.00     0.004 A 
ATOM      7  C   UNL     1      25.875   6.737  18.181  1.00  0.00     0.007 A 
ENDROOT
BRANCH   3   8
ATOM      8  O   UNL     1      23.333   8.622  20.102  1.00  0.00    -0.508 OA
ATOM      9  H   UNL     1      22.619   8.273  20.731  1.00  0.00     0.293 HD
ENDBRANCH   3   8
BRANCH   5  10
ATOM     10  C   UNL     1      27.468   6.373  21.645  1.00  0.00     0.013 C 
ATOM     11  C   UNL     1      28.921   6.375  21.155  1.00  0.00     0.012 C 
ATOM     12  C   UNL     1      27.092   5.015  22.250  1.00  0.00     0.012 C 
ENDBRANCH   5  10
TORSDOF 2
ENDMDL
MODEL 5
REMARK VINA RESULT:    -5.091      4.072      5.374
REMARK INTER + INTRA:          -5.663
REMARK INTER:                  -5.538
REMARK INTRA:                  -0.126
REMARK UNBOUND:                -0.125
REMARK SMILES Cc1ccc(C(C)C)cc1O
REMARK SMILES IDX 1 1 2 2 10 3 9 4 5 5 4 6 3 7 11 8 6 10 7 11 8 12
REMARK H PARENT 11 9
REMARK Flexibility Score: inf
ROOT
ATOM      1  C   UNL     1      23.803   2.246  19.570  1.00  0.00     0.048 C 
ATOM      2  C   UNL     1      24.723   3.120  20.375  1.00  0.00    -0.009 A 
ATOM      3  C   UNL     1      24.926   4.462  20.009  1.00  0.00     0.118 A 
ATOM      4  C   UNL     1      25.787   5.270  20.765  1.00  0.00     0.050 A 
ATOM      5  C   UNL     1      26.453   4.755  21.890  1.00  0.00    -0.042 A 
ATOM      6  C   UNL     1      26.244   3.411  22.247  1.00  0.00     0.004 A 
ATOM      7  C   UNL     1      25.388   2.601  21.497  1.00  0.00     0.007 A 
ENDROOT
BRANCH   3   8
ATOM      8  O   UNL     1      24.272   4.988  18.896  1.00  0.00    -0.508 OA
ATOM      9  H   UNL     1      24.780   5.448  18.149  1.00  0.00     0.293 HD
ENDBRANCH   3   8
BRANCH   5  10
ATOM     10  C   UNL     1      27.382   5.643  22.696  1.00  0.00     0.013 C 
ATOM     11  C   UNL     1      28.593   4.857  23.210  1.00  0.00     0.012 C 
ATOM     12  C   UNL     1      26.634   6.321  23.851  1.00  0.00     0.012 C 
ENDBRANCH   5  10
TORSDOF 2
ENDMDL
MODEL 6
REMARK VINA RESULT:    -5.065      3.423      5.148
REMARK INTER + INTRA:          -5.634
REMARK INTER:                  -5.509
REMARK INTRA:                  -0.125
REMARK UNBOUND:                -0.125
REMARK SMILES Cc1ccc(C(C)C)cc1O
REMARK SMILES IDX 1 1 2 2 10 3 9 4 5 5 4 6 3 7 11 8 6 10 7 11 8 12
REMARK H PARENT 11 9
REMARK Flexibility Score: inf
ROOT
ATOM      1  C   UNL     1      27.888   7.504  24.745  1.00  0.00     0.048 C 
ATOM      2  C   UNL     1      26.566   6.851  24.454  1.00  0.00    -0.009 A 
ATOM      3  C   UNL     1      25.599   6.727  25.467  1.00  0.00     0.118 A 
ATOM      4  C   UNL     1      24.369   6.116  25.187  1.00  0.00     0.050 A 
ATOM      5  C   UNL     1      24.087   5.623  23.902  1.00  0.00    -0.042 A 
ATOM      6  C   UNL     1      25.061   5.752  22.896  1.00  0.00     0.004 A 
ATOM      7  C   UNL     1      26.288   6.359  23.170  1.00  0.00     0.007 A 
ENDROOT
BRANCH   3   8
ATOM      8  O   UNL     1      25.864   7.211  26.747  1.00  0.00    -0.508 OA
ATOM      9  H   UNL     1      25.837   6.606  27.561  1.00  0.00     0.293 HD
ENDBRANCH   3   8
BRANCH   5  10
ATOM     10  C   UNL     1      22.750   4.964  23.617  1.00  0.00     0.013 C 
ATOM     11  C   UNL     1      22.113   4.426  24.903  1.00  0.00     0.012 C 
ATOM     12  C   UNL     1      22.893   3.856  22.566  1.00  0.00     0.012 C 
ENDBRANCH   5  10
TORSDOF 2
ENDMDL
MODEL 7
REMARK VINA RESULT:    -5.033      2.462      4.077
REMARK INTER + INTRA:          -5.600
REMARK INTER:                  -5.494
REMARK INTRA:                  -0.105
REMARK UNBOUND:                -0.125
REMARK SMILES Cc1ccc(C(C)C)cc1O
REMARK SMILES IDX 1 1 2 2 10 3 9 4 5 5 4 6 3 7 11 8 6 10 7 11 8 12
REMARK H PARENT 11 9
REMARK Flexibility Score: inf
ROOT
ATOM      1  C   UNL     1      23.350  10.264  22.155  1.00  0.00     0.048 C 
ATOM      2  C   UNL     1      23.303   8.823  22.579  1.00  0.00    -0.009 A 
ATOM      3  C   UNL     1      22.089   8.243  22.987  1.00  0.00     0.118 A 
ATOM      4  C   UNL     1      22.055   6.899  23.382  1.00  0.00     0.050 A 
ATOM      5  C   UNL     1      23.223   6.117  23.375  1.00  0.00    -0.042 A 
ATOM      6  C   UNL     1      24.432   6.706  22.966  1.00  0.00     0.004 A 
ATOM      7  C   UNL     1      24.472   8.046  22.572  1.00  0.00     0.007 A 
ENDROOT
BRANCH   3   8
ATOM      8  O   UNL     1      20.922   9.005  22.999  1.00  0.00    -0.508 OA
ATOM      9  H   UNL     1      20.665   9.597  22.217  1.00  0.00     0.293 HD
ENDBRANCH   3   8
BRANCH   5  10
ATOM     10  C   UNL     1      23.167   4.664  23.806  1.00  0.00     0.013 C 
ATOM     11  C   UNL     1      22.955   3.737  22.603  1.00  0.00     0.012 C 
ATOM     12  C   UNL     1      22.085   4.443  24.870  1.00  0.00     0.012 C 
ENDBRANCH   5  10
TORSDOF 2
ENDMDL
MODEL 8
REMARK VINA RESULT:    -4.977      4.566      5.355
REMARK INTER + INTRA:          -5.539
REMARK INTER:                  -5.412
REMARK INTRA:                  -0.127
REMARK UNBOUND:                -0.125
REMARK SMILES Cc1ccc(C(C)C)cc1O
REMARK SMILES IDX 1 1 2 2 10 3 9 4 5 5 4 6 3 7 11 8 6 10 7 11 8 12
REMARK H PARENT 11 9
REMARK Flexibility Score: inf
ROOT
ATOM      1  C   UNL     1      24.399   7.847  17.254  1.00  0.00     0.048 C 
ATOM      2  C   UNL     1      24.590   6.704  18.211  1.00  0.00    -0.009 A 
ATOM      3  C   UNL     1      23.670   5.641  18.237  1.00  0.00     0.118 A 
ATOM      4  C   UNL     1      23.854   4.579  19.133  1.00  0.00     0.050 A 
ATOM      5  C   UNL     1      24.952   4.561  20.010  1.00  0.00    -0.042 A 
ATOM      6  C   UNL     1      25.866   5.628  19.977  1.00  0.00     0.004 A 
ATOM      7  C   UNL     1      25.686   6.690  19.086  1.00  0.00     0.007 A 
ENDROOT
BRANCH   3   8
ATOM      8  O   UNL     1      22.575   5.644  17.373  1.00  0.00    -0.508 OA
ATOM      9  H   UNL     1      21.897   6.398  17.376  1.00  0.00     0.293 HD
ENDBRANCH   3   8
BRANCH   5  10
ATOM     10  C   UNL     1      25.136   3.403  20.973  1.00  0.00     0.013 C 
ATOM     11  C   UNL     1      23.799   2.980  21.592  1.00  0.00     0.012 C 
ATOM     12  C   UNL     1      26.163   3.745  22.060  1.00  0.00     0.012 C 
ENDBRANCH   5  10
TORSDOF 2
ENDMDL
MODEL 9
REMARK VINA RESULT:    -4.971      2.291      4.120
REMARK INTER + INTRA:          -5.533
REMARK INTER:                  -5.407
REMARK INTRA:                  -0.126
REMARK UNBOUND:                -0.125
REMARK SMILES Cc1ccc(C(C)C)cc1O
REMARK SMILES IDX 1 1 2 2 10 3 9 4 5 5 4 6 3 7 11 8 6 10 7 11 8 12
REMARK H PARENT 11 9
REMARK Flexibility Score: inf
ROOT
ATOM      1  C   UNL     1      22.105   4.205  24.961  1.00  0.00     0.048 C 
ATOM      2  C   UNL     1      22.461   5.493  24.274  1.00  0.00    -0.009 A 
ATOM      3  C   UNL     1      21.496   6.184  23.521  1.00  0.00     0.118 A 
ATOM      4  C   UNL     1      21.836   7.384  22.882  1.00  0.00     0.050 A 
ATOM      5  C   UNL     1      23.135   7.911  22.986  1.00  0.00    -0.042 A 
ATOM      6  C   UNL     1      24.093   7.213  23.742  1.00  0.00     0.004 A 
ATOM      7  C   UNL     1      23.759   6.015  24.379  1.00  0.00     0.007 A 
ENDROOT
BRANCH   3   8
ATOM      8  O   UNL     1      20.203   5.675  23.408  1.00  0.00    -0.508 OA
ATOM      9  H   UNL     1      19.605   5.909  22.623  1.00  0.00     0.293 HD
ENDBRANCH   3   8
BRANCH   5  10
ATOM     10  C   UNL     1      23.485   9.212  22.288  1.00  0.00     0.013 C 
ATOM     11  C   UNL     1      22.578   9.452  21.076  1.00  0.00     0.012 C 
ATOM     12  C   UNL     1      24.964   9.241  21.884  1.00  0.00     0.012 C 
ENDBRANCH   5  10
TORSDOF 2
ENDMDL
