MODEL 1
REMARK VINA RESULT:    -6.716      0.000      0.000
REMARK INTER + INTRA:          -8.212
REMARK INTER:                  -7.894
REMARK INTRA:                  -0.318
REMARK UNBOUND:                -0.318
REMARK SMILES O=c1cc(-c2ccc(O)c(O)c2)oc2cc(O)cc(O)c12
REMARK SMILES IDX 4 1 3 2 2 3 1 4 21 5 19 6 18 7 16 8 15 9 14 10 13 11 5 12
REMARK SMILES IDX 6 13 7 14 8 15 12 16 10 17 9 18 11 20 20 22 17 24
REMARK H PARENT 9 19 11 21 20 23 17 25
REMARK Flexibility Score: inf
ROOT
ATOM      1  C   UNL     1      10.724  -7.303  -8.971  1.00  0.00     0.138 A 
ATOM      2  C   UNL     1      10.003  -8.506  -8.969  1.00  0.00     0.100 A 
ATOM      3  C   UNL     1       9.025  -8.723  -7.998  1.00  0.00     0.197 A 
ATOM      4  O   UNL     1       8.353  -9.785  -8.061  1.00  0.00    -0.289 OA
ATOM      5  C   UNL     1       8.790  -7.742  -7.006  1.00  0.00     0.107 A 
ATOM      6  C   UNL     1       7.847  -7.873  -5.942  1.00  0.00     0.134 A 
ATOM      7  C   UNL     1       7.618  -6.788  -5.086  1.00  0.00     0.093 A 
ATOM      8  C   UNL     1       8.339  -5.602  -5.216  1.00  0.00     0.123 A 
ATOM      9  C   UNL     1       9.303  -5.483  -6.220  1.00  0.00     0.094 A 
ATOM     10  C   UNL     1       9.530  -6.534  -7.111  1.00  0.00     0.146 A 
ATOM     11  O   UNL     1      10.445  -6.376  -8.061  1.00  0.00    -0.456 OA
ENDROOT
BRANCH   1  12
ATOM     12  C   UNL     1      11.776  -7.020  -9.980  1.00  0.00     0.021 A 
ATOM     13  C   UNL     1      12.078  -7.933 -11.009  1.00  0.00     0.016 A 
ATOM     14  C   UNL     1      13.080  -7.646 -11.940  1.00  0.00     0.051 A 
ATOM     15  C   UNL     1      13.803  -6.452 -11.857  1.00  0.00     0.157 A 
ATOM     16  C   UNL     1      12.516  -5.828  -9.894  1.00  0.00     0.062 A 
ATOM     17  C   UNL     1      13.522  -5.538 -10.828  1.00  0.00     0.158 A 
BRANCH  15  18
ATOM     18  O   UNL     1      14.796  -6.194 -12.801  1.00  0.00    -0.504 OA
ATOM     19  H   UNL     1      15.695  -5.807 -12.543  1.00  0.00     0.293 HD
ENDBRANCH  15  18
BRANCH  17  20
ATOM     20  O   UNL     1      14.240  -4.348 -10.738  1.00  0.00    -0.504 OA
ATOM     21  H   UNL     1      15.123  -4.222 -11.219  1.00  0.00     0.293 HD
ENDBRANCH  17  20
ENDBRANCH   1  12
BRANCH   6  22
ATOM     22  O   UNL     1       7.134  -9.045  -5.670  1.00  0.00    -0.507 OA
ATOM     23  H   UNL     1       6.479  -9.157  -4.912  1.00  0.00     0.293 HD
ENDBRANCH   6  22
BRANCH   8  24
ATOM     24  O   UNL     1       8.095  -4.549  -4.337  1.00  0.00    -0.508 OA
ATOM     25  H   UNL     1       8.525  -4.514  -3.420  1.00  0.00     0.293 HD
ENDBRANCH   8  24
TORSDOF 5
ENDMDL
MODEL 2
REMARK VINA RESULT:    -6.714      2.439      6.685
REMARK INTER + INTRA:          -8.209
REMARK INTER:                  -7.902
REMARK INTRA:                  -0.307
REMARK UNBOUND:                -0.318
REMARK SMILES O=c1cc(-c2ccc(O)c(O)c2)oc2cc(O)cc(O)c12
REMARK SMILES IDX 4 1 3 2 2 3 1 4 21 5 19 6 18 7 16 8 15 9 14 10 13 11 5 12
REMARK SMILES IDX 6 13 7 14 8 15 12 16 10 17 9 18 11 20 20 22 17 24
REMARK H PARENT 9 19 11 21 20 23 17 25
REMARK Flexibility Score: inf
ROOT
ATOM      1  C   UNL     1       9.112  -7.385  -9.176  1.00  0.00     0.138 A 
ATOM      2  C   UNL     1       8.032  -7.707 -10.011  1.00  0.00     0.100 A 
ATOM      3  C   UNL     1       8.273  -8.230 -11.281  1.00  0.00     0.197 A 
ATOM      4  O   UNL     1       7.284  -8.567 -11.982  1.00  0.00    -0.289 OA
ATOM      5  C   UNL     1       9.604  -8.402 -11.730  1.00  0.00     0.107 A 
ATOM      6  C   UNL     1       9.970  -8.889 -13.021  1.00  0.00     0.134 A 
ATOM      7  C   UNL     1      11.319  -9.127 -13.312  1.00  0.00     0.093 A 
ATOM      8  C   UNL     1      12.318  -8.840 -12.384  1.00  0.00     0.123 A 
ATOM      9  C   UNL     1      11.976  -8.314 -11.136  1.00  0.00     0.094 A 
ATOM     10  C   UNL     1      10.637  -8.097 -10.804  1.00  0.00     0.146 A 
ATOM     11  O   UNL     1      10.351  -7.608  -9.601  1.00  0.00    -0.456 OA
ENDROOT
BRANCH   1  12
ATOM     12  C   UNL     1       8.913  -6.825  -7.816  1.00  0.00     0.021 A 
ATOM     13  C   UNL     1       7.752  -7.097  -7.067  1.00  0.00     0.016 A 
ATOM     14  C   UNL     1       7.586  -6.548  -5.793  1.00  0.00     0.051 A 
ATOM     15  C   UNL     1       8.567  -5.715  -5.247  1.00  0.00     0.157 A 
ATOM     16  C   UNL     1       9.889  -5.975  -7.267  1.00  0.00     0.062 A 
ATOM     17  C   UNL     1       9.724  -5.424  -5.988  1.00  0.00     0.158 A 
BRANCH  15  18
ATOM     18  O   UNL     1       8.372  -5.183  -3.973  1.00  0.00    -0.504 OA
ATOM     19  H   UNL     1       9.147  -4.934  -3.370  1.00  0.00     0.293 HD
ENDBRANCH  15  18
BRANCH  17  20
ATOM     20  O   UNL     1      10.704  -4.591  -5.451  1.00  0.00    -0.504 OA
ATOM     21  H   UNL     1      10.972  -3.725  -5.904  1.00  0.00     0.293 HD
ENDBRANCH  17  20
ENDBRANCH   1  12
BRANCH   6  22
ATOM     22  O   UNL     1       9.057  -9.128 -14.054  1.00  0.00    -0.507 OA
ATOM     23  H   UNL     1       8.379  -8.461 -14.389  1.00  0.00     0.293 HD
ENDBRANCH   6  22
BRANCH   8  24
ATOM     24  O   UNL     1      13.651  -9.077 -12.713  1.00  0.00    -0.508 OA
ATOM     25  H   UNL     1      13.921  -9.856 -13.302  1.00  0.00     0.293 HD
ENDBRANCH   8  24
TORSDOF 5
ENDMDL
MODEL 3
REMARK VINA RESULT:    -6.559      0.702      1.514
REMARK INTER + INTRA:          -8.028
REMARK INTER:                  -7.733
REMARK INTRA:                  -0.294
REMARK UNBOUND:                -0.318
REMARK SMILES O=c1cc(-c2ccc(O)c(O)c2)oc2cc(O)cc(O)c12
REMARK SMILES IDX 4 1 3 2 2 3 1 4 21 5 19 6 18 7 16 8 15 9 14 10 13 11 5 12
REMARK SMILES IDX 6 13 7 14 8 15 12 16 10 17 9 18 11 20 20 22 17 24
REMARK H PARENT 9 19 11 21 20 23 17 25
REMARK Flexibility Score: inf
ROOT
ATOM      1  C   UNL     1      10.963  -7.169  -9.134  1.00  0.00     0.138 A 
ATOM      2  C   UNL     1      10.234  -8.366  -9.176  1.00  0.00     0.100 A 
ATOM      3  C   UNL     1       9.233  -8.598  -8.232  1.00  0.00     0.197 A 
ATOM      4  O   UNL     1       8.555  -9.653  -8.334  1.00  0.00    -0.289 OA
ATOM      5  C   UNL     1       8.983  -7.638  -7.222  1.00  0.00     0.107 A 
ATOM      6  C   UNL     1       8.016  -7.786  -6.183  1.00  0.00     0.134 A 
ATOM      7  C   UNL     1       7.776  -6.720  -5.308  1.00  0.00     0.093 A 
ATOM      8  C   UNL     1       8.508  -5.537  -5.394  1.00  0.00     0.123 A 
ATOM      9  C   UNL     1       9.495  -5.402  -6.373  1.00  0.00     0.094 A 
ATOM     10  C   UNL     1       9.734  -6.434  -7.283  1.00  0.00     0.146 A 
ATOM     11  O   UNL     1      10.671  -6.261  -8.209  1.00  0.00    -0.456 OA
ENDROOT
BRANCH   1  12
ATOM     12  C   UNL     1      12.039  -6.871 -10.113  1.00  0.00     0.021 A 
ATOM     13  C   UNL     1      12.835  -5.715 -10.007  1.00  0.00     0.016 A 
ATOM     14  C   UNL     1      13.835  -5.455 -10.949  1.00  0.00     0.051 A 
ATOM     15  C   UNL     1      14.052  -6.334 -12.013  1.00  0.00     0.157 A 
ATOM     16  C   UNL     1      12.254  -7.745 -11.194  1.00  0.00     0.062 A 
ATOM     17  C   UNL     1      13.257  -7.485 -12.139  1.00  0.00     0.158 A 
BRANCH  15  18
ATOM     18  O   UNL     1      15.058  -6.048 -12.935  1.00  0.00    -0.504 OA
ATOM     19  H   UNL     1      14.855  -5.665 -13.851  1.00  0.00     0.293 HD
ENDBRANCH  15  18
BRANCH  17  20
ATOM     20  O   UNL     1      13.466  -8.365 -13.199  1.00  0.00    -0.504 OA
ATOM     21  H   UNL     1      14.027  -8.105 -14.002  1.00  0.00     0.293 HD
ENDBRANCH  17  20
ENDBRANCH   1  12
BRANCH   6  22
ATOM     22  O   UNL     1       7.288  -8.959  -5.954  1.00  0.00    -0.507 OA
ATOM     23  H   UNL     1       7.614  -9.889  -6.162  1.00  0.00     0.293 HD
ENDBRANCH   6  22
BRANCH   8  24
ATOM     24  O   UNL     1       8.252  -4.503  -4.497  1.00  0.00    -0.508 OA
ATOM     25  H   UNL     1       7.433  -3.912  -4.588  1.00  0.00     0.293 HD
ENDBRANCH   8  24
TORSDOF 5
ENDMDL
MODEL 4
REMARK VINA RESULT:    -6.547      2.600      6.835
REMARK INTER + INTRA:          -8.013
REMARK INTER:                  -7.720
REMARK INTRA:                  -0.293
REMARK UNBOUND:                -0.318
REMARK SMILES O=c1cc(-c2ccc(O)c(O)c2)oc2cc(O)cc(O)c12
REMARK SMILES IDX 4 1 3 2 2 3 1 4 21 5 19 6 18 7 16 8 15 9 14 10 13 11 5 12
REMARK SMILES IDX 6 13 7 14 8 15 12 16 10 17 9 18 11 20 20 22 17 24
REMARK H PARENT 9 19 11 21 20 23 17 25
REMARK Flexibility Score: inf
ROOT
ATOM      1  C   UNL     1       9.897  -7.276  -9.233  1.00  0.00     0.138 A 
ATOM      2  C   UNL     1      11.251  -7.205  -9.592  1.00  0.00     0.100 A 
ATOM      3  C   UNL     1      11.671  -7.738 -10.811  1.00  0.00     0.197 A 
ATOM      4  O   UNL     1      12.880  -7.603 -11.132  1.00  0.00    -0.289 OA
ATOM      5  C   UNL     1      10.734  -8.372 -11.661  1.00  0.00     0.107 A 
ATOM      6  C   UNL     1      11.055  -8.987 -12.908  1.00  0.00     0.134 A 
ATOM      7  C   UNL     1      10.026  -9.482 -13.719  1.00  0.00     0.093 A 
ATOM      8  C   UNL     1       8.697  -9.441 -13.302  1.00  0.00     0.123 A 
ATOM      9  C   UNL     1       8.377  -8.890 -12.059  1.00  0.00     0.094 A 
ATOM     10  C   UNL     1       9.377  -8.357 -11.243  1.00  0.00     0.146 A 
ATOM     11  O   UNL     1       9.029  -7.829 -10.074  1.00  0.00    -0.456 OA
ENDROOT
BRANCH   1  12
ATOM     12  C   UNL     1       9.396  -6.727  -7.948  1.00  0.00     0.021 A 
ATOM     13  C   UNL     1       8.079  -6.961  -7.507  1.00  0.00     0.016 A 
ATOM     14  C   UNL     1       7.631  -6.423  -6.298  1.00  0.00     0.051 A 
ATOM     15  C   UNL     1       8.481  -5.638  -5.513  1.00  0.00     0.157 A 
ATOM     16  C   UNL     1      10.242  -5.925  -7.161  1.00  0.00     0.062 A 
ATOM     17  C   UNL     1       9.793  -5.386  -5.946  1.00  0.00     0.158 A 
BRANCH  15  18
ATOM     18  O   UNL     1       8.005  -5.117  -4.311  1.00  0.00    -0.504 OA
ATOM     19  H   UNL     1       8.294  -5.486  -3.413  1.00  0.00     0.293 HD
ENDBRANCH  15  18
BRANCH  17  20
ATOM     20  O   UNL     1      10.645  -4.602  -5.171  1.00  0.00    -0.504 OA
ATOM     21  H   UNL     1      10.287  -3.898  -4.535  1.00  0.00     0.293 HD
ENDBRANCH  17  20
ENDBRANCH   1  12
BRANCH   6  22
ATOM     22  O   UNL     1      12.361  -9.158 -13.383  1.00  0.00    -0.507 OA
ATOM     23  H   UNL     1      12.676  -9.942 -13.930  1.00  0.00     0.293 HD
ENDBRANCH   6  22
BRANCH   8  24
ATOM     24  O   UNL     1       7.701  -9.956 -14.128  1.00  0.00    -0.508 OA
ATOM     25  H   UNL     1       7.690 -10.933 -14.399  1.00  0.00     0.293 HD
ENDBRANCH   8  24
TORSDOF 5
ENDMDL
MODEL 5
REMARK VINA RESULT:    -6.413     10.537     14.541
REMARK INTER + INTRA:          -7.856
REMARK INTER:                  -7.562
REMARK INTRA:                  -0.294
REMARK UNBOUND:                -0.318
REMARK SMILES O=c1cc(-c2ccc(O)c(O)c2)oc2cc(O)cc(O)c12
REMARK SMILES IDX 4 1 3 2 2 3 1 4 21 5 19 6 18 7 16 8 15 9 14 10 13 11 5 12
REMARK SMILES IDX 6 13 7 14 8 15 12 16 10 17 9 18 11 20 20 22 17 24
REMARK H PARENT 9 19 11 21 20 23 17 25
REMARK Flexibility Score: inf
ROOT
ATOM      1  C   UNL     1      19.442  -1.206 -18.575  1.00  0.00     0.138 A 
ATOM      2  C   UNL     1      19.100  -0.385 -17.491  1.00  0.00     0.100 A 
ATOM      3  C   UNL     1      18.437  -0.932 -16.392  1.00  0.00     0.197 A 
ATOM      4  O   UNL     1      18.199  -0.184 -15.410  1.00  0.00    -0.289 OA
ATOM      5  C   UNL     1      18.089  -2.304 -16.394  1.00  0.00     0.107 A 
ATOM      6  C   UNL     1      17.378  -2.962 -15.346  1.00  0.00     0.134 A 
ATOM      7  C   UNL     1      17.191  -4.349 -15.404  1.00  0.00     0.093 A 
ATOM      8  C   UNL     1      17.635  -5.091 -16.497  1.00  0.00     0.123 A 
ATOM      9  C   UNL     1      18.285  -4.449 -17.553  1.00  0.00     0.094 A 
ATOM     10  C   UNL     1      18.517  -3.073 -17.509  1.00  0.00     0.146 A 
ATOM     11  O   UNL     1      19.152  -2.502 -18.527  1.00  0.00    -0.456 OA
ENDROOT
BRANCH   1  12
ATOM     12  C   UNL     1      20.146  -0.675 -19.770  1.00  0.00     0.021 A 
ATOM     13  C   UNL     1      20.363  -1.468 -20.913  1.00  0.00     0.016 A 
ATOM     14  C   UNL     1      21.038  -0.945 -22.020  1.00  0.00     0.051 A 
ATOM     15  C   UNL     1      21.513   0.369 -22.004  1.00  0.00     0.157 A 
ATOM     16  C   UNL     1      20.639   0.642 -19.755  1.00  0.00     0.062 A 
ATOM     17  C   UNL     1      21.315   1.167 -20.866  1.00  0.00     0.158 A 
BRANCH  15  18
ATOM     18  O   UNL     1      22.181   0.862 -23.125  1.00  0.00    -0.504 OA
ATOM     19  H   UNL     1      22.705   1.728 -23.100  1.00  0.00     0.293 HD
ENDBRANCH  15  18
BRANCH  17  20
ATOM     20  O   UNL     1      21.789   2.478 -20.842  1.00  0.00    -0.504 OA
ATOM     21  H   UNL     1      22.761   2.695 -21.031  1.00  0.00     0.293 HD
ENDBRANCH  17  20
ENDBRANCH   1  12
BRANCH   6  22
ATOM     22  O   UNL     1      16.816  -2.302 -14.248  1.00  0.00    -0.507 OA
ATOM     23  H   UNL     1      17.061  -2.475 -13.286  1.00  0.00     0.293 HD
ENDBRANCH   6  22
BRANCH   8  24
ATOM     24  O   UNL     1      17.419  -6.467 -16.528  1.00  0.00    -0.508 OA
ATOM     25  H   UNL     1      18.032  -7.089 -17.043  1.00  0.00     0.293 HD
ENDBRANCH   8  24
TORSDOF 5
ENDMDL
MODEL 6
REMARK VINA RESULT:    -6.075      1.804      6.731
REMARK INTER + INTRA:          -7.459
REMARK INTER:                  -7.154
REMARK INTRA:                  -0.305
REMARK UNBOUND:                -0.318
REMARK SMILES O=c1cc(-c2ccc(O)c(O)c2)oc2cc(O)cc(O)c12
REMARK SMILES IDX 4 1 3 2 2 3 1 4 21 5 19 6 18 7 16 8 15 9 14 10 13 11 5 12
REMARK SMILES IDX 6 13 7 14 8 15 12 16 10 17 9 18 11 20 20 22 17 24
REMARK H PARENT 9 19 11 21 20 23 17 25
REMARK Flexibility Score: inf
ROOT
ATOM      1  C   UNL     1      10.389  -7.312  -9.302  1.00  0.00     0.138 A 
ATOM      2  C   UNL     1       9.960  -8.506  -9.899  1.00  0.00     0.100 A 
ATOM      3  C   UNL     1      10.656  -9.021 -10.992  1.00  0.00     0.197 A 
ATOM      4  O   UNL     1      10.284 -10.125 -11.466  1.00  0.00    -0.289 OA
ATOM      5  C   UNL     1      11.772  -8.319 -11.509  1.00  0.00     0.107 A 
ATOM      6  C   UNL     1      12.534  -8.728 -12.644  1.00  0.00     0.134 A 
ATOM      7  C   UNL     1      13.688  -8.016 -12.994  1.00  0.00     0.093 A 
ATOM      8  C   UNL     1      14.074  -6.877 -12.289  1.00  0.00     0.123 A 
ATOM      9  C   UNL     1      13.305  -6.437 -11.209  1.00  0.00     0.094 A 
ATOM     10  C   UNL     1      12.168  -7.146 -10.814  1.00  0.00     0.146 A 
ATOM     11  O   UNL     1      11.472  -6.702  -9.773  1.00  0.00    -0.456 OA
ENDROOT
BRANCH   1  12
ATOM     12  C   UNL     1       9.684  -6.719  -8.138  1.00  0.00     0.021 A 
ATOM     13  C   UNL     1       8.291  -6.843  -7.976  1.00  0.00     0.016 A 
ATOM     14  C   UNL     1       7.652  -6.266  -6.875  1.00  0.00     0.051 A 
ATOM     15  C   UNL     1       8.385  -5.550  -5.924  1.00  0.00     0.157 A 
ATOM     16  C   UNL     1      10.415  -5.986  -7.185  1.00  0.00     0.062 A 
ATOM     17  C   UNL     1       9.774  -5.407  -6.080  1.00  0.00     0.158 A 
BRANCH  15  18
ATOM     18  O   UNL     1       7.719  -4.987  -4.837  1.00  0.00    -0.504 OA
ATOM     19  H   UNL     1       8.132  -4.953  -3.913  1.00  0.00     0.293 HD
ENDBRANCH  15  18
BRANCH  17  20
ATOM     20  O   UNL     1      10.511  -4.693  -5.138  1.00  0.00    -0.504 OA
ATOM     21  H   UNL     1      10.912  -3.787  -5.352  1.00  0.00     0.293 HD
ENDBRANCH  17  20
ENDBRANCH   1  12
BRANCH   6  22
ATOM     22  O   UNL     1      12.189  -9.803 -13.471  1.00  0.00    -0.507 OA
ATOM     23  H   UNL     1      12.524 -10.747 -13.358  1.00  0.00     0.293 HD
ENDBRANCH   6  22
BRANCH   8  24
ATOM     24  O   UNL     1      15.220  -6.185 -12.674  1.00  0.00    -0.508 OA
ATOM     25  H   UNL     1      15.227  -5.583 -13.489  1.00  0.00     0.293 HD
ENDBRANCH   8  24
TORSDOF 5
ENDMDL
MODEL 7
REMARK VINA RESULT:    -5.981      1.514      7.047
REMARK INTER + INTRA:          -7.348
REMARK INTER:                  -7.038
REMARK INTRA:                  -0.310
REMARK UNBOUND:                -0.318
REMARK SMILES O=c1cc(-c2ccc(O)c(O)c2)oc2cc(O)cc(O)c12
REMARK SMILES IDX 4 1 3 2 2 3 1 4 21 5 19 6 18 7 16 8 15 9 14 10 13 11 5 12
REMARK SMILES IDX 6 13 7 14 8 15 12 16 10 17 9 18 11 20 20 22 17 24
REMARK H PARENT 9 19 11 21 20 23 17 25
REMARK Flexibility Score: inf
ROOT
ATOM      1  C   UNL     1      11.597  -7.059  -9.683  1.00  0.00     0.138 A 
ATOM      2  C   UNL     1      11.684  -8.019 -10.702  1.00  0.00     0.100 A 
ATOM      3  C   UNL     1      12.668  -7.896 -11.684  1.00  0.00     0.197 A 
ATOM      4  O   UNL     1      12.761  -8.806 -12.548  1.00  0.00    -0.289 OA
ATOM      5  C   UNL     1      13.549  -6.789 -11.661  1.00  0.00     0.107 A 
ATOM      6  C   UNL     1      14.564  -6.539 -12.633  1.00  0.00     0.134 A 
ATOM      7  C   UNL     1      15.453  -5.473 -12.444  1.00  0.00     0.093 A 
ATOM      8  C   UNL     1      15.326  -4.614 -11.354  1.00  0.00     0.123 A 
ATOM      9  C   UNL     1      14.303  -4.817 -10.426  1.00  0.00     0.094 A 
ATOM     10  C   UNL     1      13.423  -5.892 -10.568  1.00  0.00     0.146 A 
ATOM     11  O   UNL     1      12.471  -6.059  -9.655  1.00  0.00    -0.456 OA
ENDROOT
BRANCH   1  12
ATOM     12  C   UNL     1      10.569  -7.140  -8.615  1.00  0.00     0.021 A 
ATOM     13  C   UNL     1       9.959  -8.361  -8.268  1.00  0.00     0.016 A 
ATOM     14  C   UNL     1       8.986  -8.406  -7.265  1.00  0.00     0.051 A 
ATOM     15  C   UNL     1       8.600  -7.240  -6.598  1.00  0.00     0.157 A 
ATOM     16  C   UNL     1      10.166  -5.968  -7.951  1.00  0.00     0.062 A 
ATOM     17  C   UNL     1       9.191  -6.013  -6.944  1.00  0.00     0.158 A 
BRANCH  15  18
ATOM     18  O   UNL     1       7.628  -7.318  -5.602  1.00  0.00    -0.504 OA
ATOM     19  H   UNL     1       6.638  -7.302  -5.814  1.00  0.00     0.293 HD
ENDBRANCH  15  18
BRANCH  17  20
ATOM     20  O   UNL     1       8.809  -4.846  -6.286  1.00  0.00    -0.504 OA
ATOM     21  H   UNL     1       9.098  -3.932  -6.614  1.00  0.00     0.293 HD
ENDBRANCH  17  20
ENDBRANCH   1  12
BRANCH   6  22
ATOM     22  O   UNL     1      14.725  -7.286 -13.805  1.00  0.00    -0.507 OA
ATOM     23  H   UNL     1      13.980  -7.536 -14.435  1.00  0.00     0.293 HD
ENDBRANCH   6  22
BRANCH   8  24
ATOM     24  O   UNL     1      16.220  -3.555 -11.206  1.00  0.00    -0.508 OA
ATOM     25  H   UNL     1      15.897  -2.608 -11.042  1.00  0.00     0.293 HD
ENDBRANCH   8  24
TORSDOF 5
ENDMDL
MODEL 8
REMARK VINA RESULT:    -5.835      9.917     13.302
REMARK INTER + INTRA:          -7.176
REMARK INTER:                  -6.914
REMARK INTRA:                  -0.263
REMARK UNBOUND:                -0.318
REMARK SMILES O=c1cc(-c2ccc(O)c(O)c2)oc2cc(O)cc(O)c12
REMARK SMILES IDX 4 1 3 2 2 3 1 4 21 5 19 6 18 7 16 8 15 9 14 10 13 11 5 12
REMARK SMILES IDX 6 13 7 14 8 15 12 16 10 17 9 18 11 20 20 22 17 24
REMARK H PARENT 9 19 11 21 20 23 17 25
REMARK Flexibility Score: inf
ROOT
ATOM      1  C   UNL     1      17.707  -4.453 -16.585  1.00  0.00     0.138 A 
ATOM      2  C   UNL     1      17.383  -3.429 -15.684  1.00  0.00     0.100 A 
ATOM      3  C   UNL     1      17.792  -2.121 -15.948  1.00  0.00     0.197 A 
ATOM      4  O   UNL     1      17.433  -1.215 -15.154  1.00  0.00    -0.289 OA
ATOM      5  C   UNL     1      18.557  -1.845 -17.107  1.00  0.00     0.107 A 
ATOM      6  C   UNL     1      19.064  -0.558 -17.457  1.00  0.00     0.134 A 
ATOM      7  C   UNL     1      19.710  -0.382 -18.688  1.00  0.00     0.093 A 
ATOM      8  C   UNL     1      19.920  -1.456 -19.551  1.00  0.00     0.123 A 
ATOM      9  C   UNL     1      19.476  -2.731 -19.194  1.00  0.00     0.094 A 
ATOM     10  C   UNL     1      18.798  -2.931 -17.990  1.00  0.00     0.146 A 
ATOM     11  O   UNL     1      18.379  -4.157 -17.693  1.00  0.00    -0.456 OA
ENDROOT
BRANCH   1  12
ATOM     12  C   UNL     1      17.297  -5.861 -16.353  1.00  0.00     0.021 A 
ATOM     13  C   UNL     1      18.229  -6.851 -15.988  1.00  0.00     0.016 A 
ATOM     14  C   UNL     1      17.818  -8.172 -15.785  1.00  0.00     0.051 A 
ATOM     15  C   UNL     1      16.476  -8.529 -15.949  1.00  0.00     0.157 A 
ATOM     16  C   UNL     1      15.952  -6.229 -16.529  1.00  0.00     0.062 A 
ATOM     17  C   UNL     1      15.538  -7.554 -16.325  1.00  0.00     0.158 A 
BRANCH  15  18
ATOM     18  O   UNL     1      16.097  -9.854 -15.738  1.00  0.00    -0.504 OA
ATOM     19  H   UNL     1      16.229 -10.569 -16.442  1.00  0.00     0.293 HD
ENDBRANCH  15  18
BRANCH  17  20
ATOM     20  O   UNL     1      14.199  -7.903 -16.493  1.00  0.00    -0.504 OA
ATOM     21  H   UNL     1      13.812  -8.741 -16.075  1.00  0.00     0.293 HD
ENDBRANCH  17  20
ENDBRANCH   1  12
BRANCH   6  22
ATOM     22  O   UNL     1      18.983   0.566 -16.629  1.00  0.00    -0.507 OA
ATOM     23  H   UNL     1      18.301   1.303 -16.723  1.00  0.00     0.293 HD
ENDBRANCH   6  22
BRANCH   8  24
ATOM     24  O   UNL     1      20.579  -1.246 -20.761  1.00  0.00    -0.508 OA
ATOM     25  H   UNL     1      20.078  -0.963 -21.595  1.00  0.00     0.293 HD
ENDBRANCH   8  24
TORSDOF 5
ENDMDL
MODEL 9
REMARK VINA RESULT:    -5.830      8.954     12.639
REMARK INTER + INTRA:          -7.170
REMARK INTER:                  -6.893
REMARK INTRA:                  -0.277
REMARK UNBOUND:                -0.318
REMARK SMILES O=c1cc(-c2ccc(O)c(O)c2)oc2cc(O)cc(O)c12
REMARK SMILES IDX 4 1 3 2 2 3 1 4 21 5 19 6 18 7 16 8 15 9 14 10 13 11 5 12
REMARK SMILES IDX 6 13 7 14 8 15 12 16 10 17 9 18 11 20 20 22 17 24
REMARK H PARENT 9 19 11 21 20 23 17 25
REMARK Flexibility Score: inf
ROOT
ATOM      1  C   UNL     1      18.648  -2.305 -17.519  1.00  0.00     0.138 A 
ATOM      2  C   UNL     1      18.521  -3.698 -17.610  1.00  0.00     0.100 A 
ATOM      3  C   UNL     1      17.872  -4.401 -16.594  1.00  0.00     0.197 A 
ATOM      4  O   UNL     1      17.720  -5.642 -16.735  1.00  0.00    -0.289 OA
ATOM      5  C   UNL     1      17.375  -3.706 -15.466  1.00  0.00     0.107 A 
ATOM      6  C   UNL     1      16.733  -4.322 -14.351  1.00  0.00     0.134 A 
ATOM      7  C   UNL     1      16.179  -3.521 -13.344  1.00  0.00     0.093 A 
ATOM      8  C   UNL     1      16.296  -2.133 -13.382  1.00  0.00     0.123 A 
ATOM      9  C   UNL     1      16.969  -1.522 -14.441  1.00  0.00     0.094 A 
ATOM     10  C   UNL     1      17.503  -2.291 -15.478  1.00  0.00     0.146 A 
ATOM     11  O   UNL     1      18.124  -1.671 -16.475  1.00  0.00    -0.456 OA
ENDROOT
BRANCH   1  12
ATOM     12  C   UNL     1      19.330  -1.509 -18.571  1.00  0.00     0.021 A 
ATOM     13  C   UNL     1      18.879  -1.506 -19.904  1.00  0.00     0.016 A 
ATOM     14  C   UNL     1      19.546  -0.755 -20.876  1.00  0.00     0.051 A 
ATOM     15  C   UNL     1      20.675  -0.003 -20.539  1.00  0.00     0.157 A 
ATOM     16  C   UNL     1      20.474  -0.761 -18.240  1.00  0.00     0.062 A 
ATOM     17  C   UNL     1      21.143  -0.006 -19.215  1.00  0.00     0.158 A 
BRANCH  15  18
ATOM     18  O   UNL     1      21.317   0.737 -21.531  1.00  0.00    -0.504 OA
ATOM     19  H   UNL     1      22.312   0.654 -21.704  1.00  0.00     0.293 HD
ENDBRANCH  15  18
BRANCH  17  20
ATOM     20  O   UNL     1      22.270   0.739 -18.872  1.00  0.00    -0.504 OA
ATOM     21  H   UNL     1      22.996   0.945 -19.548  1.00  0.00     0.293 HD
ENDBRANCH  17  20
ENDBRANCH   1  12
BRANCH   6  22
ATOM     22  O   UNL     1      16.636  -5.707 -14.171  1.00  0.00    -0.507 OA
ATOM     23  H   UNL     1      17.228  -6.252 -13.565  1.00  0.00     0.293 HD
ENDBRANCH   6  22
BRANCH   8  24
ATOM     24  O   UNL     1      15.744  -1.369 -12.356  1.00  0.00    -0.508 OA
ATOM     25  H   UNL     1      14.824  -0.952 -12.441  1.00  0.00     0.293 HD
ENDBRANCH   8  24
TORSDOF 5
ENDMDL
