MODEL 1
REMARK VINA RESULT:    -3.449      0.000      0.000
REMARK INTER + INTRA:          -4.896
REMARK INTER:                  -4.659
REMARK INTRA:                  -0.237
REMARK UNBOUND:                -0.237
REMARK SMILES CCCCCCCC(=O)[O-]
REMARK SMILES IDX 5 1 6 2 7 3 8 4 9 5 10 6 4 7 3 8 2 9 1 10
REMARK H PARENT
REMARK Flexibility Score: inf
ROOT
ATOM      1  C   UNL     1      57.093  28.079  50.731  1.00  0.00     0.000 C 
ENDROOT
BRANCH   1   2
ATOM      2  C   UNL     1      58.099  29.223  50.527  1.00  0.00     0.006 C 
BRANCH   2   3
ATOM      3  C   UNL     1      59.236  28.842  49.570  1.00  0.00     0.053 C 
BRANCH   3   4
ATOM      4  C   UNL     1      60.074  27.753  50.163  1.00  0.00     0.041 C 
ATOM      5  O   UNL     1      60.065  26.600  49.657  1.00  0.00    -0.550 OA
ATOM      6  O   UNL     1      60.903  28.025  51.244  1.00  0.00    -0.550 OA
ENDBRANCH   3   4
ENDBRANCH   2   3
ENDBRANCH   1   2
BRANCH   1   7
ATOM      7  C   UNL     1      55.665  28.586  50.995  1.00  0.00     0.000 C 
BRANCH   7   8
ATOM      8  C   UNL     1      54.589  27.715  50.323  1.00  0.00    -0.000 C 
BRANCH   8   9
ATOM      9  C   UNL     1      55.030  26.276  50.006  1.00  0.00    -0.003 C 
ATOM     10  C   UNL     1      53.877  25.383  49.549  1.00  0.00     0.004 C 
ENDBRANCH   8   9
ENDBRANCH   7   8
ENDBRANCH   1   7
TORSDOF 6
ENDMDL
MODEL 2
REMARK VINA RESULT:    -3.410      0.833      1.208
REMARK INTER + INTRA:          -4.844
REMARK INTER:                  -4.654
REMARK INTRA:                  -0.190
REMARK UNBOUND:                -0.237
REMARK SMILES CCCCCCCC(=O)[O-]
REMARK SMILES IDX 5 1 6 2 7 3 8 4 9 5 10 6 4 7 3 8 2 9 1 10
REMARK H PARENT
REMARK Flexibility Score: inf
ROOT
ATOM      1  C   UNL     1      56.911  28.892  50.853  1.00  0.00     0.000 C 
ENDROOT
BRANCH   1   2
ATOM      2  C   UNL     1      58.432  29.053  51.006  1.00  0.00     0.006 C 
BRANCH   2   3
ATOM      3  C   UNL     1      59.174  28.929  49.669  1.00  0.00     0.053 C 
BRANCH   3   4
ATOM      4  C   UNL     1      60.113  27.764  49.699  1.00  0.00     0.041 C 
ATOM      5  O   UNL     1      61.356  27.953  49.756  1.00  0.00    -0.550 OA
ATOM      6  O   UNL     1      59.611  26.469  49.715  1.00  0.00    -0.550 OA
ENDBRANCH   3   4
ENDBRANCH   2   3
ENDBRANCH   1   2
BRANCH   1   7
ATOM      7  C   UNL     1      56.470  27.419  50.840  1.00  0.00     0.000 C 
BRANCH   7   8
ATOM      8  C   UNL     1      55.020  27.234  50.358  1.00  0.00    -0.000 C 
BRANCH   8   9
ATOM      9  C   UNL     1      54.699  25.834  49.805  1.00  0.00    -0.003 C 
ATOM     10  C   UNL     1      53.265  25.708  49.294  1.00  0.00     0.004 C 
ENDBRANCH   8   9
ENDBRANCH   7   8
ENDBRANCH   1   7
TORSDOF 6
ENDMDL
MODEL 3
REMARK VINA RESULT:    -3.356     11.917     13.599
REMARK INTER + INTRA:          -4.771
REMARK INTER:                  -4.556
REMARK INTRA:                  -0.215
REMARK UNBOUND:                -0.237
REMARK SMILES CCCCCCCC(=O)[O-]
REMARK SMILES IDX 5 1 6 2 7 3 8 4 9 5 10 6 4 7 3 8 2 9 1 10
REMARK H PARENT
REMARK Flexibility Score: inf
ROOT
ATOM      1  C   UNL     1      62.210  33.019  60.518  1.00  0.00     0.000 C 
ENDROOT
BRANCH   1   2
ATOM      2  C   UNL     1      61.184  31.930  60.164  1.00  0.00     0.006 C 
BRANCH   2   3
ATOM      3  C   UNL     1      60.859  31.019  61.355  1.00  0.00     0.053 C 
BRANCH   3   4
ATOM      4  C   UNL     1      61.661  29.758  61.282  1.00  0.00     0.041 C 
ATOM      5  O   UNL     1      61.129  28.691  60.876  1.00  0.00    -0.550 OA
ATOM      6  O   UNL     1      63.009  29.771  61.615  1.00  0.00    -0.550 OA
ENDBRANCH   3   4
ENDBRANCH   2   3
ENDBRANCH   1   2
BRANCH   1   7
ATOM      7  C   UNL     1      61.599  34.431  60.513  1.00  0.00     0.000 C 
BRANCH   7   8
ATOM      8  C   UNL     1      62.589  35.512  60.982  1.00  0.00    -0.000 C 
BRANCH   8   9
ATOM      9  C   UNL     1      63.978  34.983  61.379  1.00  0.00    -0.003 C 
ATOM     10  C   UNL     1      64.950  36.094  61.777  1.00  0.00     0.004 C 
ENDBRANCH   8   9
ENDBRANCH   7   8
ENDBRANCH   1   7
TORSDOF 6
ENDMDL
MODEL 4
REMARK VINA RESULT:    -3.328      3.135      5.051
REMARK INTER + INTRA:          -4.733
REMARK INTER:                  -4.395
REMARK INTRA:                  -0.338
REMARK UNBOUND:                -0.237
REMARK SMILES CCCCCCCC(=O)[O-]
REMARK SMILES IDX 5 1 6 2 7 3 8 4 9 5 10 6 4 7 3 8 2 9 1 10
REMARK H PARENT
REMARK Flexibility Score: inf
ROOT
ATOM      1  C   UNL     1      57.624  28.349  51.202  1.00  0.00     0.000 C 
ENDROOT
BRANCH   1   2
ATOM      2  C   UNL     1      56.171  28.088  50.773  1.00  0.00     0.006 C 
BRANCH   2   3
ATOM      3  C   UNL     1      55.914  26.614  50.435  1.00  0.00     0.053 C 
BRANCH   3   4
ATOM      4  C   UNL     1      54.516  26.429  49.935  1.00  0.00     0.041 C 
ATOM      5  O   UNL     1      54.127  25.297  49.544  1.00  0.00    -0.550 OA
ATOM      6  O   UNL     1      53.628  27.497  49.947  1.00  0.00    -0.550 OA
ENDBRANCH   3   4
ENDBRANCH   2   3
ENDBRANCH   1   2
BRANCH   1   7
ATOM      7  C   UNL     1      58.421  29.133  50.146  1.00  0.00     0.000 C 
BRANCH   7   8
ATOM      8  C   UNL     1      59.633  28.350  49.610  1.00  0.00    -0.000 C 
BRANCH   8   9
ATOM      9  C   UNL     1      59.614  26.843  49.919  1.00  0.00    -0.003 C 
ATOM     10  C   UNL     1      60.966  26.313  50.395  1.00  0.00     0.004 C 
ENDBRANCH   8   9
ENDBRANCH   7   8
ENDBRANCH   1   7
TORSDOF 6
ENDMDL
MODEL 5
REMARK VINA RESULT:    -3.262     11.439     13.084
REMARK INTER + INTRA:          -4.644
REMARK INTER:                  -4.341
REMARK INTRA:                  -0.303
REMARK UNBOUND:                -0.237
REMARK SMILES CCCCCCCC(=O)[O-]
REMARK SMILES IDX 5 1 6 2 7 3 8 4 9 5 10 6 4 7 3 8 2 9 1 10
REMARK H PARENT
REMARK Flexibility Score: inf
ROOT
ATOM      1  C   UNL     1      61.540  32.139  59.452  1.00  0.00     0.000 C 
ENDROOT
BRANCH   1   2
ATOM      2  C   UNL     1      60.566  31.106  60.043  1.00  0.00     0.006 C 
BRANCH   2   3
ATOM      3  C   UNL     1      60.933  30.707  61.479  1.00  0.00     0.053 C 
BRANCH   3   4
ATOM      4  C   UNL     1      62.066  29.730  61.475  1.00  0.00     0.041 C 
ATOM      5  O   UNL     1      63.251  30.133  61.610  1.00  0.00    -0.550 OA
ATOM      6  O   UNL     1      61.808  28.369  61.373  1.00  0.00    -0.550 OA
ENDBRANCH   3   4
ENDBRANCH   2   3
ENDBRANCH   1   2
BRANCH   1   7
ATOM      7  C   UNL     1      61.658  33.405  60.319  1.00  0.00     0.000 C 
BRANCH   7   8
ATOM      8  C   UNL     1      63.113  33.743  60.687  1.00  0.00    -0.000 C 
BRANCH   8   9
ATOM      9  C   UNL     1      63.372  35.229  60.989  1.00  0.00    -0.003 C 
ATOM     10  C   UNL     1      62.092  36.061  61.039  1.00  0.00     0.004 C 
ENDBRANCH   8   9
ENDBRANCH   7   8
ENDBRANCH   1   7
TORSDOF 6
ENDMDL
MODEL 6
REMARK VINA RESULT:    -3.206     12.345     13.247
REMARK INTER + INTRA:          -4.568
REMARK INTER:                  -4.244
REMARK INTRA:                  -0.324
REMARK UNBOUND:                -0.237
REMARK SMILES CCCCCCCC(=O)[O-]
REMARK SMILES IDX 5 1 6 2 7 3 8 4 9 5 10 6 4 7 3 8 2 9 1 10
REMARK H PARENT
REMARK Flexibility Score: inf
ROOT
ATOM      1  C   UNL     1      61.274  31.954  60.072  1.00  0.00     0.000 C 
ENDROOT
BRANCH   1   2
ATOM      2  C   UNL     1      61.576  33.426  60.397  1.00  0.00     0.006 C 
BRANCH   2   3
ATOM      3  C   UNL     1      63.076  33.693  60.577  1.00  0.00     0.053 C 
BRANCH   3   4
ATOM      4  C   UNL     1      63.300  35.069  61.121  1.00  0.00     0.041 C 
ATOM      5  O   UNL     1      64.457  35.439  61.453  1.00  0.00    -0.550 OA
ATOM      6  O   UNL     1      62.238  35.960  61.215  1.00  0.00    -0.550 OA
ENDBRANCH   3   4
ENDBRANCH   2   3
ENDBRANCH   1   2
BRANCH   1   7
ATOM      7  C   UNL     1      60.780  31.167  61.298  1.00  0.00     0.000 C 
BRANCH   7   8
ATOM      8  C   UNL     1      61.650  29.935  61.606  1.00  0.00    -0.000 C 
BRANCH   8   9
ATOM      9  C   UNL     1      63.140  30.095  61.256  1.00  0.00    -0.003 C 
ATOM     10  C   UNL     1      63.784  28.795  60.777  1.00  0.00     0.004 C 
ENDBRANCH   8   9
ENDBRANCH   7   8
ENDBRANCH   1   7
TORSDOF 6
ENDMDL
MODEL 7
REMARK VINA RESULT:    -3.147      1.521      2.332
REMARK INTER + INTRA:          -4.488
REMARK INTER:                  -4.183
REMARK INTRA:                  -0.305
REMARK UNBOUND:                -0.237
REMARK SMILES CCCCCCCC(=O)[O-]
REMARK SMILES IDX 5 1 6 2 7 3 8 4 9 5 10 6 4 7 3 8 2 9 1 10
REMARK H PARENT
REMARK Flexibility Score: inf
ROOT
ATOM      1  C   UNL     1      57.150  25.892  50.698  1.00  0.00     0.000 C 
ENDROOT
BRANCH   1   2
ATOM      2  C   UNL     1      58.375  26.728  51.104  1.00  0.00     0.006 C 
BRANCH   2   3
ATOM      3  C   UNL     1      59.422  26.818  49.986  1.00  0.00     0.053 C 
BRANCH   3   4
ATOM      4  C   UNL     1      59.936  28.218  49.864  1.00  0.00     0.041 C 
ATOM      5  O   UNL     1      61.103  28.500  50.245  1.00  0.00    -0.550 OA
ATOM      6  O   UNL     1      59.144  29.201  49.284  1.00  0.00    -0.550 OA
ENDBRANCH   3   4
ENDBRANCH   2   3
ENDBRANCH   1   2
BRANCH   1   7
ATOM      7  C   UNL     1      55.897  26.753  50.466  1.00  0.00     0.000 C 
BRANCH   7   8
ATOM      8  C   UNL     1      56.122  28.238  50.801  1.00  0.00    -0.000 C 
BRANCH   8   9
ATOM      9  C   UNL     1      54.835  29.069  50.940  1.00  0.00    -0.003 C 
ATOM     10  C   UNL     1      53.618  28.398  50.303  1.00  0.00     0.004 C 
ENDBRANCH   8   9
ENDBRANCH   7   8
ENDBRANCH   1   7
TORSDOF 6
ENDMDL
MODEL 8
REMARK VINA RESULT:    -3.116     12.173     13.692
REMARK INTER + INTRA:          -4.446
REMARK INTER:                  -4.200
REMARK INTRA:                  -0.245
REMARK UNBOUND:                -0.237
REMARK SMILES CCCCCCCC(=O)[O-]
REMARK SMILES IDX 5 1 6 2 7 3 8 4 9 5 10 6 4 7 3 8 2 9 1 10
REMARK H PARENT
REMARK Flexibility Score: inf
ROOT
ATOM      1  C   UNL     1      63.907  33.258  60.216  1.00  0.00     0.000 C 
ENDROOT
BRANCH   1   2
ATOM      2  C   UNL     1      63.831  31.852  60.833  1.00  0.00     0.006 C 
BRANCH   2   3
ATOM      3  C   UNL     1      62.739  30.986  60.191  1.00  0.00     0.053 C 
BRANCH   3   4
ATOM      4  C   UNL     1      62.001  30.214  61.239  1.00  0.00     0.041 C 
ATOM      5  O   UNL     1      62.381  29.057  61.559  1.00  0.00    -0.550 OA
ATOM      6  O   UNL     1      60.923  30.792  61.898  1.00  0.00    -0.550 OA
ENDBRANCH   3   4
ENDBRANCH   2   3
ENDBRANCH   1   2
BRANCH   1   7
ATOM      7  C   UNL     1      64.438  34.310  61.204  1.00  0.00     0.000 C 
BRANCH   7   8
ATOM      8  C   UNL     1      63.508  35.529  61.335  1.00  0.00    -0.000 C 
BRANCH   8   9
ATOM      9  C   UNL     1      62.093  35.324  60.766  1.00  0.00    -0.003 C 
ATOM     10  C   UNL     1      61.265  36.608  60.745  1.00  0.00     0.004 C 
ENDBRANCH   8   9
ENDBRANCH   7   8
ENDBRANCH   1   7
TORSDOF 6
ENDMDL
MODEL 9
REMARK VINA RESULT:    -2.983      3.412      5.174
REMARK INTER + INTRA:          -4.266
REMARK INTER:                  -3.915
REMARK INTRA:                  -0.351
REMARK UNBOUND:                -0.237
REMARK SMILES CCCCCCCC(=O)[O-]
REMARK SMILES IDX 5 1 6 2 7 3 8 4 9 5 10 6 4 7 3 8 2 9 1 10
REMARK H PARENT
REMARK Flexibility Score: inf
ROOT
ATOM      1  C   UNL     1      57.718  28.963  51.798  1.00  0.00     0.000 C 
ENDROOT
BRANCH   1   2
ATOM      2  C   UNL     1      56.656  28.696  50.719  1.00  0.00     0.006 C 
BRANCH   2   3
ATOM      3  C   UNL     1      55.433  27.952  51.270  1.00  0.00     0.053 C 
BRANCH   3   4
ATOM      4  C   UNL     1      54.185  28.426  50.593  1.00  0.00     0.041 C 
ATOM      5  O   UNL     1      53.828  29.629  50.692  1.00  0.00    -0.550 OA
ATOM      6  O   UNL     1      53.443  27.549  49.811  1.00  0.00    -0.550 OA
ENDBRANCH   3   4
ENDBRANCH   2   3
ENDBRANCH   1   2
BRANCH   1   7
ATOM      7  C   UNL     1      59.046  29.470  51.209  1.00  0.00     0.000 C 
BRANCH   7   8
ATOM      8  C   UNL     1      59.281  28.989  49.766  1.00  0.00    -0.000 C 
BRANCH   8   9
ATOM      9  C   UNL     1      60.313  27.857  49.625  1.00  0.00    -0.003 C 
ATOM     10  C   UNL     1      59.737  26.479  49.948  1.00  0.00     0.004 C 
ENDBRANCH   8   9
ENDBRANCH   7   8
ENDBRANCH   1   7
TORSDOF 6
ENDMDL
