MODEL 1
REMARK VINA RESULT:    -3.716      0.000      0.000
REMARK INTER + INTRA:          -4.042
REMARK INTER:                  -4.042
REMARK INTRA:                   0.000
REMARK UNBOUND:                 0.000
REMARK SMILES [NH3+]CC(=O)[O-]
REMARK SMILES IDX 2 1 1 2 3 6 4 7 5 8
REMARK H PARENT 1 3 1 4 1 5
REMARK Flexibility Score: inf
ROOT
ATOM      1  C   UNL     1      20.402  18.107  23.354  1.00  0.00     0.312 C 
ENDROOT
BRANCH   1   2
ATOM      2  N   UNL     1      21.827  18.086  23.032  1.00  0.00    -0.353 N 
ATOM      3  H   UNL     1      22.335  17.536  23.762  1.00  0.00     0.344 HD
ATOM      4  H   UNL     1      21.979  17.634  22.101  1.00  0.00     0.344 HD
ATOM      5  H   UNL     1      22.207  19.061  23.017  1.00  0.00     0.344 HD
ENDBRANCH   1   2
BRANCH   1   6
ATOM      6  C   UNL     1      19.858  16.714  23.433  1.00  0.00     0.096 C 
ATOM      7  O   UNL     1      19.213  16.342  24.449  1.00  0.00    -0.544 OA
ATOM      8  O   UNL     1      20.108  15.810  22.407  1.00  0.00    -0.544 OA
ENDBRANCH   1   6
TORSDOF 2
ENDMDL
MODEL 2
REMARK VINA RESULT:    -3.550      2.356      2.854
REMARK INTER + INTRA:          -3.861
REMARK INTER:                  -3.861
REMARK INTRA:                   0.000
REMARK UNBOUND:                 0.000
REMARK SMILES [NH3+]CC(=O)[O-]
REMARK SMILES IDX 2 1 1 2 3 6 4 7 5 8
REMARK H PARENT 1 3 1 4 1 5
REMARK Flexibility Score: inf
ROOT
ATOM      1  C   UNL     1      18.426  16.421  22.424  1.00  0.00     0.312 C 
ENDROOT
BRANCH   1   2
ATOM      2  N   UNL     1      18.527  15.018  22.029  1.00  0.00    -0.353 N 
ATOM      3  H   UNL     1      18.685  14.433  22.882  1.00  0.00     0.344 HD
ATOM      4  H   UNL     1      17.641  14.710  21.566  1.00  0.00     0.344 HD
ATOM      5  H   UNL     1      19.333  14.886  21.374  1.00  0.00     0.344 HD
ENDBRANCH   1   2
BRANCH   1   6
ATOM      6  C   UNL     1      19.579  16.808  23.299  1.00  0.00     0.096 C 
ATOM      7  O   UNL     1      20.693  16.236  23.168  1.00  0.00    -0.544 OA
ATOM      8  O   UNL     1      19.407  17.764  24.292  1.00  0.00    -0.544 OA
ENDBRANCH   1   6
TORSDOF 2
ENDMDL
MODEL 3
REMARK VINA RESULT:    -2.642      8.434      8.679
REMARK INTER + INTRA:          -2.873
REMARK INTER:                  -2.873
REMARK INTRA:                   0.000
REMARK UNBOUND:                 0.000
REMARK SMILES [NH3+]CC(=O)[O-]
REMARK SMILES IDX 2 1 1 2 3 6 4 7 5 8
REMARK H PARENT 1 3 1 4 1 5
REMARK Flexibility Score: inf
ROOT
ATOM      1  C   UNL     1      26.888  12.445  20.353  1.00  0.00     0.312 C 
ENDROOT
BRANCH   1   2
ATOM      2  N   UNL     1      25.888  13.509  20.304  1.00  0.00    -0.353 N 
ATOM      3  H   UNL     1      26.143  14.183  19.546  1.00  0.00     0.344 HD
ATOM      4  H   UNL     1      24.945  13.107  20.095  1.00  0.00     0.344 HD
ATOM      5  H   UNL     1      25.862  14.020  21.217  1.00  0.00     0.344 HD
ENDBRANCH   1   2
BRANCH   1   6
ATOM      6  C   UNL     1      27.471  12.330  21.728  1.00  0.00     0.096 C 
ATOM      7  O   UNL     1      28.516  12.966  22.028  1.00  0.00    -0.544 OA
ATOM      8  O   UNL     1      26.889  11.482  22.662  1.00  0.00    -0.544 OA
ENDBRANCH   1   6
TORSDOF 2
ENDMDL
MODEL 4
REMARK VINA RESULT:    -2.520      2.041      2.320
REMARK INTER + INTRA:          -2.741
REMARK INTER:                  -2.741
REMARK INTRA:                   0.000
REMARK UNBOUND:                 0.000
REMARK SMILES [NH3+]CC(=O)[O-]
REMARK SMILES IDX 2 1 1 2 3 6 4 7 5 8
REMARK H PARENT 1 3 1 4 1 5
REMARK Flexibility Score: inf
ROOT
ATOM      1  C   UNL     1      20.113  16.252  22.696  1.00  0.00     0.312 C 
ENDROOT
BRANCH   1   2
ATOM      2  N   UNL     1      20.411  16.687  24.058  1.00  0.00    -0.353 N 
ATOM      3  H   UNL     1      21.255  16.175  24.404  1.00  0.00     0.344 HD
ATOM      4  H   UNL     1      20.609  17.714  24.072  1.00  0.00     0.344 HD
ATOM      5  H   UNL     1      19.603  16.474  24.689  1.00  0.00     0.344 HD
ENDBRANCH   1   2
BRANCH   1   6
ATOM      6  C   UNL     1      18.634  16.133  22.491  1.00  0.00     0.096 C 
ATOM      7  O   UNL     1      18.118  15.014  22.228  1.00  0.00    -0.544 OA
ATOM      8  O   UNL     1      17.832  17.267  22.539  1.00  0.00    -0.544 OA
ENDBRANCH   1   6
TORSDOF 2
ENDMDL
MODEL 5
REMARK VINA RESULT:    -2.488     10.623     10.843
REMARK INTER + INTRA:          -2.706
REMARK INTER:                  -2.706
REMARK INTRA:                   0.000
REMARK UNBOUND:                 0.000
REMARK SMILES [NH3+]CC(=O)[O-]
REMARK SMILES IDX 2 1 1 2 3 6 4 7 5 8
REMARK H PARENT 1 3 1 4 1 5
REMARK Flexibility Score: inf
ROOT
ATOM      1  C   UNL     1      11.243  23.168  25.207  1.00  0.00     0.312 C 
ENDROOT
BRANCH   1   2
ATOM      2  N   UNL     1      11.619  21.761  25.090  1.00  0.00    -0.353 N 
ATOM      3  H   UNL     1      12.659  21.691  25.003  1.00  0.00     0.344 HD
ATOM      4  H   UNL     1      11.314  21.236  25.942  1.00  0.00     0.344 HD
ATOM      5  H   UNL     1      11.178  21.341  24.239  1.00  0.00     0.344 HD
ENDBRANCH   1   2
BRANCH   1   6
ATOM      6  C   UNL     1      12.443  24.050  25.054  1.00  0.00     0.096 C 
ATOM      7  O   UNL     1      12.677  24.616  23.953  1.00  0.00    -0.544 OA
ATOM      8  O   UNL     1      13.331  24.206  26.111  1.00  0.00    -0.544 OA
ENDBRANCH   1   6
TORSDOF 2
ENDMDL
MODEL 6
REMARK VINA RESULT:    -2.485      8.713      8.876
REMARK INTER + INTRA:          -2.703
REMARK INTER:                  -2.703
REMARK INTRA:                   0.000
REMARK UNBOUND:                 0.000
REMARK SMILES [NH3+]CC(=O)[O-]
REMARK SMILES IDX 2 1 1 2 3 6 4 7 5 8
REMARK H PARENT 1 3 1 4 1 5
REMARK Flexibility Score: inf
ROOT
ATOM      1  C   UNL     1      13.373  12.748  22.609  1.00  0.00     0.312 C 
ENDROOT
BRANCH   1   2
ATOM      2  N   UNL     1      12.834  12.111  21.409  1.00  0.00    -0.353 N 
ATOM      3  H   UNL     1      12.108  11.413  21.688  1.00  0.00     0.344 HD
ATOM      4  H   UNL     1      12.393  12.829  20.789  1.00  0.00     0.344 HD
ATOM      5  H   UNL     1      13.598  11.617  20.891  1.00  0.00     0.344 HD
ENDBRANCH   1   2
BRANCH   1   6
ATOM      6  C   UNL     1      12.368  13.686  23.205  1.00  0.00     0.096 C 
ATOM      7  O   UNL     1      12.299  13.829  24.455  1.00  0.00    -0.544 OA
ATOM      8  O   UNL     1      11.475  14.362  22.384  1.00  0.00    -0.544 OA
ENDBRANCH   1   6
TORSDOF 2
ENDMDL
MODEL 7
REMARK VINA RESULT:    -2.309     10.955     11.348
REMARK INTER + INTRA:          -2.511
REMARK INTER:                  -2.511
REMARK INTRA:                   0.000
REMARK UNBOUND:                 0.000
REMARK SMILES [NH3+]CC(=O)[O-]
REMARK SMILES IDX 2 1 1 2 3 6 4 7 5 8
REMARK H PARENT 1 3 1 4 1 5
REMARK Flexibility Score: inf
ROOT
ATOM      1  C   UNL     1      16.407  28.092  23.190  1.00  0.00     0.312 C 
ENDROOT
BRANCH   1   2
ATOM      2  N   UNL     1      15.497  28.388  22.086  1.00  0.00    -0.353 N 
ATOM      3  H   UNL     1      15.663  29.367  21.758  1.00  0.00     0.344 HD
ATOM      4  H   UNL     1      15.671  27.731  21.291  1.00  0.00     0.344 HD
ATOM      5  H   UNL     1      14.504  28.301  22.406  1.00  0.00     0.344 HD
ENDBRANCH   1   2
BRANCH   1   6
ATOM      6  C   UNL     1      15.839  27.022  24.071  1.00  0.00     0.096 C 
ATOM      7  O   UNL     1      14.591  26.890  24.182  1.00  0.00    -0.544 OA
ATOM      8  O   UNL     1      16.687  26.206  24.809  1.00  0.00    -0.544 OA
ENDBRANCH   1   6
TORSDOF 2
ENDMDL
MODEL 8
REMARK VINA RESULT:    -2.266     10.546     10.921
REMARK INTER + INTRA:          -2.465
REMARK INTER:                  -2.465
REMARK INTRA:                   0.000
REMARK UNBOUND:                 0.000
REMARK SMILES [NH3+]CC(=O)[O-]
REMARK SMILES IDX 2 1 1 2 3 6 4 7 5 8
REMARK H PARENT 1 3 1 4 1 5
REMARK Flexibility Score: inf
ROOT
ATOM      1  C   UNL     1      15.041  25.853  24.878  1.00  0.00     0.312 C 
ENDROOT
BRANCH   1   2
ATOM      2  N   UNL     1      15.943  26.009  23.739  1.00  0.00    -0.353 N 
ATOM      3  H   UNL     1      16.506  26.882  23.866  1.00  0.00     0.344 HD
ATOM      4  H   UNL     1      16.593  25.192  23.681  1.00  0.00     0.344 HD
ATOM      5  H   UNL     1      15.392  26.088  22.853  1.00  0.00     0.344 HD
ENDBRANCH   1   2
BRANCH   1   6
ATOM      6  C   UNL     1      13.613  25.862  24.427  1.00  0.00     0.096 C 
ATOM      7  O   UNL     1      12.979  26.948  24.354  1.00  0.00    -0.544 OA
ATOM      8  O   UNL     1      12.968  24.667  24.136  1.00  0.00    -0.544 OA
ENDBRANCH   1   6
TORSDOF 2
ENDMDL
MODEL 9
REMARK VINA RESULT:    -2.254     11.169     11.481
REMARK INTER + INTRA:          -2.452
REMARK INTER:                  -2.452
REMARK INTRA:                   0.000
REMARK UNBOUND:                 0.000
REMARK SMILES [NH3+]CC(=O)[O-]
REMARK SMILES IDX 2 1 1 2 3 6 4 7 5 8
REMARK H PARENT 1 3 1 4 1 5
REMARK Flexibility Score: inf
ROOT
ATOM      1  C   UNL     1      13.823  27.641  24.173  1.00  0.00     0.312 C 
ENDROOT
BRANCH   1   2
ATOM      2  N   UNL     1      14.238  28.223  22.898  1.00  0.00    -0.353 N 
ATOM      3  H   UNL     1      13.601  27.880  22.142  1.00  0.00     0.344 HD
ATOM      4  H   UNL     1      14.177  29.266  22.943  1.00  0.00     0.344 HD
ATOM      5  H   UNL     1      15.218  27.934  22.672  1.00  0.00     0.344 HD
ENDBRANCH   1   2
BRANCH   1   6
ATOM      6  C   UNL     1      14.373  26.256  24.325  1.00  0.00     0.096 C 
ATOM      7  O   UNL     1      15.611  26.079  24.479  1.00  0.00    -0.544 OA
ATOM      8  O   UNL     1      13.525  25.159  24.245  1.00  0.00    -0.544 OA
ENDBRANCH   1   6
TORSDOF 2
ENDMDL
