MODEL 1
REMARK VINA RESULT:    -4.804      0.000      0.000
REMARK INTER + INTRA:          -8.255
REMARK INTER:                  -7.332
REMARK INTRA:                  -0.923
REMARK UNBOUND:                -0.923
REMARK SMILES CCCCCCCCCC=CC(=O)[O-]
REMARK SMILES IDX 7 1 8 2 9 3 10 4 11 5 12 6 13 7 14 8 6 9 5 10 4 11 3 12 2 13
REMARK SMILES IDX 1 14
REMARK H PARENT
REMARK Flexibility Score: inf
ROOT
ATOM      1  C   UNL     1      11.888  12.059   3.393  1.00  0.00     0.000 C 
ENDROOT
BRANCH   1   2
ATOM      2  C   UNL     1      13.062  11.714   4.327  1.00  0.00     0.004 C 
BRANCH   2   3
ATOM      3  C   UNL     1      13.586  12.950   5.075  1.00  0.00     0.027 C 
BRANCH   3   4
ATOM      4  C   UNL     1      15.026  13.244   4.755  1.00  0.00    -0.025 C 
ATOM      5  C   UNL     1      15.366  14.100   3.787  1.00  0.00     0.020 C 
BRANCH   5   6
ATOM      6  C   UNL     1      16.769  14.399   3.467  1.00  0.00     0.064 C 
ATOM      7  O   UNL     1      17.655  13.532   3.685  1.00  0.00    -0.545 OA
ATOM      8  O   UNL     1      17.135  15.627   2.927  1.00  0.00    -0.545 OA
ENDBRANCH   5   6
ENDBRANCH   3   4
ENDBRANCH   2   3
ENDBRANCH   1   2
BRANCH   1   9
ATOM      9  C   UNL     1      10.584  11.348   3.792  1.00  0.00     0.000 C 
BRANCH   9  10
ATOM     10  C   UNL     1      10.834  10.123   4.690  1.00  0.00     0.000 C 
BRANCH  10  11
ATOM     11  C   UNL     1       9.861  10.046   5.881  1.00  0.00    -0.000 C 
BRANCH  11  12
ATOM     12  C   UNL     1       8.982  11.293   6.090  1.00  0.00    -0.000 C 
BRANCH  12  13
ATOM     13  C   UNL     1       9.321  12.055   7.380  1.00  0.00    -0.003 C 
ATOM     14  C   UNL     1      10.501  12.999   7.166  1.00  0.00     0.004 C 
ENDBRANCH  12  13
ENDBRANCH  11  12
ENDBRANCH  10  11
ENDBRANCH   9  10
ENDBRANCH   1   9
TORSDOF 9
ENDMDL
MODEL 2
REMARK VINA RESULT:    -4.804      4.446      6.428
REMARK INTER + INTRA:          -8.255
REMARK INTER:                  -6.912
REMARK INTRA:                  -1.343
REMARK UNBOUND:                -0.923
REMARK SMILES CCCCCCCCCC=CC(=O)[O-]
REMARK SMILES IDX 7 1 8 2 9 3 10 4 11 5 12 6 13 7 14 8 6 9 5 10 4 11 3 12 2 13
REMARK SMILES IDX 1 14
REMARK H PARENT
REMARK Flexibility Score: inf
ROOT
ATOM      1  C   UNL     1      10.544  11.530   3.937  1.00  0.00     0.000 C 
ENDROOT
BRANCH   1   2
ATOM      2  C   UNL     1      10.857  10.180   4.603  1.00  0.00     0.004 C 
BRANCH   2   3
ATOM      3  C   UNL     1      10.076   9.988   5.913  1.00  0.00     0.027 C 
BRANCH   3   4
ATOM      4  C   UNL     1       8.953  10.977   6.060  1.00  0.00    -0.025 C 
ATOM      5  C   UNL     1       8.561  11.416   7.259  1.00  0.00     0.020 C 
BRANCH   5   6
ATOM      6  C   UNL     1       7.468  12.386   7.416  1.00  0.00     0.064 C 
ATOM      7  O   UNL     1       6.418  12.256   6.734  1.00  0.00    -0.545 OA
ATOM      8  O   UNL     1       7.574  13.448   8.308  1.00  0.00    -0.545 OA
ENDBRANCH   5   6
ENDBRANCH   3   4
ENDBRANCH   2   3
ENDBRANCH   1   2
BRANCH   1   9
ATOM      9  C   UNL     1      11.805  12.244   3.421  1.00  0.00     0.000 C 
BRANCH   9  10
ATOM     10  C   UNL     1      13.050  11.918   4.263  1.00  0.00     0.000 C 
BRANCH  10  11
ATOM     11  C   UNL     1      13.497  13.094   5.152  1.00  0.00    -0.000 C 
BRANCH  11  12
ATOM     12  C   UNL     1      12.599  13.369   6.373  1.00  0.00    -0.000 C 
BRANCH  12  13
ATOM     13  C   UNL     1      11.878  14.723   6.293  1.00  0.00    -0.003 C 
ATOM     14  C   UNL     1      10.363  14.538   6.282  1.00  0.00     0.004 C 
ENDBRANCH  12  13
ENDBRANCH  11  12
ENDBRANCH  10  11
ENDBRANCH   9  10
ENDBRANCH   1   9
TORSDOF 9
ENDMDL
MODEL 3
REMARK VINA RESULT:    -4.763      4.463      6.278
REMARK INTER + INTRA:          -8.193
REMARK INTER:                  -6.582
REMARK INTRA:                  -1.611
REMARK UNBOUND:                -0.923
REMARK SMILES CCCCCCCCCC=CC(=O)[O-]
REMARK SMILES IDX 7 1 8 2 9 3 10 4 11 5 12 6 13 7 14 8 6 9 5 10 4 11 3 12 2 13
REMARK SMILES IDX 1 14
REMARK H PARENT
REMARK Flexibility Score: inf
ROOT
ATOM      1  C   UNL     1      12.002  12.016   3.269  1.00  0.00     0.000 C 
ENDROOT
BRANCH   1   2
ATOM      2  C   UNL     1      10.590  11.544   3.658  1.00  0.00     0.004 C 
BRANCH   2   3
ATOM      3  C   UNL     1      10.625  10.404   4.688  1.00  0.00     0.027 C 
BRANCH   3   4
ATOM      4  C   UNL     1       9.778  10.696   5.894  1.00  0.00    -0.025 C 
ATOM      5  C   UNL     1       8.621  11.358   5.793  1.00  0.00     0.020 C 
BRANCH   5   6
ATOM      6  C   UNL     1       7.781  11.646   6.964  1.00  0.00     0.064 C 
ATOM      7  O   UNL     1       8.234  11.439   8.120  1.00  0.00    -0.545 OA
ATOM      8  O   UNL     1       6.492  12.146   6.817  1.00  0.00    -0.545 OA
ENDBRANCH   5   6
ENDBRANCH   3   4
ENDBRANCH   2   3
ENDBRANCH   1   2
BRANCH   1   9
ATOM      9  C   UNL     1      12.995  11.945   4.442  1.00  0.00     0.000 C 
BRANCH   9  10
ATOM     10  C   UNL     1      13.240  13.319   5.088  1.00  0.00     0.000 C 
BRANCH  10  11
ATOM     11  C   UNL     1      12.512  13.487   6.435  1.00  0.00    -0.000 C 
BRANCH  11  12
ATOM     12  C   UNL     1      11.122  14.142   6.350  1.00  0.00    -0.000 C 
BRANCH  12  13
ATOM     13  C   UNL     1      10.987  15.110   5.165  1.00  0.00    -0.003 C 
ATOM     14  C   UNL     1       9.617  14.983   4.506  1.00  0.00     0.004 C 
ENDBRANCH  12  13
ENDBRANCH  11  12
ENDBRANCH  10  11
ENDBRANCH   9  10
ENDBRANCH   1   9
TORSDOF 9
ENDMDL
MODEL 4
REMARK VINA RESULT:    -4.722      4.411      7.121
REMARK INTER + INTRA:          -8.130
REMARK INTER:                  -7.349
REMARK INTRA:                  -0.782
REMARK UNBOUND:                -0.923
REMARK SMILES CCCCCCCCCC=CC(=O)[O-]
REMARK SMILES IDX 7 1 8 2 9 3 10 4 11 5 12 6 13 7 14 8 6 9 5 10 4 11 3 12 2 13
REMARK SMILES IDX 1 14
REMARK H PARENT
REMARK Flexibility Score: inf
ROOT
ATOM      1  C   UNL     1      12.060  12.463   4.600  1.00  0.00     0.000 C 
ENDROOT
BRANCH   1   2
ATOM      2  C   UNL     1      11.032  11.583   3.869  1.00  0.00     0.004 C 
BRANCH   2   3
ATOM      3  C   UNL     1      10.630  10.354   4.700  1.00  0.00     0.027 C 
BRANCH   3   4
ATOM      4  C   UNL     1       9.793  10.719   5.894  1.00  0.00    -0.025 C 
ATOM      5  C   UNL     1       8.583  11.270   5.758  1.00  0.00     0.020 C 
BRANCH   5   6
ATOM      6  C   UNL     1       7.753  11.628   6.917  1.00  0.00     0.064 C 
ATOM      7  O   UNL     1       8.203  11.457   8.080  1.00  0.00    -0.545 OA
ATOM      8  O   UNL     1       6.477  12.154   6.750  1.00  0.00    -0.545 OA
ENDBRANCH   5   6
ENDBRANCH   3   4
ENDBRANCH   2   3
ENDBRANCH   1   2
BRANCH   1   9
ATOM      9  C   UNL     1      13.504  11.965   4.418  1.00  0.00     0.000 C 
BRANCH   9  10
ATOM     10  C   UNL     1      14.540  12.943   4.999  1.00  0.00     0.000 C 
BRANCH  10  11
ATOM     11  C   UNL     1      15.286  13.741   3.914  1.00  0.00    -0.000 C 
BRANCH  11  12
ATOM     12  C   UNL     1      15.184  13.162   2.491  1.00  0.00    -0.000 C 
BRANCH  12  13
ATOM     13  C   UNL     1      14.503  14.119   1.502  1.00  0.00    -0.003 C 
ATOM     14  C   UNL     1      13.075  13.673   1.201  1.00  0.00     0.004 C 
ENDBRANCH  12  13
ENDBRANCH  11  12
ENDBRANCH  10  11
ENDBRANCH   9  10
ENDBRANCH   1   9
TORSDOF 9
ENDMDL
MODEL 5
REMARK VINA RESULT:    -4.685      1.473      2.453
REMARK INTER + INTRA:          -8.074
REMARK INTER:                  -7.240
REMARK INTRA:                  -0.834
REMARK UNBOUND:                -0.923
REMARK SMILES CCCCCCCCCC=CC(=O)[O-]
REMARK SMILES IDX 7 1 8 2 9 3 10 4 11 5 12 6 13 7 14 8 6 9 5 10 4 11 3 12 2 13
REMARK SMILES IDX 1 14
REMARK H PARENT
REMARK Flexibility Score: inf
ROOT
ATOM      1  C   UNL     1      11.545  13.109   4.079  1.00  0.00     0.000 C 
ENDROOT
BRANCH   1   2
ATOM      2  C   UNL     1      12.407  12.245   3.142  1.00  0.00     0.004 C 
BRANCH   2   3
ATOM      3  C   UNL     1      12.976  13.058   1.968  1.00  0.00     0.027 C 
BRANCH   3   4
ATOM      4  C   UNL     1      14.163  13.888   2.369  1.00  0.00    -0.025 C 
ATOM      5  C   UNL     1      15.271  13.329   2.865  1.00  0.00     0.020 C 
BRANCH   5   6
ATOM      6  C   UNL     1      16.441  14.130   3.257  1.00  0.00     0.064 C 
ATOM      7  O   UNL     1      16.377  15.386   3.213  1.00  0.00    -0.545 OA
ATOM      8  O   UNL     1      17.618  13.520   3.676  1.00  0.00    -0.545 OA
ENDBRANCH   5   6
ENDBRANCH   3   4
ENDBRANCH   2   3
ENDBRANCH   1   2
BRANCH   1   9
ATOM      9  C   UNL     1      10.487  13.929   3.323  1.00  0.00     0.000 C 
BRANCH   9  10
ATOM     10  C   UNL     1       9.054  13.449   3.613  1.00  0.00     0.000 C 
BRANCH  10  11
ATOM     11  C   UNL     1       8.958  11.922   3.787  1.00  0.00    -0.000 C 
BRANCH  11  12
ATOM     12  C   UNL     1       8.397  11.452   5.142  1.00  0.00    -0.000 C 
BRANCH  12  13
ATOM     13  C   UNL     1       9.427  10.684   5.983  1.00  0.00    -0.003 C 
ATOM     14  C   UNL     1      10.194   9.678   5.129  1.00  0.00     0.004 C 
ENDBRANCH  12  13
ENDBRANCH  11  12
ENDBRANCH  10  11
ENDBRANCH   9  10
ENDBRANCH   1   9
TORSDOF 9
ENDMDL
MODEL 6
REMARK VINA RESULT:    -4.680      4.680      6.720
REMARK INTER + INTRA:          -8.065
REMARK INTER:                  -6.702
REMARK INTRA:                  -1.364
REMARK UNBOUND:                -0.923
REMARK SMILES CCCCCCCCCC=CC(=O)[O-]
REMARK SMILES IDX 7 1 8 2 9 3 10 4 11 5 12 6 13 7 14 8 6 9 5 10 4 11 3 12 2 13
REMARK SMILES IDX 1 14
REMARK H PARENT
REMARK Flexibility Score: inf
ROOT
ATOM      1  C   UNL     1      12.583  14.603   5.884  1.00  0.00     0.000 C 
ENDROOT
BRANCH   1   2
ATOM      2  C   UNL     1      11.069  14.506   6.139  1.00  0.00     0.004 C 
BRANCH   2   3
ATOM      3  C   UNL     1      10.708  13.299   7.019  1.00  0.00     0.027 C 
BRANCH   3   4
ATOM      4  C   UNL     1       9.229  13.031   7.045  1.00  0.00    -0.025 C 
ATOM      5  C   UNL     1       8.718  11.998   7.720  1.00  0.00     0.020 C 
BRANCH   5   6
ATOM      6  C   UNL     1       7.273  11.728   7.757  1.00  0.00     0.064 C 
ATOM      7  O   UNL     1       6.779  11.118   8.741  1.00  0.00    -0.545 OA
ATOM      8  O   UNL     1       6.441  12.136   6.720  1.00  0.00    -0.545 OA
ENDBRANCH   5   6
ENDBRANCH   3   4
ENDBRANCH   2   3
ENDBRANCH   1   2
BRANCH   1   9
ATOM      9  C   UNL     1      13.280  13.232   5.918  1.00  0.00     0.000 C 
BRANCH   9  10
ATOM     10  C   UNL     1      13.589  12.695   4.510  1.00  0.00     0.000 C 
BRANCH  10  11
ATOM     11  C   UNL     1      12.665  11.534   4.095  1.00  0.00    -0.000 C 
BRANCH  11  12
ATOM     12  C   UNL     1      11.354  11.956   3.406  1.00  0.00    -0.000 C 
BRANCH  12  13
ATOM     13  C   UNL     1      10.116  11.279   4.011  1.00  0.00    -0.003 C 
ATOM     14  C   UNL     1      10.509  10.081   4.870  1.00  0.00     0.004 C 
ENDBRANCH  12  13
ENDBRANCH  11  12
ENDBRANCH  10  11
ENDBRANCH   9  10
ENDBRANCH   1   9
TORSDOF 9
ENDMDL
MODEL 7
REMARK VINA RESULT:    -4.670      1.346      2.102
REMARK INTER + INTRA:          -8.051
REMARK INTER:                  -6.936
REMARK INTRA:                  -1.115
REMARK UNBOUND:                -0.923
REMARK SMILES CCCCCCCCCC=CC(=O)[O-]
REMARK SMILES IDX 7 1 8 2 9 3 10 4 11 5 12 6 13 7 14 8 6 9 5 10 4 11 3 12 2 13
REMARK SMILES IDX 1 14
REMARK H PARENT
REMARK Flexibility Score: inf
ROOT
ATOM      1  C   UNL     1      11.028  14.230   5.259  1.00  0.00     0.000 C 
ENDROOT
BRANCH   1   2
ATOM      2  C   UNL     1      12.543  14.462   5.395  1.00  0.00     0.004 C 
BRANCH   2   3
ATOM      3  C   UNL     1      13.278  13.204   5.883  1.00  0.00     0.027 C 
BRANCH   3   4
ATOM      4  C   UNL     1      14.461  12.862   5.021  1.00  0.00    -0.025 C 
ATOM      5  C   UNL     1      15.070  13.785   4.271  1.00  0.00     0.020 C 
BRANCH   5   6
ATOM      6  C   UNL     1      16.230  13.464   3.428  1.00  0.00     0.064 C 
ATOM      7  O   UNL     1      16.053  12.921   2.307  1.00  0.00    -0.545 OA
ATOM      8  O   UNL     1      17.524  13.752   3.849  1.00  0.00    -0.545 OA
ENDBRANCH   5   6
ENDBRANCH   3   4
ENDBRANCH   2   3
ENDBRANCH   1   2
BRANCH   1   9
ATOM      9  C   UNL     1      10.608  13.881   3.821  1.00  0.00     0.000 C 
BRANCH   9  10
ATOM     10  C   UNL     1       9.805  12.572   3.745  1.00  0.00     0.000 C 
BRANCH  10  11
ATOM     11  C   UNL     1      10.679  11.319   3.940  1.00  0.00    -0.000 C 
BRANCH  11  12
ATOM     12  C   UNL     1      10.317  10.452   5.160  1.00  0.00    -0.000 C 
BRANCH  12  13
ATOM     13  C   UNL     1       9.029  10.910   5.859  1.00  0.00    -0.003 C 
ATOM     14  C   UNL     1       9.309  11.349   7.293  1.00  0.00     0.004 C 
ENDBRANCH  12  13
ENDBRANCH  11  12
ENDBRANCH  10  11
ENDBRANCH   9  10
ENDBRANCH   1   9
TORSDOF 9
ENDMDL
MODEL 8
REMARK VINA RESULT:    -4.598      4.822      6.195
REMARK INTER + INTRA:          -7.941
REMARK INTER:                  -6.209
REMARK INTRA:                  -1.732
REMARK UNBOUND:                -0.923
REMARK SMILES CCCCCCCCCC=CC(=O)[O-]
REMARK SMILES IDX 7 1 8 2 9 3 10 4 11 5 12 6 13 7 14 8 6 9 5 10 4 11 3 12 2 13
REMARK SMILES IDX 1 14
REMARK H PARENT
REMARK Flexibility Score: inf
ROOT
ATOM      1  C   UNL     1      12.703  12.901   5.527  1.00  0.00     0.000 C 
ENDROOT
BRANCH   1   2
ATOM      2  C   UNL     1      11.962  13.592   6.685  1.00  0.00     0.004 C 
BRANCH   2   3
ATOM      3  C   UNL     1      10.780  14.440   6.190  1.00  0.00     0.027 C 
BRANCH   3   4
ATOM      4  C   UNL     1       9.493  14.087   6.882  1.00  0.00    -0.025 C 
ATOM      5  C   UNL     1       8.330  14.062   6.225  1.00  0.00     0.020 C 
BRANCH   5   6
ATOM      6  C   UNL     1       7.065  13.715   6.890  1.00  0.00     0.064 C 
ATOM      7  O   UNL     1       6.480  14.573   7.600  1.00  0.00    -0.545 OA
ATOM      8  O   UNL     1       6.503  12.450   6.746  1.00  0.00    -0.545 OA
ENDBRANCH   5   6
ENDBRANCH   3   4
ENDBRANCH   2   3
ENDBRANCH   1   2
BRANCH   1   9
ATOM      9  C   UNL     1      11.979  13.063   4.180  1.00  0.00     0.000 C 
BRANCH   9  10
ATOM     10  C   UNL     1      11.333  11.753   3.699  1.00  0.00     0.000 C 
BRANCH  10  11
ATOM     11  C   UNL     1       9.796  11.831   3.635  1.00  0.00    -0.000 C 
BRANCH  11  12
ATOM     12  C   UNL     1       9.053  10.907   4.617  1.00  0.00    -0.000 C 
BRANCH  12  13
ATOM     13  C   UNL     1       9.991  10.222   5.622  1.00  0.00    -0.003 C 
ATOM     14  C   UNL     1       9.611  10.577   7.057  1.00  0.00     0.004 C 
ENDBRANCH  12  13
ENDBRANCH  11  12
ENDBRANCH  10  11
ENDBRANCH   9  10
ENDBRANCH   1   9
TORSDOF 9
ENDMDL
MODEL 9
REMARK VINA RESULT:    -4.562      3.944      4.764
REMARK INTER + INTRA:          -7.886
REMARK INTER:                  -6.393
REMARK INTRA:                  -1.492
REMARK UNBOUND:                -0.923
REMARK SMILES CCCCCCCCCC=CC(=O)[O-]
REMARK SMILES IDX 7 1 8 2 9 3 10 4 11 5 12 6 13 7 14 8 6 9 5 10 4 11 3 12 2 13
REMARK SMILES IDX 1 14
REMARK H PARENT
REMARK Flexibility Score: inf
ROOT
ATOM      1  C   UNL     1      12.152  11.781   4.037  1.00  0.00     0.000 C 
ENDROOT
BRANCH   1   2
ATOM      2  C   UNL     1      12.187  13.188   4.659  1.00  0.00     0.004 C 
BRANCH   2   3
ATOM      3  C   UNL     1      12.019  13.148   6.186  1.00  0.00     0.027 C 
BRANCH   3   4
ATOM      4  C   UNL     1      11.118  14.241   6.691  1.00  0.00    -0.025 C 
ATOM      5  C   UNL     1      10.082  14.681   5.971  1.00  0.00     0.020 C 
BRANCH   5   6
ATOM      6  C   UNL     1       9.191  15.745   6.455  1.00  0.00     0.064 C 
ATOM      7  O   UNL     1       8.560  15.586   7.532  1.00  0.00    -0.545 OA
ATOM      8  O   UNL     1       9.033  16.928   5.741  1.00  0.00    -0.545 OA
ENDBRANCH   5   6
ENDBRANCH   3   4
ENDBRANCH   2   3
ENDBRANCH   1   2
BRANCH   1   9
ATOM      9  C   UNL     1      10.720  11.253   3.847  1.00  0.00     0.000 C 
BRANCH   9  10
ATOM     10  C   UNL     1      10.376  10.120   4.829  1.00  0.00     0.000 C 
BRANCH  10  11
ATOM     11  C   UNL     1       9.411  10.566   5.943  1.00  0.00    -0.000 C 
BRANCH  11  12
ATOM     12  C   UNL     1       8.297  11.531   5.497  1.00  0.00    -0.000 C 
BRANCH  12  13
ATOM     13  C   UNL     1       7.454  12.056   6.668  1.00  0.00    -0.003 C 
ATOM     14  C   UNL     1       8.251  12.039   7.969  1.00  0.00     0.004 C 
ENDBRANCH  12  13
ENDBRANCH  11  12
ENDBRANCH  10  11
ENDBRANCH   9  10
ENDBRANCH   1   9
TORSDOF 9
ENDMDL
