MODEL 1
REMARK VINA RESULT:    -3.851      0.000      0.000
REMARK INTER + INTRA:          -6.317
REMARK INTER:                  -5.202
REMARK INTRA:                  -1.115
REMARK UNBOUND:                -1.115
REMARK SMILES O=c1c(-c2ccc(O)cc2)coc2c([C@H]3O[C@H](CO)[C@H](O)[C@H](O)[C@H]3O)c(O)ccc12
REMARK SMILES IDX 3 1 11 2 12 3 13 4 30 5 2 6 1 7 29 8 28 9 26 10 14 11 4 12
REMARK SMILES IDX 5 13 6 14 7 15 10 16 9 17 8 18 15 20 24 21 16 22 22 23 17 24
REMARK SMILES IDX 20 25 25 26 23 28 18 30 19 31 21 33 27 35
REMARK H PARENT 8 19 25 27 23 29 19 32 21 34 27 36
REMARK Flexibility Score: inf
ROOT
ATOM      1  C   UNL     1      28.099  33.017  23.486  1.00  0.00     0.065 A 
ATOM      2  C   UNL     1      27.502  34.273  23.657  1.00  0.00     0.208 A 
ATOM      3  O   UNL     1      27.419  35.131  22.648  1.00  0.00    -0.463 OA
ATOM      4  C   UNL     1      27.886  34.876  21.427  1.00  0.00     0.147 A 
ATOM      5  C   UNL     1      28.514  33.634  21.172  1.00  0.00     0.066 A 
ATOM      6  C   UNL     1      28.607  32.695  22.215  1.00  0.00     0.200 A 
ATOM      7  O   UNL     1      29.125  31.562  22.007  1.00  0.00    -0.288 OA
ATOM      8  C   UNL     1      29.025  33.367  19.898  1.00  0.00     0.020 A 
ATOM      9  C   UNL     1      28.933  34.323  18.894  1.00  0.00     0.047 A 
ATOM     10  C   UNL     1      28.318  35.560  19.129  1.00  0.00     0.125 A 
ATOM     11  C   UNL     1      27.746  35.849  20.398  1.00  0.00     0.069 A 
ENDROOT
BRANCH   1  12
ATOM     12  C   UNL     1      28.169  32.068  24.628  1.00  0.00    -0.011 A 
ATOM     13  C   UNL     1      29.059  32.304  25.691  1.00  0.00     0.013 A 
ATOM     14  C   UNL     1      29.125  31.419  26.771  1.00  0.00     0.047 A 
ATOM     15  C   UNL     1      28.304  30.287  26.803  1.00  0.00     0.115 A 
ATOM     16  C   UNL     1      27.356  30.922  24.661  1.00  0.00     0.013 A 
ATOM     17  C   UNL     1      27.420  30.040  25.743  1.00  0.00     0.047 A 
BRANCH  15  18
ATOM     18  O   UNL     1      28.375  29.415  27.887  1.00  0.00    -0.508 OA
ATOM     19  H   UNL     1      29.082  29.517  28.605  1.00  0.00     0.293 HD
ENDBRANCH  15  18
ENDBRANCH   1  12
BRANCH  11  20
ATOM     20  C   UNL     1      27.039  37.165  20.764  1.00  0.00     0.188 C 
ATOM     21  C   UNL     1      25.503  37.282  20.548  1.00  0.00     0.179 C 
ATOM     22  O   UNL     1      27.715  38.259  20.166  1.00  0.00    -0.362 OA
ATOM     23  C   UNL     1      25.009  38.552  21.266  1.00  0.00     0.177 C 
ATOM     24  C   UNL     1      27.370  39.506  20.772  1.00  0.00     0.176 C 
ATOM     25  C   UNL     1      25.831  39.775  20.803  1.00  0.00     0.177 C 
BRANCH  21  26
ATOM     26  O   UNL     1      25.119  37.354  19.195  1.00  0.00    -0.387 OA
ATOM     27  H   UNL     1      24.130  37.310  19.137  1.00  0.00     0.211 HD
ENDBRANCH  21  26
BRANCH  23  28
ATOM     28  O   UNL     1      25.104  38.378  22.659  1.00  0.00    -0.387 OA
ATOM     29  H   UNL     1      24.210  38.585  23.040  1.00  0.00     0.211 HD
ENDBRANCH  23  28
BRANCH  24  30
ATOM     30  C   UNL     1      28.077  39.712  22.131  1.00  0.00     0.191 C 
BRANCH  30  31
ATOM     31  O   UNL     1      28.011  41.058  22.520  1.00  0.00    -0.394 OA
ATOM     32  H   UNL     1      28.336  41.095  23.459  1.00  0.00     0.210 HD
ENDBRANCH  30  31
ENDBRANCH  24  30
BRANCH  25  33
ATOM     33  O   UNL     1      25.525  40.887  21.607  1.00  0.00    -0.388 OA
ATOM     34  H   UNL     1      25.435  40.553  22.539  1.00  0.00     0.211 HD
ENDBRANCH  25  33
ENDBRANCH  11  20
BRANCH  10  35
ATOM     35  O   UNL     1      28.298  36.482  18.088  1.00  0.00    -0.507 OA
ATOM     36  H   UNL     1      28.294  37.482  18.256  1.00  0.00     0.293 HD
ENDBRANCH  10  35
TORSDOF 9
ENDMDL
MODEL 2
REMARK VINA RESULT:    -3.459      2.521      4.487
REMARK INTER + INTRA:          -5.787
REMARK INTER:                  -5.492
REMARK INTRA:                  -0.295
REMARK UNBOUND:                -1.115
REMARK SMILES O=c1c(-c2ccc(O)cc2)coc2c([C@H]3O[C@H](CO)[C@H](O)[C@H](O)[C@H]3O)c(O)ccc12
REMARK SMILES IDX 3 1 11 2 12 3 13 4 30 5 2 6 1 7 29 8 28 9 26 10 14 11 4 12
REMARK SMILES IDX 5 13 6 14 7 15 10 16 9 17 8 18 15 20 24 21 16 22 22 23 17 24
REMARK SMILES IDX 20 25 25 26 23 28 18 30 19 31 21 33 27 35
REMARK H PARENT 8 19 25 27 23 29 19 32 21 34 27 36
REMARK Flexibility Score: inf
ROOT
ATOM      1  C   UNL     1      28.479  36.233  20.920  1.00  0.00     0.065 A 
ATOM      2  C   UNL     1      28.089  37.322  21.711  1.00  0.00     0.208 A 
ATOM      3  O   UNL     1      28.023  38.545  21.200  1.00  0.00    -0.463 OA
ATOM      4  C   UNL     1      28.318  38.830  19.933  1.00  0.00     0.147 A 
ATOM      5  C   UNL     1      28.731  37.788  19.069  1.00  0.00     0.066 A 
ATOM      6  C   UNL     1      28.799  36.477  19.572  1.00  0.00     0.200 A 
ATOM      7  O   UNL     1      29.125  35.520  18.815  1.00  0.00    -0.288 OA
ATOM      8  C   UNL     1      29.062  38.082  17.743  1.00  0.00     0.020 A 
ATOM      9  C   UNL     1      29.003  39.391  17.282  1.00  0.00     0.047 A 
ATOM     10  C   UNL     1      28.599  40.436  18.124  1.00  0.00     0.125 A 
ATOM     11  C   UNL     1      28.211  40.169  19.465  1.00  0.00     0.069 A 
ENDROOT
BRANCH   1  12
ATOM     12  C   UNL     1      28.532  34.870  21.510  1.00  0.00    -0.011 A 
ATOM     13  C   UNL     1      29.043  33.794  20.761  1.00  0.00     0.013 A 
ATOM     14  C   UNL     1      29.102  32.510  21.313  1.00  0.00     0.047 A 
ATOM     15  C   UNL     1      28.651  32.286  22.618  1.00  0.00     0.115 A 
ATOM     16  C   UNL     1      28.071  34.633  22.816  1.00  0.00     0.013 A 
ATOM     17  C   UNL     1      28.133  33.351  23.368  1.00  0.00     0.047 A 
BRANCH  15  18
ATOM     18  O   UNL     1      28.720  31.003  23.158  1.00  0.00    -0.508 OA
ATOM     19  H   UNL     1      29.589  30.483  23.184  1.00  0.00     0.293 HD
ENDBRANCH  15  18
ENDBRANCH   1  12
BRANCH  11  20
ATOM     20  C   UNL     1      27.743  41.233  20.473  1.00  0.00     0.188 C 
ATOM     21  C   UNL     1      26.558  42.165  20.088  1.00  0.00     0.179 C 
ATOM     22  O   UNL     1      28.851  41.991  20.926  1.00  0.00    -0.362 OA
ATOM     23  C   UNL     1      26.096  42.908  21.356  1.00  0.00     0.177 C 
ATOM     24  C   UNL     1      28.564  42.706  22.129  1.00  0.00     0.176 C 
ATOM     25  C   UNL     1      27.297  43.615  22.023  1.00  0.00     0.177 C 
BRANCH  21  26
ATOM     26  O   UNL     1      26.877  43.119  19.102  1.00  0.00    -0.387 OA
ATOM     27  H   UNL     1      26.997  44.003  19.534  1.00  0.00     0.211 HD
ENDBRANCH  21  26
BRANCH  23  28
ATOM     28  O   UNL     1      25.488  42.001  22.244  1.00  0.00    -0.387 OA
ATOM     29  H   UNL     1      25.702  42.307  23.165  1.00  0.00     0.211 HD
ENDBRANCH  23  28
BRANCH  24  30
ATOM     30  C   UNL     1      28.583  41.789  23.374  1.00  0.00     0.191 C 
BRANCH  30  31
ATOM     31  O   UNL     1      29.125  42.467  24.475  1.00  0.00    -0.394 OA
ATOM     32  H   UNL     1      29.251  41.786  25.190  1.00  0.00     0.210 HD
ENDBRANCH  30  31
ENDBRANCH  24  30
BRANCH  25  33
ATOM     33  O   UNL     1      26.920  44.111  23.282  1.00  0.00    -0.388 OA
ATOM     34  H   UNL     1      25.976  43.836  23.429  1.00  0.00     0.211 HD
ENDBRANCH  25  33
ENDBRANCH  11  20
BRANCH  10  35
ATOM     35  O   UNL     1      28.602  41.726  17.604  1.00  0.00    -0.507 OA
ATOM     36  H   UNL     1      28.584  41.903  16.606  1.00  0.00     0.293 HD
ENDBRANCH  10  35
TORSDOF 9
ENDMDL
MODEL 3
REMARK VINA RESULT:    -1.859      2.210      3.483
REMARK INTER + INTRA:          -3.627
REMARK INTER:                  -4.118
REMARK INTRA:                   0.491
REMARK UNBOUND:                -1.115
REMARK SMILES O=c1c(-c2ccc(O)cc2)coc2c([C@H]3O[C@H](CO)[C@H](O)[C@H](O)[C@H]3O)c(O)ccc12
REMARK SMILES IDX 3 1 11 2 12 3 13 4 30 5 2 6 1 7 29 8 28 9 26 10 14 11 4 12
REMARK SMILES IDX 5 13 6 14 7 15 10 16 9 17 8 18 15 20 24 21 16 22 22 23 17 24
REMARK SMILES IDX 20 25 25 26 23 28 18 30 19 31 21 33 27 35
REMARK H PARENT 8 19 25 27 23 29 19 32 21 34 27 36
REMARK Flexibility Score: inf
ROOT
ATOM      1  C   UNL     1      28.318  35.403  21.354  1.00  0.00     0.065 A 
ATOM      2  C   UNL     1      27.865  36.590  21.945  1.00  0.00     0.208 A 
ATOM      3  O   UNL     1      27.831  37.724  21.256  1.00  0.00    -0.463 OA
ATOM      4  C   UNL     1      28.217  37.824  19.986  1.00  0.00     0.147 A 
ATOM      5  C   UNL     1      28.699  36.674  19.317  1.00  0.00     0.066 A 
ATOM      6  C   UNL     1      28.735  35.451  20.012  1.00  0.00     0.200 A 
ATOM      7  O   UNL     1      29.122  34.400  19.429  1.00  0.00    -0.288 OA
ATOM      8  C   UNL     1      29.125  36.775  17.989  1.00  0.00     0.020 A 
ATOM      9  C   UNL     1      29.093  38.001  17.337  1.00  0.00     0.047 A 
ATOM     10  C   UNL     1      28.623  39.152  17.984  1.00  0.00     0.125 A 
ATOM     11  C   UNL     1      28.138  39.078  19.318  1.00  0.00     0.069 A 
ENDROOT
BRANCH   1  12
ATOM     12  C   UNL     1      28.335  34.142  22.141  1.00  0.00    -0.011 A 
ATOM     13  C   UNL     1      27.972  34.152  23.500  1.00  0.00     0.013 A 
ATOM     14  C   UNL     1      27.979  32.968  24.244  1.00  0.00     0.047 A 
ATOM     15  C   UNL     1      28.349  31.762  23.641  1.00  0.00     0.115 A 
ATOM     16  C   UNL     1      28.716  32.928  21.545  1.00  0.00     0.013 A 
ATOM     17  C   UNL     1      28.720  31.745  22.289  1.00  0.00     0.047 A 
BRANCH  15  18
ATOM     18  O   UNL     1      28.347  30.588  24.393  1.00  0.00    -0.508 OA
ATOM     19  H   UNL     1      28.074  30.582  25.368  1.00  0.00     0.293 HD
ENDBRANCH  15  18
ENDBRANCH   1  12
BRANCH  11  20
ATOM     20  C   UNL     1      27.590  40.271  20.121  1.00  0.00     0.188 C 
ATOM     21  C   UNL     1      26.460  40.024  21.162  1.00  0.00     0.179 C 
ATOM     22  O   UNL     1      27.241  41.326  19.241  1.00  0.00    -0.362 OA
ATOM     23  C   UNL     1      26.315  41.290  22.027  1.00  0.00     0.177 C 
ATOM     24  C   UNL     1      27.111  42.577  19.919  1.00  0.00     0.176 C 
ATOM     25  C   UNL     1      26.117  42.528  21.124  1.00  0.00     0.177 C 
BRANCH  21  26
ATOM     26  O   UNL     1      25.209  39.728  20.588  1.00  0.00    -0.387 OA
ATOM     27  H   UNL     1      24.562  40.437  20.838  1.00  0.00     0.211 HD
ENDBRANCH  21  26
BRANCH  23  28
ATOM     28  O   UNL     1      27.450  41.440  22.845  1.00  0.00    -0.387 OA
ATOM     29  H   UNL     1      27.188  41.156  23.761  1.00  0.00     0.211 HD
ENDBRANCH  23  28
BRANCH  24  30
ATOM     30  C   UNL     1      28.483  43.206  20.255  1.00  0.00     0.191 C 
BRANCH  30  31
ATOM     31  O   UNL     1      28.989  43.899  19.146  1.00  0.00    -0.394 OA
ATOM     32  H   UNL     1      29.737  43.349  18.789  1.00  0.00     0.210 HD
ENDBRANCH  30  31
ENDBRANCH  24  30
BRANCH  25  33
ATOM     33  O   UNL     1      26.196  43.699  21.896  1.00  0.00    -0.388 OA
ATOM     34  H   UNL     1      25.400  43.707  22.491  1.00  0.00     0.211 HD
ENDBRANCH  25  33
ENDBRANCH  11  20
BRANCH  10  35
ATOM     35  O   UNL     1      28.657  40.351  17.281  1.00  0.00    -0.507 OA
ATOM     36  H   UNL     1      28.278  41.210  17.664  1.00  0.00     0.293 HD
ENDBRANCH  10  35
TORSDOF 9
ENDMDL
MODEL 4
REMARK VINA RESULT:    -1.301      5.321      7.892
REMARK INTER + INTRA:          -2.872
REMARK INTER:                  -2.576
REMARK INTRA:                  -0.296
REMARK UNBOUND:                -1.115
REMARK SMILES O=c1c(-c2ccc(O)cc2)coc2c([C@H]3O[C@H](CO)[C@H](O)[C@H](O)[C@H]3O)c(O)ccc12
REMARK SMILES IDX 3 1 11 2 12 3 13 4 30 5 2 6 1 7 29 8 28 9 26 10 14 11 4 12
REMARK SMILES IDX 5 13 6 14 7 15 10 16 9 17 8 18 15 20 24 21 16 22 22 23 17 24
REMARK SMILES IDX 20 25 25 26 23 28 18 30 19 31 21 33 27 35
REMARK H PARENT 8 19 25 27 23 29 19 32 21 34 27 36
REMARK Flexibility Score: inf
ROOT
ATOM      1  C   UNL     1      27.572  41.192  21.931  1.00  0.00     0.065 A 
ATOM      2  C   UNL     1      26.627  40.158  21.957  1.00  0.00     0.208 A 
ATOM      3  O   UNL     1      26.361  39.451  20.865  1.00  0.00    -0.463 OA
ATOM      4  C   UNL     1      26.949  39.665  19.690  1.00  0.00     0.147 A 
ATOM      5  C   UNL     1      27.907  40.699  19.575  1.00  0.00     0.066 A 
ATOM      6  C   UNL     1      28.226  41.459  20.715  1.00  0.00     0.200 A 
ATOM      7  O   UNL     1      29.107  42.361  20.653  1.00  0.00    -0.288 OA
ATOM      8  C   UNL     1      28.515  40.943  18.339  1.00  0.00     0.020 A 
ATOM      9  C   UNL     1      28.165  40.186  17.228  1.00  0.00     0.047 A 
ATOM     10  C   UNL     1      27.215  39.160  17.321  1.00  0.00     0.125 A 
ATOM     11  C   UNL     1      26.611  38.853  18.571  1.00  0.00     0.069 A 
ENDROOT
BRANCH   1  12
ATOM     12  C   UNL     1      27.863  41.961  23.169  1.00  0.00    -0.011 A 
ATOM     13  C   UNL     1      28.831  41.497  24.079  1.00  0.00     0.013 A 
ATOM     14  C   UNL     1      29.114  42.219  25.242  1.00  0.00     0.047 A 
ATOM     15  C   UNL     1      28.436  43.412  25.511  1.00  0.00     0.115 A 
ATOM     16  C   UNL     1      27.178  43.155  23.452  1.00  0.00     0.013 A 
ATOM     17  C   UNL     1      27.464  43.877  24.614  1.00  0.00     0.047 A 
BRANCH  15  18
ATOM     18  O   UNL     1      28.731  44.124  26.672  1.00  0.00    -0.508 OA
ATOM     19  H   UNL     1      28.594  45.127  26.729  1.00  0.00     0.293 HD
ENDBRANCH  15  18
ENDBRANCH   1  12
BRANCH  11  20
ATOM     20  C   UNL     1      25.567  37.745  18.794  1.00  0.00     0.188 C 
ATOM     21  C   UNL     1      25.239  37.299  20.247  1.00  0.00     0.179 C 
ATOM     22  O   UNL     1      25.872  36.624  17.982  1.00  0.00    -0.362 OA
ATOM     23  C   UNL     1      23.972  36.424  20.211  1.00  0.00     0.177 C 
ATOM     24  C   UNL     1      24.757  35.742  17.834  1.00  0.00     0.176 C 
ATOM     25  C   UNL     1      24.154  35.273  19.196  1.00  0.00     0.177 C 
BRANCH  21  26
ATOM     26  O   UNL     1      26.270  36.568  20.869  1.00  0.00    -0.387 OA
ATOM     27  H   UNL     1      26.318  36.826  21.825  1.00  0.00     0.211 HD
ENDBRANCH  21  26
BRANCH  23  28
ATOM     28  O   UNL     1      22.856  37.215  19.880  1.00  0.00    -0.387 OA
ATOM     29  H   UNL     1      22.920  38.048  20.419  1.00  0.00     0.211 HD
ENDBRANCH  23  28
BRANCH  24  30
ATOM     30  C   UNL     1      23.712  36.283  16.831  1.00  0.00     0.191 C 
BRANCH  30  31
ATOM     31  O   UNL     1      24.255  37.331  16.073  1.00  0.00    -0.394 OA
ATOM     32  H   UNL     1      24.420  36.963  15.164  1.00  0.00     0.210 HD
ENDBRANCH  30  31
ENDBRANCH  24  30
BRANCH  25  33
ATOM     33  O   UNL     1      22.931  34.605  19.008  1.00  0.00    -0.388 OA
ATOM     34  H   UNL     1      22.472  34.591  19.890  1.00  0.00     0.211 HD
ENDBRANCH  25  33
ENDBRANCH  11  20
BRANCH  10  35
ATOM     35  O   UNL     1      26.887  38.471  16.159  1.00  0.00    -0.507 OA
ATOM     36  H   UNL     1      26.436  37.564  16.181  1.00  0.00     0.293 HD
ENDBRANCH  10  35
TORSDOF 9
ENDMDL
