MODEL 1
REMARK VINA RESULT:    -6.708      0.000      0.000
REMARK INTER + INTRA:          -9.254
REMARK INTER:                  -8.473
REMARK INTRA:                  -0.782
REMARK UNBOUND:                -0.782
REMARK SMILES Oc1cc(O)cc(CCc2ccccc2O)c1
REMARK SMILES IDX 9 1 10 2 12 3 13 4 11 5 14 6 15 7 16 8 8 10 7 11 6 12 17 13
REMARK SMILES IDX 4 14 2 15 3 16 5 17 1 19
REMARK H PARENT 16 9 5 18 1 20
REMARK Flexibility Score: inf
ROOT
ATOM      1  C   UNL     1      -5.205   9.749 -13.448  1.00  0.00     0.044 C 
ENDROOT
BRANCH   1   2
ATOM      2  C   UNL     1      -5.399   9.788 -14.942  1.00  0.00    -0.006 A 
ATOM      3  C   UNL     1      -5.246   8.678 -17.102  1.00  0.00     0.001 A 
ATOM      4  C   UNL     1      -5.681   9.844 -17.736  1.00  0.00     0.004 A 
ATOM      5  C   UNL     1      -5.100   8.650 -15.712  1.00  0.00     0.007 A 
ATOM      6  C   UNL     1      -5.967  10.986 -16.983  1.00  0.00     0.046 A 
ATOM      7  C   UNL     1      -5.823  10.967 -15.589  1.00  0.00     0.118 A 
BRANCH   7   8
ATOM      8  O   UNL     1      -6.096  12.115 -14.845  1.00  0.00    -0.508 OA
ATOM      9  H   UNL     1      -6.888  12.162 -14.213  1.00  0.00     0.293 HD
ENDBRANCH   7   8
ENDBRANCH   1   2
BRANCH   1  10
ATOM     10  C   UNL     1      -6.162   8.741 -12.805  1.00  0.00     0.040 C 
BRANCH  10  11
ATOM     11  C   UNL     1      -7.591   9.179 -12.986  1.00  0.00    -0.040 A 
ATOM     12  C   UNL     1      -8.039  10.382 -12.417  1.00  0.00     0.050 A 
ATOM     13  C   UNL     1      -8.471   8.417 -13.771  1.00  0.00     0.050 A 
ATOM     14  C   UNL     1      -9.357  10.808 -12.612  1.00  0.00     0.119 A 
ATOM     15  C   UNL     1      -9.793   8.841 -13.966  1.00  0.00     0.119 A 
ATOM     16  C   UNL     1     -10.233  10.034 -13.384  1.00  0.00     0.092 A 
BRANCH  14  17
ATOM     17  O   UNL     1      -9.785  12.002 -12.034  1.00  0.00    -0.508 OA
ATOM     18  H   UNL     1     -10.167  12.029 -11.096  1.00  0.00     0.293 HD
ENDBRANCH  14  17
BRANCH  15  19
ATOM     19  O   UNL     1     -10.673   8.087 -14.738  1.00  0.00    -0.508 OA
ATOM     20  H   UNL     1     -11.329   8.525 -15.375  1.00  0.00     0.293 HD
ENDBRANCH  15  19
ENDBRANCH  10  11
ENDBRANCH   1  10
TORSDOF 6
ENDMDL
MODEL 2
REMARK VINA RESULT:    -6.701      0.059      2.036
REMARK INTER + INTRA:          -9.245
REMARK INTER:                  -8.469
REMARK INTRA:                  -0.776
REMARK UNBOUND:                -0.782
REMARK SMILES Oc1cc(O)cc(CCc2ccccc2O)c1
REMARK SMILES IDX 9 1 10 2 12 3 13 4 11 5 14 6 15 7 16 8 8 10 7 11 6 12 17 13
REMARK SMILES IDX 4 14 2 15 3 16 5 17 1 19
REMARK H PARENT 16 9 5 18 1 20
REMARK Flexibility Score: inf
ROOT
ATOM      1  C   UNL     1      -5.189   9.768 -13.459  1.00  0.00     0.044 C 
ENDROOT
BRANCH   1   2
ATOM      2  C   UNL     1      -5.382   9.826 -14.953  1.00  0.00    -0.006 A 
ATOM      3  C   UNL     1      -5.205   8.752 -17.128  1.00  0.00     0.001 A 
ATOM      4  C   UNL     1      -5.661   9.918 -17.746  1.00  0.00     0.004 A 
ATOM      5  C   UNL     1      -5.061   8.706 -15.739  1.00  0.00     0.007 A 
ATOM      6  C   UNL     1      -5.969  11.043 -16.977  1.00  0.00     0.046 A 
ATOM      7  C   UNL     1      -5.827  11.007 -15.582  1.00  0.00     0.118 A 
BRANCH   7   8
ATOM      8  O   UNL     1      -6.122  12.138 -14.822  1.00  0.00    -0.508 OA
ATOM      9  H   UNL     1      -5.392  12.750 -14.475  1.00  0.00     0.293 HD
ENDBRANCH   7   8
ENDBRANCH   1   2
BRANCH   1  10
ATOM     10  C   UNL     1      -6.166   8.773 -12.827  1.00  0.00     0.040 C 
BRANCH  10  11
ATOM     11  C   UNL     1      -7.587   9.230 -13.021  1.00  0.00    -0.040 A 
ATOM     12  C   UNL     1      -8.482   8.456 -13.778  1.00  0.00     0.050 A 
ATOM     13  C   UNL     1      -8.045  10.403 -12.400  1.00  0.00     0.050 A 
ATOM     14  C   UNL     1      -9.812   8.860 -13.932  1.00  0.00     0.119 A 
ATOM     15  C   UNL     1      -9.378  10.812 -12.554  1.00  0.00     0.119 A 
ATOM     16  C   UNL     1     -10.257  10.041 -13.321  1.00  0.00     0.092 A 
BRANCH  14  17
ATOM     17  O   UNL     1     -10.683   8.083 -14.692  1.00  0.00    -0.508 OA
ATOM     18  H   UNL     1     -11.676   8.284 -14.732  1.00  0.00     0.293 HD
ENDBRANCH  14  17
BRANCH  15  19
ATOM     19  O   UNL     1      -9.837  11.978 -11.946  1.00  0.00    -0.508 OA
ATOM     20  H   UNL     1      -9.243  12.524 -11.333  1.00  0.00     0.293 HD
ENDBRANCH  15  19
ENDBRANCH  10  11
ENDBRANCH   1  10
TORSDOF 6
ENDMDL
MODEL 3
REMARK VINA RESULT:    -6.638      1.964      2.424
REMARK INTER + INTRA:          -9.166
REMARK INTER:                  -8.604
REMARK INTRA:                  -0.562
REMARK UNBOUND:                -0.782
REMARK SMILES Oc1cc(O)cc(CCc2ccccc2O)c1
REMARK SMILES IDX 9 1 10 2 12 3 13 4 11 5 14 6 15 7 16 8 8 10 7 11 6 12 17 13
REMARK SMILES IDX 4 14 2 15 3 16 5 17 1 19
REMARK H PARENT 16 9 5 18 1 20
REMARK Flexibility Score: inf
ROOT
ATOM      1  C   UNL     1      -6.463   8.946 -12.191  1.00  0.00     0.044 C 
ENDROOT
BRANCH   1   2
ATOM      2  C   UNL     1      -5.831   8.978 -13.559  1.00  0.00    -0.006 A 
ATOM      3  C   UNL     1      -5.899   8.358 -15.911  1.00  0.00     0.001 A 
ATOM      4  C   UNL     1      -4.651   8.954 -16.108  1.00  0.00     0.004 A 
ATOM      5  C   UNL     1      -6.485   8.364 -14.642  1.00  0.00     0.007 A 
ATOM      6  C   UNL     1      -3.985   9.553 -15.036  1.00  0.00     0.046 A 
ATOM      7  C   UNL     1      -4.564   9.564 -13.759  1.00  0.00     0.118 A 
BRANCH   7   8
ATOM      8  O   UNL     1      -3.887  10.152 -12.691  1.00  0.00    -0.508 OA
ATOM      9  H   UNL     1      -2.892  10.342 -12.734  1.00  0.00     0.293 HD
ENDBRANCH   7   8
ENDBRANCH   1   2
BRANCH   1  10
ATOM     10  C   UNL     1      -7.903   8.429 -12.274  1.00  0.00     0.040 C 
BRANCH  10  11
ATOM     11  C   UNL     1      -8.877   9.513 -11.899  1.00  0.00    -0.040 A 
ATOM     12  C   UNL     1      -8.564  10.424 -10.876  1.00  0.00     0.050 A 
ATOM     13  C   UNL     1     -10.081   9.660 -12.608  1.00  0.00     0.050 A 
ATOM     14  C   UNL     1      -9.452  11.453 -10.550  1.00  0.00     0.119 A 
ATOM     15  C   UNL     1     -10.974  10.690 -12.280  1.00  0.00     0.119 A 
ATOM     16  C   UNL     1     -10.659  11.582 -11.251  1.00  0.00     0.092 A 
BRANCH  14  17
ATOM     17  O   UNL     1      -9.127  12.343  -9.528  1.00  0.00    -0.508 OA
ATOM     18  H   UNL     1      -8.952  12.022  -8.582  1.00  0.00     0.293 HD
ENDBRANCH  14  17
BRANCH  15  19
ATOM     19  O   UNL     1     -12.173  10.836 -12.974  1.00  0.00    -0.508 OA
ATOM     20  H   UNL     1     -12.228  10.686 -13.974  1.00  0.00     0.293 HD
ENDBRANCH  15  19
ENDBRANCH  10  11
ENDBRANCH   1  10
TORSDOF 6
ENDMDL
MODEL 4
REMARK VINA RESULT:    -6.628      1.859      2.501
REMARK INTER + INTRA:          -9.154
REMARK INTER:                  -8.543
REMARK INTRA:                  -0.611
REMARK UNBOUND:                -0.782
REMARK SMILES Oc1cc(O)cc(CCc2ccccc2O)c1
REMARK SMILES IDX 9 1 10 2 12 3 13 4 11 5 14 6 15 7 16 8 8 10 7 11 6 12 17 13
REMARK SMILES IDX 4 14 2 15 3 16 5 17 1 19
REMARK H PARENT 16 9 5 18 1 20
REMARK Flexibility Score: inf
ROOT
ATOM      1  C   UNL     1      -7.586   7.565 -14.677  1.00  0.00     0.044 C 
ENDROOT
BRANCH   1   2
ATOM      2  C   UNL     1      -6.303   8.335 -14.867  1.00  0.00    -0.006 A 
ATOM      3  C   UNL     1      -4.472   9.027 -16.311  1.00  0.00     0.001 A 
ATOM      4  C   UNL     1      -3.876   9.698 -15.241  1.00  0.00     0.004 A 
ATOM      5  C   UNL     1      -5.677   8.344 -16.125  1.00  0.00     0.007 A 
ATOM      6  C   UNL     1      -4.481   9.683 -13.981  1.00  0.00     0.046 A 
ATOM      7  C   UNL     1      -5.690   9.000 -13.785  1.00  0.00     0.118 A 
BRANCH   7   8
ATOM      8  O   UNL     1      -6.281   8.978 -12.522  1.00  0.00    -0.508 OA
ATOM      9  H   UNL     1      -5.764   8.689 -11.699  1.00  0.00     0.293 HD
ENDBRANCH   7   8
ENDBRANCH   1   2
BRANCH   1  10
ATOM     10  C   UNL     1      -8.776   8.357 -15.228  1.00  0.00     0.040 C 
BRANCH  10  11
ATOM     11  C   UNL     1      -9.572   8.964 -14.104  1.00  0.00    -0.040 A 
ATOM     12  C   UNL     1      -9.270  10.255 -13.640  1.00  0.00     0.050 A 
ATOM     13  C   UNL     1     -10.660   8.269 -13.551  1.00  0.00     0.050 A 
ATOM     14  C   UNL     1     -10.030  10.836 -12.620  1.00  0.00     0.119 A 
ATOM     15  C   UNL     1     -11.422   8.849 -12.526  1.00  0.00     0.119 A 
ATOM     16  C   UNL     1     -11.104  10.129 -12.062  1.00  0.00     0.092 A 
BRANCH  14  17
ATOM     17  O   UNL     1      -9.710  12.114 -12.168  1.00  0.00    -0.508 OA
ATOM     18  H   UNL     1     -10.219  12.931 -12.487  1.00  0.00     0.293 HD
ENDBRANCH  14  17
BRANCH  15  19
ATOM     19  O   UNL     1     -12.497   8.162 -11.967  1.00  0.00    -0.508 OA
ATOM     20  H   UNL     1     -12.389   7.231 -11.583  1.00  0.00     0.293 HD
ENDBRANCH  15  19
ENDBRANCH  10  11
ENDBRANCH   1  10
TORSDOF 6
ENDMDL
MODEL 5
REMARK VINA RESULT:    -6.600      2.142      5.680
REMARK INTER + INTRA:          -9.118
REMARK INTER:                  -8.566
REMARK INTRA:                  -0.552
REMARK UNBOUND:                -0.782
REMARK SMILES Oc1cc(O)cc(CCc2ccccc2O)c1
REMARK SMILES IDX 9 1 10 2 12 3 13 4 11 5 14 6 15 7 16 8 8 10 7 11 6 12 17 13
REMARK SMILES IDX 4 14 2 15 3 16 5 17 1 19
REMARK H PARENT 16 9 5 18 1 20
REMARK Flexibility Score: inf
ROOT
ATOM      1  C   UNL     1      -7.742   8.823 -11.921  1.00  0.00     0.044 C 
ENDROOT
BRANCH   1   2
ATOM      2  C   UNL     1      -8.896   9.793 -11.935  1.00  0.00    -0.006 A 
ATOM      3  C   UNL     1     -10.935  10.604 -12.984  1.00  0.00     0.001 A 
ATOM      4  C   UNL     1     -11.022  11.626 -12.036  1.00  0.00     0.004 A 
ATOM      5  C   UNL     1      -9.875   9.694 -12.938  1.00  0.00     0.007 A 
ATOM      6  C   UNL     1     -10.045  11.743 -11.043  1.00  0.00     0.046 A 
ATOM      7  C   UNL     1      -8.978  10.836 -10.989  1.00  0.00     0.118 A 
BRANCH   7   8
ATOM      8  O   UNL     1      -7.999  10.968 -10.004  1.00  0.00    -0.508 OA
ATOM      9  H   UNL     1      -7.084  11.350 -10.213  1.00  0.00     0.293 HD
ENDBRANCH   7   8
ENDBRANCH   1   2
BRANCH   1  10
ATOM     10  C   UNL     1      -7.604   8.129 -13.279  1.00  0.00     0.040 C 
BRANCH  10  11
ATOM     11  C   UNL     1      -6.460   8.718 -14.061  1.00  0.00    -0.040 A 
ATOM     12  C   UNL     1      -6.189   8.271 -15.364  1.00  0.00     0.050 A 
ATOM     13  C   UNL     1      -5.691   9.758 -13.515  1.00  0.00     0.050 A 
ATOM     14  C   UNL     1      -5.149   8.840 -16.105  1.00  0.00     0.119 A 
ATOM     15  C   UNL     1      -4.646  10.329 -14.255  1.00  0.00     0.119 A 
ATOM     16  C   UNL     1      -4.376   9.868 -15.547  1.00  0.00     0.092 A 
BRANCH  14  17
ATOM     17  O   UNL     1      -4.891   8.379 -17.394  1.00  0.00    -0.508 OA
ATOM     18  H   UNL     1      -4.426   7.493 -17.557  1.00  0.00     0.293 HD
ENDBRANCH  14  17
BRANCH  15  19
ATOM     19  O   UNL     1      -3.875  11.357 -13.717  1.00  0.00    -0.508 OA
ATOM     20  H   UNL     1      -2.886  11.440 -13.921  1.00  0.00     0.293 HD
ENDBRANCH  15  19
ENDBRANCH  10  11
ENDBRANCH   1  10
TORSDOF 6
ENDMDL
MODEL 6
REMARK VINA RESULT:    -6.587      2.155      5.433
REMARK INTER + INTRA:          -9.101
REMARK INTER:                  -8.562
REMARK INTRA:                  -0.539
REMARK UNBOUND:                -0.782
REMARK SMILES Oc1cc(O)cc(CCc2ccccc2O)c1
REMARK SMILES IDX 9 1 10 2 12 3 13 4 11 5 14 6 15 7 16 8 8 10 7 11 6 12 17 13
REMARK SMILES IDX 4 14 2 15 3 16 5 17 1 19
REMARK H PARENT 16 9 5 18 1 20
REMARK Flexibility Score: inf
ROOT
ATOM      1  C   UNL     1      -7.855   9.033 -11.948  1.00  0.00     0.044 C 
ENDROOT
BRANCH   1   2
ATOM      2  C   UNL     1      -8.994  10.017 -11.880  1.00  0.00    -0.006 A 
ATOM      3  C   UNL     1     -10.874  11.121 -12.960  1.00  0.00     0.001 A 
ATOM      4  C   UNL     1     -11.084  11.893 -11.816  1.00  0.00     0.004 A 
ATOM      5  C   UNL     1      -9.831  10.191 -12.996  1.00  0.00     0.007 A 
ATOM      6  C   UNL     1     -10.248  11.741 -10.706  1.00  0.00     0.046 A 
ATOM      7  C   UNL     1      -9.200  10.811 -10.732  1.00  0.00     0.118 A 
BRANCH   7   8
ATOM      8  O   UNL     1      -8.361  10.673  -9.626  1.00  0.00    -0.508 OA
ATOM      9  H   UNL     1      -7.408  11.018  -9.637  1.00  0.00     0.293 HD
ENDBRANCH   7   8
ENDBRANCH   1   2
BRANCH   1  10
ATOM     10  C   UNL     1      -7.790   8.378 -13.332  1.00  0.00     0.040 C 
BRANCH  10  11
ATOM     11  C   UNL     1      -6.623   8.914 -14.116  1.00  0.00    -0.040 A 
ATOM     12  C   UNL     1      -5.790   9.901 -13.562  1.00  0.00     0.050 A 
ATOM     13  C   UNL     1      -6.322   8.392 -15.385  1.00  0.00     0.050 A 
ATOM     14  C   UNL     1      -4.685  10.376 -14.275  1.00  0.00     0.119 A 
ATOM     15  C   UNL     1      -5.215   8.868 -16.102  1.00  0.00     0.119 A 
ATOM     16  C   UNL     1      -4.401   9.860 -15.547  1.00  0.00     0.092 A 
BRANCH  14  17
ATOM     17  O   UNL     1      -3.875  11.359 -13.711  1.00  0.00    -0.508 OA
ATOM     18  H   UNL     1      -3.170  11.133 -13.019  1.00  0.00     0.293 HD
ENDBRANCH  14  17
BRANCH  15  19
ATOM     19  O   UNL     1      -4.916   8.359 -17.364  1.00  0.00    -0.508 OA
ATOM     20  H   UNL     1      -4.248   8.816 -17.974  1.00  0.00     0.293 HD
ENDBRANCH  15  19
ENDBRANCH  10  11
ENDBRANCH   1  10
TORSDOF 6
ENDMDL
MODEL 7
REMARK VINA RESULT:    -6.584      2.165      3.445
REMARK INTER + INTRA:          -9.097
REMARK INTER:                  -8.641
REMARK INTRA:                  -0.456
REMARK UNBOUND:                -0.782
REMARK SMILES Oc1cc(O)cc(CCc2ccccc2O)c1
REMARK SMILES IDX 9 1 10 2 12 3 13 4 11 5 14 6 15 7 16 8 8 10 7 11 6 12 17 13
REMARK SMILES IDX 4 14 2 15 3 16 5 17 1 19
REMARK H PARENT 16 9 5 18 1 20
REMARK Flexibility Score: inf
ROOT
ATOM      1  C   UNL     1      -8.410  10.672 -13.429  1.00  0.00     0.044 C 
ENDROOT
BRANCH   1   2
ATOM      2  C   UNL     1      -7.401  10.009 -14.332  1.00  0.00    -0.006 A 
ATOM      3  C   UNL     1      -6.511   7.984 -15.343  1.00  0.00     0.001 A 
ATOM      4  C   UNL     1      -5.497   8.727 -15.951  1.00  0.00     0.004 A 
ATOM      5  C   UNL     1      -7.456   8.619 -14.533  1.00  0.00     0.007 A 
ATOM      6  C   UNL     1      -5.423  10.107 -15.745  1.00  0.00     0.046 A 
ATOM      7  C   UNL     1      -6.366  10.754 -14.934  1.00  0.00     0.118 A 
BRANCH   7   8
ATOM      8  O   UNL     1      -6.277  12.130 -14.722  1.00  0.00    -0.508 OA
ATOM      9  H   UNL     1      -5.731  12.726 -15.333  1.00  0.00     0.293 HD
ENDBRANCH   7   8
ENDBRANCH   1   2
BRANCH   1  10
ATOM     10  C   UNL     1      -9.350   9.632 -12.814  1.00  0.00     0.040 C 
BRANCH  10  11
ATOM     11  C   UNL     1     -10.737  10.196 -12.660  1.00  0.00    -0.040 A 
ATOM     12  C   UNL     1     -11.828   9.342 -12.431  1.00  0.00     0.050 A 
ATOM     13  C   UNL     1     -10.942  11.585 -12.686  1.00  0.00     0.050 A 
ATOM     14  C   UNL     1     -13.112   9.866 -12.254  1.00  0.00     0.119 A 
ATOM     15  C   UNL     1     -12.229  12.113 -12.511  1.00  0.00     0.119 A 
ATOM     16  C   UNL     1     -13.311  11.253 -12.297  1.00  0.00     0.092 A 
BRANCH  14  17
ATOM     17  O   UNL     1     -14.183   9.002 -12.035  1.00  0.00    -0.508 OA
ATOM     18  H   UNL     1     -14.037   8.036 -11.767  1.00  0.00     0.293 HD
ENDBRANCH  14  17
BRANCH  15  19
ATOM     19  O   UNL     1     -12.442  13.490 -12.543  1.00  0.00    -0.508 OA
ATOM     20  H   UNL     1     -11.716  14.131 -12.840  1.00  0.00     0.293 HD
ENDBRANCH  15  19
ENDBRANCH  10  11
ENDBRANCH   1  10
TORSDOF 6
ENDMDL
MODEL 8
REMARK VINA RESULT:    -6.577      1.932      2.971
REMARK INTER + INTRA:          -9.088
REMARK INTER:                  -8.574
REMARK INTRA:                  -0.515
REMARK UNBOUND:                -0.782
REMARK SMILES Oc1cc(O)cc(CCc2ccccc2O)c1
REMARK SMILES IDX 9 1 10 2 12 3 13 4 11 5 14 6 15 7 16 8 8 10 7 11 6 12 17 13
REMARK SMILES IDX 4 14 2 15 3 16 5 17 1 19
REMARK H PARENT 16 9 5 18 1 20
REMARK Flexibility Score: inf
ROOT
ATOM      1  C   UNL     1      -6.777   8.758 -12.525  1.00  0.00     0.044 C 
ENDROOT
BRANCH   1   2
ATOM      2  C   UNL     1      -5.909   8.935 -13.744  1.00  0.00    -0.006 A 
ATOM      3  C   UNL     1      -5.492   8.489 -16.099  1.00  0.00     0.001 A 
ATOM      4  C   UNL     1      -4.283   9.182 -16.021  1.00  0.00     0.004 A 
ATOM      5  C   UNL     1      -6.300   8.360 -14.966  1.00  0.00     0.007 A 
ATOM      6  C   UNL     1      -3.875   9.744 -14.808  1.00  0.00     0.046 A 
ATOM      7  C   UNL     1      -4.679   9.620 -13.666  1.00  0.00     0.118 A 
BRANCH   7   8
ATOM      8  O   UNL     1      -4.259  10.171 -12.455  1.00  0.00    -0.508 OA
ATOM      9  H   UNL     1      -3.342   9.974 -12.072  1.00  0.00     0.293 HD
ENDBRANCH   7   8
ENDBRANCH   1   2
BRANCH   1  10
ATOM     10  C   UNL     1      -8.239   8.545 -12.930  1.00  0.00     0.040 C 
BRANCH  10  11
ATOM     11  C   UNL     1      -9.103   9.655 -12.394  1.00  0.00    -0.040 A 
ATOM     12  C   UNL     1     -10.368   9.900 -12.954  1.00  0.00     0.050 A 
ATOM     13  C   UNL     1      -8.677  10.416 -11.293  1.00  0.00     0.050 A 
ATOM     14  C   UNL     1     -11.187  10.908 -12.436  1.00  0.00     0.119 A 
ATOM     15  C   UNL     1      -9.496  11.428 -10.774  1.00  0.00     0.119 A 
ATOM     16  C   UNL     1     -10.748  11.673 -11.347  1.00  0.00     0.092 A 
BRANCH  14  17
ATOM     17  O   UNL     1     -12.436  11.141 -13.009  1.00  0.00    -0.508 OA
ATOM     18  H   UNL     1     -12.531  11.635 -13.889  1.00  0.00     0.293 HD
ENDBRANCH  14  17
BRANCH  15  19
ATOM     19  O   UNL     1      -9.077  12.192  -9.687  1.00  0.00    -0.508 OA
ATOM     20  H   UNL     1      -9.552  13.048  -9.425  1.00  0.00     0.293 HD
ENDBRANCH  15  19
ENDBRANCH  10  11
ENDBRANCH   1  10
TORSDOF 6
ENDMDL
MODEL 9
REMARK VINA RESULT:    -5.463      1.831      3.042
REMARK INTER + INTRA:          -7.681
REMARK INTER:                  -7.078
REMARK INTRA:                  -0.604
REMARK UNBOUND:                -0.782
REMARK SMILES Oc1cc(O)cc(CCc2ccccc2O)c1
REMARK SMILES IDX 9 1 10 2 12 3 13 4 11 5 14 6 15 7 16 8 8 10 7 11 6 12 17 13
REMARK SMILES IDX 4 14 2 15 3 16 5 17 1 19
REMARK H PARENT 16 9 5 18 1 20
REMARK Flexibility Score: inf
ROOT
ATOM      1  C   UNL     1      -7.499   7.595 -14.501  1.00  0.00     0.044 C 
ENDROOT
BRANCH   1   2
ATOM      2  C   UNL     1      -6.247   8.389 -14.775  1.00  0.00    -0.006 A 
ATOM      3  C   UNL     1      -4.497   9.071 -16.322  1.00  0.00     0.001 A 
ATOM      4  C   UNL     1      -3.875   9.797 -15.304  1.00  0.00     0.004 A 
ATOM      5  C   UNL     1      -5.674   8.365 -16.059  1.00  0.00     0.007 A 
ATOM      6  C   UNL     1      -4.426   9.816 -14.020  1.00  0.00     0.046 A 
ATOM      7  C   UNL     1      -5.606   9.111 -13.747  1.00  0.00     0.118 A 
BRANCH   7   8
ATOM      8  O   UNL     1      -6.142   9.122 -12.459  1.00  0.00    -0.508 OA
ATOM      9  H   UNL     1      -6.972   8.588 -12.225  1.00  0.00     0.293 HD
ENDBRANCH   7   8
ENDBRANCH   1   2
BRANCH   1  10
ATOM     10  C   UNL     1      -8.711   8.253 -15.168  1.00  0.00     0.040 C 
BRANCH  10  11
ATOM     11  C   UNL     1      -9.607   8.881 -14.134  1.00  0.00    -0.040 A 
ATOM     12  C   UNL     1     -10.706   8.170 -13.625  1.00  0.00     0.050 A 
ATOM     13  C   UNL     1      -9.318  10.159 -13.629  1.00  0.00     0.050 A 
ATOM     14  C   UNL     1     -11.521   8.738 -12.640  1.00  0.00     0.119 A 
ATOM     15  C   UNL     1     -10.134  10.731 -12.643  1.00  0.00     0.119 A 
ATOM     16  C   UNL     1     -11.234  10.020 -12.152  1.00  0.00     0.092 A 
BRANCH  14  17
ATOM     17  O   UNL     1     -12.610   8.020 -12.152  1.00  0.00    -0.508 OA
ATOM     18  H   UNL     1     -12.578   7.554 -11.253  1.00  0.00     0.293 HD
ENDBRANCH  14  17
BRANCH  15  19
ATOM     19  O   UNL     1      -9.858  12.001 -12.142  1.00  0.00    -0.508 OA
ATOM     20  H   UNL     1     -10.048  12.837 -12.683  1.00  0.00     0.293 HD
ENDBRANCH  15  19
ENDBRANCH  10  11
ENDBRANCH   1  10
TORSDOF 6
ENDMDL
