MODEL 1
REMARK VINA RESULT:    -5.148      0.000      0.000
REMARK INTER + INTRA:          -7.341
REMARK INTER:                  -6.953
REMARK INTRA:                  -0.388
REMARK UNBOUND:                -0.388
REMARK SMILES C=C1C(=O)O[C@H]2[C@@H]1CCC(C)=CCC[C@]1(C)O[C@@H]21
REMARK SMILES IDX 6 1 7 2 2 3 1 4 3 5 4 6 5 7 8 8 9 9 10 10 11 11 12 12 18 14
REMARK SMILES IDX 15 15 17 16 16 17 14 18 13 19
REMARK H PARENT
REMARK Flexibility Score: 70.00
ROOT
ATOM      1  C   UNL     1      -2.432   4.183 -19.666  1.00  0.00     0.216 C 
ATOM      2  C   UNL     1      -3.056   4.328 -21.119  1.00  0.00     0.070 C 
ATOM      3  C   UNL     1      -3.931   3.110 -21.185  1.00  0.00     0.037 C 
ATOM      4  C   UNL     1      -4.463   2.583 -22.287  1.00  0.00     0.021 C 
ATOM      5  C   UNL     1      -4.098   2.608 -19.840  1.00  0.00     0.334 C 
ATOM      6  O   UNL     1      -4.870   1.674 -19.497  1.00  0.00    -0.247 OA
ATOM      7  O   UNL     1      -3.298   3.301 -18.958  1.00  0.00    -0.455 OA
ENDROOT
BRANCH   2   8
ATOM      8  C   UNL     1      -3.950   5.595 -21.396  1.00  0.00     0.017 C 
BRANCH   8   9
ATOM      9  C   UNL     1      -3.249   6.744 -22.179  1.00  0.00     0.031 C 
BRANCH   9  10
ATOM     10  C   UNL     1      -3.484   8.139 -21.609  1.00  0.00    -0.077 C 
ATOM     11  C   UNL     1      -4.755   8.829 -22.050  1.00  0.00     0.039 C 
ATOM     12  C   UNL     1      -2.617   8.885 -20.851  1.00  0.00    -0.028 CG0
ATOM     13  G   UNL     1      -1.391   8.517 -20.005  1.00  0.00     0.000 G0
ENDBRANCH   9  10
ENDBRANCH   8   9
ENDBRANCH   2   8
BRANCH   1  14
ATOM     14  C   UNL     1      -2.308   5.515 -18.942  1.00  0.00     0.192 C 
ATOM     15  C   UNL     1      -1.378   6.520 -18.301  1.00  0.00     0.096 C 
ATOM     16  O   UNL     1      -1.082   5.971 -19.513  1.00  0.00    -0.362 OA
ATOM     17  C   UNL     1      -0.403   6.040 -17.232  1.00  0.00     0.045 C 
BRANCH  15  18
ATOM     18  C   UNL     1      -1.595   8.045 -18.538  1.00  0.00     0.042 C 
BRANCH  18  19
ATOM     19  C   UNL     1      -1.388   8.524 -20.002  1.00  0.00     0.030 CG0
ATOM     20  G   UNL     1      -2.615   8.891 -20.847  1.00  0.00     0.000 G0
ENDBRANCH  18  19
ENDBRANCH  15  18
ENDBRANCH   1  14
TORSDOF 0
ENDMDL
MODEL 2
REMARK VINA RESULT:    -4.860      1.688      2.413
REMARK INTER + INTRA:          -6.953
REMARK INTER:                  -7.380
REMARK INTRA:                   0.427
REMARK UNBOUND:                -0.388
REMARK SMILES C=C1C(=O)O[C@H]2[C@@H]1CCC(C)=CCC[C@]1(C)O[C@@H]21
REMARK SMILES IDX 6 1 7 2 2 3 1 4 3 5 4 6 5 7 8 8 9 9 10 10 11 11 12 12 18 14
REMARK SMILES IDX 15 15 17 16 16 17 14 18 13 19
REMARK H PARENT
REMARK Flexibility Score: 70.00
ROOT
ATOM      1  C   UNL     1      -2.828   5.042 -20.645  1.00  0.00     0.216 C 
ATOM      2  C   UNL     1      -3.464   4.488 -21.992  1.00  0.00     0.070 C 
ATOM      3  C   UNL     1      -4.065   3.196 -21.522  1.00  0.00     0.037 C 
ATOM      4  C   UNL     1      -4.472   2.190 -22.296  1.00  0.00     0.021 C 
ATOM      5  C   UNL     1      -4.128   3.232 -20.078  1.00  0.00     0.334 C 
ATOM      6  O   UNL     1      -4.689   2.374 -19.347  1.00  0.00    -0.247 OA
ATOM      7  O   UNL     1      -3.493   4.353 -19.591  1.00  0.00    -0.455 OA
ENDROOT
BRANCH   2   8
ATOM      8  C   UNL     1      -4.602   5.350 -22.658  1.00  0.00     0.017 C 
BRANCH   8   9
ATOM      9  C   UNL     1      -4.126   6.333 -23.768  1.00  0.00     0.031 C 
BRANCH   9  10
ATOM     10  C   UNL     1      -4.961   7.604 -23.894  1.00  0.00    -0.077 C 
ATOM     11  C   UNL     1      -5.744   7.757 -25.177  1.00  0.00     0.039 C 
ATOM     12  C   UNL     1      -4.979   8.675 -23.037  1.00  0.00    -0.028 CG0
ATOM     13  G   UNL     1      -4.560   8.844 -21.570  1.00  0.00     0.000 G0
ENDBRANCH   9  10
ENDBRANCH   8   9
ENDBRANCH   2   8
BRANCH   1  14
ATOM     14  C   UNL     1      -2.988   6.547 -20.494  1.00  0.00     0.192 C 
ATOM     15  C   UNL     1      -2.317   7.900 -20.566  1.00  0.00     0.096 C 
ATOM     16  O   UNL     1      -2.127   6.974 -21.548  1.00  0.00    -0.362 OA
ATOM     17  C   UNL     1      -1.034   8.126 -19.774  1.00  0.00     0.045 C 
BRANCH  15  18
ATOM     18  C   UNL     1      -3.059   9.104 -21.219  1.00  0.00     0.042 C 
BRANCH  18  19
ATOM     19  C   UNL     1      -4.556   8.855 -21.557  1.00  0.00     0.030 CG0
ATOM     20  G   UNL     1      -4.967   8.675 -23.025  1.00  0.00     0.000 G0
ENDBRANCH  18  19
ENDBRANCH  15  18
ENDBRANCH   1  14
TORSDOF 0
ENDMDL
MODEL 3
REMARK VINA RESULT:    -4.796      2.484      4.654
REMARK INTER + INTRA:          -6.866
REMARK INTER:                  -6.470
REMARK INTRA:                  -0.396
REMARK UNBOUND:                -0.388
REMARK SMILES C=C1C(=O)O[C@H]2[C@@H]1CCC(C)=CCC[C@]1(C)O[C@@H]21
REMARK SMILES IDX 6 1 7 2 2 3 1 4 3 5 4 6 5 7 8 8 9 9 10 10 11 11 12 12 18 14
REMARK SMILES IDX 15 15 17 16 16 17 14 18 13 19
REMARK H PARENT
REMARK Flexibility Score: 70.00
ROOT
ATOM      1  C   UNL     1      -1.519   6.729 -19.474  1.00  0.00     0.216 C 
ATOM      2  C   UNL     1      -1.144   5.188 -19.569  1.00  0.00     0.070 C 
ATOM      3  C   UNL     1      -0.570   4.941 -18.204  1.00  0.00     0.037 C 
ATOM      4  C   UNL     1       0.165   3.892 -17.839  1.00  0.00     0.021 C 
ATOM      5  C   UNL     1      -0.955   6.044 -17.352  1.00  0.00     0.334 C 
ATOM      6  O   UNL     1      -0.759   6.114 -16.111  1.00  0.00    -0.247 OA
ATOM      7  O   UNL     1      -1.588   7.026 -18.083  1.00  0.00    -0.455 OA
ENDROOT
BRANCH   2   8
ATOM      8  C   UNL     1      -2.327   4.173 -19.799  1.00  0.00     0.017 C 
BRANCH   8   9
ATOM      9  C   UNL     1      -2.487   3.660 -21.260  1.00  0.00     0.031 C 
BRANCH   9  10
ATOM     10  C   UNL     1      -3.918   3.679 -21.789  1.00  0.00    -0.077 C 
ATOM     11  C   UNL     1      -4.764   2.473 -21.454  1.00  0.00     0.039 C 
ATOM     12  C   UNL     1      -4.479   4.600 -22.638  1.00  0.00    -0.028 CG0
ATOM     13  G   UNL     1      -4.096   6.037 -23.016  1.00  0.00     0.000 G0
ENDBRANCH   9  10
ENDBRANCH   8   9
ENDBRANCH   2   8
BRANCH   1  14
ATOM     14  C   UNL     1      -2.834   7.060 -20.164  1.00  0.00     0.192 C 
ATOM     15  C   UNL     1      -3.528   7.878 -21.229  1.00  0.00     0.096 C 
ATOM     16  O   UNL     1      -2.353   7.241 -21.495  1.00  0.00    -0.362 OA
ATOM     17  C   UNL     1      -3.340   9.391 -21.230  1.00  0.00     0.045 C 
BRANCH  15  18
ATOM     18  C   UNL     1      -4.612   7.220 -22.134  1.00  0.00     0.042 C 
BRANCH  18  19
ATOM     19  C   UNL     1      -4.109   6.054 -23.030  1.00  0.00     0.030 CG0
ATOM     20  G   UNL     1      -4.467   4.612 -22.646  1.00  0.00     0.000 G0
ENDBRANCH  18  19
ENDBRANCH  15  18
ENDBRANCH   1  14
TORSDOF 0
ENDMDL
MODEL 4
REMARK VINA RESULT:    -4.749      1.856      3.930
REMARK INTER + INTRA:          -6.803
REMARK INTER:                  -6.419
REMARK INTRA:                  -0.384
REMARK UNBOUND:                -0.388
REMARK SMILES C=C1C(=O)O[C@H]2[C@@H]1CCC(C)=CCC[C@]1(C)O[C@@H]21
REMARK SMILES IDX 6 1 7 2 2 3 1 4 3 5 4 6 5 7 8 8 9 9 10 10 11 11 12 12 18 14
REMARK SMILES IDX 15 15 17 16 16 17 14 18 13 19
REMARK H PARENT
REMARK Flexibility Score: 70.00
ROOT
ATOM      1  C   UNL     1      -2.345   4.637 -20.264  1.00  0.00     0.216 C 
ATOM      2  C   UNL     1      -1.838   5.279 -18.902  1.00  0.00     0.070 C 
ATOM      3  C   UNL     1      -0.820   4.267 -18.463  1.00  0.00     0.037 C 
ATOM      4  C   UNL     1      -0.294   4.158 -17.243  1.00  0.00     0.021 C 
ATOM      5  C   UNL     1      -0.505   3.429 -19.598  1.00  0.00     0.334 C 
ATOM      6  O   UNL     1       0.399   2.554 -19.635  1.00  0.00    -0.247 OA
ATOM      7  O   UNL     1      -1.331   3.721 -20.662  1.00  0.00    -0.455 OA
ENDROOT
BRANCH   2   8
ATOM      8  C   UNL     1      -1.132   6.685 -18.988  1.00  0.00     0.017 C 
BRANCH   8   9
ATOM      9  C   UNL     1      -2.022   7.899 -18.589  1.00  0.00     0.031 C 
BRANCH   9  10
ATOM     10  C   UNL     1      -1.911   9.103 -19.520  1.00  0.00    -0.077 C 
ATOM     11  C   UNL     1      -0.761  10.046 -19.250  1.00  0.00     0.039 C 
ATOM     12  C   UNL     1      -2.805   9.493 -20.485  1.00  0.00    -0.028 CG0
ATOM     13  G   UNL     1      -3.922   8.752 -21.232  1.00  0.00     0.000 G0
ENDBRANCH   9  10
ENDBRANCH   8   9
ENDBRANCH   2   8
BRANCH   1  14
ATOM     14  C   UNL     1      -2.593   5.675 -21.348  1.00  0.00     0.192 C 
ATOM     15  C   UNL     1      -3.610   6.343 -22.245  1.00  0.00     0.096 C 
ATOM     16  O   UNL     1      -3.868   6.150 -20.921  1.00  0.00    -0.362 OA
ATOM     17  C   UNL     1      -4.512   5.470 -23.109  1.00  0.00     0.045 C 
BRANCH  15  18
ATOM     18  C   UNL     1      -3.554   7.884 -22.474  1.00  0.00     0.042 C 
BRANCH  18  19
ATOM     19  C   UNL     1      -3.925   8.751 -21.238  1.00  0.00     0.030 CG0
ATOM     20  G   UNL     1      -2.810   9.487 -20.484  1.00  0.00     0.000 G0
ENDBRANCH  18  19
ENDBRANCH  15  18
ENDBRANCH   1  14
TORSDOF 0
ENDMDL
MODEL 5
REMARK VINA RESULT:    -4.564      1.683      4.272
REMARK INTER + INTRA:          -6.553
REMARK INTER:                  -6.180
REMARK INTRA:                  -0.373
REMARK UNBOUND:                -0.388
REMARK SMILES C=C1C(=O)O[C@H]2[C@@H]1CCC(C)=CCC[C@]1(C)O[C@@H]21
REMARK SMILES IDX 6 1 7 2 2 3 1 4 3 5 4 6 5 7 8 8 9 9 10 10 11 11 12 12 18 14
REMARK SMILES IDX 15 15 17 16 16 17 14 18 13 19
REMARK H PARENT
REMARK Flexibility Score: 70.00
ROOT
ATOM      1  C   UNL     1      -2.000   4.758 -19.200  1.00  0.00     0.216 C 
ATOM      2  C   UNL     1      -2.129   6.053 -18.290  1.00  0.00     0.070 C 
ATOM      3  C   UNL     1      -0.955   5.884 -17.371  1.00  0.00     0.037 C 
ATOM      4  C   UNL     1      -0.753   6.533 -16.225  1.00  0.00     0.021 C 
ATOM      5  C   UNL     1      -0.076   4.892 -17.948  1.00  0.00     0.334 C 
ATOM      6  O   UNL     1       1.067   4.586 -17.517  1.00  0.00    -0.247 OA
ATOM      7  O   UNL     1      -0.653   4.319 -19.060  1.00  0.00    -0.455 OA
ENDROOT
BRANCH   2   8
ATOM      8  C   UNL     1      -1.999   7.451 -19.006  1.00  0.00     0.017 C 
BRANCH   8   9
ATOM      9  C   UNL     1      -3.346   8.182 -19.283  1.00  0.00     0.031 C 
BRANCH   9  10
ATOM     10  C   UNL     1      -3.454   8.814 -20.668  1.00  0.00    -0.077 C 
ATOM     11  C   UNL     1      -2.835  10.184 -20.821  1.00  0.00     0.039 C 
ATOM     12  C   UNL     1      -4.158   8.340 -21.746  1.00  0.00    -0.028 CG0
ATOM     13  G   UNL     1      -4.702   6.951 -22.106  1.00  0.00     0.000 G0
ENDBRANCH   9  10
ENDBRANCH   8   9
ENDBRANCH   2   8
BRANCH   1  14
ATOM     14  C   UNL     1      -2.332   5.027 -20.660  1.00  0.00     0.192 C 
ATOM     15  C   UNL     1      -3.273   4.750 -21.810  1.00  0.00     0.096 C 
ATOM     16  O   UNL     1      -3.757   5.041 -20.570  1.00  0.00    -0.362 OA
ATOM     17  C   UNL     1      -3.568   3.302 -22.185  1.00  0.00     0.045 C 
BRANCH  15  18
ATOM     18  C   UNL     1      -3.717   5.910 -22.751  1.00  0.00     0.042 C 
BRANCH  18  19
ATOM     19  C   UNL     1      -4.686   6.946 -22.113  1.00  0.00     0.030 CG0
ATOM     20  G   UNL     1      -4.150   8.334 -21.739  1.00  0.00     0.000 G0
ENDBRANCH  18  19
ENDBRANCH  15  18
ENDBRANCH   1  14
TORSDOF 0
ENDMDL
MODEL 6
REMARK VINA RESULT:    -4.437      2.756      4.584
REMARK INTER + INTRA:          -6.381
REMARK INTER:                  -5.996
REMARK INTRA:                  -0.385
REMARK UNBOUND:                -0.388
REMARK SMILES C=C1C(=O)O[C@H]2[C@@H]1CCC(C)=CCC[C@]1(C)O[C@@H]21
REMARK SMILES IDX 6 1 7 2 2 3 1 4 3 5 4 6 5 7 8 8 9 9 10 10 11 11 12 12 18 14
REMARK SMILES IDX 15 15 17 16 16 17 14 18 13 19
REMARK H PARENT
REMARK Flexibility Score: 70.00
ROOT
ATOM      1  C   UNL     1      -3.304   6.930 -19.574  1.00  0.00     0.216 C 
ATOM      2  C   UNL     1      -3.203   5.673 -20.540  1.00  0.00     0.070 C 
ATOM      3  C   UNL     1      -3.744   6.242 -21.819  1.00  0.00     0.037 C 
ATOM      4  C   UNL     1      -4.154   5.546 -22.879  1.00  0.00     0.021 C 
ATOM      5  C   UNL     1      -3.742   7.683 -21.702  1.00  0.00     0.334 C 
ATOM      6  O   UNL     1      -4.009   8.494 -22.627  1.00  0.00    -0.247 OA
ATOM      7  O   UNL     1      -3.392   8.067 -20.426  1.00  0.00    -0.455 OA
ENDROOT
BRANCH   2   8
ATOM      8  C   UNL     1      -1.765   5.097 -20.825  1.00  0.00     0.017 C 
BRANCH   8   9
ATOM      9  C   UNL     1      -1.393   3.815 -20.024  1.00  0.00     0.031 C 
BRANCH   9  10
ATOM     10  C   UNL     1       0.013   3.820 -19.431  1.00  0.00    -0.077 C 
ATOM     11  C   UNL     1       1.124   3.379 -20.356  1.00  0.00     0.039 C 
ATOM     12  C   UNL     1       0.365   4.052 -18.125  1.00  0.00    -0.028 CG0
ATOM     13  G   UNL     1      -0.358   4.739 -16.958  1.00  0.00     0.000 G0
ENDBRANCH   9  10
ENDBRANCH   8   9
ENDBRANCH   2   8
BRANCH   1  14
ATOM     14  C   UNL     1      -2.113   7.048 -18.635  1.00  0.00     0.192 C 
ATOM     15  C   UNL     1      -1.630   7.026 -17.202  1.00  0.00     0.096 C 
ATOM     16  O   UNL     1      -2.495   6.077 -17.661  1.00  0.00    -0.362 OA
ATOM     17  C   UNL     1      -2.309   7.936 -16.185  1.00  0.00     0.045 C 
BRANCH  15  18
ATOM     18  C   UNL     1      -0.306   6.290 -16.838  1.00  0.00     0.042 C 
BRANCH  18  19
ATOM     19  C   UNL     1      -0.355   4.741 -16.954  1.00  0.00     0.030 CG0
ATOM     20  G   UNL     1       0.378   4.058 -18.116  1.00  0.00     0.000 G0
ENDBRANCH  18  19
ENDBRANCH  15  18
ENDBRANCH   1  14
TORSDOF 0
ENDMDL
MODEL 7
REMARK VINA RESULT:    -4.396      2.573      5.847
REMARK INTER + INTRA:          -6.326
REMARK INTER:                  -6.115
REMARK INTRA:                  -0.211
REMARK UNBOUND:                -0.388
REMARK SMILES C=C1C(=O)O[C@H]2[C@@H]1CCC(C)=CCC[C@]1(C)O[C@@H]21
REMARK SMILES IDX 6 1 7 2 2 3 1 4 3 5 4 6 5 7 8 8 9 9 10 10 11 11 12 12 18 14
REMARK SMILES IDX 15 15 17 16 16 17 14 18 13 19
REMARK H PARENT
REMARK Flexibility Score: 70.00
ROOT
ATOM      1  C   UNL     1      -2.361   7.472 -21.217  1.00  0.00     0.216 C 
ATOM      2  C   UNL     1      -1.435   7.788 -19.966  1.00  0.00     0.070 C 
ATOM      3  C   UNL     1      -1.534   9.284 -19.899  1.00  0.00     0.037 C 
ATOM      4  C   UNL     1      -0.726  10.096 -19.217  1.00  0.00     0.021 C 
ATOM      5  C   UNL     1      -2.661   9.694 -20.705  1.00  0.00     0.334 C 
ATOM      6  O   UNL     1      -3.122  10.863 -20.781  1.00  0.00    -0.247 OA
ATOM      7  O   UNL     1      -3.189   8.618 -21.386  1.00  0.00    -0.455 OA
ENDROOT
BRANCH   2   8
ATOM      8  C   UNL     1      -1.881   7.200 -18.574  1.00  0.00     0.017 C 
BRANCH   8   9
ATOM      9  C   UNL     1      -1.163   5.886 -18.148  1.00  0.00     0.031 C 
BRANCH   9  10
ATOM     10  C   UNL     1      -2.098   4.764 -17.706  1.00  0.00    -0.077 C 
ATOM     11  C   UNL     1      -2.540   4.801 -16.261  1.00  0.00     0.039 C 
ATOM     12  C   UNL     1      -2.476   3.662 -18.430  1.00  0.00    -0.028 CG0
ATOM     13  G   UNL     1      -2.471   3.351 -19.933  1.00  0.00     0.000 G0
ENDBRANCH   9  10
ENDBRANCH   8   9
ENDBRANCH   2   8
BRANCH   1  14
ATOM     14  C   UNL     1      -3.203   6.220 -21.026  1.00  0.00     0.192 C 
ATOM     15  C   UNL     1      -3.702   4.931 -21.639  1.00  0.00     0.096 C 
ATOM     16  O   UNL     1      -2.391   5.289 -21.741  1.00  0.00    -0.362 OA
ATOM     17  C   UNL     1      -4.389   4.982 -22.998  1.00  0.00     0.045 C 
BRANCH  15  18
ATOM     18  C   UNL     1      -3.748   3.629 -20.783  1.00  0.00     0.042 C 
BRANCH  18  19
ATOM     19  C   UNL     1      -2.468   3.337 -19.951  1.00  0.00     0.030 CG0
ATOM     20  G   UNL     1      -2.467   3.658 -18.451  1.00  0.00     0.000 G0
ENDBRANCH  18  19
ENDBRANCH  15  18
ENDBRANCH   1  14
TORSDOF 0
ENDMDL
MODEL 8
REMARK VINA RESULT:    -4.388      1.984      3.967
REMARK INTER + INTRA:          -6.315
REMARK INTER:                  -5.932
REMARK INTRA:                  -0.383
REMARK UNBOUND:                -0.388
REMARK SMILES C=C1C(=O)O[C@H]2[C@@H]1CCC(C)=CCC[C@]1(C)O[C@@H]21
REMARK SMILES IDX 6 1 7 2 2 3 1 4 3 5 4 6 5 7 8 8 9 9 10 10 11 11 12 12 18 14
REMARK SMILES IDX 15 15 17 16 16 17 14 18 13 19
REMARK H PARENT
REMARK Flexibility Score: 70.00
ROOT
ATOM      1  C   UNL     1      -3.549   5.703 -20.101  1.00  0.00     0.216 C 
ATOM      2  C   UNL     1      -3.461   4.573 -18.988  1.00  0.00     0.070 C 
ATOM      3  C   UNL     1      -3.757   3.343 -19.795  1.00  0.00     0.037 C 
ATOM      4  C   UNL     1      -4.097   2.148 -19.313  1.00  0.00     0.021 C 
ATOM      5  C   UNL     1      -3.609   3.680 -21.193  1.00  0.00     0.334 C 
ATOM      6  O   UNL     1      -3.656   2.866 -22.153  1.00  0.00    -0.247 OA
ATOM      7  O   UNL     1      -3.393   5.032 -21.347  1.00  0.00    -0.455 OA
ENDROOT
BRANCH   2   8
ATOM      8  C   UNL     1      -2.072   4.372 -18.273  1.00  0.00     0.017 C 
BRANCH   8   9
ATOM      9  C   UNL     1      -1.953   5.017 -16.861  1.00  0.00     0.031 C 
BRANCH   9  10
ATOM     10  C   UNL     1      -0.665   5.800 -16.625  1.00  0.00    -0.077 C 
ATOM     11  C   UNL     1       0.534   4.989 -16.190  1.00  0.00     0.039 C 
ATOM     12  C   UNL     1      -0.506   7.163 -16.636  1.00  0.00    -0.028 CG0
ATOM     13  G   UNL     1      -1.339   8.304 -17.235  1.00  0.00     0.000 G0
ENDBRANCH   9  10
ENDBRANCH   8   9
ENDBRANCH   2   8
BRANCH   1  14
ATOM     14  C   UNL     1      -2.489   6.781 -19.930  1.00  0.00     0.192 C 
ATOM     15  C   UNL     1      -2.210   8.251 -19.714  1.00  0.00     0.096 C 
ATOM     16  O   UNL     1      -3.156   7.606 -18.975  1.00  0.00    -0.362 OA
ATOM     17  C   UNL     1      -2.851   9.266 -20.654  1.00  0.00     0.045 C 
BRANCH  15  18
ATOM     18  C   UNL     1      -1.091   8.695 -18.725  1.00  0.00     0.042 C 
BRANCH  18  19
ATOM     19  C   UNL     1      -1.327   8.305 -17.239  1.00  0.00     0.030 CG0
ATOM     20  G   UNL     1      -0.515   7.152 -16.633  1.00  0.00     0.000 G0
ENDBRANCH  18  19
ENDBRANCH  15  18
ENDBRANCH   1  14
TORSDOF 0
ENDMDL
MODEL 9
REMARK VINA RESULT:    -4.379      2.744      5.302
REMARK INTER + INTRA:          -6.303
REMARK INTER:                  -6.103
REMARK INTRA:                  -0.200
REMARK UNBOUND:                -0.388
REMARK SMILES C=C1C(=O)O[C@H]2[C@@H]1CCC(C)=CCC[C@]1(C)O[C@@H]21
REMARK SMILES IDX 6 1 7 2 2 3 1 4 3 5 4 6 5 7 8 8 9 9 10 10 11 11 12 12 18 14
REMARK SMILES IDX 15 15 17 16 16 17 14 18 13 19
REMARK H PARENT
REMARK Flexibility Score: 70.00
ROOT
ATOM      1  C   UNL     1      -3.355   6.442 -21.732  1.00  0.00     0.216 C 
ATOM      2  C   UNL     1      -2.957   7.606 -20.728  1.00  0.00     0.070 C 
ATOM      3  C   UNL     1      -3.601   8.792 -21.384  1.00  0.00     0.037 C 
ATOM      4  C   UNL     1      -3.342  10.073 -21.122  1.00  0.00     0.021 C 
ATOM      5  C   UNL     1      -4.555   8.303 -22.353  1.00  0.00     0.334 C 
ATOM      6  O   UNL     1      -5.370   9.010 -23.002  1.00  0.00    -0.247 OA
ATOM      7  O   UNL     1      -4.468   6.933 -22.473  1.00  0.00    -0.455 OA
ENDROOT
BRANCH   2   8
ATOM      8  C   UNL     1      -3.500   7.501 -19.253  1.00  0.00     0.017 C 
BRANCH   8   9
ATOM      9  C   UNL     1      -2.494   6.925 -18.214  1.00  0.00     0.031 C 
BRANCH   9  10
ATOM     10  C   UNL     1      -3.045   5.791 -17.355  1.00  0.00    -0.077 C 
ATOM     11  C   UNL     1      -3.838   6.207 -16.138  1.00  0.00     0.039 C 
ATOM     12  C   UNL     1      -2.793   4.449 -17.488  1.00  0.00    -0.028 CG0
ATOM     13  G   UNL     1      -2.277   3.596 -18.655  1.00  0.00     0.000 G0
ENDBRANCH   9  10
ENDBRANCH   8   9
ENDBRANCH   2   8
BRANCH   1  14
ATOM     14  C   UNL     1      -3.709   5.145 -21.021  1.00  0.00     0.192 C 
ATOM     15  C   UNL     1      -3.534   3.644 -20.975  1.00  0.00     0.096 C 
ATOM     16  O   UNL     1      -2.461   4.465 -21.153  1.00  0.00    -0.362 OA
ATOM     17  C   UNL     1      -3.816   2.833 -22.235  1.00  0.00     0.045 C 
BRANCH  15  18
ATOM     18  C   UNL     1      -3.329   2.925 -19.607  1.00  0.00     0.042 C 
BRANCH  18  19
ATOM     19  C   UNL     1      -2.295   3.591 -18.657  1.00  0.00     0.030 CG0
ATOM     20  G   UNL     1      -2.801   4.456 -17.495  1.00  0.00     0.000 G0
ENDBRANCH  18  19
ENDBRANCH  15  18
ENDBRANCH   1  14
TORSDOF 0
ENDMDL
