MODEL 1
REMARK VINA RESULT:    -3.672      0.000      0.000
REMARK INTER + INTRA:          -4.666
REMARK INTER:                  -4.530
REMARK INTRA:                  -0.135
REMARK UNBOUND:                -0.135
REMARK SMILES CCCCCC(=O)[O-]
REMARK SMILES IDX 4 1 5 2 6 3 7 4 8 5 3 6 2 7 1 8
REMARK H PARENT
REMARK Flexibility Score: inf
ROOT
ATOM      1  C   UNL     1      26.378  -8.077  -0.995  1.00  0.00     0.006 C 
ENDROOT
BRANCH   1   2
ATOM      2  C   UNL     1      26.436  -7.534   0.443  1.00  0.00     0.053 C 
BRANCH   2   3
ATOM      3  C   UNL     1      25.916  -8.526   1.438  1.00  0.00     0.041 C 
ATOM      4  O   UNL     1      26.709  -9.125   2.210  1.00  0.00    -0.550 OA
ATOM      5  O   UNL     1      24.550  -8.762   1.537  1.00  0.00    -0.550 OA
ENDBRANCH   2   3
ENDBRANCH   1   2
BRANCH   1   6
ATOM      6  C   UNL     1      27.558  -8.990  -1.382  1.00  0.00     0.000 C 
BRANCH   6   7
ATOM      7  C   UNL     1      28.505  -8.409  -2.447  1.00  0.00    -0.003 C 
ATOM      8  C   UNL     1      27.896  -7.234  -3.209  1.00  0.00     0.004 C 
ENDBRANCH   6   7
ENDBRANCH   1   6
TORSDOF 4
ENDMDL
MODEL 2
REMARK VINA RESULT:    -3.659      0.075      1.146
REMARK INTER + INTRA:          -4.650
REMARK INTER:                  -4.514
REMARK INTRA:                  -0.136
REMARK UNBOUND:                -0.135
REMARK SMILES CCCCCC(=O)[O-]
REMARK SMILES IDX 4 1 5 2 6 3 7 4 8 5 3 6 2 7 1 8
REMARK H PARENT
REMARK Flexibility Score: inf
ROOT
ATOM      1  C   UNL     1      26.335  -8.121  -1.004  1.00  0.00     0.006 C 
ENDROOT
BRANCH   1   2
ATOM      2  C   UNL     1      26.399  -7.532   0.415  1.00  0.00     0.053 C 
BRANCH   2   3
ATOM      3  C   UNL     1      25.859  -8.482   1.440  1.00  0.00     0.041 C 
ATOM      4  O   UNL     1      24.626  -8.734   1.484  1.00  0.00    -0.550 OA
ATOM      5  O   UNL     1      26.722  -9.114   2.325  1.00  0.00    -0.550 OA
ENDBRANCH   2   3
ENDBRANCH   1   2
BRANCH   1   6
ATOM      6  C   UNL     1      27.544  -8.997  -1.388  1.00  0.00     0.000 C 
BRANCH   6   7
ATOM      7  C   UNL     1      28.531  -8.346  -2.373  1.00  0.00    -0.003 C 
ATOM      8  C   UNL     1      27.892  -7.246  -3.219  1.00  0.00     0.004 C 
ENDBRANCH   6   7
ENDBRANCH   1   6
TORSDOF 4
ENDMDL
MODEL 3
REMARK VINA RESULT:    -3.649      0.951      1.246
REMARK INTER + INTRA:          -4.638
REMARK INTER:                  -4.491
REMARK INTRA:                  -0.147
REMARK UNBOUND:                -0.135
REMARK SMILES CCCCCC(=O)[O-]
REMARK SMILES IDX 4 1 5 2 6 3 7 4 8 5 3 6 2 7 1 8
REMARK H PARENT
REMARK Flexibility Score: inf
ROOT
ATOM      1  C   UNL     1      26.236  -8.013  -1.129  1.00  0.00     0.006 C 
ENDROOT
BRANCH   1   2
ATOM      2  C   UNL     1      25.486  -8.215   0.198  1.00  0.00     0.053 C 
BRANCH   2   3
ATOM      3  C   UNL     1      26.384  -8.035   1.383  1.00  0.00     0.041 C 
ATOM      4  O   UNL     1      26.826  -6.894   1.676  1.00  0.00    -0.550 OA
ATOM      5  O   UNL     1      26.705  -9.123   2.184  1.00  0.00    -0.550 OA
ENDBRANCH   2   3
ENDBRANCH   1   2
BRANCH   1   6
ATOM      6  C   UNL     1      27.497  -8.885  -1.290  1.00  0.00     0.000 C 
BRANCH   6   7
ATOM      7  C   UNL     1      28.453  -8.442  -2.412  1.00  0.00    -0.003 C 
ATOM      8  C   UNL     1      27.924  -7.253  -3.212  1.00  0.00     0.004 C 
ENDBRANCH   6   7
ENDBRANCH   1   6
TORSDOF 4
ENDMDL
MODEL 4
REMARK VINA RESULT:    -3.615      1.057      1.248
REMARK INTER + INTRA:          -4.595
REMARK INTER:                  -4.446
REMARK INTRA:                  -0.150
REMARK UNBOUND:                -0.135
REMARK SMILES CCCCCC(=O)[O-]
REMARK SMILES IDX 4 1 5 2 6 3 7 4 8 5 3 6 2 7 1 8
REMARK H PARENT
REMARK Flexibility Score: inf
ROOT
ATOM      1  C   UNL     1      26.180  -8.084  -1.176  1.00  0.00     0.006 C 
ENDROOT
BRANCH   1   2
ATOM      2  C   UNL     1      25.457  -8.191   0.177  1.00  0.00     0.053 C 
BRANCH   2   3
ATOM      3  C   UNL     1      26.377  -7.918   1.327  1.00  0.00     0.041 C 
ATOM      4  O   UNL     1      26.655  -8.831   2.147  1.00  0.00    -0.550 OA
ATOM      5  O   UNL     1      26.955  -6.663   1.473  1.00  0.00    -0.550 OA
ENDBRANCH   2   3
ENDBRANCH   1   2
BRANCH   1   6
ATOM      6  C   UNL     1      27.470  -8.922  -1.280  1.00  0.00     0.000 C 
BRANCH   6   7
ATOM      7  C   UNL     1      28.484  -8.426  -2.327  1.00  0.00    -0.003 C 
ATOM      8  C   UNL     1      27.968  -7.241  -3.141  1.00  0.00     0.004 C 
ENDBRANCH   6   7
ENDBRANCH   1   6
TORSDOF 4
ENDMDL
MODEL 5
REMARK VINA RESULT:    -3.476      1.637      1.729
REMARK INTER + INTRA:          -4.424
REMARK INTER:                  -4.293
REMARK INTRA:                  -0.131
REMARK UNBOUND:                -0.135
REMARK SMILES CCCCCC(=O)[O-]
REMARK SMILES IDX 4 1 5 2 6 3 7 4 8 5 3 6 2 7 1 8
REMARK H PARENT
REMARK Flexibility Score: inf
ROOT
ATOM      1  C   UNL     1      26.338  -8.396  -1.135  1.00  0.00     0.006 C 
ENDROOT
BRANCH   1   2
ATOM      2  C   UNL     1      25.862  -8.173   0.310  1.00  0.00     0.053 C 
BRANCH   2   3
ATOM      3  C   UNL     1      25.797  -6.718   0.660  1.00  0.00     0.041 C 
ATOM      4  O   UNL     1      26.855  -6.064   0.850  1.00  0.00    -0.550 OA
ATOM      5  O   UNL     1      24.568  -6.077   0.742  1.00  0.00    -0.550 OA
ENDBRANCH   2   3
ENDBRANCH   1   2
BRANCH   1   6
ATOM      6  C   UNL     1      27.773  -8.946  -1.258  1.00  0.00     0.000 C 
BRANCH   6   7
ATOM      7  C   UNL     1      28.560  -8.436  -2.479  1.00  0.00    -0.003 C 
ATOM      8  C   UNL     1      27.913  -7.221  -3.141  1.00  0.00     0.004 C 
ENDBRANCH   6   7
ENDBRANCH   1   6
TORSDOF 4
ENDMDL
MODEL 6
REMARK VINA RESULT:    -3.230     14.347     15.056
REMARK INTER + INTRA:          -4.121
REMARK INTER:                  -3.999
REMARK INTRA:                  -0.121
REMARK UNBOUND:                -0.135
REMARK SMILES CCCCCC(=O)[O-]
REMARK SMILES IDX 4 1 5 2 6 3 7 4 8 5 3 6 2 7 1 8
REMARK H PARENT
REMARK Flexibility Score: inf
ROOT
ATOM      1  C   UNL     1      28.065   3.095 -10.591  1.00  0.00     0.006 C 
ENDROOT
BRANCH   1   2
ATOM      2  C   UNL     1      27.128   4.009  -9.785  1.00  0.00     0.053 C 
BRANCH   2   3
ATOM      3  C   UNL     1      26.935   3.519  -8.383  1.00  0.00     0.041 C 
ATOM      4  O   UNL     1      27.906   3.045  -7.738  1.00  0.00    -0.550 OA
ATOM      5  O   UNL     1      25.689   3.618  -7.777  1.00  0.00    -0.550 OA
ENDBRANCH   2   3
ENDBRANCH   1   2
BRANCH   1   6
ATOM      6  C   UNL     1      29.411   3.740 -10.977  1.00  0.00     0.000 C 
BRANCH   6   7
ATOM      7  C   UNL     1      30.501   3.667  -9.892  1.00  0.00    -0.003 C 
ATOM      8  C   UNL     1      31.589   2.642 -10.207  1.00  0.00     0.004 C 
ENDBRANCH   6   7
ENDBRANCH   1   6
TORSDOF 4
ENDMDL
MODEL 7
REMARK VINA RESULT:    -3.101     18.925     20.140
REMARK INTER + INTRA:          -3.961
REMARK INTER:                  -3.853
REMARK INTRA:                  -0.108
REMARK UNBOUND:                -0.135
REMARK SMILES CCCCCC(=O)[O-]
REMARK SMILES IDX 4 1 5 2 6 3 7 4 8 5 3 6 2 7 1 8
REMARK H PARENT
REMARK Flexibility Score: inf
ROOT
ATOM      1  C   UNL     1      19.313   8.731   6.485  1.00  0.00     0.006 C 
ENDROOT
BRANCH   1   2
ATOM      2  C   UNL     1      18.861   7.856   5.304  1.00  0.00     0.053 C 
BRANCH   2   3
ATOM      3  C   UNL     1      17.628   7.070   5.628  1.00  0.00     0.041 C 
ATOM      4  O   UNL     1      16.764   7.541   6.412  1.00  0.00    -0.550 OA
ATOM      5  O   UNL     1      17.416   5.832   5.035  1.00  0.00    -0.550 OA
ENDBRANCH   2   3
ENDBRANCH   1   2
BRANCH   1   6
ATOM      6  C   UNL     1      19.226  10.248   6.226  1.00  0.00     0.000 C 
BRANCH   6   7
ATOM      7  C   UNL     1      19.969  11.125   7.250  1.00  0.00    -0.003 C 
ATOM      8  C   UNL     1      20.682  10.310   8.327  1.00  0.00     0.004 C 
ENDBRANCH   6   7
ENDBRANCH   1   6
TORSDOF 4
ENDMDL
MODEL 8
REMARK VINA RESULT:    -3.074     19.126     20.033
REMARK INTER + INTRA:          -3.928
REMARK INTER:                  -3.703
REMARK INTRA:                  -0.224
REMARK UNBOUND:                -0.135
REMARK SMILES CCCCCC(=O)[O-]
REMARK SMILES IDX 4 1 5 2 6 3 7 4 8 5 3 6 2 7 1 8
REMARK H PARENT
REMARK Flexibility Score: inf
ROOT
ATOM      1  C   UNL     1      17.994   6.890   7.324  1.00  0.00     0.006 C 
ENDROOT
BRANCH   1   2
ATOM      2  C   UNL     1      16.650   6.976   6.581  1.00  0.00     0.053 C 
BRANCH   2   3
ATOM      3  C   UNL     1      16.532   8.236   5.780  1.00  0.00     0.041 C 
ATOM      4  O   UNL     1      16.425   8.182   4.527  1.00  0.00    -0.550 OA
ATOM      5  O   UNL     1      16.505   9.468   6.420  1.00  0.00    -0.550 OA
ENDBRANCH   2   3
ENDBRANCH   1   2
BRANCH   1   6
ATOM      6  C   UNL     1      19.223   7.259   6.468  1.00  0.00     0.000 C 
BRANCH   6   7
ATOM      7  C   UNL     1      20.280   8.115   7.187  1.00  0.00    -0.003 C 
ATOM      8  C   UNL     1      19.941   9.605   7.189  1.00  0.00     0.004 C 
ENDBRANCH   6   7
ENDBRANCH   1   6
TORSDOF 4
ENDMDL
MODEL 9
REMARK VINA RESULT:    -3.003     19.357     20.528
REMARK INTER + INTRA:          -3.840
REMARK INTER:                  -3.647
REMARK INTRA:                  -0.193
REMARK UNBOUND:                -0.135
REMARK SMILES CCCCCC(=O)[O-]
REMARK SMILES IDX 4 1 5 2 6 3 7 4 8 5 3 6 2 7 1 8
REMARK H PARENT
REMARK Flexibility Score: inf
ROOT
ATOM      1  C   UNL     1      16.358   8.783   5.245  1.00  0.00     0.006 C 
ENDROOT
BRANCH   1   2
ATOM      2  C   UNL     1      17.111   9.843   6.067  1.00  0.00     0.053 C 
BRANCH   2   3
ATOM      3  C   UNL     1      18.522  10.020   5.596  1.00  0.00     0.041 C 
ATOM      4  O   UNL     1      18.756  10.354   4.406  1.00  0.00    -0.550 OA
ATOM      5  O   UNL     1      19.577   9.850   6.483  1.00  0.00    -0.550 OA
ENDBRANCH   2   3
ENDBRANCH   1   2
BRANCH   1   6
ATOM      6  C   UNL     1      16.181   7.428   5.958  1.00  0.00     0.000 C 
BRANCH   6   7
ATOM      7  C   UNL     1      17.444   6.550   6.005  1.00  0.00    -0.003 C 
ATOM      8  C   UNL     1      18.107   6.532   7.382  1.00  0.00     0.004 C 
ENDBRANCH   6   7
ENDBRANCH   1   6
TORSDOF 4
ENDMDL
