MODEL 1
REMARK VINA RESULT:    -3.181      0.000      0.000
REMARK INTER + INTRA:          -3.274
REMARK INTER:                  -3.274
REMARK INTRA:                   0.000
REMARK UNBOUND:                 0.000
REMARK SMILES Nc1ncnc2nc[nH]c12
REMARK SMILES IDX 8 1 7 2 6 3 5 4 4 5 3 6 2 7 10 8 9 9 1 11
REMARK H PARENT 9 10 1 12 1 13
REMARK Flexibility Score: inf
ROOT
ATOM      1  C   UNL     1      49.093  31.454  69.524  1.00  0.00     0.199 A 
ATOM      2  N   UNL     1      48.730  32.096  70.668  1.00  0.00    -0.217 NA
ATOM      3  C   UNL     1      48.606  33.368  70.255  1.00  0.00     0.182 A 
ATOM      4  N   UNL     1      48.257  34.434  71.014  1.00  0.00    -0.215 NA
ATOM      5  C   UNL     1      48.182  35.659  70.411  1.00  0.00     0.226 A 
ATOM      6  N   UNL     1      48.455  35.794  69.073  1.00  0.00    -0.217 NA
ATOM      7  C   UNL     1      48.807  34.719  68.305  1.00  0.00     0.152 A 
ATOM      8  C   UNL     1      48.879  33.480  68.934  1.00  0.00     0.127 A 
ATOM      9  N   UNL     1      49.192  32.273  68.446  1.00  0.00    -0.340 N 
ATOM     10  H   UNL     1      49.453  32.010  67.471  1.00  0.00     0.168 HD
ENDROOT
BRANCH   7  11
ATOM     11  N   UNL     1      49.087  34.883  66.915  1.00  0.00    -0.382 N 
ATOM     12  H   UNL     1      48.655  35.655  66.360  1.00  0.00     0.158 HD
ATOM     13  H   UNL     1      49.736  34.224  66.431  1.00  0.00     0.158 HD
ENDBRANCH   7  11
TORSDOF 1
ENDMDL
MODEL 2
REMARK VINA RESULT:    -3.045      2.302      3.413
REMARK INTER + INTRA:          -3.135
REMARK INTER:                  -3.135
REMARK INTRA:                   0.000
REMARK UNBOUND:                 0.000
REMARK SMILES Nc1ncnc2nc[nH]c12
REMARK SMILES IDX 8 1 7 2 6 3 5 4 4 5 3 6 2 7 10 8 9 9 1 11
REMARK H PARENT 9 10 1 12 1 13
REMARK Flexibility Score: inf
ROOT
ATOM      1  C   UNL     1      47.688  28.661  69.024  1.00  0.00     0.199 A 
ATOM      2  N   UNL     1      47.753  28.673  70.384  1.00  0.00    -0.217 NA
ATOM      3  C   UNL     1      48.203  29.913  70.638  1.00  0.00     0.182 A 
ATOM      4  N   UNL     1      48.447  30.450  71.856  1.00  0.00    -0.215 NA
ATOM      5  C   UNL     1      48.904  31.738  71.914  1.00  0.00     0.226 A 
ATOM      6  N   UNL     1      49.106  32.458  70.764  1.00  0.00    -0.217 NA
ATOM      7  C   UNL     1      48.859  31.917  69.532  1.00  0.00     0.152 A 
ATOM      8  C   UNL     1      48.395  30.606  69.491  1.00  0.00     0.127 A 
ATOM      9  N   UNL     1      48.073  29.829  68.449  1.00  0.00    -0.340 N 
ATOM     10  H   UNL     1      48.107  30.054  67.431  1.00  0.00     0.168 HD
ENDROOT
BRANCH   7  11
ATOM     11  N   UNL     1      49.077  32.685  68.349  1.00  0.00    -0.382 N 
ATOM     12  H   UNL     1      49.808  33.428  68.309  1.00  0.00     0.158 HD
ATOM     13  H   UNL     1      48.498  32.508  67.498  1.00  0.00     0.158 HD
ENDBRANCH   7  11
TORSDOF 1
ENDMDL
MODEL 3
REMARK VINA RESULT:    -3.007      1.011      3.019
REMARK INTER + INTRA:          -3.094
REMARK INTER:                  -3.094
REMARK INTRA:                   0.000
REMARK UNBOUND:                 0.000
REMARK SMILES Nc1ncnc2nc[nH]c12
REMARK SMILES IDX 8 1 7 2 6 3 5 4 4 5 3 6 2 7 10 8 9 9 1 11
REMARK H PARENT 9 10 1 12 1 13
REMARK Flexibility Score: inf
ROOT
ATOM      1  C   UNL     1      48.848  35.133  67.802  1.00  0.00     0.199 A 
ATOM      2  N   UNL     1      48.991  35.594  69.075  1.00  0.00    -0.217 NA
ATOM      3  C   UNL     1      48.978  34.459  69.793  1.00  0.00     0.182 A 
ATOM      4  N   UNL     1      49.090  34.353  71.139  1.00  0.00    -0.215 NA
ATOM      5  C   UNL     1      49.056  33.103  71.693  1.00  0.00     0.226 A 
ATOM      6  N   UNL     1      48.913  31.994  70.899  1.00  0.00    -0.217 NA
ATOM      7  C   UNL     1      48.801  32.099  69.540  1.00  0.00     0.152 A 
ATOM      8  C   UNL     1      48.837  33.377  68.993  1.00  0.00     0.127 A 
ATOM      9  N   UNL     1      48.752  33.782  67.719  1.00  0.00    -0.340 N 
ATOM     10  H   UNL     1      48.637  33.205  66.857  1.00  0.00     0.168 HD
ENDROOT
BRANCH   7  11
ATOM     11  N   UNL     1      48.652  30.930  68.734  1.00  0.00    -0.382 N 
ATOM     12  H   UNL     1      47.729  30.453  68.632  1.00  0.00     0.158 HD
ATOM     13  H   UNL     1      49.477  30.534  68.231  1.00  0.00     0.158 HD
ENDBRANCH   7  11
TORSDOF 1
ENDMDL
MODEL 4
REMARK VINA RESULT:    -2.954      1.679      3.499
REMARK INTER + INTRA:          -3.040
REMARK INTER:                  -3.040
REMARK INTRA:                   0.000
REMARK UNBOUND:                 0.000
REMARK SMILES Nc1ncnc2nc[nH]c12
REMARK SMILES IDX 8 1 7 2 6 3 5 4 4 5 3 6 2 7 10 8 9 9 1 11
REMARK H PARENT 9 10 1 12 1 13
REMARK Flexibility Score: inf
ROOT
ATOM      1  C   UNL     1      50.668  36.691  67.073  1.00  0.00     0.199 A 
ATOM      2  N   UNL     1      49.954  37.498  67.905  1.00  0.00    -0.217 NA
ATOM      3  C   UNL     1      49.142  36.625  68.523  1.00  0.00     0.182 A 
ATOM      4  N   UNL     1      48.214  36.913  69.466  1.00  0.00    -0.215 NA
ATOM      5  C   UNL     1      47.478  35.882  69.983  1.00  0.00     0.226 A 
ATOM      6  N   UNL     1      47.683  34.596  69.552  1.00  0.00    -0.217 NA
ATOM      7  C   UNL     1      48.621  34.303  68.601  1.00  0.00     0.152 A 
ATOM      8  C   UNL     1      49.360  35.363  68.085  1.00  0.00     0.127 A 
ATOM      9  N   UNL     1      50.329  35.380  67.161  1.00  0.00    -0.340 N 
ATOM     10  H   UNL     1      50.735  34.582  66.625  1.00  0.00     0.168 HD
ENDROOT
BRANCH   7  11
ATOM     11  N   UNL     1      48.816  32.957  68.168  1.00  0.00    -0.382 N 
ATOM     12  H   UNL     1      48.009  32.326  67.971  1.00  0.00     0.158 HD
ATOM     13  H   UNL     1      49.783  32.584  68.042  1.00  0.00     0.158 HD
ENDBRANCH   7  11
TORSDOF 1
ENDMDL
MODEL 5
REMARK VINA RESULT:    -2.882      3.329      5.288
REMARK INTER + INTRA:          -2.966
REMARK INTER:                  -2.966
REMARK INTRA:                   0.000
REMARK UNBOUND:                 0.000
REMARK SMILES Nc1ncnc2nc[nH]c12
REMARK SMILES IDX 8 1 7 2 6 3 5 4 4 5 3 6 2 7 10 8 9 9 1 11
REMARK H PARENT 9 10 1 12 1 13
REMARK Flexibility Score: inf
ROOT
ATOM      1  C   UNL     1      46.876  27.891  69.556  1.00  0.00     0.199 A 
ATOM      2  N   UNL     1      47.891  27.214  68.953  1.00  0.00    -0.217 NA
ATOM      3  C   UNL     1      48.765  28.196  68.677  1.00  0.00     0.182 A 
ATOM      4  N   UNL     1      49.967  28.060  68.068  1.00  0.00    -0.215 NA
ATOM      5  C   UNL     1      50.722  29.183  67.873  1.00  0.00     0.226 A 
ATOM      6  N   UNL     1      50.266  30.409  68.287  1.00  0.00    -0.217 NA
ATOM      7  C   UNL     1      49.054  30.548  68.904  1.00  0.00     0.152 A 
ATOM      8  C   UNL     1      48.298  29.395  69.094  1.00  0.00     0.127 A 
ATOM      9  N   UNL     1      47.095  29.226  69.658  1.00  0.00    -0.340 N 
ATOM     10  H   UNL     1      46.464  29.943  70.078  1.00  0.00     0.168 HD
ENDROOT
BRANCH   7  11
ATOM     11  N   UNL     1      48.600  31.834  69.327  1.00  0.00    -0.382 N 
ATOM     12  H   UNL     1      48.114  31.966  70.241  1.00  0.00     0.158 HD
ATOM     13  H   UNL     1      48.751  32.667  68.717  1.00  0.00     0.158 HD
ENDBRANCH   7  11
TORSDOF 1
ENDMDL
MODEL 6
REMARK VINA RESULT:    -2.867      2.346      3.882
REMARK INTER + INTRA:          -2.951
REMARK INTER:                  -2.951
REMARK INTRA:                   0.000
REMARK UNBOUND:                 0.000
REMARK SMILES Nc1ncnc2nc[nH]c12
REMARK SMILES IDX 8 1 7 2 6 3 5 4 4 5 3 6 2 7 10 8 9 9 1 11
REMARK H PARENT 9 10 1 12 1 13
REMARK Flexibility Score: inf
ROOT
ATOM      1  C   UNL     1      48.385  29.039  68.099  1.00  0.00     0.199 A 
ATOM      2  N   UNL     1      49.734  28.853  68.104  1.00  0.00    -0.217 NA
ATOM      3  C   UNL     1      50.185  30.046  68.524  1.00  0.00     0.182 A 
ATOM      4  N   UNL     1      51.479  30.401  68.707  1.00  0.00    -0.215 NA
ATOM      5  C   UNL     1      51.745  31.670  69.142  1.00  0.00     0.226 A 
ATOM      6  N   UNL     1      50.721  32.551  69.385  1.00  0.00    -0.217 NA
ATOM      7  C   UNL     1      49.414  32.194  69.202  1.00  0.00     0.152 A 
ATOM      8  C   UNL     1      49.162  30.900  68.758  1.00  0.00     0.127 A 
ATOM      9  N   UNL     1      48.004  30.280  68.494  1.00  0.00    -0.340 N 
ATOM     10  H   UNL     1      47.032  30.652  68.570  1.00  0.00     0.168 HD
ENDROOT
BRANCH   7  11
ATOM     11  N   UNL     1      48.366  33.128  69.461  1.00  0.00    -0.382 N 
ATOM     12  H   UNL     1      47.779  33.515  68.689  1.00  0.00     0.158 HD
ATOM     13  H   UNL     1      48.173  33.438  70.439  1.00  0.00     0.158 HD
ENDBRANCH   7  11
TORSDOF 1
ENDMDL
MODEL 7
REMARK VINA RESULT:    -2.858      1.948      3.462
REMARK INTER + INTRA:          -2.942
REMARK INTER:                  -2.942
REMARK INTRA:                   0.000
REMARK UNBOUND:                 0.000
REMARK SMILES Nc1ncnc2nc[nH]c12
REMARK SMILES IDX 8 1 7 2 6 3 5 4 4 5 3 6 2 7 10 8 9 9 1 11
REMARK H PARENT 9 10 1 12 1 13
REMARK Flexibility Score: inf
ROOT
ATOM      1  C   UNL     1      47.426  36.039  70.973  1.00  0.00     0.199 A 
ATOM      2  N   UNL     1      47.977  37.175  70.462  1.00  0.00    -0.217 NA
ATOM      3  C   UNL     1      48.541  36.733  69.326  1.00  0.00     0.182 A 
ATOM      4  N   UNL     1      49.230  37.473  68.426  1.00  0.00    -0.215 NA
ATOM      5  C   UNL     1      49.733  36.842  67.321  1.00  0.00     0.226 A 
ATOM      6  N   UNL     1      49.538  35.496  67.140  1.00  0.00    -0.217 NA
ATOM      7  C   UNL     1      48.842  34.748  68.048  1.00  0.00     0.152 A 
ATOM      8  C   UNL     1      48.338  35.405  69.166  1.00  0.00     0.127 A 
ATOM      9  N   UNL     1      47.629  34.940  70.202  1.00  0.00    -0.340 N 
ATOM     10  H   UNL     1      47.304  33.966  70.388  1.00  0.00     0.168 HD
ENDROOT
BRANCH   7  11
ATOM     11  N   UNL     1      48.652  33.348  67.838  1.00  0.00    -0.382 N 
ATOM     12  H   UNL     1      47.784  32.863  68.155  1.00  0.00     0.158 HD
ATOM     13  H   UNL     1      49.390  32.787  67.358  1.00  0.00     0.158 HD
ENDBRANCH   7  11
TORSDOF 1
ENDMDL
MODEL 8
REMARK VINA RESULT:    -2.825      1.829      3.840
REMARK INTER + INTRA:          -2.907
REMARK INTER:                  -2.907
REMARK INTRA:                   0.000
REMARK UNBOUND:                 0.000
REMARK SMILES Nc1ncnc2nc[nH]c12
REMARK SMILES IDX 8 1 7 2 6 3 5 4 4 5 3 6 2 7 10 8 9 9 1 11
REMARK H PARENT 9 10 1 12 1 13
REMARK Flexibility Score: inf
ROOT
ATOM      1  C   UNL     1      49.430  33.523  69.037  1.00  0.00     0.199 A 
ATOM      2  N   UNL     1      49.402  33.451  70.396  1.00  0.00    -0.217 NA
ATOM      3  C   UNL     1      49.015  32.183  70.608  1.00  0.00     0.182 A 
ATOM      4  N   UNL     1      48.828  31.585  71.809  1.00  0.00    -0.215 NA
ATOM      5  C   UNL     1      48.430  30.277  71.823  1.00  0.00     0.226 A 
ATOM      6  N   UNL     1      48.229  29.597  70.648  1.00  0.00    -0.217 NA
ATOM      7  C   UNL     1      48.418  30.199  69.435  1.00  0.00     0.152 A 
ATOM      8  C   UNL     1      48.822  31.531  69.438  1.00  0.00     0.127 A 
ATOM      9  N   UNL     1      49.081  32.364  68.423  1.00  0.00    -0.340 N 
ATOM     10  H   UNL     1      49.029  32.180  67.397  1.00  0.00     0.168 HD
ENDROOT
BRANCH   7  11
ATOM     11  N   UNL     1      48.203  29.472  68.226  1.00  0.00    -0.382 N 
ATOM     12  H   UNL     1      48.329  29.920  67.292  1.00  0.00     0.158 HD
ATOM     13  H   UNL     1      47.912  28.470  68.263  1.00  0.00     0.158 HD
ENDBRANCH   7  11
TORSDOF 1
ENDMDL
MODEL 9
REMARK VINA RESULT:    -2.795      3.223      5.148
REMARK INTER + INTRA:          -2.876
REMARK INTER:                  -2.876
REMARK INTRA:                   0.000
REMARK UNBOUND:                 0.000
REMARK SMILES Nc1ncnc2nc[nH]c12
REMARK SMILES IDX 8 1 7 2 6 3 5 4 4 5 3 6 2 7 10 8 9 9 1 11
REMARK H PARENT 9 10 1 12 1 13
REMARK Flexibility Score: inf
ROOT
ATOM      1  C   UNL     1      52.357  30.032  68.033  1.00  0.00     0.199 A 
ATOM      2  N   UNL     1      51.839  28.787  67.850  1.00  0.00    -0.217 NA
ATOM      3  C   UNL     1      50.538  28.975  68.127  1.00  0.00     0.182 A 
ATOM      4  N   UNL     1      49.562  28.037  68.095  1.00  0.00    -0.215 NA
ATOM      5  C   UNL     1      48.288  28.421  68.410  1.00  0.00     0.226 A 
ATOM      6  N   UNL     1      48.016  29.723  68.747  1.00  0.00    -0.217 NA
ATOM      7  C   UNL     1      49.001  30.671  68.778  1.00  0.00     0.152 A 
ATOM      8  C   UNL     1      50.291  30.264  68.456  1.00  0.00     0.127 A 
ATOM      9  N   UNL     1      51.435  30.958  68.403  1.00  0.00    -0.340 N 
ATOM     10  H   UNL     1      51.595  31.970  68.598  1.00  0.00     0.168 HD
ENDROOT
BRANCH   7  11
ATOM     11  N   UNL     1      48.694  32.020  69.132  1.00  0.00    -0.382 N 
ATOM     12  H   UNL     1      48.889  32.390  70.088  1.00  0.00     0.158 HD
ATOM     13  H   UNL     1      48.265  32.660  68.427  1.00  0.00     0.158 HD
ENDBRANCH   7  11
TORSDOF 1
ENDMDL
