MODEL 1
REMARK VINA RESULT:    -4.407      0.000      0.000
REMARK INTER + INTRA:         -10.242
REMARK INTER:                  -8.528
REMARK INTRA:                  -1.713
REMARK UNBOUND:                -1.713
REMARK SMILES CCCCCCCCCCCCCCCCCC(=O)[O-]
REMARK SMILES IDX 10 1 11 2 12 3 13 4 14 5 15 6 16 7 17 8 18 9 19 10 20 11
REMARK SMILES IDX 9 12 8 13 7 14 6 15 5 16 4 17 3 18 2 19 1 20
REMARK H PARENT
REMARK Flexibility Score: inf
ROOT
ATOM      1  C   UNL     1       4.365   3.297  12.997  1.00  0.00     0.000 C 
ENDROOT
BRANCH   1   2
ATOM      2  C   UNL     1       4.509   1.772  12.881  1.00  0.00     0.000 C 
BRANCH   2   3
ATOM      3  C   UNL     1       5.934   1.287  13.201  1.00  0.00     0.000 C 
BRANCH   3   4
ATOM      4  C   UNL     1       6.074  -0.246  13.144  1.00  0.00     0.000 C 
BRANCH   4   5
ATOM      5  C   UNL     1       4.751  -1.025  13.020  1.00  0.00     0.000 C 
BRANCH   5   6
ATOM      6  C   UNL     1       4.443  -1.884  14.258  1.00  0.00     0.000 C 
BRANCH   6   7
ATOM      7  C   UNL     1       3.123  -1.485  14.945  1.00  0.00     0.006 C 
BRANCH   7   8
ATOM      8  C   UNL     1       2.323  -0.403  14.201  1.00  0.00     0.053 C 
BRANCH   8   9
ATOM      9  C   UNL     1       1.142   0.066  14.994  1.00  0.00     0.041 C 
ATOM     10  O   UNL     1      -0.026  -0.232  14.629  1.00  0.00    -0.550 OA
ATOM     11  O   UNL     1       1.332   0.805  16.155  1.00  0.00    -0.550 OA
ENDBRANCH   8   9
ENDBRANCH   7   8
ENDBRANCH   6   7
ENDBRANCH   5   6
ENDBRANCH   4   5
ENDBRANCH   3   4
ENDBRANCH   2   3
ENDBRANCH   1   2
BRANCH   1  12
ATOM     12  C   UNL     1       4.746   3.827  14.389  1.00  0.00     0.000 C 
BRANCH  12  13
ATOM     13  C   UNL     1       3.977   3.077  15.488  1.00  0.00    -0.000 C 
BRANCH  13  14
ATOM     14  C   UNL     1       4.907   2.362  16.483  1.00  0.00    -0.000 C 
BRANCH  14  15
ATOM     15  C   UNL     1       4.188   1.254  17.272  1.00  0.00    -0.000 C 
BRANCH  15  16
ATOM     16  C   UNL     1       4.346   1.417  18.794  1.00  0.00    -0.000 C 
BRANCH  16  17
ATOM     17  C   UNL     1       4.639   0.083  19.503  1.00  0.00    -0.000 C 
BRANCH  17  18
ATOM     18  C   UNL     1       6.131  -0.285  19.475  1.00  0.00    -0.000 C 
BRANCH  18  19
ATOM     19  C   UNL     1       6.389  -1.667  18.857  1.00  0.00    -0.003 C 
ATOM     20  C   UNL     1       5.901  -1.722  17.412  1.00  0.00     0.004 C 
ENDBRANCH  18  19
ENDBRANCH  17  18
ENDBRANCH  16  17
ENDBRANCH  15  16
ENDBRANCH  14  15
ENDBRANCH  13  14
ENDBRANCH  12  13
ENDBRANCH   1  12
TORSDOF 16
ENDMDL
MODEL 2
REMARK VINA RESULT:    -4.309      1.598      5.098
REMARK INTER + INTRA:         -10.052
REMARK INTER:                  -8.473
REMARK INTRA:                  -1.580
REMARK UNBOUND:                -1.713
REMARK SMILES CCCCCCCCCCCCCCCCCC(=O)[O-]
REMARK SMILES IDX 10 1 11 2 12 3 13 4 14 5 15 6 16 7 17 8 18 9 19 10 20 11
REMARK SMILES IDX 9 12 8 13 7 14 6 15 5 16 4 17 3 18 2 19 1 20
REMARK H PARENT
REMARK Flexibility Score: inf
ROOT
ATOM      1  C   UNL     1       4.082   3.886  14.535  1.00  0.00     0.000 C 
ENDROOT
BRANCH   1   2
ATOM      2  C   UNL     1       3.447   2.754  15.357  1.00  0.00     0.000 C 
BRANCH   2   3
ATOM      3  C   UNL     1       4.373   2.242  16.473  1.00  0.00     0.000 C 
BRANCH   3   4
ATOM      4  C   UNL     1       3.611   1.531  17.607  1.00  0.00     0.000 C 
BRANCH   4   5
ATOM      5  C   UNL     1       4.219   1.694  19.013  1.00  0.00     0.000 C 
BRANCH   5   6
ATOM      6  C   UNL     1       4.661   0.359  19.633  1.00  0.00     0.000 C 
BRANCH   6   7
ATOM      7  C   UNL     1       6.085  -0.050  19.211  1.00  0.00     0.006 C 
BRANCH   7   8
ATOM      8  C   UNL     1       6.197  -1.483  18.663  1.00  0.00     0.053 C 
BRANCH   8   9
ATOM      9  C   UNL     1       5.519  -1.631  17.336  1.00  0.00     0.041 C 
ATOM     10  O   UNL     1       6.202  -1.768  16.287  1.00  0.00    -0.550 OA
ATOM     11  O   UNL     1       4.132  -1.648  17.261  1.00  0.00    -0.550 OA
ENDBRANCH   8   9
ENDBRANCH   7   8
ENDBRANCH   6   7
ENDBRANCH   5   6
ENDBRANCH   4   5
ENDBRANCH   3   4
ENDBRANCH   2   3
ENDBRANCH   1   2
BRANCH   1  12
ATOM     12  C   UNL     1       4.782   3.377  13.264  1.00  0.00     0.000 C 
BRANCH  12  13
ATOM     13  C   UNL     1       4.590   1.861  13.104  1.00  0.00    -0.000 C 
BRANCH  13  14
ATOM     14  C   UNL     1       5.909   1.079  13.221  1.00  0.00    -0.000 C 
BRANCH  14  15
ATOM     15  C   UNL     1       5.694  -0.444  13.211  1.00  0.00    -0.000 C 
BRANCH  15  16
ATOM     16  C   UNL     1       4.228  -0.831  12.950  1.00  0.00    -0.000 C 
BRANCH  16  17
ATOM     17  C   UNL     1       3.812  -2.108  13.700  1.00  0.00    -0.000 C 
BRANCH  17  18
ATOM     18  C   UNL     1       2.468  -1.951  14.430  1.00  0.00    -0.000 C 
BRANCH  18  19
ATOM     19  C   UNL     1       2.163  -0.493  14.804  1.00  0.00    -0.003 C 
ATOM     20  C   UNL     1       0.664  -0.212  14.740  1.00  0.00     0.004 C 
ENDBRANCH  18  19
ENDBRANCH  17  18
ENDBRANCH  16  17
ENDBRANCH  15  16
ENDBRANCH  14  15
ENDBRANCH  13  14
ENDBRANCH  12  13
ENDBRANCH   1  12
TORSDOF 16
ENDMDL
MODEL 3
REMARK VINA RESULT:    -4.238      1.562      3.283
REMARK INTER + INTRA:          -9.915
REMARK INTER:                  -7.750
REMARK INTRA:                  -2.165
REMARK UNBOUND:                -1.713
REMARK SMILES CCCCCCCCCCCCCCCCCC(=O)[O-]
REMARK SMILES IDX 10 1 11 2 12 3 13 4 14 5 15 6 16 7 17 8 18 9 19 10 20 11
REMARK SMILES IDX 9 12 8 13 7 14 6 15 5 16 4 17 3 18 2 19 1 20
REMARK H PARENT
REMARK Flexibility Score: inf
ROOT
ATOM      1  C   UNL     1       2.013  -1.232  14.776  1.00  0.00     0.000 C 
ENDROOT
BRANCH   1   2
ATOM      2  C   UNL     1       2.928  -1.656  13.616  1.00  0.00     0.000 C 
BRANCH   2   3
ATOM      3  C   UNL     1       4.332  -2.069  14.090  1.00  0.00     0.000 C 
BRANCH   3   4
ATOM      4  C   UNL     1       5.458  -1.460  13.235  1.00  0.00     0.000 C 
BRANCH   4   5
ATOM      5  C   UNL     1       5.957  -0.076  13.691  1.00  0.00     0.000 C 
BRANCH   5   6
ATOM      6  C   UNL     1       5.348   1.079  12.879  1.00  0.00     0.000 C 
BRANCH   6   7
ATOM      7  C   UNL     1       5.366   2.417  13.642  1.00  0.00     0.006 C 
BRANCH   7   8
ATOM      8  C   UNL     1       4.188   3.349  13.317  1.00  0.00     0.053 C 
BRANCH   8   9
ATOM      9  C   UNL     1       3.536   3.884  14.554  1.00  0.00     0.041 C 
ATOM     10  O   UNL     1       2.287   3.811  14.696  1.00  0.00    -0.550 OA
ATOM     11  O   UNL     1       4.313   4.436  15.566  1.00  0.00    -0.550 OA
ENDBRANCH   8   9
ENDBRANCH   7   8
ENDBRANCH   6   7
ENDBRANCH   5   6
ENDBRANCH   4   5
ENDBRANCH   3   4
ENDBRANCH   2   3
ENDBRANCH   1   2
BRANCH   1  12
ATOM     12  C   UNL     1       1.735   0.280  14.791  1.00  0.00     0.000 C 
BRANCH  12  13
ATOM     13  C   UNL     1       2.305   0.928  16.062  1.00  0.00    -0.000 C 
BRANCH  13  14
ATOM     14  C   UNL     1       3.697   0.389  16.432  1.00  0.00    -0.000 C 
BRANCH  14  15
ATOM     15  C   UNL     1       4.574   1.446  17.124  1.00  0.00    -0.000 C 
BRANCH  15  16
ATOM     16  C   UNL     1       4.219   1.625  18.611  1.00  0.00    -0.000 C 
BRANCH  16  17
ATOM     17  C   UNL     1       4.584   0.394  19.457  1.00  0.00    -0.000 C 
BRANCH  17  18
ATOM     18  C   UNL     1       5.957  -0.191  19.087  1.00  0.00    -0.000 C 
BRANCH  18  19
ATOM     19  C   UNL     1       5.882  -1.671  18.684  1.00  0.00    -0.003 C 
ATOM     20  C   UNL     1       6.160  -1.849  17.194  1.00  0.00     0.004 C 
ENDBRANCH  18  19
ENDBRANCH  17  18
ENDBRANCH  16  17
ENDBRANCH  15  16
ENDBRANCH  14  15
ENDBRANCH  13  14
ENDBRANCH  12  13
ENDBRANCH   1  12
TORSDOF 16
ENDMDL
MODEL 4
REMARK VINA RESULT:    -4.138      1.105      3.457
REMARK INTER + INTRA:          -9.721
REMARK INTER:                  -7.710
REMARK INTRA:                  -2.011
REMARK UNBOUND:                -1.713
REMARK SMILES CCCCCCCCCCCCCCCCCC(=O)[O-]
REMARK SMILES IDX 10 1 11 2 12 3 13 4 14 5 15 6 16 7 17 8 18 9 19 10 20 11
REMARK SMILES IDX 9 12 8 13 7 14 6 15 5 16 4 17 3 18 2 19 1 20
REMARK H PARENT
REMARK Flexibility Score: inf
ROOT
ATOM      1  C   UNL     1       5.905   1.193  14.150  1.00  0.00     0.000 C 
ENDROOT
BRANCH   1   2
ATOM      2  C   UNL     1       5.687   2.022  12.875  1.00  0.00     0.000 C 
BRANCH   2   3
ATOM      3  C   UNL     1       5.273   3.472  13.176  1.00  0.00     0.000 C 
BRANCH   3   4
ATOM      4  C   UNL     1       4.939   3.706  14.662  1.00  0.00     0.000 C 
BRANCH   4   5
ATOM      5  C   UNL     1       3.485   4.119  14.954  1.00  0.00     0.000 C 
BRANCH   5   6
ATOM      6  C   UNL     1       2.460   3.064  14.507  1.00  0.00     0.000 C 
BRANCH   6   7
ATOM      7  C   UNL     1       2.648   1.713  15.223  1.00  0.00     0.006 C 
BRANCH   7   8
ATOM      8  C   UNL     1       2.366   0.484  14.343  1.00  0.00     0.053 C 
BRANCH   8   9
ATOM      9  C   UNL     1       1.361  -0.435  14.966  1.00  0.00     0.041 C 
ATOM     10  O   UNL     1       0.268   0.019  15.397  1.00  0.00    -0.550 OA
ATOM     11  O   UNL     1       1.618  -1.798  15.043  1.00  0.00    -0.550 OA
ENDBRANCH   8   9
ENDBRANCH   7   8
ENDBRANCH   6   7
ENDBRANCH   5   6
ENDBRANCH   4   5
ENDBRANCH   3   4
ENDBRANCH   2   3
ENDBRANCH   1   2
BRANCH   1  12
ATOM     12  C   UNL     1       6.599  -0.151  13.875  1.00  0.00     0.000 C 
BRANCH  12  13
ATOM     13  C   UNL     1       5.577  -1.216  13.448  1.00  0.00    -0.000 C 
BRANCH  13  14
ATOM     14  C   UNL     1       5.124  -2.108  14.617  1.00  0.00    -0.000 C 
BRANCH  14  15
ATOM     15  C   UNL     1       6.048  -1.991  15.841  1.00  0.00    -0.000 C 
BRANCH  15  16
ATOM     16  C   UNL     1       5.280  -1.652  17.130  1.00  0.00    -0.000 C 
BRANCH  16  17
ATOM     17  C   UNL     1       6.196  -1.586  18.364  1.00  0.00    -0.000 C 
BRANCH  17  18
ATOM     18  C   UNL     1       6.137  -0.222  19.070  1.00  0.00    -0.000 C 
BRANCH  18  19
ATOM     19  C   UNL     1       4.699   0.254  19.323  1.00  0.00    -0.003 C 
ATOM     20  C   UNL     1       4.353   1.450  18.441  1.00  0.00     0.004 C 
ENDBRANCH  18  19
ENDBRANCH  17  18
ENDBRANCH  16  17
ENDBRANCH  15  16
ENDBRANCH  14  15
ENDBRANCH  13  14
ENDBRANCH  12  13
ENDBRANCH   1  12
TORSDOF 16
ENDMDL
MODEL 5
REMARK VINA RESULT:    -4.047      2.142      4.049
REMARK INTER + INTRA:          -9.547
REMARK INTER:                  -7.615
REMARK INTRA:                  -1.931
REMARK UNBOUND:                -1.713
REMARK SMILES CCCCCCCCCCCCCCCCCC(=O)[O-]
REMARK SMILES IDX 10 1 11 2 12 3 13 4 14 5 15 6 16 7 17 8 18 9 19 10 20 11
REMARK SMILES IDX 9 12 8 13 7 14 6 15 5 16 4 17 3 18 2 19 1 20
REMARK H PARENT
REMARK Flexibility Score: inf
ROOT
ATOM      1  C   UNL     1       5.026   2.045  12.877  1.00  0.00     0.000 C 
ENDROOT
BRANCH   1   2
ATOM      2  C   UNL     1       5.941   1.149  13.725  1.00  0.00     0.000 C 
BRANCH   2   3
ATOM      3  C   UNL     1       6.740   0.146  12.875  1.00  0.00     0.000 C 
BRANCH   3   4
ATOM      4  C   UNL     1       6.440  -1.321  13.237  1.00  0.00     0.000 C 
BRANCH   4   5
ATOM      5  C   UNL     1       7.003  -1.794  14.591  1.00  0.00     0.000 C 
BRANCH   5   6
ATOM      6  C   UNL     1       5.904  -2.125  15.614  1.00  0.00     0.000 C 
BRANCH   6   7
ATOM      7  C   UNL     1       5.696  -1.001  16.647  1.00  0.00     0.006 C 
BRANCH   7   8
ATOM      8  C   UNL     1       5.053  -1.462  17.965  1.00  0.00     0.053 C 
BRANCH   8   9
ATOM      9  C   UNL     1       5.400  -0.555  19.106  1.00  0.00     0.041 C 
ATOM     10  O   UNL     1       6.488  -0.701  19.723  1.00  0.00    -0.550 OA
ATOM     11  O   UNL     1       4.536   0.471  19.467  1.00  0.00    -0.550 OA
ENDBRANCH   8   9
ENDBRANCH   7   8
ENDBRANCH   6   7
ENDBRANCH   5   6
ENDBRANCH   4   5
ENDBRANCH   3   4
ENDBRANCH   2   3
ENDBRANCH   1   2
BRANCH   1  12
ATOM     12  C   UNL     1       4.964   3.492  13.394  1.00  0.00     0.000 C 
BRANCH  12  13
ATOM     13  C   UNL     1       3.825   3.660  14.411  1.00  0.00    -0.000 C 
BRANCH  13  14
ATOM     14  C   UNL     1       4.259   3.330  15.850  1.00  0.00    -0.000 C 
BRANCH  14  15
ATOM     15  C   UNL     1       3.530   2.100  16.418  1.00  0.00    -0.000 C 
BRANCH  15  16
ATOM     16  C   UNL     1       2.640   1.406  15.372  1.00  0.00    -0.000 C 
BRANCH  16  17
ATOM     17  C   UNL     1       2.143   0.028  15.840  1.00  0.00    -0.000 C 
BRANCH  17  18
ATOM     18  C   UNL     1       1.195  -0.633  14.827  1.00  0.00    -0.000 C 
BRANCH  18  19
ATOM     19  C   UNL     1       1.619  -2.064  14.463  1.00  0.00    -0.003 C 
ATOM     20  C   UNL     1       3.048  -2.093  13.927  1.00  0.00     0.004 C 
ENDBRANCH  18  19
ENDBRANCH  17  18
ENDBRANCH  16  17
ENDBRANCH  15  16
ENDBRANCH  14  15
ENDBRANCH  13  14
ENDBRANCH  12  13
ENDBRANCH   1  12
TORSDOF 16
ENDMDL
MODEL 6
REMARK VINA RESULT:    -4.029      1.226      5.500
REMARK INTER + INTRA:          -9.511
REMARK INTER:                  -8.051
REMARK INTRA:                  -1.460
REMARK UNBOUND:                -1.713
REMARK SMILES CCCCCCCCCCCCCCCCCC(=O)[O-]
REMARK SMILES IDX 10 1 11 2 12 3 13 4 14 5 15 6 16 7 17 8 18 9 19 10 20 11
REMARK SMILES IDX 9 12 8 13 7 14 6 15 5 16 4 17 3 18 2 19 1 20
REMARK H PARENT
REMARK Flexibility Score: inf
ROOT
ATOM      1  C   UNL     1       5.335  -1.291  16.373  1.00  0.00     0.000 C 
ENDROOT
BRANCH   1   2
ATOM      2  C   UNL     1       6.139  -1.160  17.676  1.00  0.00     0.000 C 
BRANCH   2   3
ATOM      3  C   UNL     1       5.247  -0.864  18.894  1.00  0.00     0.000 C 
BRANCH   3   4
ATOM      4  C   UNL     1       5.238   0.626  19.283  1.00  0.00     0.000 C 
BRANCH   4   5
ATOM      5  C   UNL     1       3.978   1.408  18.870  1.00  0.00     0.000 C 
BRANCH   5   6
ATOM      6  C   UNL     1       4.056   1.958  17.436  1.00  0.00     0.000 C 
BRANCH   6   7
ATOM      7  C   UNL     1       2.802   1.628  16.604  1.00  0.00     0.006 C 
BRANCH   7   8
ATOM      8  C   UNL     1       2.944   0.389  15.705  1.00  0.00     0.053 C 
BRANCH   8   9
ATOM      9  C   UNL     1       1.705   0.131  14.905  1.00  0.00     0.041 C 
ATOM     10  O   UNL     1       0.579   0.477  15.350  1.00  0.00    -0.550 OA
ATOM     11  O   UNL     1       1.796  -0.464  13.653  1.00  0.00    -0.550 OA
ENDBRANCH   8   9
ENDBRANCH   7   8
ENDBRANCH   6   7
ENDBRANCH   5   6
ENDBRANCH   4   5
ENDBRANCH   3   4
ENDBRANCH   2   3
ENDBRANCH   1   2
BRANCH   1  12
ATOM     12  C   UNL     1       6.071  -2.107  15.298  1.00  0.00     0.000 C 
BRANCH  12  13
ATOM     13  C   UNL     1       5.276  -2.124  13.984  1.00  0.00    -0.000 C 
BRANCH  13  14
ATOM     14  C   UNL     1       5.735  -1.039  12.996  1.00  0.00    -0.000 C 
BRANCH  14  15
ATOM     15  C   UNL     1       6.368   0.172  13.702  1.00  0.00    -0.000 C 
BRANCH  15  16
ATOM     16  C   UNL     1       6.244   1.466  12.878  1.00  0.00    -0.000 C 
BRANCH  16  17
ATOM     17  C   UNL     1       4.828   2.065  12.928  1.00  0.00    -0.000 C 
BRANCH  17  18
ATOM     18  C   UNL     1       4.720   3.241  13.912  1.00  0.00    -0.000 C 
BRANCH  18  19
ATOM     19  C   UNL     1       3.628   4.246  13.516  1.00  0.00    -0.003 C 
ATOM     20  C   UNL     1       2.376   4.061  14.368  1.00  0.00     0.004 C 
ENDBRANCH  18  19
ENDBRANCH  17  18
ENDBRANCH  16  17
ENDBRANCH  15  16
ENDBRANCH  14  15
ENDBRANCH  13  14
ENDBRANCH  12  13
ENDBRANCH   1  12
TORSDOF 16
ENDMDL
MODEL 7
REMARK VINA RESULT:    -3.976      1.028      3.897
REMARK INTER + INTRA:          -9.408
REMARK INTER:                  -7.385
REMARK INTRA:                  -2.023
REMARK UNBOUND:                -1.713
REMARK SMILES CCCCCCCCCCCCCCCCCC(=O)[O-]
REMARK SMILES IDX 10 1 11 2 12 3 13 4 14 5 15 6 16 7 17 8 18 9 19 10 20 11
REMARK SMILES IDX 9 12 8 13 7 14 6 15 5 16 4 17 3 18 2 19 1 20
REMARK H PARENT
REMARK Flexibility Score: inf
ROOT
ATOM      1  C   UNL     1       4.071   1.617  17.461  1.00  0.00     0.000 C 
ENDROOT
BRANCH   1   2
ATOM      2  C   UNL     1       5.293   2.011  16.617  1.00  0.00     0.000 C 
BRANCH   2   3
ATOM      3  C   UNL     1       5.036   3.254  15.747  1.00  0.00     0.000 C 
BRANCH   3   4
ATOM      4  C   UNL     1       3.551   3.433  15.380  1.00  0.00     0.000 C 
BRANCH   4   5
ATOM      5  C   UNL     1       3.148   2.910  13.989  1.00  0.00     0.000 C 
BRANCH   5   6
ATOM      6  C   UNL     1       4.024   1.740  13.511  1.00  0.00     0.000 C 
BRANCH   6   7
ATOM      7  C   UNL     1       3.229   0.431  13.344  1.00  0.00     0.006 C 
BRANCH   7   8
ATOM      8  C   UNL     1       2.897  -0.282  14.665  1.00  0.00     0.053 C 
BRANCH   8   9
ATOM      9  C   UNL     1       1.480  -0.047  15.089  1.00  0.00     0.041 C 
ATOM     10  O   UNL     1       0.538  -0.662  14.523  1.00  0.00    -0.550 OA
ATOM     11  O   UNL     1       1.202   0.830  16.131  1.00  0.00    -0.550 OA
ENDBRANCH   8   9
ENDBRANCH   7   8
ENDBRANCH   6   7
ENDBRANCH   5   6
ENDBRANCH   4   5
ENDBRANCH   3   4
ENDBRANCH   2   3
ENDBRANCH   1   2
BRANCH   1  12
ATOM     12  C   UNL     1       4.363   1.628  18.971  1.00  0.00     0.000 C 
BRANCH  12  13
ATOM     13  C   UNL     1       4.773   0.230  19.458  1.00  0.00    -0.000 C 
BRANCH  13  14
ATOM     14  C   UNL     1       6.062  -0.279  18.790  1.00  0.00    -0.000 C 
BRANCH  14  15
ATOM     15  C   UNL     1       5.927  -1.719  18.266  1.00  0.00    -0.000 C 
BRANCH  15  16
ATOM     16  C   UNL     1       5.360  -1.776  16.837  1.00  0.00    -0.000 C 
BRANCH  16  17
ATOM     17  C   UNL     1       6.352  -1.245  15.787  1.00  0.00    -0.000 C 
BRANCH  17  18
ATOM     18  C   UNL     1       6.369  -2.097  14.508  1.00  0.00    -0.000 C 
BRANCH  18  19
ATOM     19  C   UNL     1       6.476  -1.249  13.232  1.00  0.00    -0.003 C 
ATOM     20  C   UNL     1       6.911   0.178  13.556  1.00  0.00     0.004 C 
ENDBRANCH  18  19
ENDBRANCH  17  18
ENDBRANCH  16  17
ENDBRANCH  15  16
ENDBRANCH  14  15
ENDBRANCH  13  14
ENDBRANCH  12  13
ENDBRANCH   1  12
TORSDOF 16
ENDMDL
MODEL 8
REMARK VINA RESULT:    -3.842      1.510      4.675
REMARK INTER + INTRA:          -9.149
REMARK INTER:                  -6.966
REMARK INTRA:                  -2.183
REMARK UNBOUND:                -1.713
REMARK SMILES CCCCCCCCCCCCCCCCCC(=O)[O-]
REMARK SMILES IDX 10 1 11 2 12 3 13 4 14 5 15 6 16 7 17 8 18 9 19 10 20 11
REMARK SMILES IDX 9 12 8 13 7 14 6 15 5 16 4 17 3 18 2 19 1 20
REMARK H PARENT
REMARK Flexibility Score: inf
ROOT
ATOM      1  C   UNL     1       3.673   3.231  14.520  1.00  0.00     0.000 C 
ENDROOT
BRANCH   1   2
ATOM      2  C   UNL     1       4.514   3.131  15.802  1.00  0.00     0.000 C 
BRANCH   2   3
ATOM      3  C   UNL     1       4.539   1.707  16.383  1.00  0.00     0.000 C 
BRANCH   3   4
ATOM      4  C   UNL     1       5.964   1.208  16.688  1.00  0.00     0.000 C 
BRANCH   4   5
ATOM      5  C   UNL     1       6.069   0.165  17.817  1.00  0.00     0.000 C 
BRANCH   5   6
ATOM      6  C   UNL     1       4.701  -0.236  18.393  1.00  0.00     0.000 C 
BRANCH   6   7
ATOM      7  C   UNL     1       4.348   0.535  19.679  1.00  0.00     0.006 C 
BRANCH   7   8
ATOM      8  C   UNL     1       3.633   1.875  19.439  1.00  0.00     0.053 C 
BRANCH   8   9
ATOM      9  C   UNL     1       2.145   1.745  19.557  1.00  0.00     0.041 C 
ATOM     10  O   UNL     1       1.623   1.415  20.654  1.00  0.00    -0.550 OA
ATOM     11  O   UNL     1       1.334   2.021  18.463  1.00  0.00    -0.550 OA
ENDBRANCH   8   9
ENDBRANCH   7   8
ENDBRANCH   6   7
ENDBRANCH   5   6
ENDBRANCH   4   5
ENDBRANCH   3   4
ENDBRANCH   2   3
ENDBRANCH   1   2
BRANCH   1  12
ATOM     12  C   UNL     1       4.513   3.062  13.243  1.00  0.00     0.000 C 
BRANCH  12  13
ATOM     13  C   UNL     1       4.655   1.577  12.875  1.00  0.00    -0.000 C 
BRANCH  13  14
ATOM     14  C   UNL     1       6.056   1.020  13.179  1.00  0.00    -0.000 C 
BRANCH  14  15
ATOM     15  C   UNL     1       6.137  -0.505  12.994  1.00  0.00    -0.000 C 
BRANCH  15  16
ATOM     16  C   UNL     1       4.784  -1.200  13.227  1.00  0.00    -0.000 C 
BRANCH  16  17
ATOM     17  C   UNL     1       4.560  -1.577  14.702  1.00  0.00    -0.000 C 
BRANCH  17  18
ATOM     18  C   UNL     1       3.083  -1.483  15.117  1.00  0.00    -0.000 C 
BRANCH  18  19
ATOM     19  C   UNL     1       2.319  -0.395  14.348  1.00  0.00    -0.003 C 
ATOM     20  C   UNL     1       0.987  -0.079  15.022  1.00  0.00     0.004 C 
ENDBRANCH  18  19
ENDBRANCH  17  18
ENDBRANCH  16  17
ENDBRANCH  15  16
ENDBRANCH  14  15
ENDBRANCH  13  14
ENDBRANCH  12  13
ENDBRANCH   1  12
TORSDOF 16
ENDMDL
MODEL 9
REMARK VINA RESULT:    -3.836      1.293      5.106
REMARK INTER + INTRA:          -9.137
REMARK INTER:                  -7.241
REMARK INTRA:                  -1.896
REMARK UNBOUND:                -1.713
REMARK SMILES CCCCCCCCCCCCCCCCCC(=O)[O-]
REMARK SMILES IDX 10 1 11 2 12 3 13 4 14 5 15 6 16 7 17 8 18 9 19 10 20 11
REMARK SMILES IDX 9 12 8 13 7 14 6 15 5 16 4 17 3 18 2 19 1 20
REMARK H PARENT
REMARK Flexibility Score: inf
ROOT
ATOM      1  C   UNL     1       5.165  -0.793  18.952  1.00  0.00     0.000 C 
ENDROOT
BRANCH   1   2
ATOM      2  C   UNL     1       5.196   0.688  18.544  1.00  0.00     0.000 C 
BRANCH   2   3
ATOM      3  C   UNL     1       6.171   0.962  17.385  1.00  0.00     0.000 C 
BRANCH   3   4
ATOM      4  C   UNL     1       5.558   1.841  16.279  1.00  0.00     0.000 C 
BRANCH   4   5
ATOM      5  C   UNL     1       4.209   2.497  16.630  1.00  0.00     0.000 C 
BRANCH   5   6
ATOM      6  C   UNL     1       3.072   2.071  15.687  1.00  0.00     0.000 C 
BRANCH   6   7
ATOM      7  C   UNL     1       2.250   0.892  16.243  1.00  0.00     0.006 C 
BRANCH   7   8
ATOM      8  C   UNL     1       2.531  -0.456  15.558  1.00  0.00     0.053 C 
BRANCH   8   9
ATOM      9  C   UNL     1       1.358  -0.935  14.760  1.00  0.00     0.041 C 
ATOM     10  O   UNL     1       1.376  -2.077  14.229  1.00  0.00    -0.550 OA
ATOM     11  O   UNL     1       0.230  -0.134  14.630  1.00  0.00    -0.550 OA
ENDBRANCH   8   9
ENDBRANCH   7   8
ENDBRANCH   6   7
ENDBRANCH   5   6
ENDBRANCH   4   5
ENDBRANCH   3   4
ENDBRANCH   2   3
ENDBRANCH   1   2
BRANCH   1  12
ATOM     12  C   UNL     1       4.783  -1.723  17.789  1.00  0.00     0.000 C 
BRANCH  12  13
ATOM     13  C   UNL     1       5.999  -2.006  16.893  1.00  0.00    -0.000 C 
BRANCH  13  14
ATOM     14  C   UNL     1       5.630  -2.106  15.404  1.00  0.00    -0.000 C 
BRANCH  14  15
ATOM     15  C   UNL     1       6.789  -1.694  14.480  1.00  0.00    -0.000 C 
BRANCH  15  16
ATOM     16  C   UNL     1       6.367  -0.644  13.437  1.00  0.00    -0.000 C 
BRANCH  16  17
ATOM     17  C   UNL     1       4.850  -0.390  13.436  1.00  0.00    -0.000 C 
BRANCH  17  18
ATOM     18  C   UNL     1       4.484   0.995  12.878  1.00  0.00    -0.000 C 
BRANCH  18  19
ATOM     19  C   UNL     1       5.604   2.028  13.074  1.00  0.00    -0.003 C 
ATOM     20  C   UNL     1       5.073   3.450  12.914  1.00  0.00     0.004 C 
ENDBRANCH  18  19
ENDBRANCH  17  18
ENDBRANCH  16  17
ENDBRANCH  15  16
ENDBRANCH  14  15
ENDBRANCH  13  14
ENDBRANCH  12  13
ENDBRANCH   1  12
TORSDOF 16
ENDMDL
