MODEL 1
REMARK VINA RESULT:    -6.405      0.000      0.000
REMARK INTER + INTRA:          -8.055
REMARK INTER:                  -7.715
REMARK INTRA:                  -0.340
REMARK UNBOUND:                -0.340
REMARK SMILES O=c1c(O)c(-c2ccc(O)cc2O)oc2cc(O)cc(O)c12
REMARK SMILES IDX 5 1 3 2 2 3 1 4 22 5 20 6 19 7 17 8 16 9 15 10 14 11 6 12
REMARK SMILES IDX 8 13 7 14 9 15 11 16 12 17 10 18 13 20 4 22 21 24 18 26
REMARK H PARENT 10 19 13 21 4 23 21 25 18 27
REMARK Flexibility Score: inf
ROOT
ATOM      1  C   UNL     1       7.954  -3.149  -8.142  1.00  0.00     0.184 A 
ATOM      2  C   UNL     1       7.233  -4.253  -8.625  1.00  0.00     0.208 A 
ATOM      3  C   UNL     1       5.833  -4.238  -8.546  1.00  0.00     0.238 A 
ATOM      4  O   UNL     1       5.189  -5.205  -9.029  1.00  0.00    -0.285 OA
ATOM      5  C   UNL     1       5.173  -3.125  -7.969  1.00  0.00     0.111 A 
ATOM      6  C   UNL     1       3.759  -3.019  -7.800  1.00  0.00     0.134 A 
ATOM      7  C   UNL     1       3.207  -1.819  -7.337  1.00  0.00     0.093 A 
ATOM      8  C   UNL     1       4.021  -0.743  -6.975  1.00  0.00     0.123 A 
ATOM      9  C   UNL     1       5.406  -0.858  -7.079  1.00  0.00     0.094 A 
ATOM     10  C   UNL     1       5.985  -2.030  -7.573  1.00  0.00     0.146 A 
ATOM     11  O   UNL     1       7.308  -2.093  -7.667  1.00  0.00    -0.451 OA
ENDROOT
BRANCH   1  12
ATOM     12  C   UNL     1       9.432  -3.110  -8.180  1.00  0.00     0.063 A 
ATOM     13  C   UNL     1      11.545  -3.260  -6.989  1.00  0.00     0.047 A 
ATOM     14  C   UNL     1      10.149  -3.285  -6.986  1.00  0.00     0.020 A 
ATOM     15  C   UNL     1      12.243  -3.073  -8.184  1.00  0.00     0.119 A 
ATOM     16  C   UNL     1      11.539  -2.921  -9.385  1.00  0.00     0.093 A 
ATOM     17  C   UNL     1      10.136  -2.951  -9.392  1.00  0.00     0.130 A 
BRANCH  15  18
ATOM     18  O   UNL     1      13.637  -3.046  -8.170  1.00  0.00    -0.508 OA
ATOM     19  H   UNL     1      14.150  -2.173  -8.147  1.00  0.00     0.293 HD
ENDBRANCH  15  18
BRANCH  17  20
ATOM     20  O   UNL     1       9.446  -2.847 -10.600  1.00  0.00    -0.507 OA
ATOM     21  H   UNL     1       8.891  -3.613 -10.963  1.00  0.00     0.293 HD
ENDBRANCH  17  20
ENDBRANCH   1  12
BRANCH   2  22
ATOM     22  O   UNL     1       7.910  -5.330  -9.206  1.00  0.00    -0.502 OA
ATOM     23  H   UNL     1       7.452  -5.989  -9.824  1.00  0.00     0.293 HD
ENDBRANCH   2  22
BRANCH   6  24
ATOM     24  O   UNL     1       2.863  -4.064  -8.045  1.00  0.00    -0.507 OA
ATOM     25  H   UNL     1       2.888  -4.962  -7.585  1.00  0.00     0.293 HD
ENDBRANCH   6  24
BRANCH   8  26
ATOM     26  O   UNL     1       3.465   0.442  -6.499  1.00  0.00    -0.508 OA
ATOM     27  H   UNL     1       3.145   1.168  -7.131  1.00  0.00     0.293 HD
ENDBRANCH   8  26
TORSDOF 6
ENDMDL
MODEL 2
REMARK VINA RESULT:    -6.363      1.977      3.124
REMARK INTER + INTRA:          -8.004
REMARK INTER:                  -8.082
REMARK INTRA:                   0.078
REMARK UNBOUND:                -0.340
REMARK SMILES O=c1c(O)c(-c2ccc(O)cc2O)oc2cc(O)cc(O)c12
REMARK SMILES IDX 5 1 3 2 2 3 1 4 22 5 20 6 19 7 17 8 16 9 15 10 14 11 6 12
REMARK SMILES IDX 8 13 7 14 9 15 11 16 12 17 10 18 13 20 4 22 21 24 18 26
REMARK H PARENT 10 19 13 21 4 23 21 25 18 27
REMARK Flexibility Score: inf
ROOT
ATOM      1  C   UNL     1       7.846  -3.605  -8.057  1.00  0.00     0.184 A 
ATOM      2  C   UNL     1       7.662  -2.972  -6.817  1.00  0.00     0.208 A 
ATOM      3  C   UNL     1       6.391  -2.993  -6.224  1.00  0.00     0.238 A 
ATOM      4  O   UNL     1       6.244  -2.471  -5.089  1.00  0.00    -0.285 OA
ATOM      5  C   UNL     1       5.316  -3.634  -6.888  1.00  0.00     0.111 A 
ATOM      6  C   UNL     1       3.975  -3.683  -6.399  1.00  0.00     0.134 A 
ATOM      7  C   UNL     1       3.022  -4.456  -7.074  1.00  0.00     0.093 A 
ATOM      8  C   UNL     1       3.345  -5.128  -8.255  1.00  0.00     0.123 A 
ATOM      9  C   UNL     1       4.635  -5.038  -8.772  1.00  0.00     0.094 A 
ATOM     10  C   UNL     1       5.618  -4.305  -8.102  1.00  0.00     0.146 A 
ATOM     11  O   UNL     1       6.838  -4.254  -8.624  1.00  0.00    -0.451 OA
ENDROOT
BRANCH   1  12
ATOM     12  C   UNL     1       9.156  -3.604  -8.742  1.00  0.00     0.063 A 
ATOM     13  C   UNL     1      11.240  -2.456  -9.236  1.00  0.00     0.047 A 
ATOM     14  C   UNL     1       9.994  -2.487  -8.607  1.00  0.00     0.020 A 
ATOM     15  C   UNL     1      11.672  -3.546  -9.996  1.00  0.00     0.119 A 
ATOM     16  C   UNL     1      10.854  -4.676 -10.119  1.00  0.00     0.093 A 
ATOM     17  C   UNL     1       9.603  -4.717  -9.485  1.00  0.00     0.130 A 
BRANCH  15  18
ATOM     18  O   UNL     1      12.916  -3.499 -10.622  1.00  0.00    -0.508 OA
ATOM     19  H   UNL     1      13.054  -3.865 -11.556  1.00  0.00     0.293 HD
ENDBRANCH  15  18
BRANCH  17  20
ATOM     20  O   UNL     1       8.818  -5.867  -9.574  1.00  0.00    -0.507 OA
ATOM     21  H   UNL     1       7.836  -5.861  -9.322  1.00  0.00     0.293 HD
ENDBRANCH  17  20
ENDBRANCH   1  12
BRANCH   2  22
ATOM     22  O   UNL     1       8.745  -2.362  -6.176  1.00  0.00    -0.502 OA
ATOM     23  H   UNL     1       9.457  -2.893  -5.688  1.00  0.00     0.293 HD
ENDBRANCH   2  22
BRANCH   6  24
ATOM     24  O   UNL     1       3.526  -2.975  -5.280  1.00  0.00    -0.507 OA
ATOM     25  H   UNL     1       2.570  -2.955  -4.960  1.00  0.00     0.293 HD
ENDBRANCH   6  24
BRANCH   8  26
ATOM     26  O   UNL     1       2.386  -5.881  -8.929  1.00  0.00    -0.508 OA
ATOM     27  H   UNL     1       2.000  -6.729  -8.528  1.00  0.00     0.293 HD
ENDBRANCH   8  26
TORSDOF 6
ENDMDL
MODEL 3
REMARK VINA RESULT:    -6.302      1.379      2.927
REMARK INTER + INTRA:          -7.931
REMARK INTER:                  -7.647
REMARK INTRA:                  -0.285
REMARK UNBOUND:                -0.340
REMARK SMILES O=c1c(O)c(-c2ccc(O)cc2O)oc2cc(O)cc(O)c12
REMARK SMILES IDX 5 1 3 2 2 3 1 4 22 5 20 6 19 7 17 8 16 9 15 10 14 11 6 12
REMARK SMILES IDX 8 13 7 14 9 15 11 16 12 17 10 18 13 20 4 22 21 24 18 26
REMARK H PARENT 10 19 13 21 4 23 21 25 18 27
REMARK Flexibility Score: inf
ROOT
ATOM      1  C   UNL     1       8.606  -3.013  -7.647  1.00  0.00     0.184 A 
ATOM      2  C   UNL     1       8.131  -2.086  -6.705  1.00  0.00     0.208 A 
ATOM      3  C   UNL     1       6.759  -2.055  -6.413  1.00  0.00     0.238 A 
ATOM      4  O   UNL     1       6.346  -1.260  -5.529  1.00  0.00    -0.285 OA
ATOM      5  C   UNL     1       5.878  -2.941  -7.080  1.00  0.00     0.111 A 
ATOM      6  C   UNL     1       4.463  -2.971  -6.893  1.00  0.00     0.134 A 
ATOM      7  C   UNL     1       3.705  -3.975  -7.507  1.00  0.00     0.093 A 
ATOM      8  C   UNL     1       4.303  -4.912  -8.354  1.00  0.00     0.123 A 
ATOM      9  C   UNL     1       5.674  -4.854  -8.591  1.00  0.00     0.094 A 
ATOM     10  C   UNL     1       6.463  -3.886  -7.963  1.00  0.00     0.146 A 
ATOM     11  O   UNL     1       7.768  -3.875  -8.207  1.00  0.00    -0.451 OA
ENDROOT
BRANCH   1  12
ATOM     12  C   UNL     1      10.037  -3.085  -8.012  1.00  0.00     0.063 A 
ATOM     13  C   UNL     1      12.342  -3.416  -7.317  1.00  0.00     0.047 A 
ATOM     14  C   UNL     1      10.983  -3.335  -7.006  1.00  0.00     0.020 A 
ATOM     15  C   UNL     1      12.772  -3.263  -8.638  1.00  0.00     0.119 A 
ATOM     16  C   UNL     1      11.834  -3.037  -9.653  1.00  0.00     0.093 A 
ATOM     17  C   UNL     1      10.467  -2.960  -9.349  1.00  0.00     0.130 A 
BRANCH  15  18
ATOM     18  O   UNL     1      14.132  -3.342  -8.932  1.00  0.00    -0.508 OA
ATOM     19  H   UNL     1      14.820  -2.822  -8.402  1.00  0.00     0.293 HD
ENDBRANCH  15  18
BRANCH  17  20
ATOM     20  O   UNL     1       9.538  -2.783 -10.375  1.00  0.00    -0.507 OA
ATOM     21  H   UNL     1       9.586  -1.991 -11.006  1.00  0.00     0.293 HD
ENDBRANCH  17  20
ENDBRANCH   1  12
BRANCH   2  22
ATOM     22  O   UNL     1       9.026  -1.236  -6.049  1.00  0.00    -0.502 OA
ATOM     23  H   UNL     1       9.939  -1.012  -6.426  1.00  0.00     0.293 HD
ENDBRANCH   2  22
BRANCH   6  24
ATOM     24  O   UNL     1       3.755  -2.028  -6.141  1.00  0.00    -0.507 OA
ATOM     25  H   UNL     1       4.043  -1.680  -5.238  1.00  0.00     0.293 HD
ENDBRANCH   6  24
BRANCH   8  26
ATOM     26  O   UNL     1       3.540  -5.898  -8.975  1.00  0.00    -0.508 OA
ATOM     27  H   UNL     1       3.661  -6.880  -8.752  1.00  0.00     0.293 HD
ENDBRANCH   8  26
TORSDOF 6
ENDMDL
MODEL 4
REMARK VINA RESULT:    -6.175      2.688      3.946
REMARK INTER + INTRA:          -7.778
REMARK INTER:                  -7.524
REMARK INTRA:                  -0.254
REMARK UNBOUND:                -0.340
REMARK SMILES O=c1c(O)c(-c2ccc(O)cc2O)oc2cc(O)cc(O)c12
REMARK SMILES IDX 5 1 3 2 2 3 1 4 22 5 20 6 19 7 17 8 16 9 15 10 14 11 6 12
REMARK SMILES IDX 8 13 7 14 9 15 11 16 12 17 10 18 13 20 4 22 21 24 18 26
REMARK H PARENT 10 19 13 21 4 23 21 25 18 27
REMARK Flexibility Score: inf
ROOT
ATOM      1  C   UNL     1       5.066  -3.522  -7.217  1.00  0.00     0.184 A 
ATOM      2  C   UNL     1       4.873  -2.546  -8.207  1.00  0.00     0.208 A 
ATOM      3  C   UNL     1       3.595  -1.993  -8.377  1.00  0.00     0.238 A 
ATOM      4  O   UNL     1       3.439  -1.080  -9.230  1.00  0.00    -0.285 OA
ATOM      5  C   UNL     1       2.523  -2.435  -7.563  1.00  0.00     0.111 A 
ATOM      6  C   UNL     1       1.177  -1.972  -7.674  1.00  0.00     0.134 A 
ATOM      7  C   UNL     1       0.226  -2.383  -6.732  1.00  0.00     0.093 A 
ATOM      8  C   UNL     1       0.557  -3.288  -5.722  1.00  0.00     0.123 A 
ATOM      9  C   UNL     1       1.853  -3.792  -5.641  1.00  0.00     0.094 A 
ATOM     10  C   UNL     1       2.834  -3.374  -6.545  1.00  0.00     0.146 A 
ATOM     11  O   UNL     1       4.060  -3.869  -6.425  1.00  0.00    -0.451 OA
ENDROOT
BRANCH   1  12
ATOM     12  C   UNL     1       6.383  -4.157  -6.998  1.00  0.00     0.063 A 
ATOM     13  C   UNL     1       8.248  -4.609  -5.507  1.00  0.00     0.047 A 
ATOM     14  C   UNL     1       7.007  -4.018  -5.748  1.00  0.00     0.020 A 
ATOM     15  C   UNL     1       8.876  -5.359  -6.504  1.00  0.00     0.119 A 
ATOM     16  C   UNL     1       8.252  -5.525  -7.747  1.00  0.00     0.093 A 
ATOM     17  C   UNL     1       7.003  -4.938  -7.996  1.00  0.00     0.130 A 
BRANCH  15  18
ATOM     18  O   UNL     1      10.117  -5.940  -6.250  1.00  0.00    -0.508 OA
ATOM     19  H   UNL     1      10.931  -5.719  -6.810  1.00  0.00     0.293 HD
ENDBRANCH  15  18
BRANCH  17  20
ATOM     20  O   UNL     1       6.369  -5.150  -9.220  1.00  0.00    -0.507 OA
ATOM     21  H   UNL     1       5.813  -4.428  -9.663  1.00  0.00     0.293 HD
ENDBRANCH  17  20
ENDBRANCH   1  12
BRANCH   2  22
ATOM     22  O   UNL     1       5.953  -2.115  -8.984  1.00  0.00    -0.502 OA
ATOM     23  H   UNL     1       6.274  -2.625  -9.798  1.00  0.00     0.293 HD
ENDBRANCH   2  22
BRANCH   6  24
ATOM     24  O   UNL     1       0.720  -1.138  -8.699  1.00  0.00    -0.507 OA
ATOM     25  H   UNL     1       0.296  -0.233  -8.557  1.00  0.00     0.293 HD
ENDBRANCH   6  24
BRANCH   8  26
ATOM     26  O   UNL     1      -0.399  -3.704  -4.798  1.00  0.00    -0.508 OA
ATOM     27  H   UNL     1      -1.213  -4.238  -5.081  1.00  0.00     0.293 HD
ENDBRANCH   8  26
TORSDOF 6
ENDMDL
MODEL 5
REMARK VINA RESULT:    -6.150      3.770      6.560
REMARK INTER + INTRA:          -7.748
REMARK INTER:                  -7.469
REMARK INTRA:                  -0.278
REMARK UNBOUND:                -0.340
REMARK SMILES O=c1c(O)c(-c2ccc(O)cc2O)oc2cc(O)cc(O)c12
REMARK SMILES IDX 5 1 3 2 2 3 1 4 22 5 20 6 19 7 17 8 16 9 15 10 14 11 6 12
REMARK SMILES IDX 8 13 7 14 9 15 11 16 12 17 10 18 13 20 4 22 21 24 18 26
REMARK H PARENT 10 19 13 21 4 23 21 25 18 27
REMARK Flexibility Score: inf
ROOT
ATOM      1  C   UNL     1       2.086  -2.234  -7.074  1.00  0.00     0.184 A 
ATOM      2  C   UNL     1       1.303  -1.365  -7.849  1.00  0.00     0.208 A 
ATOM      3  C   UNL     1       0.217  -0.709  -7.249  1.00  0.00     0.238 A 
ATOM      4  O   UNL     1      -0.449   0.111  -7.934  1.00  0.00    -0.285 OA
ATOM      5  C   UNL     1      -0.079  -0.944  -5.884  1.00  0.00     0.111 A 
ATOM      6  C   UNL     1      -1.179  -0.365  -5.182  1.00  0.00     0.134 A 
ATOM      7  C   UNL     1      -1.301  -0.566  -3.801  1.00  0.00     0.093 A 
ATOM      8  C   UNL     1      -0.400  -1.378  -3.110  1.00  0.00     0.123 A 
ATOM      9  C   UNL     1       0.642  -1.997  -3.797  1.00  0.00     0.094 A 
ATOM     10  C   UNL     1       0.812  -1.786  -5.168  1.00  0.00     0.146 A 
ATOM     11  O   UNL     1       1.825  -2.385  -5.782  1.00  0.00    -0.451 OA
ENDROOT
BRANCH   1  12
ATOM     12  C   UNL     1       3.232  -2.969  -7.650  1.00  0.00     0.063 A 
ATOM     13  C   UNL     1       4.212  -5.088  -8.326  1.00  0.00     0.047 A 
ATOM     14  C   UNL     1       3.150  -4.364  -7.781  1.00  0.00     0.020 A 
ATOM     15  C   UNL     1       5.364  -4.427  -8.760  1.00  0.00     0.119 A 
ATOM     16  C   UNL     1       5.448  -3.033  -8.656  1.00  0.00     0.093 A 
ATOM     17  C   UNL     1       4.383  -2.298  -8.115  1.00  0.00     0.130 A 
BRANCH  15  18
ATOM     18  O   UNL     1       6.418  -5.163  -9.299  1.00  0.00    -0.508 OA
ATOM     19  H   UNL     1       6.872  -4.886 -10.161  1.00  0.00     0.293 HD
ENDBRANCH  15  18
BRANCH  17  20
ATOM     20  O   UNL     1       4.457  -0.906  -8.060  1.00  0.00    -0.507 OA
ATOM     21  H   UNL     1       5.076  -0.382  -8.668  1.00  0.00     0.293 HD
ENDBRANCH  17  20
ENDBRANCH   1  12
BRANCH   2  22
ATOM     22  O   UNL     1       1.630  -1.137  -9.189  1.00  0.00    -0.502 OA
ATOM     23  H   UNL     1       1.681  -0.206  -9.585  1.00  0.00     0.293 HD
ENDBRANCH   2  22
BRANCH   6  24
ATOM     24  O   UNL     1      -2.186   0.388  -5.794  1.00  0.00    -0.507 OA
ATOM     25  H   UNL     1      -2.957  -0.001  -6.316  1.00  0.00     0.293 HD
ENDBRANCH   6  24
BRANCH   8  26
ATOM     26  O   UNL     1      -0.537  -1.587  -1.740  1.00  0.00    -0.508 OA
ATOM     27  H   UNL     1      -0.244  -2.454  -1.303  1.00  0.00     0.293 HD
ENDBRANCH   8  26
TORSDOF 6
ENDMDL
MODEL 6
REMARK VINA RESULT:    -6.100      4.054      6.908
REMARK INTER + INTRA:          -7.688
REMARK INTER:                  -7.281
REMARK INTRA:                  -0.407
REMARK UNBOUND:                -0.340
REMARK SMILES O=c1c(O)c(-c2ccc(O)cc2O)oc2cc(O)cc(O)c12
REMARK SMILES IDX 5 1 3 2 2 3 1 4 22 5 20 6 19 7 17 8 16 9 15 10 14 11 6 12
REMARK SMILES IDX 8 13 7 14 9 15 11 16 12 17 10 18 13 20 4 22 21 24 18 26
REMARK H PARENT 10 19 13 21 4 23 21 25 18 27
REMARK Flexibility Score: inf
ROOT
ATOM      1  C   UNL     1       1.683  -2.320  -7.092  1.00  0.00     0.184 A 
ATOM      2  C   UNL     1       1.465  -2.245  -5.707  1.00  0.00     0.208 A 
ATOM      3  C   UNL     1       0.339  -1.557  -5.231  1.00  0.00     0.238 A 
ATOM      4  O   UNL     1       0.120  -1.539  -3.991  1.00  0.00    -0.285 OA
ATOM      5  C   UNL     1      -0.546  -0.939  -6.147  1.00  0.00     0.111 A 
ATOM      6  C   UNL     1      -1.698  -0.181  -5.776  1.00  0.00     0.134 A 
ATOM      7  C   UNL     1      -2.574   0.276  -6.768  1.00  0.00     0.093 A 
ATOM      8  C   UNL     1      -2.306   0.057  -8.121  1.00  0.00     0.123 A 
ATOM      9  C   UNL     1      -1.154  -0.629  -8.496  1.00  0.00     0.094 A 
ATOM     10  C   UNL     1      -0.279  -1.129  -7.528  1.00  0.00     0.146 A 
ATOM     11  O   UNL     1       0.802  -1.788  -7.929  1.00  0.00    -0.451 OA
ENDROOT
BRANCH   1  12
ATOM     12  C   UNL     1       2.859  -3.015  -7.657  1.00  0.00     0.063 A 
ATOM     13  C   UNL     1       4.001  -5.105  -8.141  1.00  0.00     0.047 A 
ATOM     14  C   UNL     1       2.907  -4.417  -7.610  1.00  0.00     0.020 A 
ATOM     15  C   UNL     1       5.052  -4.404  -8.737  1.00  0.00     0.119 A 
ATOM     16  C   UNL     1       5.002  -3.007  -8.810  1.00  0.00     0.093 A 
ATOM     17  C   UNL     1       3.905  -2.308  -8.285  1.00  0.00     0.130 A 
BRANCH  15  18
ATOM     18  O   UNL     1       6.138  -5.105  -9.258  1.00  0.00    -0.508 OA
ATOM     19  H   UNL     1       6.051  -6.066  -9.565  1.00  0.00     0.293 HD
ENDBRANCH  15  18
BRANCH  17  20
ATOM     20  O   UNL     1       3.844  -0.919  -8.407  1.00  0.00    -0.507 OA
ATOM     21  H   UNL     1       3.141  -0.374  -7.923  1.00  0.00     0.293 HD
ENDBRANCH  17  20
ENDBRANCH   1  12
BRANCH   2  22
ATOM     22  O   UNL     1       2.346  -2.881  -4.826  1.00  0.00    -0.502 OA
ATOM     23  H   UNL     1       3.109  -2.392  -4.374  1.00  0.00     0.293 HD
ENDBRANCH   2  22
BRANCH   6  24
ATOM     24  O   UNL     1      -2.009   0.171  -4.459  1.00  0.00    -0.507 OA
ATOM     25  H   UNL     1      -1.854  -0.418  -3.654  1.00  0.00     0.293 HD
ENDBRANCH   6  24
BRANCH   8  26
ATOM     26  O   UNL     1      -3.174   0.529  -9.103  1.00  0.00    -0.508 OA
ATOM     27  H   UNL     1      -3.794   1.313  -8.931  1.00  0.00     0.293 HD
ENDBRANCH   8  26
TORSDOF 6
ENDMDL
MODEL 7
REMARK VINA RESULT:    -6.061      1.787      6.443
REMARK INTER + INTRA:          -7.641
REMARK INTER:                  -7.222
REMARK INTRA:                  -0.418
REMARK UNBOUND:                -0.340
REMARK SMILES O=c1c(O)c(-c2ccc(O)cc2O)oc2cc(O)cc(O)c12
REMARK SMILES IDX 5 1 3 2 2 3 1 4 22 5 20 6 19 7 17 8 16 9 15 10 14 11 6 12
REMARK SMILES IDX 8 13 7 14 9 15 11 16 12 17 10 18 13 20 4 22 21 24 18 26
REMARK H PARENT 10 19 13 21 4 23 21 25 18 27
REMARK Flexibility Score: inf
ROOT
ATOM      1  C   UNL     1       6.175  -3.320  -7.684  1.00  0.00     0.184 A 
ATOM      2  C   UNL     1       6.755  -4.282  -8.526  1.00  0.00     0.208 A 
ATOM      3  C   UNL     1       8.152  -4.387  -8.578  1.00  0.00     0.238 A 
ATOM      4  O   UNL     1       8.666  -5.286  -9.294  1.00  0.00    -0.285 OA
ATOM      5  C   UNL     1       8.953  -3.516  -7.798  1.00  0.00     0.111 A 
ATOM      6  C   UNL     1      10.380  -3.506  -7.803  1.00  0.00     0.134 A 
ATOM      7  C   UNL     1      11.068  -2.690  -6.895  1.00  0.00     0.093 A 
ATOM      8  C   UNL     1      10.380  -1.838  -6.029  1.00  0.00     0.123 A 
ATOM      9  C   UNL     1       8.988  -1.797  -6.059  1.00  0.00     0.094 A 
ATOM     10  C   UNL     1       8.273  -2.625  -6.928  1.00  0.00     0.146 A 
ATOM     11  O   UNL     1       6.946  -2.562  -6.916  1.00  0.00    -0.451 OA
ENDROOT
BRANCH   1  12
ATOM     12  C   UNL     1       4.709  -3.147  -7.596  1.00  0.00     0.063 A 
ATOM     13  C   UNL     1       2.569  -3.954  -6.774  1.00  0.00     0.047 A 
ATOM     14  C   UNL     1       3.955  -4.090  -6.882  1.00  0.00     0.020 A 
ATOM     15  C   UNL     1       1.921  -2.866  -7.366  1.00  0.00     0.119 A 
ATOM     16  C   UNL     1       2.667  -1.905  -8.060  1.00  0.00     0.093 A 
ATOM     17  C   UNL     1       4.060  -2.033  -8.168  1.00  0.00     0.130 A 
BRANCH  15  18
ATOM     18  O   UNL     1       0.537  -2.745  -7.253  1.00  0.00    -0.508 OA
ATOM     19  H   UNL     1       0.104  -2.374  -6.416  1.00  0.00     0.293 HD
ENDBRANCH  15  18
BRANCH  17  20
ATOM     20  O   UNL     1       4.798  -1.045  -8.820  1.00  0.00    -0.507 OA
ATOM     21  H   UNL     1       4.601  -0.060  -8.689  1.00  0.00     0.293 HD
ENDBRANCH  17  20
ENDBRANCH   1  12
BRANCH   2  22
ATOM     22  O   UNL     1       5.940  -5.140  -9.271  1.00  0.00    -0.502 OA
ATOM     23  H   UNL     1       6.168  -6.117  -9.414  1.00  0.00     0.293 HD
ENDBRANCH   2  22
BRANCH   6  24
ATOM     24  O   UNL     1      11.164  -4.251  -8.689  1.00  0.00    -0.507 OA
ATOM     25  H   UNL     1      12.042  -3.942  -9.079  1.00  0.00     0.293 HD
ENDBRANCH   6  24
BRANCH   8  26
ATOM     26  O   UNL     1      11.072  -1.018  -5.140  1.00  0.00    -0.508 OA
ATOM     27  H   UNL     1      11.271  -0.048  -5.359  1.00  0.00     0.293 HD
ENDBRANCH   8  26
TORSDOF 6
ENDMDL
MODEL 8
REMARK VINA RESULT:    -6.055      3.745      7.904
REMARK INTER + INTRA:          -7.633
REMARK INTER:                  -7.215
REMARK INTRA:                  -0.418
REMARK UNBOUND:                -0.340
REMARK SMILES O=c1c(O)c(-c2ccc(O)cc2O)oc2cc(O)cc(O)c12
REMARK SMILES IDX 5 1 3 2 2 3 1 4 22 5 20 6 19 7 17 8 16 9 15 10 14 11 6 12
REMARK SMILES IDX 8 13 7 14 9 15 11 16 12 17 10 18 13 20 4 22 21 24 18 26
REMARK H PARENT 10 19 13 21 4 23 21 25 18 27
REMARK Flexibility Score: inf
ROOT
ATOM      1  C   UNL     1      10.894  -4.993  -9.551  1.00  0.00     0.184 A 
ATOM      2  C   UNL     1      11.506  -6.046  -8.854  1.00  0.00     0.208 A 
ATOM      3  C   UNL     1      12.415  -6.873  -9.532  1.00  0.00     0.238 A 
ATOM      4  O   UNL     1      13.002  -7.782  -8.889  1.00  0.00    -0.285 OA
ATOM      5  C   UNL     1      12.687  -6.643 -10.903  1.00  0.00     0.111 A 
ATOM      6  C   UNL     1      13.560  -7.443 -11.701  1.00  0.00     0.134 A 
ATOM      7  C   UNL     1      13.855  -7.046 -13.011  1.00  0.00     0.093 A 
ATOM      8  C   UNL     1      13.258  -5.916 -13.573  1.00  0.00     0.123 A 
ATOM      9  C   UNL     1      12.357  -5.163 -12.823  1.00  0.00     0.094 A 
ATOM     10  C   UNL     1      12.071  -5.512 -11.500  1.00  0.00     0.146 A 
ATOM     11  O   UNL     1      11.216  -4.761 -10.816  1.00  0.00    -0.451 OA
ENDROOT
BRANCH   1  12
ATOM     12  C   UNL     1       9.914  -4.097  -8.900  1.00  0.00     0.063 A 
ATOM     13  C   UNL     1       9.464  -2.018  -7.724  1.00  0.00     0.047 A 
ATOM     14  C   UNL     1      10.363  -2.890  -8.341  1.00  0.00     0.020 A 
ATOM     15  C   UNL     1       8.104  -2.332  -7.669  1.00  0.00     0.119 A 
ATOM     16  C   UNL     1       7.641  -3.522  -8.245  1.00  0.00     0.093 A 
ATOM     17  C   UNL     1       8.537  -4.401  -8.872  1.00  0.00     0.130 A 
BRANCH  15  18
ATOM     18  O   UNL     1       7.219  -1.454  -7.047  1.00  0.00    -0.508 OA
ATOM     19  H   UNL     1       7.361  -1.146  -6.092  1.00  0.00     0.293 HD
ENDBRANCH  15  18
BRANCH  17  20
ATOM     20  O   UNL     1       8.059  -5.560  -9.484  1.00  0.00    -0.507 OA
ATOM     21  H   UNL     1       8.001  -6.440  -8.985  1.00  0.00     0.293 HD
ENDBRANCH  17  20
ENDBRANCH   1  12
BRANCH   2  22
ATOM     22  O   UNL     1      11.233  -6.238  -7.496  1.00  0.00    -0.502 OA
ATOM     23  H   UNL     1      11.620  -5.641  -6.775  1.00  0.00     0.293 HD
ENDBRANCH   2  22
BRANCH   6  24
ATOM     24  O   UNL     1      14.138  -8.639 -11.266  1.00  0.00    -0.507 OA
ATOM     25  H   UNL     1      14.834  -9.161 -11.778  1.00  0.00     0.293 HD
ENDBRANCH   6  24
BRANCH   8  26
ATOM     26  O   UNL     1      13.544  -5.538 -14.883  1.00  0.00    -0.508 OA
ATOM     27  H   UNL     1      13.537  -4.564 -15.167  1.00  0.00     0.293 HD
ENDBRANCH   8  26
TORSDOF 6
ENDMDL
MODEL 9
REMARK VINA RESULT:    -5.967      1.752      6.935
REMARK INTER + INTRA:          -7.528
REMARK INTER:                  -7.117
REMARK INTRA:                  -0.411
REMARK UNBOUND:                -0.340
REMARK SMILES O=c1c(O)c(-c2ccc(O)cc2O)oc2cc(O)cc(O)c12
REMARK SMILES IDX 5 1 3 2 2 3 1 4 22 5 20 6 19 7 17 8 16 9 15 10 14 11 6 12
REMARK SMILES IDX 8 13 7 14 9 15 11 16 12 17 10 18 13 20 4 22 21 24 18 26
REMARK H PARENT 10 19 13 21 4 23 21 25 18 27
REMARK Flexibility Score: inf
ROOT
ATOM      1  C   UNL     1       6.840  -2.352  -7.486  1.00  0.00     0.184 A 
ATOM      2  C   UNL     1       7.501  -1.809  -6.373  1.00  0.00     0.208 A 
ATOM      3  C   UNL     1       8.903  -1.848  -6.329  1.00  0.00     0.238 A 
ATOM      4  O   UNL     1       9.493  -1.313  -5.355  1.00  0.00    -0.285 OA
ATOM      5  C   UNL     1       9.624  -2.443  -7.394  1.00  0.00     0.111 A 
ATOM      6  C   UNL     1      11.045  -2.574  -7.437  1.00  0.00     0.134 A 
ATOM      7  C   UNL     1      11.659  -3.063  -8.597  1.00  0.00     0.093 A 
ATOM      8  C   UNL     1      10.899  -3.486  -9.690  1.00  0.00     0.123 A 
ATOM      9  C   UNL     1       9.509  -3.418  -9.634  1.00  0.00     0.094 A 
ATOM     10  C   UNL     1       8.869  -2.901  -8.505  1.00  0.00     0.146 A 
ATOM     11  O   UNL     1       7.542  -2.844  -8.498  1.00  0.00    -0.451 OA
ENDROOT
BRANCH   1  12
ATOM     12  C   UNL     1       5.365  -2.358  -7.586  1.00  0.00     0.063 A 
ATOM     13  C   UNL     1       3.256  -3.470  -7.110  1.00  0.00     0.047 A 
ATOM     14  C   UNL     1       4.650  -3.435  -7.039  1.00  0.00     0.020 A 
ATOM     15  C   UNL     1       2.557  -2.423  -7.716  1.00  0.00     0.119 A 
ATOM     16  C   UNL     1       3.258  -1.332  -8.244  1.00  0.00     0.093 A 
ATOM     17  C   UNL     1       4.658  -1.287  -8.171  1.00  0.00     0.130 A 
BRANCH  15  18
ATOM     18  O   UNL     1       1.165  -2.473  -7.783  1.00  0.00    -0.508 OA
ATOM     19  H   UNL     1       0.665  -3.352  -7.751  1.00  0.00     0.293 HD
ENDBRANCH  15  18
BRANCH  17  20
ATOM     20  O   UNL     1       5.343  -0.173  -8.657  1.00  0.00    -0.507 OA
ATOM     21  H   UNL     1       5.403   0.688  -8.126  1.00  0.00     0.293 HD
ENDBRANCH  17  20
ENDBRANCH   1  12
BRANCH   2  22
ATOM     22  O   UNL     1       6.766  -1.211  -5.346  1.00  0.00    -0.502 OA
ATOM     23  H   UNL     1       5.764  -1.070  -5.406  1.00  0.00     0.293 HD
ENDBRANCH   2  22
BRANCH   6  24
ATOM     24  O   UNL     1      11.890  -2.267  -6.366  1.00  0.00    -0.507 OA
ATOM     25  H   UNL     1      12.399  -1.401  -6.267  1.00  0.00     0.293 HD
ENDBRANCH   6  24
BRANCH   8  26
ATOM     26  O   UNL     1      11.516  -3.986 -10.834  1.00  0.00    -0.508 OA
ATOM     27  H   UNL     1      11.407  -4.954 -11.116  1.00  0.00     0.293 HD
ENDBRANCH   8  26
TORSDOF 6
ENDMDL
