MODEL 1
REMARK VINA RESULT:    -2.374      0.000      0.000
REMARK INTER + INTRA:          -2.582
REMARK INTER:                  -2.582
REMARK INTRA:                   0.000
REMARK UNBOUND:                 0.000
REMARK SMILES [NH3+]CC(=O)[O-]
REMARK SMILES IDX 2 1 1 2 3 6 4 7 5 8
REMARK H PARENT 1 3 1 4 1 5
REMARK Flexibility Score: inf
ROOT
ATOM      1  C   UNL     1     125.993 141.584 133.596  1.00  0.00     0.312 C 
ENDROOT
BRANCH   1   2
ATOM      2  N   UNL     1     125.255 140.807 132.603  1.00  0.00    -0.353 N 
ATOM      3  H   UNL     1     124.507 141.396 132.169  1.00  0.00     0.344 HD
ATOM      4  H   UNL     1     124.826 139.965 133.053  1.00  0.00     0.344 HD
ATOM      5  H   UNL     1     125.914 140.492 131.855  1.00  0.00     0.344 HD
ENDBRANCH   1   2
BRANCH   1   6
ATOM      6  C   UNL     1     125.186 141.748 134.847  1.00  0.00     0.096 C 
ATOM      7  O   UNL     1     125.507 141.125 135.893  1.00  0.00    -0.544 OA
ATOM      8  O   UNL     1     124.050 142.547 134.841  1.00  0.00    -0.544 OA
ENDBRANCH   1   6
TORSDOF 2
ENDMDL
MODEL 2
REMARK VINA RESULT:    -2.248      2.416      2.765
REMARK INTER + INTRA:          -2.446
REMARK INTER:                  -2.446
REMARK INTRA:                   0.000
REMARK UNBOUND:                 0.000
REMARK SMILES [NH3+]CC(=O)[O-]
REMARK SMILES IDX 2 1 1 2 3 6 4 7 5 8
REMARK H PARENT 1 3 1 4 1 5
REMARK Flexibility Score: inf
ROOT
ATOM      1  C   UNL     1     125.741 141.532 133.705  1.00  0.00     0.312 C 
ENDROOT
BRANCH   1   2
ATOM      2  N   UNL     1     125.210 140.769 132.578  1.00  0.00    -0.353 N 
ATOM      3  H   UNL     1     124.688 139.931 132.925  1.00  0.00     0.344 HD
ATOM      4  H   UNL     1     125.991 140.465 131.951  1.00  0.00     0.344 HD
ATOM      5  H   UNL     1     124.555 141.374 132.034  1.00  0.00     0.344 HD
ENDBRANCH   1   2
BRANCH   1   6
ATOM      6  C   UNL     1     127.161 141.934 133.449  1.00  0.00     0.096 C 
ATOM      7  O   UNL     1     127.736 141.585 132.384  1.00  0.00    -0.544 OA
ATOM      8  O   UNL     1     127.865 142.651 134.409  1.00  0.00    -0.544 OA
ENDBRANCH   1   6
TORSDOF 2
ENDMDL
MODEL 3
REMARK VINA RESULT:    -1.993      2.207      2.387
REMARK INTER + INTRA:          -2.168
REMARK INTER:                  -2.168
REMARK INTRA:                   0.000
REMARK UNBOUND:                 0.000
REMARK SMILES [NH3+]CC(=O)[O-]
REMARK SMILES IDX 2 1 1 2 3 6 4 7 5 8
REMARK H PARENT 1 3 1 4 1 5
REMARK Flexibility Score: inf
ROOT
ATOM      1  C   UNL     1     124.389 142.564 134.984  1.00  0.00     0.312 C 
ENDROOT
BRANCH   1   2
ATOM      2  N   UNL     1     123.548 141.760 135.867  1.00  0.00    -0.353 N 
ATOM      3  H   UNL     1     122.571 141.718 135.493  1.00  0.00     0.344 HD
ATOM      4  H   UNL     1     123.541 142.172 136.829  1.00  0.00     0.344 HD
ATOM      5  H   UNL     1     123.933 140.789 135.917  1.00  0.00     0.344 HD
ENDBRANCH   1   2
BRANCH   1   6
ATOM      6  C   UNL     1     125.574 141.774 134.520  1.00  0.00     0.096 C 
ATOM      7  O   UNL     1     126.540 141.563 135.301  1.00  0.00    -0.544 OA
ATOM      8  O   UNL     1     125.635 141.316 133.210  1.00  0.00    -0.544 OA
ENDBRANCH   1   6
TORSDOF 2
ENDMDL
MODEL 4
REMARK VINA RESULT:    -1.974      1.798      2.148
REMARK INTER + INTRA:          -2.147
REMARK INTER:                  -2.147
REMARK INTRA:                   0.000
REMARK UNBOUND:                 0.000
REMARK SMILES [NH3+]CC(=O)[O-]
REMARK SMILES IDX 2 1 1 2 3 6 4 7 5 8
REMARK H PARENT 1 3 1 4 1 5
REMARK Flexibility Score: inf
ROOT
ATOM      1  C   UNL     1     125.518 141.644 134.564  1.00  0.00     0.312 C 
ENDROOT
BRANCH   1   2
ATOM      2  N   UNL     1     124.133 142.067 134.366  1.00  0.00    -0.353 N 
ATOM      3  H   UNL     1     123.575 141.886 135.233  1.00  0.00     0.344 HD
ATOM      4  H   UNL     1     123.713 141.550 133.559  1.00  0.00     0.344 HD
ATOM      5  H   UNL     1     124.115 143.091 134.159  1.00  0.00     0.344 HD
ENDBRANCH   1   2
BRANCH   1   6
ATOM      6  C   UNL     1     125.723 141.140 135.960  1.00  0.00     0.096 C 
ATOM      7  O   UNL     1     124.793 140.536 136.557  1.00  0.00    -0.544 OA
ATOM      8  O   UNL     1     126.921 141.383 136.618  1.00  0.00    -0.544 OA
ENDBRANCH   1   6
TORSDOF 2
ENDMDL
MODEL 5
REMARK VINA RESULT:    -1.869     18.065     18.374
REMARK INTER + INTRA:          -2.033
REMARK INTER:                  -2.033
REMARK INTRA:                   0.000
REMARK UNBOUND:                 0.000
REMARK SMILES [NH3+]CC(=O)[O-]
REMARK SMILES IDX 2 1 1 2 3 6 4 7 5 8
REMARK H PARENT 1 3 1 4 1 5
REMARK Flexibility Score: inf
ROOT
ATOM      1  C   UNL     1     129.658 124.452 137.370  1.00  0.00     0.312 C 
ENDROOT
BRANCH   1   2
ATOM      2  N   UNL     1     128.966 123.252 137.835  1.00  0.00    -0.353 N 
ATOM      3  H   UNL     1     128.359 123.483 138.656  1.00  0.00     0.344 HD
ATOM      4  H   UNL     1     129.662 122.518 138.103  1.00  0.00     0.344 HD
ATOM      5  H   UNL     1     128.365 122.884 137.064  1.00  0.00     0.344 HD
ENDBRANCH   1   2
BRANCH   1   6
ATOM      6  C   UNL     1     130.089 124.295 135.944  1.00  0.00     0.096 C 
ATOM      7  O   UNL     1     130.884 125.125 135.428  1.00  0.00    -0.544 OA
ATOM      8  O   UNL     1     129.573 123.263 135.171  1.00  0.00    -0.544 OA
ENDBRANCH   1   6
TORSDOF 2
ENDMDL
MODEL 6
REMARK VINA RESULT:    -1.867      2.040      2.343
REMARK INTER + INTRA:          -2.031
REMARK INTER:                  -2.031
REMARK INTRA:                   0.000
REMARK UNBOUND:                 0.000
REMARK SMILES [NH3+]CC(=O)[O-]
REMARK SMILES IDX 2 1 1 2 3 6 4 7 5 8
REMARK H PARENT 1 3 1 4 1 5
REMARK Flexibility Score: inf
ROOT
ATOM      1  C   UNL     1     127.675 142.119 133.483  1.00  0.00     0.312 C 
ENDROOT
BRANCH   1   2
ATOM      2  N   UNL     1     128.279 141.219 132.502  1.00  0.00    -0.353 N 
ATOM      3  H   UNL     1     129.214 140.894 132.841  1.00  0.00     0.344 HD
ATOM      4  H   UNL     1     128.386 141.710 131.584  1.00  0.00     0.344 HD
ATOM      5  H   UNL     1     127.658 140.389 132.372  1.00  0.00     0.344 HD
ENDBRANCH   1   2
BRANCH   1   6
ATOM      6  C   UNL     1     126.317 141.631 133.882  1.00  0.00     0.096 C 
ATOM      7  O   UNL     1     125.507 141.226 133.007  1.00  0.00    -0.544 OA
ATOM      8  O   UNL     1     125.927 141.673 135.215  1.00  0.00    -0.544 OA
ENDBRANCH   1   6
TORSDOF 2
ENDMDL
MODEL 7
REMARK VINA RESULT:    -1.863     17.449     17.814
REMARK INTER + INTRA:          -2.026
REMARK INTER:                  -2.026
REMARK INTRA:                   0.000
REMARK UNBOUND:                 0.000
REMARK SMILES [NH3+]CC(=O)[O-]
REMARK SMILES IDX 2 1 1 2 3 6 4 7 5 8
REMARK H PARENT 1 3 1 4 1 5
REMARK Flexibility Score: inf
ROOT
ATOM      1  C   UNL     1     131.335 125.028 135.437  1.00  0.00     0.312 C 
ENDROOT
BRANCH   1   2
ATOM      2  N   UNL     1     131.097 125.879 134.273  1.00  0.00    -0.353 N 
ATOM      3  H   UNL     1     131.613 125.505 133.443  1.00  0.00     0.344 HD
ATOM      4  H   UNL     1     131.411 126.857 134.474  1.00  0.00     0.344 HD
ATOM      5  H   UNL     1     130.074 125.889 134.060  1.00  0.00     0.344 HD
ENDBRANCH   1   2
BRANCH   1   6
ATOM      6  C   UNL     1     130.080 124.314 135.836  1.00  0.00     0.096 C 
ATOM      7  O   UNL     1     129.438 124.684 136.855  1.00  0.00    -0.544 OA
ATOM      8  O   UNL     1     129.647 123.211 135.113  1.00  0.00    -0.544 OA
ENDBRANCH   1   6
TORSDOF 2
ENDMDL
MODEL 8
REMARK VINA RESULT:    -1.817     10.146     10.457
REMARK INTER + INTRA:          -1.976
REMARK INTER:                  -1.976
REMARK INTRA:                   0.000
REMARK UNBOUND:                 0.000
REMARK SMILES [NH3+]CC(=O)[O-]
REMARK SMILES IDX 2 1 1 2 3 6 4 7 5 8
REMARK H PARENT 1 3 1 4 1 5
REMARK Flexibility Score: inf
ROOT
ATOM      1  C   UNL     1     127.272 136.634 126.770  1.00  0.00     0.312 C 
ENDROOT
BRANCH   1   2
ATOM      2  N   UNL     1     128.170 137.498 126.006  1.00  0.00    -0.353 N 
ATOM      3  H   UNL     1     127.822 137.598 125.024  1.00  0.00     0.344 HD
ATOM      4  H   UNL     1     129.136 137.096 126.001  1.00  0.00     0.344 HD
ATOM      5  H   UNL     1     128.198 138.442 126.453  1.00  0.00     0.344 HD
ENDBRANCH   1   2
BRANCH   1   6
ATOM      6  C   UNL     1     126.461 135.771 125.854  1.00  0.00     0.096 C 
ATOM      7  O   UNL     1     125.800 136.290 124.916  1.00  0.00    -0.544 OA
ATOM      8  O   UNL     1     126.395 134.400 126.067  1.00  0.00    -0.544 OA
ENDBRANCH   1   6
TORSDOF 2
ENDMDL
MODEL 9
REMARK VINA RESULT:    -1.777     10.778     11.035
REMARK INTER + INTRA:          -1.933
REMARK INTER:                  -1.933
REMARK INTRA:                   0.000
REMARK UNBOUND:                 0.000
REMARK SMILES [NH3+]CC(=O)[O-]
REMARK SMILES IDX 2 1 1 2 3 6 4 7 5 8
REMARK H PARENT 1 3 1 4 1 5
REMARK Flexibility Score: inf
ROOT
ATOM      1  C   UNL     1     126.184 136.148 125.855  1.00  0.00     0.312 C 
ENDROOT
BRANCH   1   2
ATOM      2  N   UNL     1     127.093 136.649 126.884  1.00  0.00    -0.353 N 
ATOM      3  H   UNL     1     127.835 135.939 127.085  1.00  0.00     0.344 HD
ATOM      4  H   UNL     1     126.560 136.863 127.759  1.00  0.00     0.344 HD
ATOM      5  H   UNL     1     127.547 137.525 126.541  1.00  0.00     0.344 HD
ENDBRANCH   1   2
BRANCH   1   6
ATOM      6  C   UNL     1     126.463 134.706 125.559  1.00  0.00     0.096 C 
ATOM      7  O   UNL     1     126.907 133.949 126.463  1.00  0.00    -0.544 OA
ATOM      8  O   UNL     1     126.283 134.213 124.274  1.00  0.00    -0.544 OA
ENDBRANCH   1   6
TORSDOF 2
ENDMDL
