MODEL 1
REMARK VINA RESULT:    50.371      0.000      0.000
REMARK INTER + INTRA:          74.648
REMARK INTER:                  73.928
REMARK INTRA:                   0.720
REMARK UNBOUND:                 0.720
REMARK SMILES Cc1cc2c(C(C)C)c(O)c(O)c(C=O)c2c(O)c1-c1c(C)cc2c(C(C)C)c(O)c(O)c(C=O)c2c1O
REMARK SMILES IDX 1 1 2 2 3 3 4 4 16 5 13 6 11 7 9 8 5 9 17 10 19 11 20 12
REMARK SMILES IDX 37 13 21 14 36 15 23 16 22 17 24 18 33 19 25 20 31 21 29 22
REMARK SMILES IDX 38 23 34 25 35 26 26 27 27 28 28 29 32 30 30 32 18 34 6 36
REMARK SMILES IDX 7 37 8 38 14 39 15 40 10 41 12 43
REMARK H PARENT 38 24 32 31 30 33 18 35 10 42 12 44
REMARK Flexibility Score: inf
ROOT
ATOM      1  C   UNL     1     -15.869  50.711  24.151  1.00  0.00     0.045 C 
ATOM      2  C   UNL     1     -14.715  51.294  24.929  1.00  0.00    -0.039 A 
ATOM      3  C   UNL     1     -14.460  52.664  24.855  1.00  0.00     0.013 A 
ATOM      4  C   UNL     1     -13.423  53.274  25.587  1.00  0.00    -0.006 A 
ATOM      5  C   UNL     1     -12.569  52.445  26.378  1.00  0.00     0.039 A 
ATOM      6  C   UNL     1     -11.524  53.053  27.129  1.00  0.00     0.072 A 
ATOM      7  C   UNL     1     -11.191  54.393  26.896  1.00  0.00     0.169 A 
ATOM      8  C   UNL     1     -11.980  55.190  26.061  1.00  0.00     0.162 A 
ATOM      9  C   UNL     1     -13.191  54.686  25.523  1.00  0.00     0.008 A 
ATOM     10  C   UNL     1     -12.754  51.032  26.350  1.00  0.00     0.132 A 
ATOM     11  C   UNL     1     -13.853  50.469  25.671  1.00  0.00     0.031 A 
ENDROOT
BRANCH  11  12
ATOM     12  C   UNL     1     -14.081  49.000  25.705  1.00  0.00     0.031 A 
ATOM     13  C   UNL     1     -14.915  48.433  26.693  1.00  0.00     0.132 A 
ATOM     14  C   UNL     1     -13.495  48.185  24.725  1.00  0.00    -0.039 A 
ATOM     15  C   UNL     1     -15.122  47.018  26.742  1.00  0.00     0.039 A 
ATOM     16  C   UNL     1     -13.724  46.810  24.746  1.00  0.00     0.013 A 
ATOM     17  C   UNL     1     -12.658  48.779  23.618  1.00  0.00     0.045 C 
ATOM     18  C   UNL     1     -14.479  46.193  25.768  1.00  0.00    -0.006 A 
ATOM     19  C   UNL     1     -15.987  46.407  27.700  1.00  0.00     0.072 A 
ATOM     20  C   UNL     1     -14.636  44.773  25.811  1.00  0.00     0.008 A 
ATOM     21  C   UNL     1     -16.250  45.024  27.629  1.00  0.00     0.169 A 
ATOM     22  C   UNL     1     -15.612  44.228  26.672  1.00  0.00     0.162 A 
BRANCH  13  23
ATOM     23  O   UNL     1     -15.553  49.277  27.609  1.00  0.00    -0.507 OA
ATOM     24  H   UNL     1     -15.134  50.111  27.998  1.00  0.00     0.293 HD
ENDBRANCH  13  23
BRANCH  19  25
ATOM     25  C   UNL     1     -16.631  47.182  28.779  1.00  0.00     0.264 C 
ATOM     26  O   UNL     1     -17.123  46.598  29.780  1.00  0.00    -0.298 OA
ENDBRANCH  19  25
BRANCH  20  27
ATOM     27  C   UNL     1     -13.788  43.833  24.932  1.00  0.00     0.017 C 
ATOM     28  C   UNL     1     -12.322  44.280  24.915  1.00  0.00     0.012 C 
ATOM     29  C   UNL     1     -14.335  43.654  23.503  1.00  0.00     0.012 C 
ENDBRANCH  20  27
BRANCH  21  30
ATOM     30  O   UNL     1     -17.124  44.395  28.524  1.00  0.00    -0.504 OA
ATOM     31  H   UNL     1     -17.690  44.885  29.206  1.00  0.00     0.293 HD
ENDBRANCH  21  30
BRANCH  22  32
ATOM     32  O   UNL     1     -15.951  42.875  26.576  1.00  0.00    -0.504 OA
ATOM     33  H   UNL     1     -15.490  42.150  27.112  1.00  0.00     0.293 HD
ENDBRANCH  22  32
ENDBRANCH  11  12
BRANCH  10  34
ATOM     34  O   UNL     1     -11.810  50.188  26.947  1.00  0.00    -0.507 OA
ATOM     35  H   UNL     1     -11.051  49.746  26.443  1.00  0.00     0.293 HD
ENDBRANCH  10  34
BRANCH   9  36
ATOM     36  C   UNL     1     -14.213  55.697  24.968  1.00  0.00     0.017 C 
ATOM     37  C   UNL     1     -13.776  56.396  23.664  1.00  0.00     0.012 C 
ATOM     38  C   UNL     1     -14.706  56.682  26.037  1.00  0.00     0.012 C 
ENDBRANCH   9  36
BRANCH   6  39
ATOM     39  C   UNL     1     -10.793  52.361  28.216  1.00  0.00     0.264 C 
ATOM     40  O   UNL     1     -10.416  51.167  28.081  1.00  0.00    -0.298 OA
ENDBRANCH   6  39
BRANCH   8  41
ATOM     41  O   UNL     1     -11.531  56.488  25.792  1.00  0.00    -0.504 OA
ATOM     42  H   UNL     1     -10.590  56.810  25.980  1.00  0.00     0.293 HD
ENDBRANCH   8  41
BRANCH   7  43
ATOM     43  O   UNL     1     -10.068  54.939  27.529  1.00  0.00    -0.504 OA
ATOM     44  H   UNL     1      -9.125  54.807  27.184  1.00  0.00     0.293 HD
ENDBRANCH   7  43
TORSDOF 11
ENDMDL
MODEL 2
REMARK VINA RESULT:    52.398      0.288      9.053
REMARK INTER + INTRA:          77.623
REMARK INTER:                  76.293
REMARK INTRA:                   1.330
REMARK UNBOUND:                 0.720
REMARK SMILES Cc1cc2c(C(C)C)c(O)c(O)c(C=O)c2c(O)c1-c1c(C)cc2c(C(C)C)c(O)c(O)c(C=O)c2c1O
REMARK SMILES IDX 1 1 2 2 3 3 4 4 16 5 13 6 11 7 9 8 5 9 17 10 19 11 20 12
REMARK SMILES IDX 37 13 21 14 36 15 23 16 22 17 24 18 33 19 25 20 31 21 29 22
REMARK SMILES IDX 38 23 34 25 35 26 26 27 27 28 28 29 32 30 30 32 18 34 6 36
REMARK SMILES IDX 7 37 8 38 14 39 15 40 10 41 12 43
REMARK H PARENT 38 24 32 31 30 33 18 35 10 42 12 44
REMARK Flexibility Score: inf
ROOT
ATOM      1  C   UNL     1     -12.261  48.718  23.756  1.00  0.00     0.045 C 
ATOM      2  C   UNL     1     -13.215  48.126  24.764  1.00  0.00    -0.039 A 
ATOM      3  C   UNL     1     -13.437  46.748  24.771  1.00  0.00     0.013 A 
ATOM      4  C   UNL     1     -14.285  46.130  25.712  1.00  0.00    -0.006 A 
ATOM      5  C   UNL     1     -14.985  46.958  26.643  1.00  0.00     0.039 A 
ATOM      6  C   UNL     1     -15.838  46.342  27.603  1.00  0.00     0.072 A 
ATOM      7  C   UNL     1     -16.170  44.989  27.470  1.00  0.00     0.169 A 
ATOM      8  C   UNL     1     -15.543  44.191  26.508  1.00  0.00     0.162 A 
ATOM      9  C   UNL     1     -14.482  44.712  25.725  1.00  0.00     0.008 A 
ATOM     10  C   UNL     1     -14.854  48.374  26.549  1.00  0.00     0.132 A 
ATOM     11  C   UNL     1     -13.933  48.947  25.649  1.00  0.00     0.031 A 
ENDROOT
BRANCH  11  12
ATOM     12  C   UNL     1     -13.748  50.422  25.606  1.00  0.00     0.031 A 
ATOM     13  C   UNL     1     -12.713  51.031  26.348  1.00  0.00     0.132 A 
ATOM     14  C   UNL     1     -14.584  51.201  24.793  1.00  0.00    -0.039 A 
ATOM     15  C   UNL     1     -12.542  52.451  26.325  1.00  0.00     0.039 A 
ATOM     16  C   UNL     1     -14.399  52.582  24.738  1.00  0.00     0.013 A 
ATOM     17  C   UNL     1     -15.652  50.564  23.938  1.00  0.00     0.045 C 
ATOM     18  C   UNL     1     -13.432  53.239  25.531  1.00  0.00    -0.006 A 
ATOM     19  C   UNL     1     -11.485  53.104  27.029  1.00  0.00     0.072 A 
ATOM     20  C   UNL     1     -13.312  54.664  25.516  1.00  0.00     0.008 A 
ATOM     21  C   UNL     1     -11.290  54.491  26.877  1.00  0.00     0.169 A 
ATOM     22  C   UNL     1     -12.169  55.250  26.099  1.00  0.00     0.162 A 
BRANCH  13  23
ATOM     23  O   UNL     1     -11.842  50.222  27.086  1.00  0.00    -0.507 OA
ATOM     24  H   UNL     1     -11.912  49.214  27.140  1.00  0.00     0.293 HD
ENDBRANCH  13  23
BRANCH  19  25
ATOM     25  C   UNL     1     -10.570  52.367  27.923  1.00  0.00     0.264 C 
ATOM     26  O   UNL     1     -10.946  51.308  28.492  1.00  0.00    -0.298 OA
ENDBRANCH  19  25
BRANCH  20  27
ATOM     27  C   UNL     1     -14.380  55.563  24.863  1.00  0.00     0.017 C 
ATOM     28  C   UNL     1     -13.737  56.544  23.877  1.00  0.00     0.012 C 
ATOM     29  C   UNL     1     -15.281  56.295  25.875  1.00  0.00     0.012 C 
ENDBRANCH  20  27
BRANCH  21  30
ATOM     30  O   UNL     1     -10.240  55.160  27.517  1.00  0.00    -0.504 OA
ATOM     31  H   UNL     1     -10.021  56.139  27.380  1.00  0.00     0.293 HD
ENDBRANCH  21  30
BRANCH  22  32
ATOM     32  O   UNL     1     -11.906  56.609  25.904  1.00  0.00    -0.504 OA
ATOM     33  H   UNL     1     -12.521  57.224  25.384  1.00  0.00     0.293 HD
ENDBRANCH  22  32
ENDBRANCH  11  12
BRANCH  10  34
ATOM     34  O   UNL     1     -15.683  49.209  27.308  1.00  0.00    -0.507 OA
ATOM     35  H   UNL     1     -15.541  50.206  27.405  1.00  0.00     0.293 HD
ENDBRANCH  10  34
BRANCH   9  36
ATOM     36  C   UNL     1     -13.562  43.713  24.994  1.00  0.00     0.017 C 
ATOM     37  C   UNL     1     -12.058  44.033  25.105  1.00  0.00     0.012 C 
ATOM     38  C   UNL     1     -14.011  43.448  23.551  1.00  0.00     0.012 C 
ENDBRANCH   9  36
BRANCH   6  39
ATOM     39  C   UNL     1     -16.354  47.043  28.802  1.00  0.00     0.264 C 
ATOM     40  O   UNL     1     -17.125  46.459  29.608  1.00  0.00    -0.298 OA
ENDBRANCH   6  39
BRANCH   8  41
ATOM     41  O   UNL     1     -15.996  42.876  26.362  1.00  0.00    -0.504 OA
ATOM     42  H   UNL     1     -16.833  42.621  25.852  1.00  0.00     0.293 HD
ENDBRANCH   8  41
BRANCH   7  43
ATOM     43  O   UNL     1     -17.124  44.431  28.329  1.00  0.00    -0.504 OA
ATOM     44  H   UNL     1     -16.898  44.100  29.259  1.00  0.00     0.293 HD
ENDBRANCH   7  43
TORSDOF 11
ENDMDL
MODEL 3
REMARK VINA RESULT:    52.903      1.397      9.058
REMARK INTER + INTRA:          78.365
REMARK INTER:                  76.551
REMARK INTRA:                   1.814
REMARK UNBOUND:                 0.720
REMARK SMILES Cc1cc2c(C(C)C)c(O)c(O)c(C=O)c2c(O)c1-c1c(C)cc2c(C(C)C)c(O)c(O)c(C=O)c2c1O
REMARK SMILES IDX 1 1 2 2 3 3 4 4 16 5 13 6 11 7 9 8 5 9 17 10 19 11 20 12
REMARK SMILES IDX 37 13 21 14 36 15 23 16 22 17 24 18 33 19 25 20 31 21 29 22
REMARK SMILES IDX 38 23 34 25 35 26 26 27 27 28 28 29 32 30 30 32 18 34 6 36
REMARK SMILES IDX 7 37 8 38 14 39 15 40 10 41 12 43
REMARK H PARENT 38 24 32 31 30 33 18 35 10 42 12 44
REMARK Flexibility Score: inf
ROOT
ATOM      1  C   UNL     1     -15.948  50.199  28.626  1.00  0.00     0.045 C 
ATOM      2  C   UNL     1     -15.534  49.025  27.774  1.00  0.00    -0.039 A 
ATOM      3  C   UNL     1     -15.906  47.735  28.154  1.00  0.00     0.013 A 
ATOM      4  C   UNL     1     -15.584  46.603  27.380  1.00  0.00    -0.006 A 
ATOM      5  C   UNL     1     -14.795  46.785  26.203  1.00  0.00     0.039 A 
ATOM      6  C   UNL     1     -14.472  45.648  25.410  1.00  0.00     0.072 A 
ATOM      7  C   UNL     1     -14.710  44.363  25.909  1.00  0.00     0.169 A 
ATOM      8  C   UNL     1     -15.417  44.180  27.103  1.00  0.00     0.162 A 
ATOM      9  C   UNL     1     -15.998  45.288  27.769  1.00  0.00     0.008 A 
ATOM     10  C   UNL     1     -14.309  48.087  25.888  1.00  0.00     0.132 A 
ATOM     11  C   UNL     1     -14.723  49.205  26.641  1.00  0.00     0.031 A 
ENDROOT
BRANCH  11  12
ATOM     12  C   UNL     1     -14.270  50.570  26.264  1.00  0.00     0.031 A 
ATOM     13  C   UNL     1     -13.132  51.137  26.878  1.00  0.00     0.132 A 
ATOM     14  C   UNL     1     -14.956  51.276  25.264  1.00  0.00    -0.039 A 
ATOM     15  C   UNL     1     -12.703  52.457  26.533  1.00  0.00     0.039 A 
ATOM     16  C   UNL     1     -14.519  52.549  24.897  1.00  0.00     0.013 A 
ATOM     17  C   UNL     1     -16.131  50.661  24.545  1.00  0.00     0.045 C 
ATOM     18  C   UNL     1     -13.440  53.186  25.549  1.00  0.00    -0.006 A 
ATOM     19  C   UNL     1     -11.537  53.053  27.102  1.00  0.00     0.072 A 
ATOM     20  C   UNL     1     -13.060  54.521  25.207  1.00  0.00     0.008 A 
ATOM     21  C   UNL     1     -11.090  54.308  26.639  1.00  0.00     0.169 A 
ATOM     22  C   UNL     1     -11.822  55.011  25.677  1.00  0.00     0.162 A 
BRANCH  13  23
ATOM     23  O   UNL     1     -12.418  50.379  27.813  1.00  0.00    -0.507 OA
ATOM     24  H   UNL     1     -11.452  50.548  28.061  1.00  0.00     0.293 HD
ENDBRANCH  13  23
BRANCH  19  25
ATOM     25  C   UNL     1     -10.764  52.392  28.172  1.00  0.00     0.264 C 
ATOM     26  O   UNL     1     -10.244  51.261  27.980  1.00  0.00    -0.298 OA
ENDBRANCH  19  25
BRANCH  20  27
ATOM     27  C   UNL     1     -13.950  55.421  24.329  1.00  0.00     0.017 C 
ATOM     28  C   UNL     1     -13.137  56.044  23.188  1.00  0.00     0.012 C 
ATOM     29  C   UNL     1     -14.722  56.496  25.118  1.00  0.00     0.012 C 
ENDBRANCH  20  27
BRANCH  21  30
ATOM     30  O   UNL     1      -9.929  54.906  27.142  1.00  0.00    -0.504 OA
ATOM     31  H   UNL     1      -8.990  54.660  26.851  1.00  0.00     0.293 HD
ENDBRANCH  21  30
BRANCH  22  32
ATOM     32  O   UNL     1     -11.315  56.215  25.181  1.00  0.00    -0.504 OA
ATOM     33  H   UNL     1     -11.374  56.482  24.206  1.00  0.00     0.293 HD
ENDBRANCH  22  32
ENDBRANCH  11  12
BRANCH  10  34
ATOM     34  O   UNL     1     -13.370  48.258  24.864  1.00  0.00    -0.507 OA
ATOM     35  H   UNL     1     -12.801  49.088  24.754  1.00  0.00     0.293 HD
ENDBRANCH  10  34
BRANCH   9  36
ATOM     36  C   UNL     1     -17.091  45.010  28.820  1.00  0.00     0.017 C 
ATOM     37  C   UNL     1     -17.125  46.017  29.987  1.00  0.00     0.012 C 
ATOM     38  C   UNL     1     -17.096  43.550  29.292  1.00  0.00     0.012 C 
ENDBRANCH   9  36
BRANCH   6  39
ATOM     39  C   UNL     1     -13.950  45.742  24.027  1.00  0.00     0.264 C 
ATOM     40  O   UNL     1     -13.447  44.737  23.458  1.00  0.00    -0.298 OA
ENDBRANCH   6  39
BRANCH   8  41
ATOM     41  O   UNL     1     -15.529  42.875  27.596  1.00  0.00    -0.504 OA
ATOM     42  H   UNL     1     -15.784  42.653  28.550  1.00  0.00     0.293 HD
ENDBRANCH   8  41
BRANCH   7  43
ATOM     43  O   UNL     1     -14.254  43.253  25.189  1.00  0.00    -0.504 OA
ATOM     44  H   UNL     1     -14.821  42.776  24.499  1.00  0.00     0.293 HD
ENDBRANCH   7  43
TORSDOF 11
ENDMDL
