MODEL 1
REMARK VINA RESULT:    -3.048      0.000      0.000
REMARK INTER + INTRA:          -7.811
REMARK INTER:                  -5.542
REMARK INTRA:                  -2.268
REMARK UNBOUND:                -2.268
REMARK SMILES CCCCCCCCCCCCCCCC(=O)[O-]
REMARK SMILES IDX 9 1 10 2 11 3 12 4 13 5 14 6 15 7 16 8 17 9 18 10 8 11 7 12
REMARK SMILES IDX 6 13 5 14 4 15 3 16 2 17 1 18
REMARK H PARENT
REMARK Flexibility Score: inf
ROOT
ATOM      1  C   UNL     1      10.085  -3.030  20.385  1.00  0.00     0.000 C 
ENDROOT
BRANCH   1   2
ATOM      2  C   UNL     1       8.562  -3.247  20.408  1.00  0.00     0.000 C 
BRANCH   2   3
ATOM      3  C   UNL     1       7.812  -2.219  19.531  1.00  0.00     0.000 C 
BRANCH   3   4
ATOM      4  C   UNL     1       6.478  -2.745  18.967  1.00  0.00     0.000 C 
BRANCH   4   5
ATOM      5  C   UNL     1       5.460  -1.652  18.600  1.00  0.00     0.000 C 
BRANCH   5   6
ATOM      6  C   UNL     1       5.843  -0.888  17.321  1.00  0.00     0.006 C 
BRANCH   6   7
ATOM      7  C   UNL     1       5.349  -1.599  16.055  1.00  0.00     0.053 C 
BRANCH   7   8
ATOM      8  C   UNL     1       4.868  -0.621  15.026  1.00  0.00     0.041 C 
ATOM      9  O   UNL     1       4.396  -1.030  13.932  1.00  0.00    -0.550 OA
ATOM     10  O   UNL     1       4.969   0.744  15.264  1.00  0.00    -0.550 OA
ENDBRANCH   7   8
ENDBRANCH   6   7
ENDBRANCH   5   6
ENDBRANCH   4   5
ENDBRANCH   3   4
ENDBRANCH   2   3
ENDBRANCH   1   2
BRANCH   1  11
ATOM     11  C   UNL     1      10.876  -4.341  20.228  1.00  0.00     0.000 C 
BRANCH  11  12
ATOM     12  C   UNL     1      10.026  -5.622  20.313  1.00  0.00    -0.000 C 
BRANCH  12  13
ATOM     13  C   UNL     1       9.971  -6.390  18.981  1.00  0.00    -0.000 C 
BRANCH  13  14
ATOM     14  C   UNL     1       8.573  -6.369  18.346  1.00  0.00    -0.000 C 
BRANCH  14  15
ATOM     15  C   UNL     1       8.457  -5.340  17.207  1.00  0.00    -0.000 C 
BRANCH  15  16
ATOM     16  C   UNL     1       9.838  -4.889  16.687  1.00  0.00    -0.000 C 
BRANCH  16  17
ATOM     17  C   UNL     1      10.017  -3.362  16.664  1.00  0.00    -0.003 C 
ATOM     18  C   UNL     1       8.883  -2.637  15.943  1.00  0.00     0.004 C 
ENDBRANCH  16  17
ENDBRANCH  15  16
ENDBRANCH  14  15
ENDBRANCH  13  14
ENDBRANCH  12  13
ENDBRANCH  11  12
ENDBRANCH   1  11
TORSDOF 14
ENDMDL
MODEL 2
REMARK VINA RESULT:    -2.912      3.478      5.561
REMARK INTER + INTRA:          -7.564
REMARK INTER:                  -5.624
REMARK INTRA:                  -1.940
REMARK UNBOUND:                -2.268
REMARK SMILES CCCCCCCCCCCCCCCC(=O)[O-]
REMARK SMILES IDX 9 1 10 2 11 3 12 4 13 5 14 6 15 7 16 8 17 9 18 10 8 11 7 12
REMARK SMILES IDX 6 13 5 14 4 15 3 16 2 17 1 18
REMARK H PARENT
REMARK Flexibility Score: inf
ROOT
ATOM      1  C   UNL     1      10.609  -3.545  19.850  1.00  0.00     0.000 C 
ENDROOT
BRANCH   1   2
ATOM      2  C   UNL     1      10.861  -4.676  20.862  1.00  0.00     0.000 C 
BRANCH   2   3
ATOM      3  C   UNL     1      10.346  -6.040  20.355  1.00  0.00     0.000 C 
BRANCH   3   4
ATOM      4  C   UNL     1       9.199  -5.927  19.332  1.00  0.00     0.000 C 
BRANCH   4   5
ATOM      5  C   UNL     1       9.347  -6.832  18.097  1.00  0.00     0.000 C 
BRANCH   5   6
ATOM      6  C   UNL     1       8.000  -7.129  17.415  1.00  0.00     0.006 C 
BRANCH   6   7
ATOM      7  C   UNL     1       8.148  -8.120  16.253  1.00  0.00     0.053 C 
BRANCH   7   8
ATOM      8  C   UNL     1       7.207  -9.278  16.393  1.00  0.00     0.041 C 
ATOM      9  O   UNL     1       7.347 -10.101  17.337  1.00  0.00    -0.550 OA
ATOM     10  O   UNL     1       6.192  -9.466  15.462  1.00  0.00    -0.550 OA
ENDBRANCH   7   8
ENDBRANCH   6   7
ENDBRANCH   5   6
ENDBRANCH   4   5
ENDBRANCH   3   4
ENDBRANCH   2   3
ENDBRANCH   1   2
BRANCH   1  11
ATOM     11  C   UNL     1       9.773  -2.391  20.433  1.00  0.00     0.000 C 
BRANCH  11  12
ATOM     12  C   UNL     1       8.309  -2.750  20.749  1.00  0.00    -0.000 C 
BRANCH  12  13
ATOM     13  C   UNL     1       7.314  -2.119  19.760  1.00  0.00    -0.000 C 
BRANCH  13  14
ATOM     14  C   UNL     1       6.833  -3.114  18.693  1.00  0.00    -0.000 C 
BRANCH  14  15
ATOM     15  C   UNL     1       6.643  -2.456  17.315  1.00  0.00    -0.000 C 
BRANCH  15  16
ATOM     16  C   UNL     1       7.986  -2.213  16.595  1.00  0.00    -0.000 C 
BRANCH  16  17
ATOM     17  C   UNL     1       8.963  -3.395  16.701  1.00  0.00    -0.003 C 
ATOM     18  C   UNL     1       9.181  -4.113  15.372  1.00  0.00     0.004 C 
ENDBRANCH  16  17
ENDBRANCH  15  16
ENDBRANCH  14  15
ENDBRANCH  13  14
ENDBRANCH  12  13
ENDBRANCH  11  12
ENDBRANCH   1  11
TORSDOF 14
ENDMDL
MODEL 3
REMARK VINA RESULT:    -2.904      1.047      2.637
REMARK INTER + INTRA:          -7.549
REMARK INTER:                  -5.481
REMARK INTRA:                  -2.068
REMARK UNBOUND:                -2.268
REMARK SMILES CCCCCCCCCCCCCCCC(=O)[O-]
REMARK SMILES IDX 9 1 10 2 11 3 12 4 13 5 14 6 15 7 16 8 17 9 18 10 8 11 7 12
REMARK SMILES IDX 6 13 5 14 4 15 3 16 2 17 1 18
REMARK H PARENT
REMARK Flexibility Score: inf
ROOT
ATOM      1  C   UNL     1       9.514  -1.377  19.344  1.00  0.00     0.000 C 
ENDROOT
BRANCH   1   2
ATOM      2  C   UNL     1       8.407  -2.260  19.946  1.00  0.00     0.000 C 
BRANCH   2   3
ATOM      3  C   UNL     1       6.997  -1.680  19.700  1.00  0.00     0.000 C 
BRANCH   3   4
ATOM      4  C   UNL     1       6.158  -2.497  18.699  1.00  0.00     0.000 C 
BRANCH   4   5
ATOM      5  C   UNL     1       5.512  -1.671  17.574  1.00  0.00     0.000 C 
BRANCH   5   6
ATOM      6  C   UNL     1       6.382  -1.610  16.308  1.00  0.00     0.006 C 
BRANCH   6   7
ATOM      7  C   UNL     1       6.131  -0.334  15.495  1.00  0.00     0.053 C 
BRANCH   7   8
ATOM      8  C   UNL     1       4.770  -0.339  14.868  1.00  0.00     0.041 C 
ATOM      9  O   UNL     1       4.384  -1.332  14.195  1.00  0.00    -0.550 OA
ATOM     10  O   UNL     1       3.939   0.767  15.000  1.00  0.00    -0.550 OA
ENDBRANCH   7   8
ENDBRANCH   6   7
ENDBRANCH   5   6
ENDBRANCH   4   5
ENDBRANCH   3   4
ENDBRANCH   2   3
ENDBRANCH   1   2
BRANCH   1  11
ATOM     11  C   UNL     1       9.715  -1.610  17.836  1.00  0.00     0.000 C 
BRANCH  11  12
ATOM     12  C   UNL     1      10.149  -3.038  17.456  1.00  0.00    -0.000 C 
BRANCH  12  13
ATOM     13  C   UNL     1       9.064  -3.802  16.677  1.00  0.00    -0.000 C 
BRANCH  13  14
ATOM     14  C   UNL     1       8.812  -5.207  17.244  1.00  0.00    -0.000 C 
BRANCH  14  15
ATOM     15  C   UNL     1      10.002  -5.737  18.062  1.00  0.00    -0.000 C 
BRANCH  15  16
ATOM     16  C   UNL     1       9.563  -6.314  19.425  1.00  0.00    -0.000 C 
BRANCH  16  17
ATOM     17  C   UNL     1      10.603  -6.116  20.540  1.00  0.00    -0.003 C 
ATOM     18  C   UNL     1      11.125  -4.684  20.624  1.00  0.00     0.004 C 
ENDBRANCH  16  17
ENDBRANCH  15  16
ENDBRANCH  14  15
ENDBRANCH  13  14
ENDBRANCH  12  13
ENDBRANCH  11  12
ENDBRANCH   1  11
TORSDOF 14
ENDMDL
MODEL 4
REMARK VINA RESULT:    -2.838      1.847      3.038
REMARK INTER + INTRA:          -7.429
REMARK INTER:                  -5.830
REMARK INTRA:                  -1.599
REMARK UNBOUND:                -2.268
REMARK SMILES CCCCCCCCCCCCCCCC(=O)[O-]
REMARK SMILES IDX 9 1 10 2 11 3 12 4 13 5 14 6 15 7 16 8 17 9 18 10 8 11 7 12
REMARK SMILES IDX 6 13 5 14 4 15 3 16 2 17 1 18
REMARK H PARENT
REMARK Flexibility Score: inf
ROOT
ATOM      1  C   UNL     1      10.785  -4.397  19.716  1.00  0.00     0.000 C 
ENDROOT
BRANCH   1   2
ATOM      2  C   UNL     1      10.923  -3.323  20.809  1.00  0.00     0.000 C 
BRANCH   2   3
ATOM      3  C   UNL     1       9.691  -2.394  20.875  1.00  0.00     0.000 C 
BRANCH   3   4
ATOM      4  C   UNL     1       8.812  -2.443  19.610  1.00  0.00     0.000 C 
BRANCH   4   5
ATOM      5  C   UNL     1       7.311  -2.648  19.877  1.00  0.00     0.000 C 
BRANCH   5   6
ATOM      6  C   UNL     1       6.505  -2.881  18.588  1.00  0.00     0.006 C 
BRANCH   6   7
ATOM      7  C   UNL     1       6.305  -1.586  17.790  1.00  0.00     0.053 C 
BRANCH   7   8
ATOM      8  C   UNL     1       6.269  -1.848  16.315  1.00  0.00     0.041 C 
ATOM      9  O   UNL     1       5.167  -1.977  15.719  1.00  0.00    -0.550 OA
ATOM     10  O   UNL     1       7.455  -1.979  15.603  1.00  0.00    -0.550 OA
ENDBRANCH   7   8
ENDBRANCH   6   7
ENDBRANCH   5   6
ENDBRANCH   4   5
ENDBRANCH   3   4
ENDBRANCH   2   3
ENDBRANCH   1   2
BRANCH   1  11
ATOM     11  C   UNL     1      10.164  -5.706  20.236  1.00  0.00     0.000 C 
BRANCH  11  12
ATOM     12  C   UNL     1       9.564  -6.613  19.145  1.00  0.00    -0.000 C 
BRANCH  12  13
ATOM     13  C   UNL     1       8.411  -5.942  18.380  1.00  0.00    -0.000 C 
BRANCH  13  14
ATOM     14  C   UNL     1       8.633  -5.941  16.860  1.00  0.00    -0.000 C 
BRANCH  14  15
ATOM     15  C   UNL     1       9.838  -6.800  16.439  1.00  0.00    -0.000 C 
BRANCH  15  16
ATOM     16  C   UNL     1       9.406  -8.147  15.821  1.00  0.00    -0.000 C 
BRANCH  16  17
ATOM     17  C   UNL     1       7.898  -8.422  15.940  1.00  0.00    -0.003 C 
ATOM     18  C   UNL     1       7.563  -9.478  16.991  1.00  0.00     0.004 C 
ENDBRANCH  16  17
ENDBRANCH  15  16
ENDBRANCH  14  15
ENDBRANCH  13  14
ENDBRANCH  12  13
ENDBRANCH  11  12
ENDBRANCH   1  11
TORSDOF 14
ENDMDL
MODEL 5
REMARK VINA RESULT:    -2.838      1.194      3.043
REMARK INTER + INTRA:          -7.429
REMARK INTER:                  -5.083
REMARK INTRA:                  -2.346
REMARK UNBOUND:                -2.268
REMARK SMILES CCCCCCCCCCCCCCCC(=O)[O-]
REMARK SMILES IDX 9 1 10 2 11 3 12 4 13 5 14 6 15 7 16 8 17 9 18 10 8 11 7 12
REMARK SMILES IDX 6 13 5 14 4 15 3 16 2 17 1 18
REMARK H PARENT
REMARK Flexibility Score: inf
ROOT
ATOM      1  C   UNL     1       8.925  -3.085  16.740  1.00  0.00     0.000 C 
ENDROOT
BRANCH   1   2
ATOM      2  C   UNL     1       7.419  -3.161  17.045  1.00  0.00     0.000 C 
BRANCH   2   3
ATOM      3  C   UNL     1       7.135  -3.289  18.558  1.00  0.00     0.000 C 
BRANCH   3   4
ATOM      4  C   UNL     1       6.307  -2.124  19.133  1.00  0.00     0.000 C 
BRANCH   4   5
ATOM      5  C   UNL     1       5.101  -1.706  18.275  1.00  0.00     0.000 C 
BRANCH   5   6
ATOM      6  C   UNL     1       5.066  -0.193  17.997  1.00  0.00     0.006 C 
BRANCH   6   7
ATOM      7  C   UNL     1       6.099   0.224  16.943  1.00  0.00     0.053 C 
BRANCH   7   8
ATOM      8  C   UNL     1       5.611  -0.052  15.553  1.00  0.00     0.041 C 
ATOM      9  O   UNL     1       6.261  -0.815  14.791  1.00  0.00    -0.550 OA
ATOM     10  O   UNL     1       4.452   0.558  15.089  1.00  0.00    -0.550 OA
ENDBRANCH   7   8
ENDBRANCH   6   7
ENDBRANCH   5   6
ENDBRANCH   4   5
ENDBRANCH   3   4
ENDBRANCH   2   3
ENDBRANCH   1   2
BRANCH   1  11
ATOM     11  C   UNL     1       9.624  -1.911  17.449  1.00  0.00     0.000 C 
BRANCH  11  12
ATOM     12  C   UNL     1      10.768  -2.317  18.395  1.00  0.00    -0.000 C 
BRANCH  12  13
ATOM     13  C   UNL     1      10.439  -2.056  19.875  1.00  0.00    -0.000 C 
BRANCH  13  14
ATOM     14  C   UNL     1      10.172  -3.351  20.657  1.00  0.00    -0.000 C 
BRANCH  14  15
ATOM     15  C   UNL     1      10.727  -4.597  19.944  1.00  0.00    -0.000 C 
BRANCH  15  16
ATOM     16  C   UNL     1       9.666  -5.708  19.802  1.00  0.00    -0.000 C 
BRANCH  16  17
ATOM     17  C   UNL     1       9.639  -6.357  18.408  1.00  0.00    -0.003 C 
ATOM     18  C   UNL     1       8.233  -6.738  17.952  1.00  0.00     0.004 C 
ENDBRANCH  16  17
ENDBRANCH  15  16
ENDBRANCH  14  15
ENDBRANCH  13  14
ENDBRANCH  12  13
ENDBRANCH  11  12
ENDBRANCH   1  11
TORSDOF 14
ENDMDL
MODEL 6
REMARK VINA RESULT:    -2.812      3.026      5.601
REMARK INTER + INTRA:          -7.381
REMARK INTER:                  -4.595
REMARK INTRA:                  -2.786
REMARK UNBOUND:                -2.268
REMARK SMILES CCCCCCCCCCCCCCCC(=O)[O-]
REMARK SMILES IDX 9 1 10 2 11 3 12 4 13 5 14 6 15 7 16 8 17 9 18 10 8 11 7 12
REMARK SMILES IDX 6 13 5 14 4 15 3 16 2 17 1 18
REMARK H PARENT
REMARK Flexibility Score: inf
ROOT
ATOM      1  C   UNL     1       5.538  -1.832  18.141  1.00  0.00     0.000 C 
ENDROOT
BRANCH   1   2
ATOM      2  C   UNL     1       6.378  -2.699  19.096  1.00  0.00     0.000 C 
BRANCH   2   3
ATOM      3  C   UNL     1       7.305  -1.851  19.993  1.00  0.00     0.000 C 
BRANCH   3   4
ATOM      4  C   UNL     1       8.273  -2.690  20.851  1.00  0.00     0.000 C 
BRANCH   4   5
ATOM      5  C   UNL     1       9.764  -2.439  20.571  1.00  0.00     0.000 C 
BRANCH   5   6
ATOM      6  C   UNL     1      10.461  -3.654  19.935  1.00  0.00     0.006 C 
BRANCH   6   7
ATOM      7  C   UNL     1       9.545  -4.884  19.886  1.00  0.00     0.053 C 
BRANCH   7   8
ATOM      8  C   UNL     1       9.273  -5.313  18.476  1.00  0.00     0.041 C 
ATOM      9  O   UNL     1      10.162  -5.192  17.592  1.00  0.00    -0.550 OA
ATOM     10  O   UNL     1       8.025  -5.818  18.131  1.00  0.00    -0.550 OA
ENDBRANCH   7   8
ENDBRANCH   6   7
ENDBRANCH   5   6
ENDBRANCH   4   5
ENDBRANCH   3   4
ENDBRANCH   2   3
ENDBRANCH   1   2
BRANCH   1  11
ATOM     11  C   UNL     1       5.997  -1.934  16.676  1.00  0.00     0.000 C 
BRANCH  11  12
ATOM     12  C   UNL     1       7.299  -2.727  16.460  1.00  0.00    -0.000 C 
BRANCH  12  13
ATOM     13  C   UNL     1       8.446  -1.854  15.924  1.00  0.00    -0.000 C 
BRANCH  13  14
ATOM     14  C   UNL     1       9.613  -1.739  16.916  1.00  0.00    -0.000 C 
BRANCH  14  15
ATOM     15  C   UNL     1       9.736  -0.331  17.524  1.00  0.00    -0.000 C 
BRANCH  15  16
ATOM     16  C   UNL     1       8.717   0.657  16.915  1.00  0.00    -0.000 C 
BRANCH  16  17
ATOM     17  C   UNL     1       7.730   1.233  17.944  1.00  0.00    -0.003 C 
ATOM     18  C   UNL     1       6.434   1.735  17.313  1.00  0.00     0.004 C 
ENDBRANCH  16  17
ENDBRANCH  15  16
ENDBRANCH  14  15
ENDBRANCH  13  14
ENDBRANCH  12  13
ENDBRANCH  11  12
ENDBRANCH   1  11
TORSDOF 14
ENDMDL
MODEL 7
REMARK VINA RESULT:    -2.773      1.499      2.658
REMARK INTER + INTRA:          -7.311
REMARK INTER:                  -5.753
REMARK INTRA:                  -1.558
REMARK UNBOUND:                -2.268
REMARK SMILES CCCCCCCCCCCCCCCC(=O)[O-]
REMARK SMILES IDX 9 1 10 2 11 3 12 4 13 5 14 6 15 7 16 8 17 9 18 10 8 11 7 12
REMARK SMILES IDX 6 13 5 14 4 15 3 16 2 17 1 18
REMARK H PARENT
REMARK Flexibility Score: inf
ROOT
ATOM      1  C   UNL     1       9.736  -3.129  20.533  1.00  0.00     0.000 C 
ENDROOT
BRANCH   1   2
ATOM      2  C   UNL     1       9.869  -1.747  19.871  1.00  0.00     0.000 C 
BRANCH   2   3
ATOM      3  C   UNL     1       8.891  -1.568  18.688  1.00  0.00     0.000 C 
BRANCH   3   4
ATOM      4  C   UNL     1       8.358  -2.898  18.120  1.00  0.00     0.000 C 
BRANCH   4   5
ATOM      5  C   UNL     1       6.881  -3.186  18.437  1.00  0.00     0.000 C 
BRANCH   5   6
ATOM      6  C   UNL     1       6.141  -1.956  18.989  1.00  0.00     0.006 C 
BRANCH   6   7
ATOM      7  C   UNL     1       4.996  -1.511  18.070  1.00  0.00     0.053 C 
BRANCH   7   8
ATOM      8  C   UNL     1       5.497  -1.130  16.710  1.00  0.00     0.041 C 
ATOM      9  O   UNL     1       6.301  -0.170  16.575  1.00  0.00    -0.550 OA
ATOM     10  O   UNL     1       5.052  -1.817  15.587  1.00  0.00    -0.550 OA
ENDBRANCH   7   8
ENDBRANCH   6   7
ENDBRANCH   5   6
ENDBRANCH   4   5
ENDBRANCH   3   4
ENDBRANCH   2   3
ENDBRANCH   1   2
BRANCH   1  11
ATOM     11  C   UNL     1      11.052  -3.926  20.530  1.00  0.00     0.000 C 
BRANCH  11  12
ATOM     12  C   UNL     1      10.924  -5.386  21.002  1.00  0.00    -0.000 C 
BRANCH  12  13
ATOM     13  C   UNL     1      10.959  -6.394  19.840  1.00  0.00    -0.000 C 
BRANCH  13  14
ATOM     14  C   UNL     1       9.607  -6.512  19.121  1.00  0.00    -0.000 C 
BRANCH  14  15
ATOM     15  C   UNL     1       9.713  -6.225  17.613  1.00  0.00    -0.000 C 
BRANCH  15  16
ATOM     16  C   UNL     1       8.438  -6.643  16.849  1.00  0.00    -0.000 C 
BRANCH  16  17
ATOM     17  C   UNL     1       7.965  -8.069  17.178  1.00  0.00    -0.003 C 
ATOM     18  C   UNL     1       8.854  -9.150  16.568  1.00  0.00     0.004 C 
ENDBRANCH  16  17
ENDBRANCH  15  16
ENDBRANCH  14  15
ENDBRANCH  13  14
ENDBRANCH  12  13
ENDBRANCH  11  12
ENDBRANCH   1  11
TORSDOF 14
ENDMDL
MODEL 8
REMARK VINA RESULT:    -2.769      1.177      2.069
REMARK INTER + INTRA:          -7.303
REMARK INTER:                  -5.659
REMARK INTRA:                  -1.644
REMARK UNBOUND:                -2.268
REMARK SMILES CCCCCCCCCCCCCCCC(=O)[O-]
REMARK SMILES IDX 9 1 10 2 11 3 12 4 13 5 14 6 15 7 16 8 17 9 18 10 8 11 7 12
REMARK SMILES IDX 6 13 5 14 4 15 3 16 2 17 1 18
REMARK H PARENT
REMARK Flexibility Score: inf
ROOT
ATOM      1  C   UNL     1       8.965  -1.907  18.635  1.00  0.00     0.000 C 
ENDROOT
BRANCH   1   2
ATOM      2  C   UNL     1       7.847  -2.911  18.302  1.00  0.00     0.000 C 
BRANCH   2   3
ATOM      3  C   UNL     1       6.597  -2.706  19.185  1.00  0.00     0.000 C 
BRANCH   3   4
ATOM      4  C   UNL     1       5.485  -1.885  18.503  1.00  0.00     0.000 C 
BRANCH   4   5
ATOM      5  C   UNL     1       5.608  -1.781  16.973  1.00  0.00     0.000 C 
BRANCH   5   6
ATOM      6  C   UNL     1       5.231  -0.388  16.441  1.00  0.00     0.006 C 
BRANCH   6   7
ATOM      7  C   UNL     1       5.795  -0.135  15.037  1.00  0.00     0.053 C 
BRANCH   7   8
ATOM      8  C   UNL     1       4.738  -0.279  13.984  1.00  0.00     0.041 C 
ATOM      9  O   UNL     1       4.146  -1.379  13.823  1.00  0.00    -0.550 OA
ATOM     10  O   UNL     1       4.429   0.795  13.158  1.00  0.00    -0.550 OA
ENDBRANCH   7   8
ENDBRANCH   6   7
ENDBRANCH   5   6
ENDBRANCH   4   5
ENDBRANCH   3   4
ENDBRANCH   2   3
ENDBRANCH   1   2
BRANCH   1  11
ATOM     11  C   UNL     1      10.241  -2.584  19.167  1.00  0.00     0.000 C 
BRANCH  11  12
ATOM     12  C   UNL     1      10.011  -3.587  20.312  1.00  0.00    -0.000 C 
BRANCH  12  13
ATOM     13  C   UNL     1      10.828  -4.880  20.145  1.00  0.00    -0.000 C 
BRANCH  13  14
ATOM     14  C   UNL     1       9.954  -6.142  20.213  1.00  0.00    -0.000 C 
BRANCH  14  15
ATOM     15  C   UNL     1       9.857  -6.867  18.859  1.00  0.00    -0.000 C 
BRANCH  15  16
ATOM     16  C   UNL     1       8.576  -6.489  18.086  1.00  0.00    -0.000 C 
BRANCH  16  17
ATOM     17  C   UNL     1       8.838  -6.066  16.631  1.00  0.00    -0.003 C 
ATOM     18  C   UNL     1      10.115  -5.246  16.467  1.00  0.00     0.004 C 
ENDBRANCH  16  17
ENDBRANCH  15  16
ENDBRANCH  14  15
ENDBRANCH  13  14
ENDBRANCH  12  13
ENDBRANCH  11  12
ENDBRANCH   1  11
TORSDOF 14
ENDMDL
MODEL 9
REMARK VINA RESULT:    -2.741      2.884      4.599
REMARK INTER + INTRA:          -7.253
REMARK INTER:                  -5.718
REMARK INTRA:                  -1.535
REMARK UNBOUND:                -2.268
REMARK SMILES CCCCCCCCCCCCCCCC(=O)[O-]
REMARK SMILES IDX 9 1 10 2 11 3 12 4 13 5 14 6 15 7 16 8 17 9 18 10 8 11 7 12
REMARK SMILES IDX 6 13 5 14 4 15 3 16 2 17 1 18
REMARK H PARENT
REMARK Flexibility Score: inf
ROOT
ATOM      1  C   UNL     1      10.035  -6.495  19.751  1.00  0.00     0.000 C 
ENDROOT
BRANCH   1   2
ATOM      2  C   UNL     1      10.761  -5.591  20.761  1.00  0.00     0.000 C 
BRANCH   2   3
ATOM      3  C   UNL     1      11.060  -4.190  20.183  1.00  0.00     0.000 C 
BRANCH   3   4
ATOM      4  C   UNL     1       9.903  -3.188  20.360  1.00  0.00     0.000 C 
BRANCH   4   5
ATOM      5  C   UNL     1       9.261  -2.708  19.047  1.00  0.00     0.000 C 
BRANCH   5   6
ATOM      6  C   UNL     1       7.991  -3.496  18.684  1.00  0.00     0.006 C 
BRANCH   6   7
ATOM      7  C   UNL     1       7.747  -3.531  17.170  1.00  0.00     0.053 C 
BRANCH   7   8
ATOM      8  C   UNL     1       6.918  -2.367  16.718  1.00  0.00     0.041 C 
ATOM      9  O   UNL     1       5.842  -2.086  17.309  1.00  0.00    -0.550 OA
ATOM     10  O   UNL     1       7.319  -1.611  15.624  1.00  0.00    -0.550 OA
ENDBRANCH   7   8
ENDBRANCH   6   7
ENDBRANCH   5   6
ENDBRANCH   4   5
ENDBRANCH   3   4
ENDBRANCH   2   3
ENDBRANCH   1   2
BRANCH   1  11
ATOM     11  C   UNL     1      10.658  -6.446  18.344  1.00  0.00     0.000 C 
BRANCH  11  12
ATOM     12  C   UNL     1       9.660  -6.649  17.189  1.00  0.00    -0.000 C 
BRANCH  12  13
ATOM     13  C   UNL     1       8.296  -7.176  17.665  1.00  0.00    -0.000 C 
BRANCH  13  14
ATOM     14  C   UNL     1       8.053  -8.637  17.257  1.00  0.00    -0.000 C 
BRANCH  14  15
ATOM     15  C   UNL     1       6.940  -8.779  16.204  1.00  0.00    -0.000 C 
BRANCH  15  16
ATOM     16  C   UNL     1       6.400 -10.223  16.118  1.00  0.00    -0.000 C 
BRANCH  16  17
ATOM     17  C   UNL     1       6.824 -11.109  17.301  1.00  0.00    -0.003 C 
ATOM     18  C   UNL     1       5.639 -11.647  18.099  1.00  0.00     0.004 C 
ENDBRANCH  16  17
ENDBRANCH  15  16
ENDBRANCH  14  15
ENDBRANCH  13  14
ENDBRANCH  12  13
ENDBRANCH  11  12
ENDBRANCH   1  11
TORSDOF 14
ENDMDL
