MODEL 1
REMARK VINA RESULT:    -3.597      0.000      0.000
REMARK INTER + INTRA:          -4.661
REMARK INTER:                  -4.438
REMARK INTRA:                  -0.223
REMARK UNBOUND:                -0.223
REMARK SMILES CCCCC=CC(C)=O
REMARK SMILES IDX 4 1 3 2 2 3 1 4 5 5 6 6 7 7 9 8 8 9
REMARK H PARENT
REMARK Flexibility Score: inf
ROOT
ATOM      1  C   UNL     1    -121.485 -99.542   3.004  1.00  0.00     0.027 C 
ENDROOT
BRANCH   1   2
ATOM      2  C   UNL     1    -122.253-100.539   3.882  1.00  0.00     0.004 C 
BRANCH   2   3
ATOM      3  C   UNL     1    -122.351-100.070   5.341  1.00  0.00    -0.003 C 
ATOM      4  C   UNL     1    -122.134 -98.564   5.450  1.00  0.00     0.004 C 
ENDBRANCH   2   3
ENDBRANCH   1   2
BRANCH   1   5
ATOM      5  C   UNL     1    -120.693-100.242   1.935  1.00  0.00    -0.023 C 
ATOM      6  C   UNL     1    -120.275-101.504   2.086  1.00  0.00     0.042 C 
BRANCH   6   7
ATOM      7  C   UNL     1    -119.465-102.193   1.065  1.00  0.00     0.152 C 
ATOM      8  O   UNL     1    -118.360-102.720   1.363  1.00  0.00    -0.295 OA
ATOM      9  C   UNL     1    -119.961-102.268  -0.344  1.00  0.00     0.093 C 
ENDBRANCH   6   7
ENDBRANCH   1   5
TORSDOF 4
ENDMDL
MODEL 2
REMARK VINA RESULT:    -3.446      0.925      1.113
REMARK INTER + INTRA:          -4.475
REMARK INTER:                  -4.271
REMARK INTRA:                  -0.204
REMARK UNBOUND:                -0.223
REMARK SMILES CCCCC=CC(C)=O
REMARK SMILES IDX 4 1 3 2 2 3 1 4 5 5 6 6 7 7 9 8 8 9
REMARK H PARENT
REMARK Flexibility Score: inf
ROOT
ATOM      1  C   UNL     1    -121.481 -99.474   3.100  1.00  0.00     0.027 C 
ENDROOT
BRANCH   1   2
ATOM      2  C   UNL     1    -122.293-100.478   3.927  1.00  0.00     0.004 C 
BRANCH   2   3
ATOM      3  C   UNL     1    -122.377-100.077   5.407  1.00  0.00    -0.003 C 
ATOM      4  C   UNL     1    -122.081 -98.591   5.591  1.00  0.00     0.004 C 
ENDBRANCH   2   3
ENDBRANCH   1   2
BRANCH   1   5
ATOM      5  C   UNL     1    -120.756-100.147   1.968  1.00  0.00    -0.023 C 
ATOM      6  C   UNL     1    -120.396-101.434   2.033  1.00  0.00     0.042 C 
BRANCH   6   7
ATOM      7  C   UNL     1    -119.653-102.099   0.947  1.00  0.00     0.152 C 
ATOM      8  O   UNL     1    -120.237-102.456  -0.112  1.00  0.00    -0.295 OA
ATOM      9  C   UNL     1    -118.187-102.352   1.101  1.00  0.00     0.093 C 
ENDBRANCH   6   7
ENDBRANCH   1   5
TORSDOF 4
ENDMDL
MODEL 3
REMARK VINA RESULT:    -3.390      2.540      5.133
REMARK INTER + INTRA:          -4.406
REMARK INTER:                  -4.236
REMARK INTRA:                  -0.170
REMARK UNBOUND:                -0.223
REMARK SMILES CCCCC=CC(C)=O
REMARK SMILES IDX 4 1 3 2 2 3 1 4 5 5 6 6 7 7 9 8 8 9
REMARK H PARENT
REMARK Flexibility Score: inf
ROOT
ATOM      1  C   UNL     1    -120.463-100.079   1.737  1.00  0.00     0.027 C 
ENDROOT
BRANCH   1   2
ATOM      2  C   UNL     1    -120.519-101.586   2.020  1.00  0.00     0.004 C 
BRANCH   2   3
ATOM      3  C   UNL     1    -119.849-102.409   0.910  1.00  0.00    -0.003 C 
ATOM      4  C   UNL     1    -118.330-102.293   0.981  1.00  0.00     0.004 C 
ENDBRANCH   2   3
ENDBRANCH   1   2
BRANCH   1   5
ATOM      5  C   UNL     1    -121.263 -99.297   2.741  1.00  0.00    -0.023 C 
ATOM      6  C   UNL     1    -121.729 -99.864   3.860  1.00  0.00     0.042 C 
BRANCH   6   7
ATOM      7  C   UNL     1    -122.547 -99.121   4.836  1.00  0.00     0.152 C 
ATOM      8  O   UNL     1    -122.034 -98.225   5.560  1.00  0.00    -0.295 OA
ATOM      9  C   UNL     1    -124.003 -99.434   4.971  1.00  0.00     0.093 C 
ENDBRANCH   6   7
ENDBRANCH   1   5
TORSDOF 4
ENDMDL
MODEL 4
REMARK VINA RESULT:    -3.301     12.417     12.760
REMARK INTER + INTRA:          -4.296
REMARK INTER:                  -4.183
REMARK INTRA:                  -0.113
REMARK UNBOUND:                -0.223
REMARK SMILES CCCCC=CC(C)=O
REMARK SMILES IDX 4 1 3 2 2 3 1 4 5 5 6 6 7 7 9 8 8 9
REMARK H PARENT
REMARK Flexibility Score: inf
ROOT
ATOM      1  C   UNL     1    -114.192 -99.120  14.291  1.00  0.00     0.027 C 
ENDROOT
BRANCH   1   2
ATOM      2  C   UNL     1    -115.641 -98.649  14.113  1.00  0.00     0.004 C 
BRANCH   2   3
ATOM      3  C   UNL     1    -116.055 -97.632  15.187  1.00  0.00    -0.003 C 
ATOM      4  C   UNL     1    -116.035 -96.211  14.634  1.00  0.00     0.004 C 
ENDBRANCH   2   3
ENDBRANCH   1   2
BRANCH   1   5
ATOM      5  C   UNL     1    -113.671 -99.787  13.049  1.00  0.00    -0.023 C 
ATOM      6  C   UNL     1    -112.906-100.883  13.110  1.00  0.00     0.042 C 
BRANCH   6   7
ATOM      7  C   UNL     1    -112.356-101.528  11.903  1.00  0.00     0.152 C 
ATOM      8  O   UNL     1    -112.938-102.515  11.376  1.00  0.00    -0.295 OA
ATOM      9  C   UNL     1    -111.094-101.006  11.296  1.00  0.00     0.093 C 
ENDBRANCH   6   7
ENDBRANCH   1   5
TORSDOF 4
ENDMDL
MODEL 5
REMARK VINA RESULT:    -3.236     13.166     14.476
REMARK INTER + INTRA:          -4.216
REMARK INTER:                  -4.035
REMARK INTRA:                  -0.182
REMARK UNBOUND:                -0.223
REMARK SMILES CCCCC=CC(C)=O
REMARK SMILES IDX 4 1 3 2 2 3 1 4 5 5 6 6 7 7 9 8 8 9
REMARK H PARENT
REMARK Flexibility Score: inf
ROOT
ATOM      1  C   UNL     1    -116.048 -98.284  15.357  1.00  0.00     0.027 C 
ENDROOT
BRANCH   1   2
ATOM      2  C   UNL     1    -115.426 -98.646  14.002  1.00  0.00     0.004 C 
BRANCH   2   3
ATOM      3  C   UNL     1    -114.028 -99.265  14.153  1.00  0.00    -0.003 C 
ATOM      4  C   UNL     1    -113.424 -99.597  12.792  1.00  0.00     0.004 C 
ENDBRANCH   2   3
ENDBRANCH   1   2
BRANCH   1   5
ATOM      5  C   UNL     1    -116.054 -96.798  15.583  1.00  0.00    -0.023 C 
ATOM      6  C   UNL     1    -116.288 -95.938  14.585  1.00  0.00     0.042 C 
BRANCH   6   7
ATOM      7  C   UNL     1    -116.262 -94.478  14.783  1.00  0.00     0.152 C 
ATOM      8  O   UNL     1    -117.323 -93.838  15.019  1.00  0.00    -0.295 OA
ATOM      9  C   UNL     1    -114.961 -93.744  14.703  1.00  0.00     0.093 C 
ENDBRANCH   6   7
ENDBRANCH   1   5
TORSDOF 4
ENDMDL
MODEL 6
REMARK VINA RESULT:    -3.194      2.904      5.089
REMARK INTER + INTRA:          -4.165
REMARK INTER:                  -3.990
REMARK INTRA:                  -0.175
REMARK UNBOUND:                -0.223
REMARK SMILES CCCCC=CC(C)=O
REMARK SMILES IDX 4 1 3 2 2 3 1 4 5 5 6 6 7 7 9 8 8 9
REMARK H PARENT
REMARK Flexibility Score: inf
ROOT
ATOM      1  C   UNL     1    -120.374-100.774   1.404  1.00  0.00     0.027 C 
ENDROOT
BRANCH   1   2
ATOM      2  C   UNL     1    -119.287 -99.704   1.239  1.00  0.00     0.004 C 
BRANCH   2   3
ATOM      3  C   UNL     1    -117.924-100.313   0.879  1.00  0.00    -0.003 C 
ATOM      4  C   UNL     1    -116.785 -99.367   1.247  1.00  0.00     0.004 C 
ENDBRANCH   2   3
ENDBRANCH   1   2
BRANCH   1   5
ATOM      5  C   UNL     1    -121.081-100.646   2.723  1.00  0.00    -0.023 C 
ATOM      6  C   UNL     1    -121.380 -99.451   3.245  1.00  0.00     0.042 C 
BRANCH   6   7
ATOM      7  C   UNL     1    -122.040 -99.306   4.555  1.00  0.00     0.152 C 
ATOM      8  O   UNL     1    -122.093 -98.187   5.133  1.00  0.00    -0.295 OA
ATOM      9  C   UNL     1    -122.658-100.502   5.208  1.00  0.00     0.093 C 
ENDBRANCH   6   7
ENDBRANCH   1   5
TORSDOF 4
ENDMDL
MODEL 7
REMARK VINA RESULT:    -3.109      1.849      2.209
REMARK INTER + INTRA:          -4.059
REMARK INTER:                  -3.872
REMARK INTRA:                  -0.187
REMARK UNBOUND:                -0.223
REMARK SMILES CCCCC=CC(C)=O
REMARK SMILES IDX 4 1 3 2 2 3 1 4 5 5 6 6 7 7 9 8 8 9
REMARK H PARENT
REMARK Flexibility Score: inf
ROOT
ATOM      1  C   UNL     1    -121.952 -99.938   2.854  1.00  0.00     0.027 C 
ENDROOT
BRANCH   1   2
ATOM      2  C   UNL     1    -121.887-100.695   4.187  1.00  0.00     0.004 C 
BRANCH   2   3
ATOM      3  C   UNL     1    -122.624 -99.951   5.311  1.00  0.00    -0.003 C 
ATOM      4  C   UNL     1    -122.074 -98.540   5.489  1.00  0.00     0.004 C 
ENDBRANCH   2   3
ENDBRANCH   1   2
BRANCH   1   5
ATOM      5  C   UNL     1    -120.739-100.207   2.007  1.00  0.00    -0.023 C 
ATOM      6  C   UNL     1    -119.852 -99.245   1.728  1.00  0.00     0.042 C 
BRANCH   6   7
ATOM      7  C   UNL     1    -118.678 -99.482   0.869  1.00  0.00     0.152 C 
ATOM      8  O   UNL     1    -118.776-100.168  -0.185  1.00  0.00    -0.295 OA
ATOM      9  C   UNL     1    -117.354 -98.900   1.249  1.00  0.00     0.093 C 
ENDBRANCH   6   7
ENDBRANCH   1   5
TORSDOF 4
ENDMDL
MODEL 8
REMARK VINA RESULT:    -3.064      1.873      2.176
REMARK INTER + INTRA:          -4.004
REMARK INTER:                  -3.845
REMARK INTRA:                  -0.159
REMARK UNBOUND:                -0.223
REMARK SMILES CCCCC=CC(C)=O
REMARK SMILES IDX 4 1 3 2 2 3 1 4 5 5 6 6 7 7 9 8 8 9
REMARK H PARENT
REMARK Flexibility Score: inf
ROOT
ATOM      1  C   UNL     1    -122.105 -99.643   4.386  1.00  0.00     0.027 C 
ENDROOT
BRANCH   1   2
ATOM      2  C   UNL     1    -123.377 -99.850   5.218  1.00  0.00     0.004 C 
BRANCH   2   3
ATOM      3  C   UNL     1    -124.635 -99.355   4.488  1.00  0.00    -0.003 C 
ATOM      4  C   UNL     1    -125.900 -99.746   5.245  1.00  0.00     0.004 C 
ENDBRANCH   2   3
ENDBRANCH   1   2
BRANCH   1   5
ATOM      5  C   UNL     1    -122.089-100.529   3.172  1.00  0.00    -0.023 C 
ATOM      6  C   UNL     1    -120.957-101.083   2.724  1.00  0.00     0.042 C 
BRANCH   6   7
ATOM      7  C   UNL     1    -120.917-101.924   1.513  1.00  0.00     0.152 C 
ATOM      8  O   UNL     1    -119.978-102.745   1.327  1.00  0.00    -0.295 OA
ATOM      9  C   UNL     1    -122.004-101.804   0.494  1.00  0.00     0.093 C 
ENDBRANCH   6   7
ENDBRANCH   1   5
TORSDOF 4
ENDMDL
MODEL 9
REMARK VINA RESULT:    -3.006      4.347      5.840
REMARK INTER + INTRA:          -3.933
REMARK INTER:                  -3.747
REMARK INTRA:                  -0.185
REMARK UNBOUND:                -0.223
REMARK SMILES CCCCC=CC(C)=O
REMARK SMILES IDX 4 1 3 2 2 3 1 4 5 5 6 6 7 7 9 8 8 9
REMARK H PARENT
REMARK Flexibility Score: inf
ROOT
ATOM      1  C   UNL     1    -126.478 -99.770   4.836  1.00  0.00     0.027 C 
ENDROOT
BRANCH   1   2
ATOM      2  C   UNL     1    -127.486 -99.929   5.982  1.00  0.00     0.004 C 
BRANCH   2   3
ATOM      3  C   UNL     1    -127.000-100.925   7.046  1.00  0.00    -0.003 C 
ATOM      4  C   UNL     1    -127.644-100.639   8.399  1.00  0.00     0.004 C 
ENDBRANCH   2   3
ENDBRANCH   1   2
BRANCH   1   5
ATOM      5  C   UNL     1    -125.062 -99.763   5.341  1.00  0.00    -0.023 C 
ATOM      6  C   UNL     1    -124.056 -99.286   4.600  1.00  0.00     0.042 C 
BRANCH   6   7
ATOM      7  C   UNL     1    -122.657 -99.306   5.065  1.00  0.00     0.152 C 
ATOM      8  O   UNL     1    -122.073 -98.240   5.400  1.00  0.00    -0.295 OA
ATOM      9  C   UNL     1    -121.921-100.605   5.143  1.00  0.00     0.093 C 
ENDBRANCH   6   7
ENDBRANCH   1   5
TORSDOF 4
ENDMDL
