MODEL 1
REMARK VINA RESULT:    -6.235      0.000      0.000
REMARK INTER + INTRA:         -13.230
REMARK INTER:                 -11.338
REMARK INTRA:                  -1.892
REMARK UNBOUND:                -1.892
REMARK SMILES CCCCCCCCCCCCCCCC(=O)[O-]
REMARK SMILES IDX 9 1 10 2 11 3 12 4 13 5 14 6 15 7 16 8 17 9 18 10 8 11 7 12
REMARK SMILES IDX 6 13 5 14 4 15 3 16 2 17 1 18
REMARK H PARENT
REMARK Flexibility Score: inf
ROOT
ATOM      1  C   UNL     1     -18.270  -9.202   0.952  1.00  0.00     0.000 C 
ENDROOT
BRANCH   1   2
ATOM      2  C   UNL     1     -17.575  -7.860   1.247  1.00  0.00     0.000 C 
BRANCH   2   3
ATOM      3  C   UNL     1     -16.119  -7.746   0.751  1.00  0.00     0.000 C 
BRANCH   3   4
ATOM      4  C   UNL     1     -15.387  -9.084   0.541  1.00  0.00     0.000 C 
BRANCH   4   5
ATOM      5  C   UNL     1     -15.125  -9.394  -0.944  1.00  0.00     0.000 C 
BRANCH   5   6
ATOM      6  C   UNL     1     -15.298  -8.159  -1.847  1.00  0.00     0.006 C 
BRANCH   6   7
ATOM      7  C   UNL     1     -16.523  -8.216  -2.775  1.00  0.00     0.053 C 
BRANCH   7   8
ATOM      8  C   UNL     1     -16.148  -8.576  -4.180  1.00  0.00     0.041 C 
ATOM      9  O   UNL     1     -16.718  -8.014  -5.151  1.00  0.00    -0.550 OA
ATOM     10  O   UNL     1     -15.144  -9.507  -4.415  1.00  0.00    -0.550 OA
ENDBRANCH   7   8
ENDBRANCH   6   7
ENDBRANCH   5   6
ENDBRANCH   4   5
ENDBRANCH   3   4
ENDBRANCH   2   3
ENDBRANCH   1   2
BRANCH   1  11
ATOM     11  C   UNL     1     -19.051  -9.192  -0.374  1.00  0.00     0.000 C 
BRANCH  11  12
ATOM     12  C   UNL     1     -18.935 -10.518  -1.148  1.00  0.00    -0.000 C 
BRANCH  12  13
ATOM     13  C   UNL     1     -18.898 -11.786  -0.276  1.00  0.00    -0.000 C 
BRANCH  13  14
ATOM     14  C   UNL     1     -18.554 -13.053  -1.073  1.00  0.00    -0.000 C 
BRANCH  14  15
ATOM     15  C   UNL     1     -17.135 -13.535  -0.753  1.00  0.00    -0.000 C 
BRANCH  15  16
ATOM     16  C   UNL     1     -16.492 -12.667   0.340  1.00  0.00    -0.000 C 
BRANCH  16  17
ATOM     17  C   UNL     1     -15.240 -13.317   0.951  1.00  0.00    -0.003 C 
ATOM     18  C   UNL     1     -15.559 -14.196   2.159  1.00  0.00     0.004 C 
ENDBRANCH  16  17
ENDBRANCH  15  16
ENDBRANCH  14  15
ENDBRANCH  13  14
ENDBRANCH  12  13
ENDBRANCH  11  12
ENDBRANCH   1  11
TORSDOF 14
ENDMDL
MODEL 2
REMARK VINA RESULT:    -6.123      2.410      5.523
REMARK INTER + INTRA:         -13.027
REMARK INTER:                 -10.955
REMARK INTRA:                  -2.072
REMARK UNBOUND:                -1.892
REMARK SMILES CCCCCCCCCCCCCCCC(=O)[O-]
REMARK SMILES IDX 9 1 10 2 11 3 12 4 13 5 14 6 15 7 16 8 17 9 18 10 8 11 7 12
REMARK SMILES IDX 6 13 5 14 4 15 3 16 2 17 1 18
REMARK H PARENT
REMARK Flexibility Score: inf
ROOT
ATOM      1  C   UNL     1     -19.033  -9.112  -0.301  1.00  0.00     0.000 C 
ENDROOT
BRANCH   1   2
ATOM      2  C   UNL     1     -19.050 -10.413  -1.123  1.00  0.00     0.000 C 
BRANCH   2   3
ATOM      3  C   UNL     1     -19.027 -11.717  -0.300  1.00  0.00     0.000 C 
BRANCH   3   4
ATOM      4  C   UNL     1     -18.898 -13.013  -1.122  1.00  0.00     0.000 C 
BRANCH   4   5
ATOM      5  C   UNL     1     -17.563 -13.106  -1.882  1.00  0.00     0.000 C 
BRANCH   5   6
ATOM      6  C   UNL     1     -16.649 -14.223  -1.345  1.00  0.00     0.006 C 
BRANCH   6   7
ATOM      7  C   UNL     1     -16.147 -13.999   0.091  1.00  0.00     0.053 C 
BRANCH   7   8
ATOM      8  C   UNL     1     -14.719 -13.545   0.122  1.00  0.00     0.041 C 
ATOM      9  O   UNL     1     -13.969 -13.744  -0.868  1.00  0.00    -0.550 OA
ATOM     10  O   UNL     1     -14.228 -12.872   1.233  1.00  0.00    -0.550 OA
ENDBRANCH   7   8
ENDBRANCH   6   7
ENDBRANCH   5   6
ENDBRANCH   4   5
ENDBRANCH   3   4
ENDBRANCH   2   3
ENDBRANCH   1   2
BRANCH   1  11
ATOM     11  C   UNL     1     -18.025  -9.152   0.860  1.00  0.00     0.000 C 
BRANCH  11  12
ATOM     12  C   UNL     1     -17.027  -7.979   0.829  1.00  0.00    -0.000 C 
BRANCH  12  13
ATOM     13  C   UNL     1     -15.683  -8.279   0.140  1.00  0.00    -0.000 C 
BRANCH  13  14
ATOM     14  C   UNL     1     -15.468  -9.774  -0.131  1.00  0.00    -0.000 C 
BRANCH  14  15
ATOM     15  C   UNL     1     -15.402 -10.056  -1.637  1.00  0.00    -0.000 C 
BRANCH  15  16
ATOM     16  C   UNL     1     -15.476  -8.751  -2.444  1.00  0.00    -0.000 C 
BRANCH  16  17
ATOM     17  C   UNL     1     -16.760  -8.648  -3.284  1.00  0.00    -0.003 C 
ATOM     18  C   UNL     1     -16.503  -8.115  -4.693  1.00  0.00     0.004 C 
ENDBRANCH  16  17
ENDBRANCH  15  16
ENDBRANCH  14  15
ENDBRANCH  13  14
ENDBRANCH  12  13
ENDBRANCH  11  12
ENDBRANCH   1  11
TORSDOF 14
ENDMDL
MODEL 3
REMARK VINA RESULT:    -6.067      1.248      2.556
REMARK INTER + INTRA:         -12.925
REMARK INTER:                 -10.878
REMARK INTRA:                  -2.047
REMARK UNBOUND:                -1.892
REMARK SMILES CCCCCCCCCCCCCCCC(=O)[O-]
REMARK SMILES IDX 9 1 10 2 11 3 12 4 13 5 14 6 15 7 16 8 17 9 18 10 8 11 7 12
REMARK SMILES IDX 6 13 5 14 4 15 3 16 2 17 1 18
REMARK H PARENT
REMARK Flexibility Score: inf
ROOT
ATOM      1  C   UNL     1     -19.065  -9.290  -0.447  1.00  0.00     0.000 C 
ENDROOT
BRANCH   1   2
ATOM      2  C   UNL     1     -18.223  -9.201   0.839  1.00  0.00     0.000 C 
BRANCH   2   3
ATOM      3  C   UNL     1     -17.765  -7.782   1.233  1.00  0.00     0.000 C 
BRANCH   3   4
ATOM      4  C   UNL     1     -16.364  -7.380   0.736  1.00  0.00     0.000 C 
BRANCH   4   5
ATOM      5  C   UNL     1     -15.676  -8.493  -0.073  1.00  0.00     0.000 C 
BRANCH   5   6
ATOM      6  C   UNL     1     -15.281  -8.041  -1.491  1.00  0.00     0.006 C 
BRANCH   6   7
ATOM      7  C   UNL     1     -16.416  -8.127  -2.525  1.00  0.00     0.053 C 
BRANCH   7   8
ATOM      8  C   UNL     1     -15.919  -8.558  -3.871  1.00  0.00     0.041 C 
ATOM      9  O   UNL     1     -15.068  -9.479  -3.966  1.00  0.00    -0.550 OA
ATOM     10  O   UNL     1     -16.423  -7.964  -5.021  1.00  0.00    -0.550 OA
ENDBRANCH   7   8
ENDBRANCH   6   7
ENDBRANCH   5   6
ENDBRANCH   4   5
ENDBRANCH   3   4
ENDBRANCH   2   3
ENDBRANCH   1   2
BRANCH   1  11
ATOM     11  C   UNL     1     -18.855 -10.610  -1.208  1.00  0.00     0.000 C 
BRANCH  11  12
ATOM     12  C   UNL     1     -18.578 -11.803  -0.275  1.00  0.00    -0.000 C 
BRANCH  12  13
ATOM     13  C   UNL     1     -17.156 -12.387  -0.360  1.00  0.00    -0.000 C 
BRANCH  13  14
ATOM     14  C   UNL     1     -16.335 -11.803  -1.518  1.00  0.00    -0.000 C 
BRANCH  14  15
ATOM     15  C   UNL     1     -15.952 -12.893  -2.525  1.00  0.00    -0.000 C 
BRANCH  15  16
ATOM     16  C   UNL     1     -16.579 -14.242  -2.141  1.00  0.00    -0.000 C 
BRANCH  16  17
ATOM     17  C   UNL     1     -17.548 -14.770  -3.211  1.00  0.00    -0.003 C 
ATOM     18  C   UNL     1     -18.942 -14.153  -3.102  1.00  0.00     0.004 C 
ENDBRANCH  16  17
ENDBRANCH  15  16
ENDBRANCH  14  15
ENDBRANCH  13  14
ENDBRANCH  12  13
ENDBRANCH  11  12
ENDBRANCH   1  11
TORSDOF 14
ENDMDL
MODEL 4
REMARK VINA RESULT:    -6.012      1.909      5.401
REMARK INTER + INTRA:         -12.824
REMARK INTER:                 -10.909
REMARK INTRA:                  -1.915
REMARK UNBOUND:                -1.892
REMARK SMILES CCCCCCCCCCCCCCCC(=O)[O-]
REMARK SMILES IDX 9 1 10 2 11 3 12 4 13 5 14 6 15 7 16 8 17 9 18 10 8 11 7 12
REMARK SMILES IDX 6 13 5 14 4 15 3 16 2 17 1 18
REMARK H PARENT
REMARK Flexibility Score: inf
ROOT
ATOM      1  C   UNL     1     -18.588 -10.767  -1.387  1.00  0.00     0.000 C 
ENDROOT
BRANCH   1   2
ATOM      2  C   UNL     1     -18.800 -12.080  -0.612  1.00  0.00     0.000 C 
BRANCH   2   3
ATOM      3  C   UNL     1     -19.091 -13.321  -1.480  1.00  0.00     0.000 C 
BRANCH   3   4
ATOM      4  C   UNL     1     -18.243 -13.444  -2.760  1.00  0.00     0.000 C 
BRANCH   4   5
ATOM      5  C   UNL     1     -17.282 -14.646  -2.726  1.00  0.00     0.000 C 
BRANCH   5   6
ATOM      6  C   UNL     1     -16.489 -14.734  -1.408  1.00  0.00     0.006 C 
BRANCH   6   7
ATOM      7  C   UNL     1     -15.103 -14.071  -1.454  1.00  0.00     0.053 C 
BRANCH   7   8
ATOM      8  C   UNL     1     -15.174 -12.601  -1.173  1.00  0.00     0.041 C 
ATOM      9  O   UNL     1     -15.209 -11.776  -2.122  1.00  0.00    -0.550 OA
ATOM     10  O   UNL     1     -15.235 -12.145   0.138  1.00  0.00    -0.550 OA
ENDBRANCH   7   8
ENDBRANCH   6   7
ENDBRANCH   5   6
ENDBRANCH   4   5
ENDBRANCH   3   4
ENDBRANCH   2   3
ENDBRANCH   1   2
BRANCH   1  11
ATOM     11  C   UNL     1     -18.988  -9.523  -0.575  1.00  0.00     0.000 C 
BRANCH  11  12
ATOM     12  C   UNL     1     -18.302  -9.460   0.802  1.00  0.00    -0.000 C 
BRANCH  12  13
ATOM     13  C   UNL     1     -18.000  -8.043   1.322  1.00  0.00    -0.000 C 
BRANCH  13  14
ATOM     14  C   UNL     1     -16.681  -7.474   0.781  1.00  0.00    -0.000 C 
BRANCH  14  15
ATOM     15  C   UNL     1     -15.666  -8.592   0.518  1.00  0.00    -0.000 C 
BRANCH  15  16
ATOM     16  C   UNL     1     -15.168  -8.552  -0.935  1.00  0.00    -0.000 C 
BRANCH  16  17
ATOM     17  C   UNL     1     -16.038  -7.658  -1.833  1.00  0.00    -0.003 C 
ATOM     18  C   UNL     1     -16.366  -8.310  -3.176  1.00  0.00     0.004 C 
ENDBRANCH  16  17
ENDBRANCH  15  16
ENDBRANCH  14  15
ENDBRANCH  13  14
ENDBRANCH  12  13
ENDBRANCH  11  12
ENDBRANCH   1  11
TORSDOF 14
ENDMDL
MODEL 5
REMARK VINA RESULT:    -6.007      1.916      5.255
REMARK INTER + INTRA:         -12.817
REMARK INTER:                 -10.723
REMARK INTRA:                  -2.093
REMARK UNBOUND:                -1.892
REMARK SMILES CCCCCCCCCCCCCCCC(=O)[O-]
REMARK SMILES IDX 9 1 10 2 11 3 12 4 13 5 14 6 15 7 16 8 17 9 18 10 8 11 7 12
REMARK SMILES IDX 6 13 5 14 4 15 3 16 2 17 1 18
REMARK H PARENT
REMARK Flexibility Score: inf
ROOT
ATOM      1  C   UNL     1     -18.774  -9.205  -0.624  1.00  0.00     0.000 C 
ENDROOT
BRANCH   1   2
ATOM      2  C   UNL     1     -18.304 -10.578  -1.137  1.00  0.00     0.000 C 
BRANCH   2   3
ATOM      3  C   UNL     1     -18.049 -11.639  -0.047  1.00  0.00     0.000 C 
BRANCH   3   4
ATOM      4  C   UNL     1     -16.574 -12.038   0.153  1.00  0.00     0.000 C 
BRANCH   4   5
ATOM      5  C   UNL     1     -16.386 -13.555   0.328  1.00  0.00     0.000 C 
BRANCH   5   6
ATOM      6  C   UNL     1     -15.737 -14.218  -0.901  1.00  0.00     0.006 C 
BRANCH   6   7
ATOM      7  C   UNL     1     -16.732 -14.890  -1.861  1.00  0.00     0.053 C 
BRANCH   7   8
ATOM      8  C   UNL     1     -17.188 -13.958  -2.942  1.00  0.00     0.041 C 
ATOM      9  O   UNL     1     -18.394 -13.606  -3.007  1.00  0.00    -0.550 OA
ATOM     10  O   UNL     1     -16.272 -13.453  -3.856  1.00  0.00    -0.550 OA
ENDBRANCH   7   8
ENDBRANCH   6   7
ENDBRANCH   5   6
ENDBRANCH   4   5
ENDBRANCH   3   4
ENDBRANCH   2   3
ENDBRANCH   1   2
BRANCH   1  11
ATOM     11  C   UNL     1     -18.304  -8.909   0.810  1.00  0.00     0.000 C 
BRANCH  11  12
ATOM     12  C   UNL     1     -17.162  -7.878   0.865  1.00  0.00    -0.000 C 
BRANCH  12  13
ATOM     13  C   UNL     1     -15.766  -8.425   0.516  1.00  0.00    -0.000 C 
BRANCH  13  14
ATOM     14  C   UNL     1     -15.307  -8.040  -0.898  1.00  0.00    -0.000 C 
BRANCH  14  15
ATOM     15  C   UNL     1     -14.833  -9.274  -1.676  1.00  0.00    -0.000 C 
BRANCH  15  16
ATOM     16  C   UNL     1     -15.222  -9.172  -3.158  1.00  0.00    -0.000 C 
BRANCH  16  17
ATOM     17  C   UNL     1     -16.387  -8.197  -3.398  1.00  0.00    -0.003 C 
ATOM     18  C   UNL     1     -16.697  -7.998  -4.881  1.00  0.00     0.004 C 
ENDBRANCH  16  17
ENDBRANCH  15  16
ENDBRANCH  14  15
ENDBRANCH  13  14
ENDBRANCH  12  13
ENDBRANCH  11  12
ENDBRANCH   1  11
TORSDOF 14
ENDMDL
MODEL 6
REMARK VINA RESULT:    -5.999      1.148      2.365
REMARK INTER + INTRA:         -12.800
REMARK INTER:                 -11.074
REMARK INTRA:                  -1.727
REMARK UNBOUND:                -1.892
REMARK SMILES CCCCCCCCCCCCCCCC(=O)[O-]
REMARK SMILES IDX 9 1 10 2 11 3 12 4 13 5 14 6 15 7 16 8 17 9 18 10 8 11 7 12
REMARK SMILES IDX 6 13 5 14 4 15 3 16 2 17 1 18
REMARK H PARENT
REMARK Flexibility Score: inf
ROOT
ATOM      1  C   UNL     1     -18.239 -11.467  -1.874  1.00  0.00     0.000 C 
ENDROOT
BRANCH   1   2
ATOM      2  C   UNL     1     -18.887 -10.366  -1.016  1.00  0.00     0.000 C 
BRANCH   2   3
ATOM      3  C   UNL     1     -18.005  -9.804   0.117  1.00  0.00     0.000 C 
BRANCH   3   4
ATOM      4  C   UNL     1     -16.498 -10.095  -0.014  1.00  0.00     0.000 C 
BRANCH   4   5
ATOM      5  C   UNL     1     -15.664  -8.823  -0.246  1.00  0.00     0.000 C 
BRANCH   5   6
ATOM      6  C   UNL     1     -15.185  -8.684  -1.703  1.00  0.00     0.006 C 
BRANCH   6   7
ATOM      7  C   UNL     1     -16.211  -8.044  -2.652  1.00  0.00     0.053 C 
BRANCH   7   8
ATOM      8  C   UNL     1     -16.072  -8.550  -4.055  1.00  0.00     0.041 C 
ATOM      9  O   UNL     1     -16.769  -8.055  -4.979  1.00  0.00    -0.550 OA
ATOM     10  O   UNL     1     -15.147  -9.544  -4.347  1.00  0.00    -0.550 OA
ENDBRANCH   7   8
ENDBRANCH   6   7
ENDBRANCH   5   6
ENDBRANCH   4   5
ENDBRANCH   3   4
ENDBRANCH   2   3
ENDBRANCH   1   2
BRANCH   1  11
ATOM     11  C   UNL     1     -18.704 -12.881  -1.485  1.00  0.00     0.000 C 
BRANCH  11  12
ATOM     12  C   UNL     1     -18.538 -13.902  -2.625  1.00  0.00    -0.000 C 
BRANCH  12  13
ATOM     13  C   UNL     1     -17.140 -14.537  -2.739  1.00  0.00    -0.000 C 
BRANCH  13  14
ATOM     14  C   UNL     1     -16.440 -14.696  -1.383  1.00  0.00    -0.000 C 
BRANCH  14  15
ATOM     15  C   UNL     1     -15.116 -13.922  -1.354  1.00  0.00    -0.000 C 
BRANCH  15  16
ATOM     16  C   UNL     1     -14.704 -13.592   0.089  1.00  0.00    -0.000 C 
BRANCH  16  17
ATOM     17  C   UNL     1     -15.895 -13.597   1.060  1.00  0.00    -0.003 C 
ATOM     18  C   UNL     1     -15.601 -14.354   2.354  1.00  0.00     0.004 C 
ENDBRANCH  16  17
ENDBRANCH  15  16
ENDBRANCH  14  15
ENDBRANCH  13  14
ENDBRANCH  12  13
ENDBRANCH  11  12
ENDBRANCH   1  11
TORSDOF 14
ENDMDL
MODEL 7
REMARK VINA RESULT:    -5.971      2.336      3.695
REMARK INTER + INTRA:         -12.750
REMARK INTER:                 -10.774
REMARK INTRA:                  -1.975
REMARK UNBOUND:                -1.892
REMARK SMILES CCCCCCCCCCCCCCCC(=O)[O-]
REMARK SMILES IDX 9 1 10 2 11 3 12 4 13 5 14 6 15 7 16 8 17 9 18 10 8 11 7 12
REMARK SMILES IDX 6 13 5 14 4 15 3 16 2 17 1 18
REMARK H PARENT
REMARK Flexibility Score: inf
ROOT
ATOM      1  C   UNL     1     -17.947 -11.662  -1.301  1.00  0.00     0.000 C 
ENDROOT
BRANCH   1   2
ATOM      2  C   UNL     1     -17.431 -11.136  -2.653  1.00  0.00     0.000 C 
BRANCH   2   3
ATOM      3  C   UNL     1     -15.898 -11.055  -2.791  1.00  0.00     0.000 C 
BRANCH   3   4
ATOM      4  C   UNL     1     -15.361  -9.763  -3.435  1.00  0.00     0.000 C 
BRANCH   4   5
ATOM      5  C   UNL     1     -16.317  -8.569  -3.263  1.00  0.00     0.000 C 
BRANCH   5   6
ATOM      6  C   UNL     1     -15.998  -7.728  -2.013  1.00  0.00     0.006 C 
BRANCH   6   7
ATOM      7  C   UNL     1     -16.760  -8.154  -0.747  1.00  0.00     0.053 C 
BRANCH   7   8
ATOM      8  C   UNL     1     -15.834  -8.594   0.346  1.00  0.00     0.041 C 
ATOM      9  O   UNL     1     -14.966  -9.477   0.124  1.00  0.00    -0.550 OA
ATOM     10  O   UNL     1     -15.909  -8.002   1.600  1.00  0.00    -0.550 OA
ENDBRANCH   7   8
ENDBRANCH   6   7
ENDBRANCH   5   6
ENDBRANCH   4   5
ENDBRANCH   3   4
ENDBRANCH   2   3
ENDBRANCH   1   2
BRANCH   1  11
ATOM     11  C   UNL     1     -18.663 -13.018  -1.421  1.00  0.00     0.000 C 
BRANCH  11  12
ATOM     12  C   UNL     1     -18.353 -13.745  -2.742  1.00  0.00    -0.000 C 
BRANCH  12  13
ATOM     13  C   UNL     1     -17.192 -14.754  -2.678  1.00  0.00    -0.000 C 
BRANCH  13  14
ATOM     14  C   UNL     1     -16.534 -14.826  -1.293  1.00  0.00    -0.000 C 
BRANCH  14  15
ATOM     15  C   UNL     1     -15.088 -14.319  -1.345  1.00  0.00    -0.000 C 
BRANCH  15  16
ATOM     16  C   UNL     1     -14.717 -13.581  -0.050  1.00  0.00    -0.000 C 
BRANCH  16  17
ATOM     17  C   UNL     1     -15.866 -13.566   0.971  1.00  0.00    -0.003 C 
ATOM     18  C   UNL     1     -15.508 -14.276   2.276  1.00  0.00     0.004 C 
ENDBRANCH  16  17
ENDBRANCH  15  16
ENDBRANCH  14  15
ENDBRANCH  13  14
ENDBRANCH  12  13
ENDBRANCH  11  12
ENDBRANCH   1  11
TORSDOF 14
ENDMDL
MODEL 8
REMARK VINA RESULT:    -5.928      2.512      5.577
REMARK INTER + INTRA:         -12.672
REMARK INTER:                 -10.490
REMARK INTRA:                  -2.183
REMARK UNBOUND:                -1.892
REMARK SMILES CCCCCCCCCCCCCCCC(=O)[O-]
REMARK SMILES IDX 9 1 10 2 11 3 12 4 13 5 14 6 15 7 16 8 17 9 18 10 8 11 7 12
REMARK SMILES IDX 6 13 5 14 4 15 3 16 2 17 1 18
REMARK H PARENT
REMARK Flexibility Score: inf
ROOT
ATOM      1  C   UNL     1     -18.234 -11.140  -0.504  1.00  0.00     0.000 C 
ENDROOT
BRANCH   1   2
ATOM      2  C   UNL     1     -18.835 -12.544  -0.699  1.00  0.00     0.000 C 
BRANCH   2   3
ATOM      3  C   UNL     1     -18.949 -13.018  -2.162  1.00  0.00     0.000 C 
BRANCH   3   4
ATOM      4  C   UNL     1     -18.064 -14.222  -2.536  1.00  0.00     0.000 C 
BRANCH   4   5
ATOM      5  C   UNL     1     -16.768 -13.808  -3.256  1.00  0.00     0.000 C 
BRANCH   5   6
ATOM      6  C   UNL     1     -15.613 -13.516  -2.280  1.00  0.00     0.006 C 
BRANCH   6   7
ATOM      7  C   UNL     1     -15.607 -14.395  -1.019  1.00  0.00     0.053 C 
BRANCH   7   8
ATOM      8  C   UNL     1     -15.303 -13.605   0.217  1.00  0.00     0.041 C 
ATOM      9  O   UNL     1     -14.913 -12.412   0.126  1.00  0.00    -0.550 OA
ATOM     10  O   UNL     1     -15.482 -14.177   1.470  1.00  0.00    -0.550 OA
ENDBRANCH   7   8
ENDBRANCH   6   7
ENDBRANCH   5   6
ENDBRANCH   4   5
ENDBRANCH   3   4
ENDBRANCH   2   3
ENDBRANCH   1   2
BRANCH   1  11
ATOM     11  C   UNL     1     -18.365 -10.255  -1.755  1.00  0.00     0.000 C 
BRANCH  11  12
ATOM     12  C   UNL     1     -17.022 -10.033  -2.475  1.00  0.00    -0.000 C 
BRANCH  12  13
ATOM     13  C   UNL     1     -16.709  -8.572  -2.845  1.00  0.00    -0.000 C 
BRANCH  13  14
ATOM     14  C   UNL     1     -16.029  -7.797  -1.708  1.00  0.00    -0.000 C 
BRANCH  14  15
ATOM     15  C   UNL     1     -15.177  -8.730  -0.839  1.00  0.00    -0.000 C 
BRANCH  15  16
ATOM     16  C   UNL     1     -15.634  -8.688   0.626  1.00  0.00    -0.000 C 
BRANCH  16  17
ATOM     17  C   UNL     1     -16.632  -7.552   0.901  1.00  0.00    -0.003 C 
ATOM     18  C   UNL     1     -18.008  -8.063   1.327  1.00  0.00     0.004 C 
ENDBRANCH  16  17
ENDBRANCH  15  16
ENDBRANCH  14  15
ENDBRANCH  13  14
ENDBRANCH  12  13
ENDBRANCH  11  12
ENDBRANCH   1  11
TORSDOF 14
ENDMDL
MODEL 9
REMARK VINA RESULT:    -5.907      2.872      5.973
REMARK INTER + INTRA:         -12.634
REMARK INTER:                 -10.994
REMARK INTRA:                  -1.640
REMARK UNBOUND:                -1.892
REMARK SMILES CCCCCCCCCCCCCCCC(=O)[O-]
REMARK SMILES IDX 9 1 10 2 11 3 12 4 13 5 14 6 15 7 16 8 17 9 18 10 8 11 7 12
REMARK SMILES IDX 6 13 5 14 4 15 3 16 2 17 1 18
REMARK H PARENT
REMARK Flexibility Score: inf
ROOT
ATOM      1  C   UNL     1     -15.254 -10.122  -3.905  1.00  0.00     0.000 C 
ENDROOT
BRANCH   1   2
ATOM      2  C   UNL     1     -15.921 -11.055  -2.878  1.00  0.00     0.000 C 
BRANCH   2   3
ATOM      3  C   UNL     1     -15.625 -12.557  -3.058  1.00  0.00     0.000 C 
BRANCH   3   4
ATOM      4  C   UNL     1     -16.862 -13.457  -3.238  1.00  0.00     0.000 C 
BRANCH   4   5
ATOM      5  C   UNL     1     -17.416 -13.983  -1.902  1.00  0.00     0.000 C 
BRANCH   5   6
ATOM      6  C   UNL     1     -16.316 -14.193  -0.845  1.00  0.00     0.006 C 
BRANCH   6   7
ATOM      7  C   UNL     1     -16.519 -13.393   0.452  1.00  0.00     0.053 C 
BRANCH   7   8
ATOM      8  C   UNL     1     -15.402 -13.609   1.427  1.00  0.00     0.041 C 
ATOM      9  O   UNL     1     -15.563 -14.368   2.418  1.00  0.00    -0.550 OA
ATOM     10  O   UNL     1     -14.172 -12.997   1.222  1.00  0.00    -0.550 OA
ENDBRANCH   7   8
ENDBRANCH   6   7
ENDBRANCH   5   6
ENDBRANCH   4   5
ENDBRANCH   3   4
ENDBRANCH   2   3
ENDBRANCH   1   2
BRANCH   1  11
ATOM     11  C   UNL     1     -15.908  -8.731  -3.963  1.00  0.00     0.000 C 
BRANCH  11  12
ATOM     12  C   UNL     1     -16.727  -8.401  -2.702  1.00  0.00    -0.000 C 
BRANCH  12  13
ATOM     13  C   UNL     1     -15.977  -7.600  -1.622  1.00  0.00    -0.000 C 
BRANCH  13  14
ATOM     14  C   UNL     1     -15.615  -8.444  -0.392  1.00  0.00    -0.000 C 
BRANCH  14  15
ATOM     15  C   UNL     1     -16.375  -7.961   0.849  1.00  0.00    -0.000 C 
BRANCH  15  16
ATOM     16  C   UNL     1     -17.838  -8.429   0.815  1.00  0.00    -0.000 C 
BRANCH  16  17
ATOM     17  C   UNL     1     -17.970  -9.933   0.525  1.00  0.00    -0.003 C 
ATOM     18  C   UNL     1     -18.909 -10.230  -0.644  1.00  0.00     0.004 C 
ENDBRANCH  16  17
ENDBRANCH  15  16
ENDBRANCH  14  15
ENDBRANCH  13  14
ENDBRANCH  12  13
ENDBRANCH  11  12
ENDBRANCH   1  11
TORSDOF 14
ENDMDL
