MODEL 1
REMARK VINA RESULT:    -3.971      0.000      0.000
REMARK INTER + INTRA:          -5.537
REMARK INTER:                  -5.364
REMARK INTRA:                  -0.173
REMARK UNBOUND:                -0.173
REMARK SMILES CCCCCCC=CC(=O)[O-]
REMARK SMILES IDX 5 1 6 2 7 3 8 4 9 5 10 6 11 7 4 8 3 9 2 10 1 11
REMARK H PARENT
REMARK Flexibility Score: inf
ROOT
ATOM      1  C   UNL     1      84.313 -68.546  14.625  1.00  0.00     0.004 C 
ENDROOT
BRANCH   1   2
ATOM      2  C   UNL     1      83.991 -68.060  16.045  1.00  0.00     0.027 C 
BRANCH   2   3
ATOM      3  C   UNL     1      82.599 -67.501  16.125  1.00  0.00    -0.025 C 
ATOM      4  C   UNL     1      82.353 -66.205  15.904  1.00  0.00     0.020 C 
BRANCH   4   5
ATOM      5  C   UNL     1      80.999 -65.634  15.991  1.00  0.00     0.064 C 
ATOM      6  O   UNL     1      79.977 -66.369  15.946  1.00  0.00    -0.545 OA
ATOM      7  O   UNL     1      80.846 -64.260  16.125  1.00  0.00    -0.545 OA
ENDBRANCH   4   5
ENDBRANCH   2   3
ENDBRANCH   1   2
BRANCH   1   8
ATOM      8  C   UNL     1      85.827 -68.559  14.381  1.00  0.00     0.000 C 
BRANCH   8   9
ATOM      9  C   UNL     1      86.196 -69.555  13.275  1.00  0.00    -0.000 C 
BRANCH   9  10
ATOM     10  C   UNL     1      87.200 -70.596  13.786  1.00  0.00    -0.003 C 
ATOM     11  C   UNL     1      88.598 -69.996  13.916  1.00  0.00     0.004 C 
ENDBRANCH   9  10
ENDBRANCH   8   9
ENDBRANCH   1   8
TORSDOF 6
ENDMDL
MODEL 2
REMARK VINA RESULT:    -3.856     19.366     20.636
REMARK INTER + INTRA:          -5.382
REMARK INTER:                  -4.656
REMARK INTRA:                  -0.726
REMARK UNBOUND:                -0.173
REMARK SMILES CCCCCCC=CC(=O)[O-]
REMARK SMILES IDX 5 1 6 2 7 3 8 4 9 5 10 6 11 7 4 8 3 9 2 10 1 11
REMARK H PARENT
REMARK Flexibility Score: inf
ROOT
ATOM      1  C   UNL     1      75.811 -72.806  -4.061  1.00  0.00     0.004 C 
ENDROOT
BRANCH   1   2
ATOM      2  C   UNL     1      77.265 -73.058  -3.639  1.00  0.00     0.027 C 
BRANCH   2   3
ATOM      3  C   UNL     1      77.449 -74.459  -3.130  1.00  0.00    -0.025 C 
ATOM      4  C   UNL     1      77.894 -74.700  -1.893  1.00  0.00     0.020 C 
BRANCH   4   5
ATOM      5  C   UNL     1      78.095 -76.064  -1.379  1.00  0.00     0.064 C 
ATOM      6  O   UNL     1      78.903 -76.857  -1.932  1.00  0.00    -0.545 OA
ATOM      7  O   UNL     1      77.381 -76.486  -0.265  1.00  0.00    -0.545 OA
ENDBRANCH   4   5
ENDBRANCH   2   3
ENDBRANCH   1   2
BRANCH   1   8
ATOM      8  C   UNL     1      75.159 -71.739  -3.173  1.00  0.00     0.000 C 
BRANCH   8   9
ATOM      9  C   UNL     1      74.061 -72.351  -2.295  1.00  0.00    -0.000 C 
BRANCH   9  10
ATOM     10  C   UNL     1      74.650 -72.929  -1.002  1.00  0.00    -0.003 C 
ATOM     11  C   UNL     1      74.324 -74.414  -0.864  1.00  0.00     0.004 C 
ENDBRANCH   9  10
ENDBRANCH   8   9
ENDBRANCH   1   8
TORSDOF 6
ENDMDL
MODEL 3
REMARK VINA RESULT:    -3.833     18.722     19.507
REMARK INTER + INTRA:          -5.350
REMARK INTER:                  -4.971
REMARK INTRA:                  -0.380
REMARK UNBOUND:                -0.173
REMARK SMILES CCCCCCC=CC(=O)[O-]
REMARK SMILES IDX 5 1 6 2 7 3 8 4 9 5 10 6 11 7 4 8 3 9 2 10 1 11
REMARK H PARENT
REMARK Flexibility Score: inf
ROOT
ATOM      1  C   UNL     1      76.314 -72.666  -3.756  1.00  0.00     0.004 C 
ENDROOT
BRANCH   1   2
ATOM      2  C   UNL     1      75.113 -73.103  -2.905  1.00  0.00     0.027 C 
BRANCH   2   3
ATOM      3  C   UNL     1      74.517 -71.938  -2.168  1.00  0.00    -0.025 C 
ATOM      4  C   UNL     1      74.104 -72.050  -0.901  1.00  0.00     0.020 C 
BRANCH   4   5
ATOM      5  C   UNL     1      73.503 -70.926  -0.165  1.00  0.00     0.064 C 
ATOM      6  O   UNL     1      74.143 -69.859   0.031  1.00  0.00    -0.545 OA
ATOM      7  O   UNL     1      72.209 -71.044   0.323  1.00  0.00    -0.545 OA
ENDBRANCH   4   5
ENDBRANCH   2   3
ENDBRANCH   1   2
BRANCH   1   8
ATOM      8  C   UNL     1      77.445 -73.699  -3.681  1.00  0.00     0.000 C 
BRANCH   8   9
ATOM      9  C   UNL     1      77.829 -73.988  -2.225  1.00  0.00    -0.000 C 
BRANCH   9  10
ATOM     10  C   UNL     1      78.126 -75.479  -2.021  1.00  0.00    -0.003 C 
ATOM     11  C   UNL     1      77.461 -76.004  -0.751  1.00  0.00     0.004 C 
ENDBRANCH   9  10
ENDBRANCH   8   9
ENDBRANCH   1   8
TORSDOF 6
ENDMDL
MODEL 4
REMARK VINA RESULT:    -3.828     19.056     19.921
REMARK INTER + INTRA:          -5.343
REMARK INTER:                  -4.651
REMARK INTRA:                  -0.692
REMARK UNBOUND:                -0.173
REMARK SMILES CCCCCCC=CC(=O)[O-]
REMARK SMILES IDX 5 1 6 2 7 3 8 4 9 5 10 6 11 7 4 8 3 9 2 10 1 11
REMARK H PARENT
REMARK Flexibility Score: inf
ROOT
ATOM      1  C   UNL     1      76.281 -74.921  -2.282  1.00  0.00     0.004 C 
ENDROOT
BRANCH   1   2
ATOM      2  C   UNL     1      75.721 -74.857  -0.855  1.00  0.00     0.027 C 
BRANCH   2   3
ATOM      3  C   UNL     1      75.134 -73.506  -0.561  1.00  0.00    -0.025 C 
ATOM      4  C   UNL     1      73.883 -73.195  -0.917  1.00  0.00     0.020 C 
BRANCH   4   5
ATOM      5  C   UNL     1      73.294 -71.873  -0.652  1.00  0.00     0.064 C 
ATOM      6  O   UNL     1      74.020 -70.866  -0.440  1.00  0.00    -0.545 OA
ATOM      7  O   UNL     1      71.912 -71.733  -0.635  1.00  0.00    -0.545 OA
ENDBRANCH   4   5
ENDBRANCH   2   3
ENDBRANCH   1   2
BRANCH   1   8
ATOM      8  C   UNL     1      77.593 -74.135  -2.393  1.00  0.00     0.000 C 
BRANCH   8   9
ATOM      9  C   UNL     1      77.483 -73.028  -3.448  1.00  0.00    -0.000 C 
BRANCH   9  10
ATOM     10  C   UNL     1      76.051 -72.924  -3.988  1.00  0.00    -0.003 C 
ATOM     11  C   UNL     1      75.537 -71.489  -3.913  1.00  0.00     0.004 C 
ENDBRANCH   9  10
ENDBRANCH   8   9
ENDBRANCH   1   8
TORSDOF 6
ENDMDL
MODEL 5
REMARK VINA RESULT:    -3.826     13.938     15.905
REMARK INTER + INTRA:          -5.341
REMARK INTER:                  -5.013
REMARK INTRA:                  -0.328
REMARK UNBOUND:                -0.173
REMARK SMILES CCCCCCC=CC(=O)[O-]
REMARK SMILES IDX 5 1 6 2 7 3 8 4 9 5 10 6 11 7 4 8 3 9 2 10 1 11
REMARK H PARENT
REMARK Flexibility Score: inf
ROOT
ATOM      1  C   UNL     1      88.158 -78.155   3.532  1.00  0.00     0.004 C 
ENDROOT
BRANCH   1   2
ATOM      2  C   UNL     1      87.779 -77.066   4.544  1.00  0.00     0.027 C 
BRANCH   2   3
ATOM      3  C   UNL     1      88.205 -75.707   4.066  1.00  0.00    -0.025 C 
ATOM      4  C   UNL     1      87.310 -74.765   3.751  1.00  0.00     0.020 C 
BRANCH   4   5
ATOM      5  C   UNL     1      87.705 -73.433   3.267  1.00  0.00     0.064 C 
ATOM      6  O   UNL     1      88.907 -73.164   3.005  1.00  0.00    -0.545 OA
ATOM      7  O   UNL     1      86.735 -72.454   3.097  1.00  0.00    -0.545 OA
ENDBRANCH   4   5
ENDBRANCH   2   3
ENDBRANCH   1   2
BRANCH   1   8
ATOM      8  C   UNL     1      87.273 -78.076   2.282  1.00  0.00     0.000 C 
BRANCH   8   9
ATOM      9  C   UNL     1      88.117 -77.834   1.026  1.00  0.00    -0.000 C 
BRANCH   9  10
ATOM     10  C   UNL     1      87.246 -77.333  -0.133  1.00  0.00    -0.003 C 
ATOM     11  C   UNL     1      87.545 -78.100  -1.418  1.00  0.00     0.004 C 
ENDBRANCH   9  10
ENDBRANCH   8   9
ENDBRANCH   1   8
TORSDOF 6
ENDMDL
MODEL 6
REMARK VINA RESULT:    -3.798     18.863     19.524
REMARK INTER + INTRA:          -5.303
REMARK INTER:                  -4.901
REMARK INTRA:                  -0.402
REMARK UNBOUND:                -0.173
REMARK SMILES CCCCCCC=CC(=O)[O-]
REMARK SMILES IDX 5 1 6 2 7 3 8 4 9 5 10 6 11 7 4 8 3 9 2 10 1 11
REMARK H PARENT
REMARK Flexibility Score: inf
ROOT
ATOM      1  C   UNL     1      73.884 -72.997  -2.857  1.00  0.00     0.004 C 
ENDROOT
BRANCH   1   2
ATOM      2  C   UNL     1      74.502 -72.589  -1.513  1.00  0.00     0.027 C 
BRANCH   2   3
ATOM      3  C   UNL     1      73.523 -71.814  -0.678  1.00  0.00    -0.025 C 
ATOM      4  C   UNL     1      73.854 -70.646  -0.117  1.00  0.00     0.020 C 
BRANCH   4   5
ATOM      5  C   UNL     1      72.916 -69.877   0.717  1.00  0.00     0.064 C 
ATOM      6  O   UNL     1      73.183 -68.702   1.084  1.00  0.00    -0.545 OA
ATOM      7  O   UNL     1      71.717 -70.458   1.107  1.00  0.00    -0.545 OA
ENDBRANCH   4   5
ENDBRANCH   2   3
ENDBRANCH   1   2
BRANCH   1   8
ATOM      8  C   UNL     1      74.955 -73.076  -3.952  1.00  0.00     0.000 C 
BRANCH   8   9
ATOM      9  C   UNL     1      76.232 -72.343  -3.526  1.00  0.00    -0.000 C 
BRANCH   9  10
ATOM     10  C   UNL     1      77.461 -73.248  -3.675  1.00  0.00    -0.003 C 
ATOM     11  C   UNL     1      77.720 -74.041  -2.397  1.00  0.00     0.004 C 
ENDBRANCH   9  10
ENDBRANCH   8   9
ENDBRANCH   1   8
TORSDOF 6
ENDMDL
MODEL 7
REMARK VINA RESULT:    -3.735     19.421     20.655
REMARK INTER + INTRA:          -5.218
REMARK INTER:                  -4.884
REMARK INTRA:                  -0.334
REMARK UNBOUND:                -0.173
REMARK SMILES CCCCCCC=CC(=O)[O-]
REMARK SMILES IDX 5 1 6 2 7 3 8 4 9 5 10 6 11 7 4 8 3 9 2 10 1 11
REMARK H PARENT
REMARK Flexibility Score: inf
ROOT
ATOM      1  C   UNL     1      74.912 -71.493  -3.110  1.00  0.00     0.004 C 
ENDROOT
BRANCH   1   2
ATOM      2  C   UNL     1      76.075 -72.112  -3.897  1.00  0.00     0.027 C 
BRANCH   2   3
ATOM      3  C   UNL     1      76.402 -73.488  -3.392  1.00  0.00    -0.025 C 
ATOM      4  C   UNL     1      77.593 -73.770  -2.854  1.00  0.00     0.020 C 
BRANCH   4   5
ATOM      5  C   UNL     1      77.939 -75.115  -2.366  1.00  0.00     0.064 C 
ATOM      6  O   UNL     1      78.868 -75.286  -1.532  1.00  0.00    -0.545 OA
ATOM      7  O   UNL     1      77.231 -76.214  -2.834  1.00  0.00    -0.545 OA
ENDBRANCH   4   5
ENDBRANCH   2   3
ENDBRANCH   1   2
BRANCH   1   8
ATOM      8  C   UNL     1      74.164 -72.562  -2.303  1.00  0.00     0.000 C 
BRANCH   8   9
ATOM      9  C   UNL     1      74.226 -72.260  -0.802  1.00  0.00    -0.000 C 
BRANCH   9  10
ATOM     10  C   UNL     1      73.170 -71.219  -0.407  1.00  0.00    -0.003 C 
ATOM     11  C   UNL     1      73.791 -70.084   0.403  1.00  0.00     0.004 C 
ENDBRANCH   9  10
ENDBRANCH   8   9
ENDBRANCH   1   8
TORSDOF 6
ENDMDL
MODEL 8
REMARK VINA RESULT:    -3.724     14.704     16.842
REMARK INTER + INTRA:          -5.203
REMARK INTER:                  -4.931
REMARK INTRA:                  -0.272
REMARK UNBOUND:                -0.173
REMARK SMILES CCCCCCC=CC(=O)[O-]
REMARK SMILES IDX 5 1 6 2 7 3 8 4 9 5 10 6 11 7 4 8 3 9 2 10 1 11
REMARK H PARENT
REMARK Flexibility Score: inf
ROOT
ATOM      1  C   UNL     1      88.842 -76.659   2.750  1.00  0.00     0.004 C 
ENDROOT
BRANCH   1   2
ATOM      2  C   UNL     1      88.664 -77.864   1.816  1.00  0.00     0.027 C 
BRANCH   2   3
ATOM      3  C   UNL     1      87.609 -78.800   2.332  1.00  0.00    -0.025 C 
ATOM      4  C   UNL     1      86.403 -78.878   1.760  1.00  0.00     0.020 C 
BRANCH   4   5
ATOM      5  C   UNL     1      85.350 -79.778   2.258  1.00  0.00     0.064 C 
ATOM      6  O   UNL     1      84.131 -79.480   2.146  1.00  0.00    -0.545 OA
ATOM      7  O   UNL     1      85.707 -80.975   2.864  1.00  0.00    -0.545 OA
ENDBRANCH   4   5
ENDBRANCH   2   3
ENDBRANCH   1   2
BRANCH   1   8
ATOM      8  C   UNL     1      87.960 -75.486   2.307  1.00  0.00     0.000 C 
BRANCH   8   9
ATOM      9  C   UNL     1      88.600 -74.145   2.685  1.00  0.00    -0.000 C 
BRANCH   9  10
ATOM     10  C   UNL     1      87.567 -73.200   3.312  1.00  0.00    -0.003 C 
ATOM     11  C   UNL     1      86.184 -73.845   3.352  1.00  0.00     0.004 C 
ENDBRANCH   9  10
ENDBRANCH   8   9
ENDBRANCH   1   8
TORSDOF 6
ENDMDL
MODEL 9
REMARK VINA RESULT:    -3.648     19.479     20.626
REMARK INTER + INTRA:          -5.100
REMARK INTER:                  -4.413
REMARK INTRA:                  -0.687
REMARK UNBOUND:                -0.173
REMARK SMILES CCCCCCC=CC(=O)[O-]
REMARK SMILES IDX 5 1 6 2 7 3 8 4 9 5 10 6 11 7 4 8 3 9 2 10 1 11
REMARK H PARENT
REMARK Flexibility Score: inf
ROOT
ATOM      1  C   UNL     1      78.251 -75.173  -2.194  1.00  0.00     0.004 C 
ENDROOT
BRANCH   1   2
ATOM      2  C   UNL     1      77.778 -75.318  -3.647  1.00  0.00     0.027 C 
BRANCH   2   3
ATOM      3  C   UNL     1      76.633 -74.391  -3.941  1.00  0.00    -0.025 C 
ATOM      4  C   UNL     1      76.647 -73.115  -3.541  1.00  0.00     0.020 C 
BRANCH   4   5
ATOM      5  C   UNL     1      75.530 -72.194  -3.806  1.00  0.00     0.064 C 
ATOM      6  O   UNL     1      75.730 -70.963  -3.987  1.00  0.00    -0.545 OA
ATOM      7  O   UNL     1      74.234 -72.689  -3.857  1.00  0.00    -0.545 OA
ENDBRANCH   4   5
ENDBRANCH   2   3
ENDBRANCH   1   2
BRANCH   1   8
ATOM      8  C   UNL     1      77.999 -76.463  -1.403  1.00  0.00     0.000 C 
BRANCH   8   9
ATOM      9  C   UNL     1      77.014 -76.218  -0.254  1.00  0.00    -0.000 C 
BRANCH   9  10
ATOM     10  C   UNL     1      75.577 -76.102  -0.776  1.00  0.00    -0.003 C 
ATOM     11  C   UNL     1      75.015 -74.704  -0.536  1.00  0.00     0.004 C 
ENDBRANCH   9  10
ENDBRANCH   8   9
ENDBRANCH   1   8
TORSDOF 6
ENDMDL
