MODEL 1
REMARK VINA RESULT:    -3.384      0.000      0.000
REMARK INTER + INTRA:          -4.511
REMARK INTER:                  -4.373
REMARK INTRA:                  -0.138
REMARK UNBOUND:                -0.138
REMARK SMILES CCCCCCC(=O)[O-]
REMARK SMILES IDX 5 1 6 2 7 3 8 4 9 5 4 6 3 7 2 8 1 9
REMARK H PARENT
REMARK Flexibility Score: inf
ROOT
ATOM      1  C   UNL     1     -46.306 -26.673   3.104  1.00  0.00     0.006 C 
ENDROOT
BRANCH   1   2
ATOM      2  C   UNL     1     -46.109 -27.669   1.955  1.00  0.00     0.053 C 
BRANCH   2   3
ATOM      3  C   UNL     1     -45.623 -26.994   0.708  1.00  0.00     0.041 C 
ATOM      4  O   UNL     1     -44.544 -26.345   0.720  1.00  0.00    -0.550 OA
ATOM      5  O   UNL     1     -46.346 -27.107  -0.472  1.00  0.00    -0.550 OA
ENDBRANCH   2   3
ENDBRANCH   1   2
BRANCH   1   6
ATOM      6  C   UNL     1     -46.421 -27.376   4.469  1.00  0.00     0.000 C 
BRANCH   6   7
ATOM      7  C   UNL     1     -46.419 -26.387   5.645  1.00  0.00    -0.000 C 
BRANCH   7   8
ATOM      8  C   UNL     1     -45.484 -26.820   6.783  1.00  0.00    -0.003 C 
ATOM      9  C   UNL     1     -45.198 -28.318   6.719  1.00  0.00     0.004 C 
ENDBRANCH   7   8
ENDBRANCH   6   7
ENDBRANCH   1   6
TORSDOF 5
ENDMDL
MODEL 2
REMARK VINA RESULT:    -3.308      3.085      5.230
REMARK INTER + INTRA:          -4.414
REMARK INTER:                  -4.214
REMARK INTRA:                  -0.200
REMARK UNBOUND:                -0.138
REMARK SMILES CCCCCCC(=O)[O-]
REMARK SMILES IDX 5 1 6 2 7 3 8 4 9 5 4 6 3 7 2 8 1 9
REMARK H PARENT
REMARK Flexibility Score: inf
ROOT
ATOM      1  C   UNL     1     -45.172 -27.849  -0.174  1.00  0.00     0.006 C 
ENDROOT
BRANCH   1   2
ATOM      2  C   UNL     1     -45.933 -27.881   1.157  1.00  0.00     0.053 C 
BRANCH   2   3
ATOM      3  C   UNL     1     -45.861 -26.567   1.874  1.00  0.00     0.041 C 
ATOM      4  O   UNL     1     -46.416 -26.426   2.995  1.00  0.00    -0.550 OA
ATOM      5  O   UNL     1     -45.156 -25.508   1.317  1.00  0.00    -0.550 OA
ENDBRANCH   2   3
ENDBRANCH   1   2
BRANCH   1   6
ATOM      6  C   UNL     1     -43.794 -28.530  -0.072  1.00  0.00     0.000 C 
BRANCH   6   7
ATOM      7  C   UNL     1     -42.646 -27.606  -0.508  1.00  0.00    -0.000 C 
BRANCH   7   8
ATOM      8  C   UNL     1     -41.262 -28.199  -0.206  1.00  0.00    -0.003 C 
ATOM      9  C   UNL     1     -41.325 -29.721  -0.110  1.00  0.00     0.004 C 
ENDBRANCH   7   8
ENDBRANCH   6   7
ENDBRANCH   1   6
TORSDOF 5
ENDMDL
MODEL 3
REMARK VINA RESULT:    -3.276      0.918      1.779
REMARK INTER + INTRA:          -4.372
REMARK INTER:                  -4.203
REMARK INTRA:                  -0.168
REMARK UNBOUND:                -0.138
REMARK SMILES CCCCCCC(=O)[O-]
REMARK SMILES IDX 5 1 6 2 7 3 8 4 9 5 4 6 3 7 2 8 1 9
REMARK H PARENT
REMARK Flexibility Score: inf
ROOT
ATOM      1  C   UNL     1     -46.366 -27.885   3.133  1.00  0.00     0.006 C 
ENDROOT
BRANCH   1   2
ATOM      2  C   UNL     1     -46.689 -26.489   2.585  1.00  0.00     0.053 C 
BRANCH   2   3
ATOM      3  C   UNL     1     -46.147 -26.293   1.201  1.00  0.00     0.041 C 
ATOM      4  O   UNL     1     -46.904 -26.415   0.202  1.00  0.00    -0.550 OA
ATOM      5  O   UNL     1     -44.815 -25.948   1.017  1.00  0.00    -0.550 OA
ENDBRANCH   2   3
ENDBRANCH   1   2
BRANCH   1   6
ATOM      6  C   UNL     1     -46.619 -27.986   4.648  1.00  0.00     0.000 C 
BRANCH   6   7
ATOM      7  C   UNL     1     -45.598 -28.890   5.357  1.00  0.00    -0.000 C 
BRANCH   7   8
ATOM      8  C   UNL     1     -45.199 -28.361   6.742  1.00  0.00    -0.003 C 
ATOM      9  C   UNL     1     -45.460 -26.862   6.854  1.00  0.00     0.004 C 
ENDBRANCH   7   8
ENDBRANCH   6   7
ENDBRANCH   1   6
TORSDOF 5
ENDMDL
MODEL 4
REMARK VINA RESULT:    -3.184      3.457      5.132
REMARK INTER + INTRA:          -4.252
REMARK INTER:                  -4.033
REMARK INTRA:                  -0.220
REMARK UNBOUND:                -0.138
REMARK SMILES CCCCCCC(=O)[O-]
REMARK SMILES IDX 5 1 6 2 7 3 8 4 9 5 4 6 3 7 2 8 1 9
REMARK H PARENT
REMARK Flexibility Score: inf
ROOT
ATOM      1  C   UNL     1     -46.143 -27.978   4.552  1.00  0.00     0.006 C 
ENDROOT
BRANCH   1   2
ATOM      2  C   UNL     1     -46.045 -26.614   5.247  1.00  0.00     0.053 C 
BRANCH   2   3
ATOM      3  C   UNL     1     -45.676 -26.750   6.694  1.00  0.00     0.041 C 
ATOM      4  O   UNL     1     -44.978 -27.725   7.080  1.00  0.00    -0.550 OA
ATOM      5  O   UNL     1     -46.078 -25.786   7.609  1.00  0.00    -0.550 OA
ENDBRANCH   2   3
ENDBRANCH   1   2
BRANCH   1   6
ATOM      6  C   UNL     1     -46.418 -27.842   3.043  1.00  0.00     0.000 C 
BRANCH   6   7
ATOM      7  C   UNL     1     -46.568 -26.378   2.600  1.00  0.00    -0.000 C 
BRANCH   7   8
ATOM      8  C   UNL     1     -45.470 -25.940   1.621  1.00  0.00    -0.003 C 
ATOM      9  C   UNL     1     -44.976 -27.118   0.786  1.00  0.00     0.004 C 
ENDBRANCH   7   8
ENDBRANCH   6   7
ENDBRANCH   1   6
TORSDOF 5
ENDMDL
MODEL 5
REMARK VINA RESULT:    -3.126      4.038      5.539
REMARK INTER + INTRA:          -4.178
REMARK INTER:                  -4.002
REMARK INTRA:                  -0.176
REMARK UNBOUND:                -0.138
REMARK SMILES CCCCCCC(=O)[O-]
REMARK SMILES IDX 5 1 6 2 7 3 8 4 9 5 4 6 3 7 2 8 1 9
REMARK H PARENT
REMARK Flexibility Score: inf
ROOT
ATOM      1  C   UNL     1     -45.582 -28.172   6.115  1.00  0.00     0.006 C 
ENDROOT
BRANCH   1   2
ATOM      2  C   UNL     1     -45.416 -26.748   6.661  1.00  0.00     0.053 C 
BRANCH   2   3
ATOM      3  C   UNL     1     -46.375 -26.463   7.777  1.00  0.00     0.041 C 
ATOM      4  O   UNL     1     -46.523 -25.286   8.199  1.00  0.00    -0.550 OA
ATOM      5  O   UNL     1     -47.125 -27.492   8.331  1.00  0.00    -0.550 OA
ENDBRANCH   2   3
ENDBRANCH   1   2
BRANCH   1   6
ATOM      6  C   UNL     1     -46.113 -28.181   4.669  1.00  0.00     0.000 C 
BRANCH   6   7
ATOM      7  C   UNL     1     -46.403 -26.768   4.139  1.00  0.00    -0.000 C 
BRANCH   7   8
ATOM      8  C   UNL     1     -46.683 -26.748   2.629  1.00  0.00    -0.003 C 
ATOM      9  C   UNL     1     -45.574 -26.020   1.874  1.00  0.00     0.004 C 
ENDBRANCH   7   8
ENDBRANCH   6   7
ENDBRANCH   1   6
TORSDOF 5
ENDMDL
MODEL 6
REMARK VINA RESULT:    -3.126      2.857      5.072
REMARK INTER + INTRA:          -4.177
REMARK INTER:                  -4.064
REMARK INTRA:                  -0.113
REMARK UNBOUND:                -0.138
REMARK SMILES CCCCCCC(=O)[O-]
REMARK SMILES IDX 5 1 6 2 7 3 8 4 9 5 4 6 3 7 2 8 1 9
REMARK H PARENT
REMARK Flexibility Score: inf
ROOT
ATOM      1  C   UNL     1     -45.477 -26.198   1.594  1.00  0.00     0.006 C 
ENDROOT
BRANCH   1   2
ATOM      2  C   UNL     1     -46.726 -26.558   2.409  1.00  0.00     0.053 C 
BRANCH   2   3
ATOM      3  C   UNL     1     -46.373 -27.169   3.731  1.00  0.00     0.041 C 
ATOM      4  O   UNL     1     -46.347 -26.458   4.770  1.00  0.00    -0.550 OA
ATOM      5  O   UNL     1     -46.102 -28.528   3.820  1.00  0.00    -0.550 OA
ENDBRANCH   2   3
ENDBRANCH   1   2
BRANCH   1   6
ATOM      6  C   UNL     1     -45.127 -27.282   0.558  1.00  0.00     0.000 C 
BRANCH   6   7
ATOM      7  C   UNL     1     -43.707 -27.122  -0.006  1.00  0.00    -0.000 C 
BRANCH   7   8
ATOM      8  C   UNL     1     -42.973 -28.463  -0.154  1.00  0.00    -0.003 C 
ATOM      9  C   UNL     1     -41.465 -28.255  -0.260  1.00  0.00     0.004 C 
ENDBRANCH   7   8
ENDBRANCH   6   7
ENDBRANCH   1   6
TORSDOF 5
ENDMDL
MODEL 7
REMARK VINA RESULT:    -3.090      1.575      2.340
REMARK INTER + INTRA:          -4.131
REMARK INTER:                  -3.916
REMARK INTRA:                  -0.215
REMARK UNBOUND:                -0.138
REMARK SMILES CCCCCCC(=O)[O-]
REMARK SMILES IDX 5 1 6 2 7 3 8 4 9 5 4 6 3 7 2 8 1 9
REMARK H PARENT
REMARK Flexibility Score: inf
ROOT
ATOM      1  C   UNL     1     -45.168 -26.296   1.393  1.00  0.00     0.006 C 
ENDROOT
BRANCH   1   2
ATOM      2  C   UNL     1     -44.970 -27.630   0.663  1.00  0.00     0.053 C 
BRANCH   2   3
ATOM      3  C   UNL     1     -44.155 -27.467  -0.585  1.00  0.00     0.041 C 
ATOM      4  O   UNL     1     -42.903 -27.597  -0.544  1.00  0.00    -0.550 OA
ATOM      5  O   UNL     1     -44.781 -27.202  -1.796  1.00  0.00    -0.550 OA
ENDBRANCH   2   3
ENDBRANCH   1   2
BRANCH   1   6
ATOM      6  C   UNL     1     -46.277 -26.377   2.459  1.00  0.00     0.000 C 
BRANCH   6   7
ATOM      7  C   UNL     1     -46.532 -27.815   2.937  1.00  0.00    -0.000 C 
BRANCH   7   8
ATOM      8  C   UNL     1     -46.130 -28.033   4.403  1.00  0.00    -0.003 C 
ATOM      9  C   UNL     1     -46.120 -26.715   5.172  1.00  0.00     0.004 C 
ENDBRANCH   7   8
ENDBRANCH   6   7
ENDBRANCH   1   6
TORSDOF 5
ENDMDL
MODEL 8
REMARK VINA RESULT:    -3.086      4.690      5.548
REMARK INTER + INTRA:          -4.126
REMARK INTER:                  -3.918
REMARK INTRA:                  -0.208
REMARK UNBOUND:                -0.138
REMARK SMILES CCCCCCC(=O)[O-]
REMARK SMILES IDX 5 1 6 2 7 3 8 4 9 5 4 6 3 7 2 8 1 9
REMARK H PARENT
REMARK Flexibility Score: inf
ROOT
ATOM      1  C   UNL     1     -44.938 -28.800   0.181  1.00  0.00     0.006 C 
ENDROOT
BRANCH   1   2
ATOM      2  C   UNL     1     -45.788 -27.857  -0.680  1.00  0.00     0.053 C 
BRANCH   2   3
ATOM      3  C   UNL     1     -45.776 -28.257  -2.124  1.00  0.00     0.041 C 
ATOM      4  O   UNL     1     -45.291 -27.484  -2.991  1.00  0.00    -0.550 OA
ATOM      5  O   UNL     1     -46.275 -29.495  -2.508  1.00  0.00    -0.550 OA
ENDBRANCH   2   3
ENDBRANCH   1   2
BRANCH   1   6
ATOM      6  C   UNL     1     -43.539 -29.031  -0.419  1.00  0.00     0.000 C 
BRANCH   6   7
ATOM      7  C   UNL     1     -42.632 -27.796  -0.295  1.00  0.00    -0.000 C 
BRANCH   7   8
ATOM      8  C   UNL     1     -41.140 -28.156  -0.273  1.00  0.00    -0.003 C 
ATOM      9  C   UNL     1     -40.930 -29.604   0.162  1.00  0.00     0.004 C 
ENDBRANCH   7   8
ENDBRANCH   6   7
ENDBRANCH   1   6
TORSDOF 5
ENDMDL
MODEL 9
REMARK VINA RESULT:    -2.934      9.593     11.955
REMARK INTER + INTRA:          -3.930
REMARK INTER:                  -3.678
REMARK INTRA:                  -0.252
REMARK UNBOUND:                -0.138
REMARK SMILES CCCCCCC(=O)[O-]
REMARK SMILES IDX 5 1 6 2 7 3 8 4 9 5 4 6 3 7 2 8 1 9
REMARK H PARENT
REMARK Flexibility Score: inf
ROOT
ATOM      1  C   UNL     1     -44.093 -27.904  -9.186  1.00  0.00     0.006 C 
ENDROOT
BRANCH   1   2
ATOM      2  C   UNL     1     -43.403 -29.263  -9.359  1.00  0.00     0.053 C 
BRANCH   2   3
ATOM      3  C   UNL     1     -42.081 -29.311  -8.655  1.00  0.00     0.041 C 
ATOM      4  O   UNL     1     -41.195 -30.124  -9.028  1.00  0.00    -0.550 OA
ATOM      5  O   UNL     1     -41.817 -28.438  -7.608  1.00  0.00    -0.550 OA
ENDBRANCH   2   3
ENDBRANCH   1   2
BRANCH   1   6
ATOM      6  C   UNL     1     -45.622 -28.041  -9.058  1.00  0.00     0.000 C 
BRANCH   6   7
ATOM      7  C   UNL     1     -46.153 -27.501  -7.721  1.00  0.00    -0.000 C 
BRANCH   7   8
ATOM      8  C   UNL     1     -45.032 -27.208  -6.713  1.00  0.00    -0.003 C 
ATOM      9  C   UNL     1     -45.422 -27.662  -5.309  1.00  0.00     0.004 C 
ENDBRANCH   7   8
ENDBRANCH   6   7
ENDBRANCH   1   6
TORSDOF 5
ENDMDL
