MODEL 1
REMARK VINA RESULT:    -6.362      0.000      0.000
REMARK INTER + INTRA:          -7.592
REMARK INTER:                  -7.292
REMARK INTRA:                  -0.299
REMARK UNBOUND:                -0.299
REMARK SMILES O=C1C[C@@H](c2ccc(O)cc2)Oc2cc(O)cc(O)c21
REMARK SMILES IDX 3 1 4 2 12 3 13 4 14 5 15 6 17 7 18 8 20 9 2 10 1 11 5 12
REMARK SMILES IDX 6 13 11 14 7 15 10 16 8 17 9 18 19 20 16 22
REMARK H PARENT 9 19 19 21 16 23
REMARK Flexibility Score: inf
ROOT
ATOM      1  C   UNL     1       6.161 -10.525  -9.754  1.00  0.00     0.131 C 
ATOM      2  C   UNL     1       7.262 -10.121 -10.750  1.00  0.00     0.211 C 
ATOM      3  O   UNL     1       7.860  -8.882 -10.362  1.00  0.00    -0.484 OA
ATOM      4  C   UNL     1       8.184  -8.598  -9.031  1.00  0.00     0.138 A 
ATOM      5  C   UNL     1       9.043  -7.534  -8.744  1.00  0.00     0.093 A 
ATOM      6  C   UNL     1       9.398  -7.250  -7.420  1.00  0.00     0.123 A 
ATOM      7  C   UNL     1       8.884  -8.031  -6.381  1.00  0.00     0.093 A 
ATOM      8  C   UNL     1       8.005  -9.091  -6.652  1.00  0.00     0.133 A 
ATOM      9  C   UNL     1       7.645  -9.375  -7.987  1.00  0.00     0.102 A 
ATOM     10  C   UNL     1       6.685 -10.446  -8.349  1.00  0.00     0.174 C 
ATOM     11  O   UNL     1       6.257 -11.258  -7.484  1.00  0.00    -0.294 OA
ENDROOT
BRANCH   2  12
ATOM     12  C   UNL     1       6.703 -10.013 -12.147  1.00  0.00    -0.007 A 
ATOM     13  C   UNL     1       6.114  -8.816 -12.592  1.00  0.00     0.011 A 
ATOM     14  C   UNL     1       6.716 -11.129 -13.002  1.00  0.00     0.011 A 
ATOM     15  C   UNL     1       5.571  -8.731 -13.877  1.00  0.00     0.046 A 
ATOM     16  C   UNL     1       6.172 -11.040 -14.287  1.00  0.00     0.046 A 
ATOM     17  C   UNL     1       5.599  -9.838 -14.729  1.00  0.00     0.115 A 
BRANCH  17  18
ATOM     18  O   UNL     1       5.055  -9.739 -16.007  1.00  0.00    -0.508 OA
ATOM     19  H   UNL     1       4.113  -9.395 -16.157  1.00  0.00     0.293 HD
ENDBRANCH  17  18
ENDBRANCH   2  12
BRANCH   8  20
ATOM     20  O   UNL     1       7.491  -9.846  -5.599  1.00  0.00    -0.507 OA
ATOM     21  H   UNL     1       7.583  -9.547  -4.635  1.00  0.00     0.293 HD
ENDBRANCH   8  20
BRANCH   6  22
ATOM     22  O   UNL     1      10.260  -6.197  -7.127  1.00  0.00    -0.508 OA
ATOM     23  H   UNL     1      10.691  -5.645  -7.859  1.00  0.00     0.293 HD
ENDBRANCH   6  22
TORSDOF 4
ENDMDL
MODEL 2
REMARK VINA RESULT:    -5.842      1.175      2.962
REMARK INTER + INTRA:          -6.995
REMARK INTER:                  -6.697
REMARK INTRA:                  -0.298
REMARK UNBOUND:                -0.299
REMARK SMILES O=C1C[C@@H](c2ccc(O)cc2)Oc2cc(O)cc(O)c21
REMARK SMILES IDX 3 1 4 2 12 3 13 4 14 5 15 6 17 7 18 8 20 9 2 10 1 11 5 12
REMARK SMILES IDX 6 13 11 14 7 15 10 16 8 17 9 18 19 20 16 22
REMARK H PARENT 9 19 19 21 16 23
REMARK Flexibility Score: inf
ROOT
ATOM      1  C   UNL     1       8.096  -7.902 -11.130  1.00  0.00     0.131 C 
ATOM      2  C   UNL     1       6.649  -8.410 -11.017  1.00  0.00     0.211 C 
ATOM      3  O   UNL     1       6.541  -9.395  -9.986  1.00  0.00    -0.484 OA
ATOM      4  C   UNL     1       7.176  -9.246  -8.748  1.00  0.00     0.138 A 
ATOM      5  C   UNL     1       6.791 -10.056  -7.676  1.00  0.00     0.093 A 
ATOM      6  C   UNL     1       7.398  -9.904  -6.424  1.00  0.00     0.123 A 
ATOM      7  C   UNL     1       8.397  -8.943  -6.248  1.00  0.00     0.093 A 
ATOM      8  C   UNL     1       8.807  -8.136  -7.320  1.00  0.00     0.133 A 
ATOM      9  C   UNL     1       8.197  -8.290  -8.584  1.00  0.00     0.102 A 
ATOM     10  C   UNL     1       8.610  -7.509  -9.775  1.00  0.00     0.174 C 
ATOM     11  O   UNL     1       9.429  -6.555  -9.678  1.00  0.00    -0.294 OA
ENDROOT
BRANCH   2  12
ATOM     12  C   UNL     1       6.181  -8.983 -12.332  1.00  0.00    -0.007 A 
ATOM     13  C   UNL     1       6.492 -10.308 -12.687  1.00  0.00     0.011 A 
ATOM     14  C   UNL     1       5.473  -8.178 -13.242  1.00  0.00     0.011 A 
ATOM     15  C   UNL     1       6.082 -10.824 -13.920  1.00  0.00     0.046 A 
ATOM     16  C   UNL     1       5.064  -8.698 -14.475  1.00  0.00     0.046 A 
ATOM     17  C   UNL     1       5.366 -10.024 -14.816  1.00  0.00     0.115 A 
BRANCH  17  18
ATOM     18  O   UNL     1       4.963 -10.552 -16.040  1.00  0.00    -0.508 OA
ATOM     19  H   UNL     1       4.007 -10.846 -16.201  1.00  0.00     0.293 HD
ENDBRANCH  17  18
ENDBRANCH   2  12
BRANCH   8  20
ATOM     20  O   UNL     1       9.818  -7.194  -7.127  1.00  0.00    -0.507 OA
ATOM     21  H   UNL     1      10.793  -7.465  -7.071  1.00  0.00     0.293 HD
ENDBRANCH   8  20
BRANCH   6  22
ATOM     22  O   UNL     1       7.015 -10.702  -5.349  1.00  0.00    -0.508 OA
ATOM     23  H   UNL     1       6.334 -10.383  -4.668  1.00  0.00     0.293 HD
ENDBRANCH   6  22
TORSDOF 4
ENDMDL
MODEL 3
REMARK VINA RESULT:    -5.836      3.979      6.604
REMARK INTER + INTRA:          -6.988
REMARK INTER:                  -6.691
REMARK INTRA:                  -0.297
REMARK UNBOUND:                -0.299
REMARK SMILES O=C1C[C@@H](c2ccc(O)cc2)Oc2cc(O)cc(O)c21
REMARK SMILES IDX 3 1 4 2 12 3 13 4 14 5 15 6 17 7 18 8 20 9 2 10 1 11 5 12
REMARK SMILES IDX 6 13 11 14 7 15 10 16 8 17 9 18 19 20 16 22
REMARK H PARENT 9 19 19 21 16 23
REMARK Flexibility Score: inf
ROOT
ATOM      1  C   UNL     1       5.441  -9.088  -7.559  1.00  0.00     0.131 C 
ATOM      2  C   UNL     1       6.887  -9.602  -7.664  1.00  0.00     0.211 C 
ATOM      3  O   UNL     1       7.119 -10.648  -6.717  1.00  0.00    -0.484 OA
ATOM      4  C   UNL     1       6.183 -11.664  -6.490  1.00  0.00     0.138 A 
ATOM      5  C   UNL     1       6.575 -12.820  -5.810  1.00  0.00     0.093 A 
ATOM      6  C   UNL     1       5.659 -13.857  -5.595  1.00  0.00     0.123 A 
ATOM      7  C   UNL     1       4.346 -13.731  -6.057  1.00  0.00     0.093 A 
ATOM      8  C   UNL     1       3.933 -12.568  -6.724  1.00  0.00     0.133 A 
ATOM      9  C   UNL     1       4.855 -11.521  -6.939  1.00  0.00     0.102 A 
ATOM     10  C   UNL     1       4.481 -10.243  -7.592  1.00  0.00     0.174 C 
ATOM     11  O   UNL     1       3.350 -10.090  -8.127  1.00  0.00    -0.294 OA
ENDROOT
BRANCH   2  12
ATOM     12  C   UNL     1       7.870  -8.478  -7.445  1.00  0.00    -0.007 A 
ATOM     13  C   UNL     1       8.198  -8.058  -6.143  1.00  0.00     0.011 A 
ATOM     14  C   UNL     1       8.426  -7.801  -8.544  1.00  0.00     0.011 A 
ATOM     15  C   UNL     1       9.085  -6.996  -5.947  1.00  0.00     0.046 A 
ATOM     16  C   UNL     1       9.314  -6.739  -8.343  1.00  0.00     0.046 A 
ATOM     17  C   UNL     1       9.648  -6.335  -7.042  1.00  0.00     0.115 A 
BRANCH  17  18
ATOM     18  O   UNL     1      10.531  -5.279  -6.831  1.00  0.00    -0.508 OA
ATOM     19  H   UNL     1      11.526  -5.380  -6.997  1.00  0.00     0.293 HD
ENDBRANCH  17  18
ENDBRANCH   2  12
BRANCH   8  20
ATOM     20  O   UNL     1       2.613 -12.455  -7.162  1.00  0.00    -0.507 OA
ATOM     21  H   UNL     1       1.878 -12.116  -6.552  1.00  0.00     0.293 HD
ENDBRANCH   8  20
BRANCH   6  22
ATOM     22  O   UNL     1       6.044 -15.016  -4.925  1.00  0.00    -0.508 OA
ATOM     23  H   UNL     1       5.458 -15.435  -4.213  1.00  0.00     0.293 HD
ENDBRANCH   6  22
TORSDOF 4
ENDMDL
MODEL 4
REMARK VINA RESULT:    -5.831      9.463     10.798
REMARK INTER + INTRA:          -6.982
REMARK INTER:                  -6.694
REMARK INTRA:                  -0.289
REMARK UNBOUND:                -0.299
REMARK SMILES O=C1C[C@@H](c2ccc(O)cc2)Oc2cc(O)cc(O)c21
REMARK SMILES IDX 3 1 4 2 12 3 13 4 14 5 15 6 17 7 18 8 20 9 2 10 1 11 5 12
REMARK SMILES IDX 6 13 11 14 7 15 10 16 8 17 9 18 19 20 16 22
REMARK H PARENT 9 19 19 21 16 23
REMARK Flexibility Score: inf
ROOT
ATOM      1  C   UNL     1       6.452 -21.306  -8.614  1.00  0.00     0.131 C 
ATOM      2  C   UNL     1       6.253 -20.229  -9.694  1.00  0.00     0.211 C 
ATOM      3  O   UNL     1       5.635 -19.066  -9.136  1.00  0.00    -0.484 OA
ATOM      4  C   UNL     1       6.019 -18.545  -7.895  1.00  0.00     0.138 A 
ATOM      5  C   UNL     1       5.625 -17.252  -7.542  1.00  0.00     0.093 A 
ATOM      6  C   UNL     1       6.019 -16.705  -6.315  1.00  0.00     0.123 A 
ATOM      7  C   UNL     1       6.804 -17.459  -5.439  1.00  0.00     0.093 A 
ATOM      8  C   UNL     1       7.191 -18.766  -5.772  1.00  0.00     0.133 A 
ATOM      9  C   UNL     1       6.791 -19.319  -7.008  1.00  0.00     0.102 A 
ATOM     10  C   UNL     1       7.119 -20.709  -7.408  1.00  0.00     0.174 C 
ATOM     11  O   UNL     1       7.906 -21.418  -6.724  1.00  0.00    -0.294 OA
ENDROOT
BRANCH   2  12
ATOM     12  C   UNL     1       5.419 -20.763 -10.833  1.00  0.00    -0.007 A 
ATOM     13  C   UNL     1       4.082 -21.146 -10.623  1.00  0.00     0.011 A 
ATOM     14  C   UNL     1       5.989 -20.936 -12.106  1.00  0.00     0.011 A 
ATOM     15  C   UNL     1       3.324 -21.669 -11.675  1.00  0.00     0.046 A 
ATOM     16  C   UNL     1       5.228 -21.459 -13.156  1.00  0.00     0.046 A 
ATOM     17  C   UNL     1       3.891 -21.825 -12.943  1.00  0.00     0.115 A 
BRANCH  17  18
ATOM     18  O   UNL     1       3.123 -22.346 -13.981  1.00  0.00    -0.508 OA
ATOM     19  H   UNL     1       2.964 -23.343 -14.074  1.00  0.00     0.293 HD
ENDBRANCH  17  18
ENDBRANCH   2  12
BRANCH   8  20
ATOM     20  O   UNL     1       7.960 -19.508  -4.875  1.00  0.00    -0.507 OA
ATOM     21  H   UNL     1       8.358 -20.404  -5.131  1.00  0.00     0.293 HD
ENDBRANCH   8  20
BRANCH   6  22
ATOM     22  O   UNL     1       5.638 -15.414  -5.959  1.00  0.00    -0.508 OA
ATOM     23  H   UNL     1       5.328 -14.742  -6.652  1.00  0.00     0.293 HD
ENDBRANCH   6  22
TORSDOF 4
ENDMDL
MODEL 5
REMARK VINA RESULT:    -5.763      2.884      5.800
REMARK INTER + INTRA:          -6.904
REMARK INTER:                  -6.597
REMARK INTRA:                  -0.307
REMARK UNBOUND:                -0.299
REMARK SMILES O=C1C[C@@H](c2ccc(O)cc2)Oc2cc(O)cc(O)c21
REMARK SMILES IDX 3 1 4 2 12 3 13 4 14 5 15 6 17 7 18 8 20 9 2 10 1 11 5 12
REMARK SMILES IDX 6 13 11 14 7 15 10 16 8 17 9 18 19 20 16 22
REMARK H PARENT 9 19 19 21 16 23
REMARK Flexibility Score: inf
ROOT
ATOM      1  C   UNL     1       6.076 -10.135  -8.873  1.00  0.00     0.131 C 
ATOM      2  C   UNL     1       6.145  -9.985  -7.344  1.00  0.00     0.211 C 
ATOM      3  O   UNL     1       7.381  -9.381  -6.954  1.00  0.00    -0.484 OA
ATOM      4  C   UNL     1       7.926  -8.293  -7.645  1.00  0.00     0.138 A 
ATOM      5  C   UNL     1       8.946  -7.544  -7.052  1.00  0.00     0.093 A 
ATOM      6  C   UNL     1       9.486  -6.437  -7.718  1.00  0.00     0.123 A 
ATOM      7  C   UNL     1       9.007  -6.086  -8.983  1.00  0.00     0.093 A 
ATOM      8  C   UNL     1       7.997  -6.840  -9.598  1.00  0.00     0.133 A 
ATOM      9  C   UNL     1       7.454  -7.958  -8.929  1.00  0.00     0.102 A 
ATOM     10  C   UNL     1       6.420  -8.832  -9.534  1.00  0.00     0.174 C 
ATOM     11  O   UNL     1       5.864  -8.526 -10.624  1.00  0.00    -0.294 OA
ENDROOT
BRANCH   2  12
ATOM     12  C   UNL     1       5.987 -11.325  -6.669  1.00  0.00    -0.007 A 
ATOM     13  C   UNL     1       7.110 -12.015  -6.176  1.00  0.00     0.011 A 
ATOM     14  C   UNL     1       4.719 -11.925  -6.574  1.00  0.00     0.011 A 
ATOM     15  C   UNL     1       6.961 -13.270  -5.578  1.00  0.00     0.046 A 
ATOM     16  C   UNL     1       4.574 -13.180  -5.976  1.00  0.00     0.046 A 
ATOM     17  C   UNL     1       5.696 -13.856  -5.474  1.00  0.00     0.115 A 
BRANCH  17  18
ATOM     18  O   UNL     1       5.563 -15.106  -4.875  1.00  0.00    -0.508 OA
ATOM     19  H   UNL     1       5.819 -15.957  -5.363  1.00  0.00     0.293 HD
ENDBRANCH  17  18
ENDBRANCH   2  12
BRANCH   8  20
ATOM     20  O   UNL     1       7.546  -6.482 -10.869  1.00  0.00    -0.507 OA
ATOM     21  H   UNL     1       7.159  -7.167 -11.508  1.00  0.00     0.293 HD
ENDBRANCH   8  20
BRANCH   6  22
ATOM     22  O   UNL     1      10.497  -5.680  -7.131  1.00  0.00    -0.508 OA
ATOM     23  H   UNL     1      11.472  -5.941  -7.215  1.00  0.00     0.293 HD
ENDBRANCH   6  22
TORSDOF 4
ENDMDL
MODEL 6
REMARK VINA RESULT:    -5.713      7.614     10.459
REMARK INTER + INTRA:          -6.847
REMARK INTER:                  -6.563
REMARK INTRA:                  -0.285
REMARK UNBOUND:                -0.299
REMARK SMILES O=C1C[C@@H](c2ccc(O)cc2)Oc2cc(O)cc(O)c21
REMARK SMILES IDX 3 1 4 2 12 3 13 4 14 5 15 6 17 7 18 8 20 9 2 10 1 11 5 12
REMARK SMILES IDX 6 13 11 14 7 15 10 16 8 17 9 18 19 20 16 22
REMARK H PARENT 9 19 19 21 16 23
REMARK Flexibility Score: inf
ROOT
ATOM      1  C   UNL     1       6.774 -17.717  -5.299  1.00  0.00     0.131 C 
ATOM      2  C   UNL     1       5.819 -16.888  -6.174  1.00  0.00     0.211 C 
ATOM      3  O   UNL     1       6.128 -17.061  -7.559  1.00  0.00    -0.484 OA
ATOM      4  C   UNL     1       6.431 -18.316  -8.101  1.00  0.00     0.138 A 
ATOM      5  C   UNL     1       6.411 -18.489  -9.487  1.00  0.00     0.093 A 
ATOM      6  C   UNL     1       6.687 -19.742 -10.045  1.00  0.00     0.123 A 
ATOM      7  C   UNL     1       6.991 -20.822  -9.212  1.00  0.00     0.093 A 
ATOM      8  C   UNL     1       7.033 -20.659  -7.819  1.00  0.00     0.133 A 
ATOM      9  C   UNL     1       6.758 -19.394  -7.256  1.00  0.00     0.102 A 
ATOM     10  C   UNL     1       6.832 -19.132  -5.798  1.00  0.00     0.174 C 
ATOM     11  O   UNL     1       6.998 -20.071  -4.973  1.00  0.00    -0.294 OA
ENDROOT
BRANCH   2  12
ATOM     12  C   UNL     1       5.890 -15.426  -5.806  1.00  0.00    -0.007 A 
ATOM     13  C   UNL     1       4.728 -14.720  -5.448  1.00  0.00     0.011 A 
ATOM     14  C   UNL     1       7.116 -14.740  -5.870  1.00  0.00     0.011 A 
ATOM     15  C   UNL     1       4.796 -13.359  -5.137  1.00  0.00     0.046 A 
ATOM     16  C   UNL     1       7.180 -13.378  -5.558  1.00  0.00     0.046 A 
ATOM     17  C   UNL     1       6.019 -12.684  -5.188  1.00  0.00     0.115 A 
BRANCH  17  18
ATOM     18  O   UNL     1       6.071 -11.328  -4.875  1.00  0.00    -0.508 OA
ATOM     19  H   UNL     1       6.722 -10.703  -5.336  1.00  0.00     0.293 HD
ENDBRANCH  17  18
ENDBRANCH   2  12
BRANCH   8  20
ATOM     20  O   UNL     1       7.356 -21.746  -7.007  1.00  0.00    -0.507 OA
ATOM     21  H   UNL     1       7.823 -21.623  -6.116  1.00  0.00     0.293 HD
ENDBRANCH   8  20
BRANCH   6  22
ATOM     22  O   UNL     1       6.660 -19.925 -11.426  1.00  0.00    -0.508 OA
ATOM     23  H   UNL     1       6.206 -20.728 -11.846  1.00  0.00     0.293 HD
ENDBRANCH   6  22
TORSDOF 4
ENDMDL
MODEL 7
REMARK VINA RESULT:    -5.513      2.203      7.140
REMARK INTER + INTRA:          -6.618
REMARK INTER:                  -6.303
REMARK INTRA:                  -0.315
REMARK UNBOUND:                -0.299
REMARK SMILES O=C1C[C@@H](c2ccc(O)cc2)Oc2cc(O)cc(O)c21
REMARK SMILES IDX 3 1 4 2 12 3 13 4 14 5 15 6 17 7 18 8 20 9 2 10 1 11 5 12
REMARK SMILES IDX 6 13 11 14 7 15 10 16 8 17 9 18 19 20 16 22
REMARK H PARENT 9 19 19 21 16 23
REMARK Flexibility Score: inf
ROOT
ATOM      1  C   UNL     1       7.238 -10.024 -12.049  1.00  0.00     0.131 C 
ATOM      2  C   UNL     1       6.683  -8.772 -11.350  1.00  0.00     0.211 C 
ATOM      3  O   UNL     1       6.389  -7.750 -12.306  1.00  0.00    -0.484 OA
ATOM      4  C   UNL     1       5.759  -8.032 -13.524  1.00  0.00     0.138 A 
ATOM      5  C   UNL     1       5.211  -6.988 -14.272  1.00  0.00     0.093 A 
ATOM      6  C   UNL     1       4.556  -7.254 -15.480  1.00  0.00     0.123 A 
ATOM      7  C   UNL     1       4.457  -8.569 -15.942  1.00  0.00     0.093 A 
ATOM      8  C   UNL     1       5.020  -9.626 -15.211  1.00  0.00     0.133 A 
ATOM      9  C   UNL     1       5.683  -9.358 -13.994  1.00  0.00     0.102 A 
ATOM     10  C   UNL     1       6.345 -10.415 -13.191  1.00  0.00     0.174 C 
ATOM     11  O   UNL     1       6.214 -11.635 -13.483  1.00  0.00    -0.294 OA
ENDROOT
BRANCH   2  12
ATOM     12  C   UNL     1       7.661  -8.256 -10.324  1.00  0.00    -0.007 A 
ATOM     13  C   UNL     1       8.276  -9.135  -9.415  1.00  0.00     0.011 A 
ATOM     14  C   UNL     1       7.927  -6.878 -10.230  1.00  0.00     0.011 A 
ATOM     15  C   UNL     1       9.158  -8.648  -8.447  1.00  0.00     0.046 A 
ATOM     16  C   UNL     1       8.810  -6.394  -9.260  1.00  0.00     0.046 A 
ATOM     17  C   UNL     1       9.430  -7.279  -8.367  1.00  0.00     0.115 A 
BRANCH  17  18
ATOM     18  O   UNL     1      10.312  -6.807  -7.397  1.00  0.00    -0.508 OA
ATOM     19  H   UNL     1      10.462  -5.815  -7.255  1.00  0.00     0.293 HD
ENDBRANCH  17  18
ENDBRANCH   2  12
BRANCH   8  20
ATOM     20  O   UNL     1       4.925 -10.929 -15.699  1.00  0.00    -0.507 OA
ATOM     21  H   UNL     1       4.295 -11.169 -16.455  1.00  0.00     0.293 HD
ENDBRANCH   8  20
BRANCH   6  22
ATOM     22  O   UNL     1       3.999  -6.219 -16.228  1.00  0.00    -0.508 OA
ATOM     23  H   UNL     1       4.574  -5.496 -16.643  1.00  0.00     0.293 HD
ENDBRANCH   6  22
TORSDOF 4
ENDMDL
MODEL 8
REMARK VINA RESULT:    -5.469      8.841     10.397
REMARK INTER + INTRA:          -6.567
REMARK INTER:                  -6.282
REMARK INTRA:                  -0.286
REMARK UNBOUND:                -0.299
REMARK SMILES O=C1C[C@@H](c2ccc(O)cc2)Oc2cc(O)cc(O)c21
REMARK SMILES IDX 3 1 4 2 12 3 13 4 14 5 15 6 17 7 18 8 20 9 2 10 1 11 5 12
REMARK SMILES IDX 6 13 11 14 7 15 10 16 8 17 9 18 19 20 16 22
REMARK H PARENT 9 19 19 21 16 23
REMARK Flexibility Score: inf
ROOT
ATOM      1  C   UNL     1       6.173 -19.971  -8.352  1.00  0.00     0.131 C 
ATOM      2  C   UNL     1       5.840 -19.370  -9.728  1.00  0.00     0.211 C 
ATOM      3  O   UNL     1       4.709 -18.500  -9.636  1.00  0.00    -0.484 OA
ATOM      4  C   UNL     1       4.553 -17.594  -8.581  1.00  0.00     0.138 A 
ATOM      5  C   UNL     1       3.620 -16.560  -8.695  1.00  0.00     0.093 A 
ATOM      6  C   UNL     1       3.468 -15.630  -7.660  1.00  0.00     0.123 A 
ATOM      7  C   UNL     1       4.247 -15.741  -6.506  1.00  0.00     0.093 A 
ATOM      8  C   UNL     1       5.175 -16.786  -6.369  1.00  0.00     0.133 A 
ATOM      9  C   UNL     1       5.327 -17.725  -7.411  1.00  0.00     0.102 A 
ATOM     10  C   UNL     1       6.249 -18.883  -7.320  1.00  0.00     0.174 C 
ATOM     11  O   UNL     1       7.060 -18.998  -6.360  1.00  0.00    -0.294 OA
ENDROOT
BRANCH   2  12
ATOM     12  C   UNL     1       5.575 -20.461 -10.736  1.00  0.00    -0.007 A 
ATOM     13  C   UNL     1       6.015 -20.329 -12.066  1.00  0.00     0.011 A 
ATOM     14  C   UNL     1       4.836 -21.599 -10.370  1.00  0.00     0.011 A 
ATOM     15  C   UNL     1       5.740 -21.328 -13.003  1.00  0.00     0.046 A 
ATOM     16  C   UNL     1       4.564 -22.597 -11.310  1.00  0.00     0.046 A 
ATOM     17  C   UNL     1       5.017 -22.465 -12.630  1.00  0.00     0.115 A 
BRANCH  17  18
ATOM     18  O   UNL     1       4.752 -23.453 -13.575  1.00  0.00    -0.508 OA
ATOM     19  H   UNL     1       4.595 -23.226 -14.550  1.00  0.00     0.293 HD
ENDBRANCH  17  18
ENDBRANCH   2  12
BRANCH   8  20
ATOM     20  O   UNL     1       5.931 -16.888  -5.201  1.00  0.00    -0.507 OA
ATOM     21  H   UNL     1       6.045 -17.772  -4.718  1.00  0.00     0.293 HD
ENDBRANCH   8  20
BRANCH   6  22
ATOM     22  O   UNL     1       2.546 -14.592  -7.770  1.00  0.00    -0.508 OA
ATOM     23  H   UNL     1       1.635 -14.643  -7.329  1.00  0.00     0.293 HD
ENDBRANCH   6  22
TORSDOF 4
ENDMDL
MODEL 9
REMARK VINA RESULT:    -3.677      9.029     10.651
REMARK INTER + INTRA:          -4.513
REMARK INTER:                  -4.197
REMARK INTRA:                  -0.316
REMARK UNBOUND:                -0.299
REMARK SMILES O=C1C[C@@H](c2ccc(O)cc2)Oc2cc(O)cc(O)c21
REMARK SMILES IDX 3 1 4 2 12 3 13 4 14 5 15 6 17 7 18 8 20 9 2 10 1 11 5 12
REMARK SMILES IDX 6 13 11 14 7 15 10 16 8 17 9 18 19 20 16 22
REMARK H PARENT 9 19 19 21 16 23
REMARK Flexibility Score: inf
ROOT
ATOM      1  C   UNL     1       7.034 -19.089  -9.960  1.00  0.00     0.131 C 
ATOM      2  C   UNL     1       5.537 -19.209 -10.291  1.00  0.00     0.211 C 
ATOM      3  O   UNL     1       4.761 -19.283  -9.092  1.00  0.00    -0.484 OA
ATOM      4  C   UNL     1       5.022 -18.464  -7.987  1.00  0.00     0.138 A 
ATOM      5  C   UNL     1       4.062 -18.343  -6.980  1.00  0.00     0.093 A 
ATOM      6  C   UNL     1       4.296 -17.510  -5.880  1.00  0.00     0.123 A 
ATOM      7  C   UNL     1       5.497 -16.803  -5.786  1.00  0.00     0.093 A 
ATOM      8  C   UNL     1       6.479 -16.930  -6.781  1.00  0.00     0.133 A 
ATOM      9  C   UNL     1       6.245 -17.772  -7.889  1.00  0.00     0.102 A 
ATOM     10  C   UNL     1       7.253 -17.996  -8.954  1.00  0.00     0.174 C 
ATOM     11  O   UNL     1       8.317 -17.320  -8.998  1.00  0.00    -0.294 OA
ENDROOT
BRANCH   2  12
ATOM     12  C   UNL     1       5.277 -20.420 -11.153  1.00  0.00    -0.007 A 
ATOM     13  C   UNL     1       4.357 -21.403 -10.747  1.00  0.00     0.011 A 
ATOM     14  C   UNL     1       5.994 -20.605 -12.347  1.00  0.00     0.011 A 
ATOM     15  C   UNL     1       4.142 -22.538 -11.534  1.00  0.00     0.046 A 
ATOM     16  C   UNL     1       5.776 -21.742 -13.133  1.00  0.00     0.046 A 
ATOM     17  C   UNL     1       4.847 -22.711 -12.728  1.00  0.00     0.115 A 
BRANCH  17  18
ATOM     18  O   UNL     1       4.622 -23.846 -13.503  1.00  0.00    -0.508 OA
ATOM     19  H   UNL     1       4.530 -24.764 -13.084  1.00  0.00     0.293 HD
ENDBRANCH  17  18
ENDBRANCH   2  12
BRANCH   8  20
ATOM     20  O   UNL     1       7.679 -16.229  -6.659  1.00  0.00    -0.507 OA
ATOM     21  H   UNL     1       8.396 -16.513  -6.002  1.00  0.00     0.293 HD
ENDBRANCH   8  20
BRANCH   6  22
ATOM     22  O   UNL     1       3.340 -17.377  -4.875  1.00  0.00    -0.508 OA
ATOM     23  H   UNL     1       3.334 -17.985  -4.065  1.00  0.00     0.293 HD
ENDBRANCH   6  22
TORSDOF 4
ENDMDL
