MODEL 1
REMARK VINA RESULT:    -5.270      0.000      0.000
REMARK INTER + INTRA:          -6.890
REMARK INTER:                  -6.502
REMARK INTRA:                  -0.388
REMARK UNBOUND:                -0.388
REMARK SMILES O=C1c2c(O)cc(O)cc2O[C@@H](c2cc(O)c(O)c(O)c2)[C@@H]1O
REMARK SMILES IDX 12 1 22 2 2 3 1 4 3 5 4 6 6 7 7 8 9 9 10 10 11 11 13 12
REMARK SMILES IDX 14 13 15 14 21 15 17 16 19 17 16 18 18 20 20 22 23 24 5 26
REMARK SMILES IDX 8 28
REMARK H PARENT 16 19 18 21 20 23 23 25 5 27 8 29
REMARK Flexibility Score: inf
ROOT
ATOM      1  C   UNL     1      54.915   6.894 -45.698  1.00  0.00     0.240 C 
ATOM      2  C   UNL     1      55.341   8.206 -45.004  1.00  0.00     0.231 C 
ATOM      3  C   UNL     1      55.327   8.005 -43.509  1.00  0.00     0.202 C 
ATOM      4  O   UNL     1      56.287   8.426 -42.812  1.00  0.00    -0.291 OA
ATOM      5  C   UNL     1      54.192   7.265 -42.901  1.00  0.00     0.105 A 
ATOM      6  C   UNL     1      53.854   7.323 -41.523  1.00  0.00     0.133 A 
ATOM      7  C   UNL     1      52.807   6.529 -41.036  1.00  0.00     0.093 A 
ATOM      8  C   UNL     1      52.054   5.728 -41.900  1.00  0.00     0.123 A 
ATOM      9  C   UNL     1      52.351   5.709 -43.263  1.00  0.00     0.093 A 
ATOM     10  C   UNL     1      53.417   6.459 -43.764  1.00  0.00     0.138 A 
ATOM     11  O   UNL     1      53.695   6.405 -45.136  1.00  0.00    -0.481 OA
ENDROOT
BRANCH   1  12
ATOM     12  C   UNL     1      54.747   7.099 -47.186  1.00  0.00     0.003 A 
ATOM     13  C   UNL     1      55.524   6.369 -48.099  1.00  0.00     0.058 A 
ATOM     14  C   UNL     1      55.349   6.536 -49.477  1.00  0.00     0.161 A 
ATOM     15  C   UNL     1      53.773   7.985 -47.671  1.00  0.00     0.058 A 
ATOM     16  C   UNL     1      54.382   7.435 -49.958  1.00  0.00     0.200 A 
ATOM     17  C   UNL     1      53.591   8.159 -49.050  1.00  0.00     0.161 A 
BRANCH  14  18
ATOM     18  O   UNL     1      56.145   5.798 -50.352  1.00  0.00    -0.504 OA
ATOM     19  H   UNL     1      56.039   4.796 -50.463  1.00  0.00     0.293 HD
ENDBRANCH  14  18
BRANCH  16  20
ATOM     20  O   UNL     1      54.215   7.596 -51.333  1.00  0.00    -0.502 OA
ATOM     21  H   UNL     1      53.450   8.133 -51.725  1.00  0.00     0.293 HD
ENDBRANCH  16  20
BRANCH  17  22
ATOM     22  O   UNL     1      52.624   9.047 -49.520  1.00  0.00    -0.504 OA
ATOM     23  H   UNL     1      52.110   8.869 -50.375  1.00  0.00     0.293 HD
ENDBRANCH  17  22
ENDBRANCH   1  12
BRANCH   2  24
ATOM     24  O   UNL     1      56.603   8.634 -45.456  1.00  0.00    -0.381 OA
ATOM     25  H   UNL     1      57.266   7.940 -45.202  1.00  0.00     0.211 HD
ENDBRANCH   2  24
BRANCH   6  26
ATOM     26  O   UNL     1      54.493   8.167 -40.613  1.00  0.00    -0.507 OA
ATOM     27  H   UNL     1      54.516   9.173 -40.695  1.00  0.00     0.293 HD
ENDBRANCH   6  26
BRANCH   8  28
ATOM     28  O   UNL     1      51.001   4.954 -41.416  1.00  0.00    -0.508 OA
ATOM     29  H   UNL     1      50.273   5.355 -40.835  1.00  0.00     0.293 HD
ENDBRANCH   8  28
TORSDOF 7
ENDMDL
MODEL 2
REMARK VINA RESULT:    -5.091      2.214      7.792
REMARK INTER + INTRA:          -6.669
REMARK INTER:                  -6.291
REMARK INTRA:                  -0.378
REMARK UNBOUND:                -0.388
REMARK SMILES O=C1c2c(O)cc(O)cc2O[C@@H](c2cc(O)c(O)c(O)c2)[C@@H]1O
REMARK SMILES IDX 12 1 22 2 2 3 1 4 3 5 4 6 6 7 7 8 9 9 10 10 11 11 13 12
REMARK SMILES IDX 14 13 15 14 21 15 17 16 19 17 16 18 18 20 20 22 23 24 5 26
REMARK SMILES IDX 8 28
REMARK H PARENT 16 19 18 21 20 23 23 25 5 27 8 29
REMARK Flexibility Score: inf
ROOT
ATOM      1  C   UNL     1      53.182   7.348 -48.885  1.00  0.00     0.240 C 
ATOM      2  C   UNL     1      53.525   8.641 -49.657  1.00  0.00     0.231 C 
ATOM      3  C   UNL     1      53.386   8.388 -51.137  1.00  0.00     0.202 C 
ATOM      4  O   UNL     1      52.794   9.230 -51.863  1.00  0.00    -0.291 OA
ATOM      5  C   UNL     1      53.913   7.117 -51.695  1.00  0.00     0.105 A 
ATOM      6  C   UNL     1      54.191   6.909 -53.073  1.00  0.00     0.133 A 
ATOM      7  C   UNL     1      54.618   5.648 -53.507  1.00  0.00     0.093 A 
ATOM      8  C   UNL     1      54.834   4.611 -52.594  1.00  0.00     0.123 A 
ATOM      9  C   UNL     1      54.612   4.828 -51.234  1.00  0.00     0.093 A 
ATOM     10  C   UNL     1      54.145   6.064 -50.783  1.00  0.00     0.138 A 
ATOM     11  O   UNL     1      53.920   6.241 -49.411  1.00  0.00    -0.481 OA
ENDROOT
BRANCH   1  12
ATOM     12  C   UNL     1      53.476   7.504 -47.411  1.00  0.00     0.003 A 
ATOM     13  C   UNL     1      54.754   7.891 -46.976  1.00  0.00     0.058 A 
ATOM     14  C   UNL     1      55.020   8.063 -45.614  1.00  0.00     0.161 A 
ATOM     15  C   UNL     1      52.459   7.313 -46.464  1.00  0.00     0.058 A 
ATOM     16  C   UNL     1      54.002   7.857 -44.668  1.00  0.00     0.200 A 
ATOM     17  C   UNL     1      52.717   7.483 -45.097  1.00  0.00     0.161 A 
BRANCH  14  18
ATOM     18  O   UNL     1      56.303   8.442 -45.220  1.00  0.00    -0.504 OA
ATOM     19  H   UNL     1      57.135   8.057 -45.651  1.00  0.00     0.293 HD
ENDBRANCH  14  18
BRANCH  16  20
ATOM     20  O   UNL     1      54.276   8.030 -43.311  1.00  0.00    -0.502 OA
ATOM     21  H   UNL     1      55.023   7.530 -42.843  1.00  0.00     0.293 HD
ENDBRANCH  16  20
BRANCH  17  22
ATOM     22  O   UNL     1      51.699   7.284 -44.164  1.00  0.00    -0.504 OA
ATOM     23  H   UNL     1      51.393   8.026 -43.546  1.00  0.00     0.293 HD
ENDBRANCH  17  22
ENDBRANCH   1  12
BRANCH   2  24
ATOM     24  O   UNL     1      52.716   9.713 -49.237  1.00  0.00    -0.381 OA
ATOM     25  H   UNL     1      52.539  10.285 -50.029  1.00  0.00     0.211 HD
ENDBRANCH   2  24
BRANCH   6  26
ATOM     26  O   UNL     1      54.093   7.917 -54.034  1.00  0.00    -0.507 OA
ATOM     27  H   UNL     1      54.482   8.842 -53.923  1.00  0.00     0.293 HD
ENDBRANCH   6  26
BRANCH   8  28
ATOM     28  O   UNL     1      55.278   3.363 -53.027  1.00  0.00    -0.508 OA
ATOM     29  H   UNL     1      55.669   2.686 -52.381  1.00  0.00     0.293 HD
ENDBRANCH   8  28
TORSDOF 7
ENDMDL
MODEL 3
REMARK VINA RESULT:    -5.081      2.206      7.888
REMARK INTER + INTRA:          -6.657
REMARK INTER:                  -6.273
REMARK INTRA:                  -0.384
REMARK UNBOUND:                -0.388
REMARK SMILES O=C1c2c(O)cc(O)cc2O[C@@H](c2cc(O)c(O)c(O)c2)[C@@H]1O
REMARK SMILES IDX 12 1 22 2 2 3 1 4 3 5 4 6 6 7 7 8 9 9 10 10 11 11 13 12
REMARK SMILES IDX 14 13 15 14 21 15 17 16 19 17 16 18 18 20 20 22 23 24 5 26
REMARK SMILES IDX 8 28
REMARK H PARENT 16 19 18 21 20 23 23 25 5 27 8 29
REMARK Flexibility Score: inf
ROOT
ATOM      1  C   UNL     1      53.160   7.381 -48.874  1.00  0.00     0.240 C 
ATOM      2  C   UNL     1      53.506   8.661 -49.664  1.00  0.00     0.231 C 
ATOM      3  C   UNL     1      53.376   8.385 -51.141  1.00  0.00     0.202 C 
ATOM      4  O   UNL     1      52.787   9.215 -51.883  1.00  0.00    -0.291 OA
ATOM      5  C   UNL     1      53.908   7.106 -51.675  1.00  0.00     0.105 A 
ATOM      6  C   UNL     1      54.193   6.876 -53.048  1.00  0.00     0.133 A 
ATOM      7  C   UNL     1      54.625   5.609 -53.459  1.00  0.00     0.093 A 
ATOM      8  C   UNL     1      54.837   4.587 -52.528  1.00  0.00     0.123 A 
ATOM      9  C   UNL     1      54.606   4.825 -51.174  1.00  0.00     0.093 A 
ATOM     10  C   UNL     1      54.135   6.068 -50.745  1.00  0.00     0.138 A 
ATOM     11  O   UNL     1      53.902   6.267 -49.378  1.00  0.00    -0.481 OA
ENDROOT
BRANCH   1  12
ATOM     12  C   UNL     1      53.445   7.560 -47.401  1.00  0.00     0.003 A 
ATOM     13  C   UNL     1      52.443   7.320 -46.446  1.00  0.00     0.058 A 
ATOM     14  C   UNL     1      52.713   7.457 -45.081  1.00  0.00     0.161 A 
ATOM     15  C   UNL     1      54.731   7.918 -46.968  1.00  0.00     0.058 A 
ATOM     16  C   UNL     1      53.999   7.829 -44.653  1.00  0.00     0.200 A 
ATOM     17  C   UNL     1      55.010   8.058 -45.602  1.00  0.00     0.161 A 
BRANCH  14  18
ATOM     18  O   UNL     1      51.690   7.216 -44.163  1.00  0.00    -0.504 OA
ATOM     19  H   UNL     1      51.260   7.961 -43.628  1.00  0.00     0.293 HD
ENDBRANCH  14  18
BRANCH  16  20
ATOM     20  O   UNL     1      54.259   7.965 -43.289  1.00  0.00    -0.502 OA
ATOM     21  H   UNL     1      53.521   7.966 -42.596  1.00  0.00     0.293 HD
ENDBRANCH  16  20
BRANCH  17  22
ATOM     22  O   UNL     1      56.290   8.421 -45.185  1.00  0.00    -0.504 OA
ATOM     23  H   UNL     1      56.991   7.726 -44.955  1.00  0.00     0.293 HD
ENDBRANCH  17  22
ENDBRANCH   1  12
BRANCH   2  24
ATOM     24  O   UNL     1      52.693   9.739 -49.266  1.00  0.00    -0.381 OA
ATOM     25  H   UNL     1      52.691  10.404 -50.004  1.00  0.00     0.211 HD
ENDBRANCH   2  24
BRANCH   6  26
ATOM     26  O   UNL     1      54.101   7.869 -54.025  1.00  0.00    -0.507 OA
ATOM     27  H   UNL     1      53.449   8.639 -53.988  1.00  0.00     0.293 HD
ENDBRANCH   6  26
BRANCH   8  28
ATOM     28  O   UNL     1      55.284   3.333 -52.939  1.00  0.00    -0.508 OA
ATOM     29  H   UNL     1      55.902   3.225 -53.735  1.00  0.00     0.293 HD
ENDBRANCH   8  28
TORSDOF 7
ENDMDL
MODEL 4
REMARK VINA RESULT:    -4.876      2.534      8.007
REMARK INTER + INTRA:          -6.404
REMARK INTER:                  -6.686
REMARK INTRA:                   0.282
REMARK UNBOUND:                -0.388
REMARK SMILES O=C1c2c(O)cc(O)cc2O[C@@H](c2cc(O)c(O)c(O)c2)[C@@H]1O
REMARK SMILES IDX 12 1 22 2 2 3 1 4 3 5 4 6 6 7 7 8 9 9 10 10 11 11 13 12
REMARK SMILES IDX 14 13 15 14 21 15 17 16 19 17 16 18 18 20 20 22 23 24 5 26
REMARK SMILES IDX 8 28
REMARK H PARENT 16 19 18 21 20 23 23 25 5 27 8 29
REMARK Flexibility Score: inf
ROOT
ATOM      1  C   UNL     1      53.274   6.976 -48.372  1.00  0.00     0.240 C 
ATOM      2  C   UNL     1      51.757   6.745 -48.538  1.00  0.00     0.231 C 
ATOM      3  C   UNL     1      51.436   6.581 -50.002  1.00  0.00     0.202 C 
ATOM      4  O   UNL     1      50.664   5.657 -50.374  1.00  0.00    -0.291 OA
ATOM      5  C   UNL     1      52.084   7.492 -50.980  1.00  0.00     0.105 A 
ATOM      6  C   UNL     1      51.610   7.704 -52.302  1.00  0.00     0.133 A 
ATOM      7  C   UNL     1      52.336   8.530 -53.170  1.00  0.00     0.093 A 
ATOM      8  C   UNL     1      53.486   9.195 -52.732  1.00  0.00     0.123 A 
ATOM      9  C   UNL     1      53.925   9.028 -51.418  1.00  0.00     0.093 A 
ATOM     10  C   UNL     1      53.241   8.176 -50.548  1.00  0.00     0.138 A 
ATOM     11  O   UNL     1      53.719   8.023 -49.240  1.00  0.00    -0.481 OA
ENDROOT
BRANCH   1  12
ATOM     12  C   UNL     1      53.617   7.319 -46.941  1.00  0.00     0.003 A 
ATOM     13  C   UNL     1      52.700   7.065 -45.908  1.00  0.00     0.058 A 
ATOM     14  C   UNL     1      53.026   7.355 -44.579  1.00  0.00     0.161 A 
ATOM     15  C   UNL     1      54.877   7.848 -46.623  1.00  0.00     0.058 A 
ATOM     16  C   UNL     1      54.284   7.897 -44.267  1.00  0.00     0.200 A 
ATOM     17  C   UNL     1      55.212   8.141 -45.294  1.00  0.00     0.161 A 
BRANCH  14  18
ATOM     18  O   UNL     1      52.087   7.095 -43.582  1.00  0.00    -0.504 OA
ATOM     19  H   UNL     1      52.177   6.310 -42.947  1.00  0.00     0.293 HD
ENDBRANCH  14  18
BRANCH  16  20
ATOM     20  O   UNL     1      54.601   8.185 -42.939  1.00  0.00    -0.502 OA
ATOM     21  H   UNL     1      54.566   9.127 -42.568  1.00  0.00     0.293 HD
ENDBRANCH  16  20
BRANCH  17  22
ATOM     22  O   UNL     1      56.466   8.672 -44.992  1.00  0.00    -0.504 OA
ATOM     23  H   UNL     1      57.318   8.149 -45.155  1.00  0.00     0.293 HD
ENDBRANCH  17  22
ENDBRANCH   1  12
BRANCH   2  24
ATOM     24  O   UNL     1      51.326   5.636 -47.787  1.00  0.00    -0.381 OA
ATOM     25  H   UNL     1      51.672   4.818 -48.232  1.00  0.00     0.211 HD
ENDBRANCH   2  24
BRANCH   6  26
ATOM     26  O   UNL     1      50.421   7.156 -52.786  1.00  0.00    -0.507 OA
ATOM     27  H   UNL     1      50.372   6.316 -53.345  1.00  0.00     0.293 HD
ENDBRANCH   6  26
BRANCH   8  28
ATOM     28  O   UNL     1      54.195  10.031 -53.592  1.00  0.00    -0.508 OA
ATOM     29  H   UNL     1      54.428   9.744 -54.536  1.00  0.00     0.293 HD
ENDBRANCH   8  28
TORSDOF 7
ENDMDL
MODEL 5
REMARK VINA RESULT:    -4.861      2.017      7.730
REMARK INTER + INTRA:          -6.386
REMARK INTER:                  -6.022
REMARK INTRA:                  -0.364
REMARK UNBOUND:                -0.388
REMARK SMILES O=C1c2c(O)cc(O)cc2O[C@@H](c2cc(O)c(O)c(O)c2)[C@@H]1O
REMARK SMILES IDX 12 1 22 2 2 3 1 4 3 5 4 6 6 7 7 8 9 9 10 10 11 11 13 12
REMARK SMILES IDX 14 13 15 14 21 15 17 16 19 17 16 18 18 20 20 22 23 24 5 26
REMARK SMILES IDX 8 28
REMARK H PARENT 16 19 18 21 20 23 23 25 5 27 8 29
REMARK Flexibility Score: inf
ROOT
ATOM      1  C   UNL     1      54.945   7.120 -48.366  1.00  0.00     0.240 C 
ATOM      2  C   UNL     1      54.552   5.698 -48.820  1.00  0.00     0.231 C 
ATOM      3  C   UNL     1      54.675   5.603 -50.320  1.00  0.00     0.202 C 
ATOM      4  O   UNL     1      55.230   4.600 -50.841  1.00  0.00    -0.291 OA
ATOM      5  C   UNL     1      54.175   6.730 -51.148  1.00  0.00     0.105 A 
ATOM      6  C   UNL     1      53.881   6.629 -52.534  1.00  0.00     0.133 A 
ATOM      7  C   UNL     1      53.483   7.771 -53.240  1.00  0.00     0.093 A 
ATOM      8  C   UNL     1      53.312   8.995 -52.585  1.00  0.00     0.123 A 
ATOM      9  C   UNL     1      53.550   9.085 -51.213  1.00  0.00     0.093 A 
ATOM     10  C   UNL     1      53.989   7.970 -50.497  1.00  0.00     0.138 A 
ATOM     11  O   UNL     1      54.231   8.102 -49.124  1.00  0.00    -0.481 OA
ENDROOT
BRANCH   1  12
ATOM     12  C   UNL     1      54.671   7.313 -46.893  1.00  0.00     0.003 A 
ATOM     13  C   UNL     1      55.650   7.868 -46.052  1.00  0.00     0.058 A 
ATOM     14  C   UNL     1      55.387   8.074 -44.694  1.00  0.00     0.161 A 
ATOM     15  C   UNL     1      53.415   6.988 -46.359  1.00  0.00     0.058 A 
ATOM     16  C   UNL     1      54.133   7.734 -44.161  1.00  0.00     0.200 A 
ATOM     17  C   UNL     1      53.144   7.191 -44.999  1.00  0.00     0.161 A 
BRANCH  14  18
ATOM     18  O   UNL     1      56.387   8.622 -43.890  1.00  0.00    -0.504 OA
ATOM     19  H   UNL     1      56.485   8.378 -42.911  1.00  0.00     0.293 HD
ENDBRANCH  14  18
BRANCH  16  20
ATOM     20  O   UNL     1      53.880   7.941 -42.805  1.00  0.00    -0.502 OA
ATOM     21  H   UNL     1      53.058   8.435 -42.478  1.00  0.00     0.293 HD
ENDBRANCH  16  20
BRANCH  17  22
ATOM     22  O   UNL     1      51.893   6.857 -44.479  1.00  0.00    -0.504 OA
ATOM     23  H   UNL     1      51.735   6.789 -43.481  1.00  0.00     0.293 HD
ENDBRANCH  17  22
ENDBRANCH   1  12
BRANCH   2  24
ATOM     24  O   UNL     1      55.337   4.724 -48.175  1.00  0.00    -0.381 OA
ATOM     25  H   UNL     1      55.963   4.347 -48.848  1.00  0.00     0.211 HD
ENDBRANCH   2  24
BRANCH   6  26
ATOM     26  O   UNL     1      53.934   5.426 -53.242  1.00  0.00    -0.507 OA
ATOM     27  H   UNL     1      53.260   4.682 -53.141  1.00  0.00     0.293 HD
ENDBRANCH   6  26
BRANCH   8  28
ATOM     28  O   UNL     1      52.897  10.125 -53.286  1.00  0.00    -0.508 OA
ATOM     29  H   UNL     1      52.934  11.049 -52.871  1.00  0.00     0.293 HD
ENDBRANCH   8  28
TORSDOF 7
ENDMDL
MODEL 6
REMARK VINA RESULT:    -4.840      1.358      2.989
REMARK INTER + INTRA:          -6.360
REMARK INTER:                  -5.983
REMARK INTRA:                  -0.378
REMARK UNBOUND:                -0.388
REMARK SMILES O=C1c2c(O)cc(O)cc2O[C@@H](c2cc(O)c(O)c(O)c2)[C@@H]1O
REMARK SMILES IDX 12 1 22 2 2 3 1 4 3 5 4 6 6 7 7 8 9 9 10 10 11 11 13 12
REMARK SMILES IDX 14 13 15 14 21 15 17 16 19 17 16 18 18 20 20 22 23 24 5 26
REMARK SMILES IDX 8 28
REMARK H PARENT 16 19 18 21 20 23 23 25 5 27 8 29
REMARK Flexibility Score: inf
ROOT
ATOM      1  C   UNL     1      53.564   7.731 -46.043  1.00  0.00     0.240 C 
ATOM      2  C   UNL     1      52.973   6.434 -45.450  1.00  0.00     0.231 C 
ATOM      3  C   UNL     1      52.856   6.579 -43.953  1.00  0.00     0.202 C 
ATOM      4  O   UNL     1      51.802   6.212 -43.370  1.00  0.00    -0.291 OA
ATOM      5  C   UNL     1      53.979   7.203 -43.209  1.00  0.00     0.105 A 
ATOM      6  C   UNL     1      54.174   7.069 -41.808  1.00  0.00     0.133 A 
ATOM      7  C   UNL     1      55.226   7.757 -41.190  1.00  0.00     0.093 A 
ATOM      8  C   UNL     1      56.120   8.525 -41.943  1.00  0.00     0.123 A 
ATOM      9  C   UNL     1      55.960   8.618 -43.325  1.00  0.00     0.093 A 
ATOM     10  C   UNL     1      54.894   7.974 -43.958  1.00  0.00     0.138 A 
ATOM     11  O   UNL     1      54.758   8.100 -45.346  1.00  0.00    -0.481 OA
ENDROOT
BRANCH   1  12
ATOM     12  C   UNL     1      53.862   7.567 -47.515  1.00  0.00     0.003 A 
ATOM     13  C   UNL     1      54.887   6.707 -47.944  1.00  0.00     0.058 A 
ATOM     14  C   UNL     1      55.145   6.532 -49.307  1.00  0.00     0.161 A 
ATOM     15  C   UNL     1      53.082   8.233 -48.473  1.00  0.00     0.058 A 
ATOM     16  C   UNL     1      54.370   7.211 -50.262  1.00  0.00     0.200 A 
ATOM     17  C   UNL     1      53.334   8.062 -49.841  1.00  0.00     0.161 A 
BRANCH  14  18
ATOM     18  O   UNL     1      56.175   5.675 -49.693  1.00  0.00    -0.504 OA
ATOM     19  H   UNL     1      56.031   4.922 -50.356  1.00  0.00     0.293 HD
ENDBRANCH  14  18
BRANCH  16  20
ATOM     20  O   UNL     1      54.635   7.032 -51.620  1.00  0.00    -0.502 OA
ATOM     21  H   UNL     1      55.314   6.357 -51.953  1.00  0.00     0.293 HD
ENDBRANCH  16  20
BRANCH  17  22
ATOM     22  O   UNL     1      52.556   8.735 -50.783  1.00  0.00    -0.504 OA
ATOM     23  H   UNL     1      51.544   8.725 -50.740  1.00  0.00     0.293 HD
ENDBRANCH  17  22
ENDBRANCH   1  12
BRANCH   2  24
ATOM     24  O   UNL     1      51.732   6.125 -46.038  1.00  0.00    -0.381 OA
ATOM     25  H   UNL     1      51.608   6.732 -46.815  1.00  0.00     0.211 HD
ENDBRANCH   2  24
BRANCH   6  26
ATOM     26  O   UNL     1      53.386   6.247 -41.000  1.00  0.00    -0.507 OA
ATOM     27  H   UNL     1      53.396   6.269 -39.991  1.00  0.00     0.293 HD
ENDBRANCH   6  26
BRANCH   8  28
ATOM     28  O   UNL     1      57.176   9.194 -41.327  1.00  0.00    -0.508 OA
ATOM     29  H   UNL     1      57.999   9.478 -41.847  1.00  0.00     0.293 HD
ENDBRANCH   8  28
TORSDOF 7
ENDMDL
MODEL 7
REMARK VINA RESULT:    -4.821     13.105     13.889
REMARK INTER + INTRA:          -6.337
REMARK INTER:                  -5.995
REMARK INTRA:                  -0.342
REMARK UNBOUND:                -0.388
REMARK SMILES O=C1c2c(O)cc(O)cc2O[C@@H](c2cc(O)c(O)c(O)c2)[C@@H]1O
REMARK SMILES IDX 12 1 22 2 2 3 1 4 3 5 4 6 6 7 7 8 9 9 10 10 11 11 13 12
REMARK SMILES IDX 14 13 15 14 21 15 17 16 19 17 16 18 18 20 20 22 23 24 5 26
REMARK SMILES IDX 8 28
REMARK H PARENT 16 19 18 21 20 23 23 25 5 27 8 29
REMARK Flexibility Score: inf
ROOT
ATOM      1  C   UNL     1      61.579  -4.230 -45.588  1.00  0.00     0.240 C 
ATOM      2  C   UNL     1      60.890  -3.359 -44.517  1.00  0.00     0.231 C 
ATOM      3  C   UNL     1      61.398  -3.753 -43.153  1.00  0.00     0.202 C 
ATOM      4  O   UNL     1      61.719  -2.862 -42.322  1.00  0.00    -0.291 OA
ATOM      5  C   UNL     1      61.553  -5.197 -42.841  1.00  0.00     0.105 A 
ATOM      6  C   UNL     1      61.651  -5.719 -41.523  1.00  0.00     0.133 A 
ATOM      7  C   UNL     1      61.868  -7.090 -41.339  1.00  0.00     0.093 A 
ATOM      8  C   UNL     1      61.927  -7.959 -42.434  1.00  0.00     0.123 A 
ATOM      9  C   UNL     1      61.779  -7.456 -43.726  1.00  0.00     0.093 A 
ATOM     10  C   UNL     1      61.605  -6.087 -43.936  1.00  0.00     0.138 A 
ATOM     11  O   UNL     1      61.473  -5.616 -45.249  1.00  0.00    -0.481 OA
ENDROOT
BRANCH   1  12
ATOM     12  C   UNL     1      60.974  -3.991 -46.952  1.00  0.00     0.003 A 
ATOM     13  C   UNL     1      61.796  -3.849 -48.082  1.00  0.00     0.058 A 
ATOM     14  C   UNL     1      61.237  -3.657 -49.349  1.00  0.00     0.161 A 
ATOM     15  C   UNL     1      59.580  -3.960 -47.111  1.00  0.00     0.058 A 
ATOM     16  C   UNL     1      59.841  -3.612 -49.502  1.00  0.00     0.200 A 
ATOM     17  C   UNL     1      59.012  -3.767 -48.378  1.00  0.00     0.161 A 
BRANCH  14  18
ATOM     18  O   UNL     1      62.086  -3.514 -50.446  1.00  0.00    -0.504 OA
ATOM     19  H   UNL     1      62.318  -2.607 -50.835  1.00  0.00     0.293 HD
ENDBRANCH  14  18
BRANCH  16  20
ATOM     20  O   UNL     1      59.292  -3.418 -50.769  1.00  0.00    -0.502 OA
ATOM     21  H   UNL     1      59.606  -2.679 -51.387  1.00  0.00     0.293 HD
ENDBRANCH  16  20
BRANCH  17  22
ATOM     22  O   UNL     1      57.625  -3.731 -48.522  1.00  0.00    -0.504 OA
ATOM     23  H   UNL     1      57.162  -4.173 -49.307  1.00  0.00     0.293 HD
ENDBRANCH  17  22
ENDBRANCH   1  12
BRANCH   2  24
ATOM     24  O   UNL     1      61.094  -1.989 -44.768  1.00  0.00    -0.381 OA
ATOM     25  H   UNL     1      61.534  -1.598 -43.967  1.00  0.00     0.211 HD
ENDBRANCH   2  24
BRANCH   6  26
ATOM     26  O   UNL     1      61.508  -4.935 -40.377  1.00  0.00    -0.507 OA
ATOM     27  H   UNL     1      61.264  -5.301 -39.469  1.00  0.00     0.293 HD
ENDBRANCH   6  26
BRANCH   8  28
ATOM     28  O   UNL     1      62.124  -9.326 -42.247  1.00  0.00    -0.508 OA
ATOM     29  H   UNL     1      63.008  -9.693 -41.915  1.00  0.00     0.293 HD
ENDBRANCH   8  28
TORSDOF 7
ENDMDL
MODEL 8
REMARK VINA RESULT:    -4.804      1.631      7.411
REMARK INTER + INTRA:          -6.315
REMARK INTER:                  -5.986
REMARK INTRA:                  -0.329
REMARK UNBOUND:                -0.388
REMARK SMILES O=C1c2c(O)cc(O)cc2O[C@@H](c2cc(O)c(O)c(O)c2)[C@@H]1O
REMARK SMILES IDX 12 1 22 2 2 3 1 4 3 5 4 6 6 7 7 8 9 9 10 10 11 11 13 12
REMARK SMILES IDX 14 13 15 14 21 15 17 16 19 17 16 18 18 20 20 22 23 24 5 26
REMARK SMILES IDX 8 28
REMARK H PARENT 16 19 18 21 20 23 23 25 5 27 8 29
REMARK Flexibility Score: inf
ROOT
ATOM      1  C   UNL     1      55.187   7.228 -47.333  1.00  0.00     0.240 C 
ATOM      2  C   UNL     1      55.100   5.757 -47.791  1.00  0.00     0.231 C 
ATOM      3  C   UNL     1      55.291   5.688 -49.285  1.00  0.00     0.202 C 
ATOM      4  O   UNL     1      56.052   4.815 -49.780  1.00  0.00    -0.291 OA
ATOM      5  C   UNL     1      54.607   6.695 -50.137  1.00  0.00     0.105 A 
ATOM      6  C   UNL     1      54.388   6.537 -51.531  1.00  0.00     0.133 A 
ATOM      7  C   UNL     1      53.796   7.578 -52.258  1.00  0.00     0.093 A 
ATOM      8  C   UNL     1      53.363   8.744 -51.617  1.00  0.00     0.123 A 
ATOM      9  C   UNL     1      53.531   8.879 -50.239  1.00  0.00     0.093 A 
ATOM     10  C   UNL     1      54.157   7.872 -49.501  1.00  0.00     0.138 A 
ATOM     11  O   UNL     1      54.320   8.049 -48.121  1.00  0.00    -0.481 OA
ENDROOT
BRANCH   1  12
ATOM     12  C   UNL     1      54.829   7.363 -45.871  1.00  0.00     0.003 A 
ATOM     13  C   UNL     1      53.729   6.671 -45.340  1.00  0.00     0.058 A 
ATOM     14  C   UNL     1      53.413   6.771 -43.981  1.00  0.00     0.161 A 
ATOM     15  C   UNL     1      55.626   8.141 -45.017  1.00  0.00     0.058 A 
ATOM     16  C   UNL     1      54.205   7.562 -43.133  1.00  0.00     0.200 A 
ATOM     17  C   UNL     1      55.316   8.246 -43.654  1.00  0.00     0.161 A 
BRANCH  14  18
ATOM     18  O   UNL     1      52.308   6.074 -43.492  1.00  0.00    -0.504 OA
ATOM     19  H   UNL     1      52.376   5.437 -42.707  1.00  0.00     0.293 HD
ENDBRANCH  14  18
BRANCH  16  20
ATOM     20  O   UNL     1      53.882   7.658 -41.779  1.00  0.00    -0.502 OA
ATOM     21  H   UNL     1      52.962   7.423 -41.425  1.00  0.00     0.293 HD
ENDBRANCH  16  20
BRANCH  17  22
ATOM     22  O   UNL     1      56.112   9.028 -42.817  1.00  0.00    -0.504 OA
ATOM     23  H   UNL     1      55.710   9.590 -42.076  1.00  0.00     0.293 HD
ENDBRANCH  17  22
ENDBRANCH   1  12
BRANCH   2  24
ATOM     24  O   UNL     1      56.039   4.957 -47.113  1.00  0.00    -0.381 OA
ATOM     25  H   UNL     1      55.536   4.319 -46.542  1.00  0.00     0.211 HD
ENDBRANCH   2  24
BRANCH   6  26
ATOM     26  O   UNL     1      54.702   5.369 -52.229  1.00  0.00    -0.507 OA
ATOM     27  H   UNL     1      54.016   4.710 -52.565  1.00  0.00     0.293 HD
ENDBRANCH   6  26
BRANCH   8  28
ATOM     28  O   UNL     1      52.758   9.770 -52.339  1.00  0.00    -0.508 OA
ATOM     29  H   UNL     1      53.259  10.278 -53.059  1.00  0.00     0.293 HD
ENDBRANCH   8  28
TORSDOF 7
ENDMDL
MODEL 9
REMARK VINA RESULT:    -4.782      9.521     11.060
REMARK INTER + INTRA:          -6.289
REMARK INTER:                  -6.213
REMARK INTRA:                  -0.076
REMARK UNBOUND:                -0.388
REMARK SMILES O=C1c2c(O)cc(O)cc2O[C@@H](c2cc(O)c(O)c(O)c2)[C@@H]1O
REMARK SMILES IDX 12 1 22 2 2 3 1 4 3 5 4 6 6 7 7 8 9 9 10 10 11 11 13 12
REMARK SMILES IDX 14 13 15 14 21 15 17 16 19 17 16 18 18 20 20 22 23 24 5 26
REMARK SMILES IDX 8 28
REMARK H PARENT 16 19 18 21 20 23 23 25 5 27 8 29
REMARK Flexibility Score: inf
ROOT
ATOM      1  C   UNL     1      58.969  -2.036 -47.080  1.00  0.00     0.240 C 
ATOM      2  C   UNL     1      59.686  -2.712 -45.892  1.00  0.00     0.231 C 
ATOM      3  C   UNL     1      59.427  -1.918 -44.637  1.00  0.00     0.202 C 
ATOM      4  O   UNL     1      59.116  -2.515 -43.572  1.00  0.00    -0.291 OA
ATOM      5  C   UNL     1      59.498  -0.437 -44.704  1.00  0.00     0.105 A 
ATOM      6  C   UNL     1      59.650   0.403 -43.569  1.00  0.00     0.133 A 
ATOM      7  C   UNL     1      59.634   1.794 -43.733  1.00  0.00     0.093 A 
ATOM      8  C   UNL     1      59.533   2.364 -45.007  1.00  0.00     0.123 A 
ATOM      9  C   UNL     1      59.435   1.541 -46.128  1.00  0.00     0.093 A 
ATOM     10  C   UNL     1      59.406   0.152 -45.985  1.00  0.00     0.138 A 
ATOM     11  O   UNL     1      59.293  -0.643 -47.133  1.00  0.00    -0.481 OA
ENDROOT
BRANCH   1  12
ATOM     12  C   UNL     1      59.343  -2.697 -48.386  1.00  0.00     0.003 A 
ATOM     13  C   UNL     1      58.566  -2.491 -49.538  1.00  0.00     0.058 A 
ATOM     14  C   UNL     1      58.928  -3.078 -50.755  1.00  0.00     0.161 A 
ATOM     15  C   UNL     1      60.503  -3.482 -48.474  1.00  0.00     0.058 A 
ATOM     16  C   UNL     1      60.082  -3.875 -50.835  1.00  0.00     0.200 A 
ATOM     17  C   UNL     1      60.872  -4.074 -49.689  1.00  0.00     0.161 A 
BRANCH  14  18
ATOM     18  O   UNL     1      58.127  -2.856 -51.875  1.00  0.00    -0.504 OA
ATOM     19  H   UNL     1      58.324  -3.284 -52.772  1.00  0.00     0.293 HD
ENDBRANCH  14  18
BRANCH  16  20
ATOM     20  O   UNL     1      60.434  -4.459 -52.052  1.00  0.00    -0.502 OA
ATOM     21  H   UNL     1      60.625  -5.450 -52.141  1.00  0.00     0.293 HD
ENDBRANCH  16  20
BRANCH  17  22
ATOM     22  O   UNL     1      62.023  -4.858 -49.762  1.00  0.00    -0.504 OA
ATOM     23  H   UNL     1      62.944  -4.464 -49.614  1.00  0.00     0.293 HD
ENDBRANCH  17  22
ENDBRANCH   1  12
BRANCH   2  24
ATOM     24  O   UNL     1      59.280  -4.052 -45.750  1.00  0.00    -0.381 OA
ATOM     25  H   UNL     1      59.160  -4.230 -44.780  1.00  0.00     0.211 HD
ENDBRANCH   2  24
BRANCH   6  26
ATOM     26  O   UNL     1      59.853  -0.085 -42.276  1.00  0.00    -0.507 OA
ATOM     27  H   UNL     1      60.505   0.314 -41.618  1.00  0.00     0.293 HD
ENDBRANCH   6  26
BRANCH   8  28
ATOM     28  O   UNL     1      59.536   3.748 -45.169  1.00  0.00    -0.508 OA
ATOM     29  H   UNL     1      60.076   4.194 -45.902  1.00  0.00     0.293 HD
ENDBRANCH   8  28
TORSDOF 7
ENDMDL
