MODEL 1
REMARK VINA RESULT:    -3.509      0.000      0.000
REMARK INTER + INTRA:          -4.584
REMARK INTER:                  -4.330
REMARK INTRA:                  -0.253
REMARK UNBOUND:                -0.253
REMARK SMILES CCCCCC(=O)[O-]
REMARK SMILES IDX 4 1 5 2 6 3 7 4 8 5 3 6 2 7 1 8
REMARK H PARENT
REMARK Flexibility Score: inf
ROOT
ATOM      1  C   UNL     1     190.672   4.129  95.905  1.00  0.00     0.006 C 
ENDROOT
BRANCH   1   2
ATOM      2  C   UNL     1     192.020   3.678  95.322  1.00  0.00     0.053 C 
BRANCH   2   3
ATOM      3  C   UNL     1     191.983   2.253  94.863  1.00  0.00     0.041 C 
ATOM      4  O   UNL     1     191.472   1.958  93.751  1.00  0.00    -0.550 OA
ATOM      5  O   UNL     1     192.542   1.254  95.651  1.00  0.00    -0.550 OA
ENDBRANCH   2   3
ENDBRANCH   1   2
BRANCH   1   6
ATOM      6  C   UNL     1     190.411   3.647  97.344  1.00  0.00     0.000 C 
BRANCH   6   7
ATOM      7  C   UNL     1     191.632   3.823  98.259  1.00  0.00    -0.003 C 
ATOM      8  C   UNL     1     191.970   2.522  98.980  1.00  0.00     0.004 C 
ENDBRANCH   6   7
ENDBRANCH   1   6
TORSDOF 4
ENDMDL
MODEL 2
REMARK VINA RESULT:    -3.413      1.370      1.938
REMARK INTER + INTRA:          -4.465
REMARK INTER:                  -4.215
REMARK INTRA:                  -0.250
REMARK UNBOUND:                -0.253
REMARK SMILES CCCCCC(=O)[O-]
REMARK SMILES IDX 4 1 5 2 6 3 7 4 8 5 3 6 2 7 1 8
REMARK H PARENT
REMARK Flexibility Score: inf
ROOT
ATOM      1  C   UNL     1     189.983   3.443  97.184  1.00  0.00     0.006 C 
ENDROOT
BRANCH   1   2
ATOM      2  C   UNL     1     189.952   3.653  95.663  1.00  0.00     0.053 C 
BRANCH   2   3
ATOM      3  C   UNL     1     191.330   3.742  95.082  1.00  0.00     0.041 C 
ATOM      4  O   UNL     1     192.133   2.780  95.202  1.00  0.00    -0.550 OA
ATOM      5  O   UNL     1     191.717   4.878  94.381  1.00  0.00    -0.550 OA
ENDBRANCH   2   3
ENDBRANCH   1   2
BRANCH   1   6
ATOM      6  C   UNL     1     190.643   4.592  97.968  1.00  0.00     0.000 C 
BRANCH   6   7
ATOM      7  C   UNL     1     191.955   4.172  98.646  1.00  0.00    -0.003 C 
ATOM      8  C   UNL     1     191.954   2.680  98.967  1.00  0.00     0.004 C 
ENDBRANCH   6   7
ENDBRANCH   1   6
TORSDOF 4
ENDMDL
MODEL 3
REMARK VINA RESULT:    -3.343      2.550      3.184
REMARK INTER + INTRA:          -4.378
REMARK INTER:                  -4.220
REMARK INTRA:                  -0.159
REMARK UNBOUND:                -0.253
REMARK SMILES CCCCCC(=O)[O-]
REMARK SMILES IDX 4 1 5 2 6 3 7 4 8 5 3 6 2 7 1 8
REMARK H PARENT
REMARK Flexibility Score: inf
ROOT
ATOM      1  C   UNL     1     190.906   4.583  98.064  1.00  0.00     0.006 C 
ENDROOT
BRANCH   1   2
ATOM      2  C   UNL     1     189.608   3.776  98.221  1.00  0.00     0.053 C 
BRANCH   2   3
ATOM      3  C   UNL     1     188.983   3.456  96.898  1.00  0.00     0.041 C 
ATOM      4  O   UNL     1     187.748   3.226  96.819  1.00  0.00    -0.550 OA
ATOM      5  O   UNL     1     189.762   3.441  95.747  1.00  0.00    -0.550 OA
ENDBRANCH   2   3
ENDBRANCH   1   2
BRANCH   1   6
ATOM      6  C   UNL     1     192.131   3.951  98.750  1.00  0.00     0.000 C 
BRANCH   6   7
ATOM      7  C   UNL     1     191.973   2.439  98.972  1.00  0.00    -0.003 C 
ATOM      8  C   UNL     1     192.692   1.993 100.241  1.00  0.00     0.004 C 
ENDBRANCH   6   7
ENDBRANCH   1   6
TORSDOF 4
ENDMDL
MODEL 4
REMARK VINA RESULT:    -3.260      2.394      2.847
REMARK INTER + INTRA:          -4.276
REMARK INTER:                  -4.177
REMARK INTRA:                  -0.099
REMARK UNBOUND:                -0.253
REMARK SMILES CCCCCC(=O)[O-]
REMARK SMILES IDX 4 1 5 2 6 3 7 4 8 5 3 6 2 7 1 8
REMARK H PARENT
REMARK Flexibility Score: inf
ROOT
ATOM      1  C   UNL     1     190.746   3.610  98.168  1.00  0.00     0.006 C 
ENDROOT
BRANCH   1   2
ATOM      2  C   UNL     1     190.693   3.548  96.634  1.00  0.00     0.053 C 
BRANCH   2   3
ATOM      3  C   UNL     1     189.290   3.646  96.118  1.00  0.00     0.041 C 
ATOM      4  O   UNL     1     189.065   4.139  94.981  1.00  0.00    -0.550 OA
ATOM      5  O   UNL     1     188.233   3.165  96.881  1.00  0.00    -0.550 OA
ENDBRANCH   2   3
ENDBRANCH   1   2
BRANCH   1   6
ATOM      6  C   UNL     1     192.026   4.255  98.731  1.00  0.00     0.000 C 
BRANCH   6   7
ATOM      7  C   UNL     1     192.865   3.278  99.568  1.00  0.00    -0.003 C 
ATOM      8  C   UNL     1     192.148   1.941  99.733  1.00  0.00     0.004 C 
ENDBRANCH   6   7
ENDBRANCH   1   6
TORSDOF 4
ENDMDL
MODEL 5
REMARK VINA RESULT:    -3.233      2.753      4.034
REMARK INTER + INTRA:          -4.243
REMARK INTER:                  -3.987
REMARK INTRA:                  -0.256
REMARK UNBOUND:                -0.253
REMARK SMILES CCCCCC(=O)[O-]
REMARK SMILES IDX 4 1 5 2 6 3 7 4 8 5 3 6 2 7 1 8
REMARK H PARENT
REMARK Flexibility Score: inf
ROOT
ATOM      1  C   UNL     1     191.341   3.895  97.648  1.00  0.00     0.006 C 
ENDROOT
BRANCH   1   2
ATOM      2  C   UNL     1     189.936   3.762  98.256  1.00  0.00     0.053 C 
BRANCH   2   3
ATOM      3  C   UNL     1     188.862   4.053  97.252  1.00  0.00     0.041 C 
ATOM      4  O   UNL     1     188.002   3.176  96.972  1.00  0.00    -0.550 OA
ATOM      5  O   UNL     1     188.793   5.302  96.649  1.00  0.00    -0.550 OA
ENDBRANCH   2   3
ENDBRANCH   1   2
BRANCH   1   6
ATOM      6  C   UNL     1     191.534   3.128  96.327  1.00  0.00     0.000 C 
BRANCH   6   7
ATOM      7  C   UNL     1     192.100   4.011  95.205  1.00  0.00    -0.003 C 
ATOM      8  C   UNL     1     191.072   4.215  94.096  1.00  0.00     0.004 C 
ENDBRANCH   6   7
ENDBRANCH   1   6
TORSDOF 4
ENDMDL
MODEL 6
REMARK VINA RESULT:    -3.180      1.006      2.100
REMARK INTER + INTRA:          -4.177
REMARK INTER:                  -4.079
REMARK INTRA:                  -0.098
REMARK UNBOUND:                -0.253
REMARK SMILES CCCCCC(=O)[O-]
REMARK SMILES IDX 4 1 5 2 6 3 7 4 8 5 3 6 2 7 1 8
REMARK H PARENT
REMARK Flexibility Score: inf
ROOT
ATOM      1  C   UNL     1     191.337   3.065  97.239  1.00  0.00     0.006 C 
ENDROOT
BRANCH   1   2
ATOM      2  C   UNL     1     191.858   3.344  95.820  1.00  0.00     0.053 C 
BRANCH   2   3
ATOM      3  C   UNL     1     192.054   2.081  95.038  1.00  0.00     0.041 C 
ATOM      4  O   UNL     1     192.727   1.133  95.522  1.00  0.00    -0.550 OA
ATOM      5  O   UNL     1     191.468   1.941  93.786  1.00  0.00    -0.550 OA
ENDBRANCH   2   3
ENDBRANCH   1   2
BRANCH   1   6
ATOM      6  C   UNL     1     191.072   4.330  98.075  1.00  0.00     0.000 C 
BRANCH   6   7
ATOM      7  C   UNL     1     189.667   4.908  97.848  1.00  0.00    -0.003 C 
ATOM      8  C   UNL     1     188.628   3.796  97.736  1.00  0.00     0.004 C 
ENDBRANCH   6   7
ENDBRANCH   1   6
TORSDOF 4
ENDMDL
MODEL 7
REMARK VINA RESULT:    -3.142      2.150      3.302
REMARK INTER + INTRA:          -4.131
REMARK INTER:                  -4.047
REMARK INTRA:                  -0.084
REMARK UNBOUND:                -0.253
REMARK SMILES CCCCCC(=O)[O-]
REMARK SMILES IDX 4 1 5 2 6 3 7 4 8 5 3 6 2 7 1 8
REMARK H PARENT
REMARK Flexibility Score: inf
ROOT
ATOM      1  C   UNL     1     191.985   2.614  98.953  1.00  0.00     0.006 C 
ENDROOT
BRANCH   1   2
ATOM      2  C   UNL     1     191.629   3.939  98.261  1.00  0.00     0.053 C 
BRANCH   2   3
ATOM      3  C   UNL     1     191.092   3.723  96.879  1.00  0.00     0.041 C 
ATOM      4  O   UNL     1     189.874   3.452  96.708  1.00  0.00    -0.550 OA
ATOM      5  O   UNL     1     191.930   3.850  95.779  1.00  0.00    -0.550 OA
ENDBRANCH   2   3
ENDBRANCH   1   2
BRANCH   1   6
ATOM      6  C   UNL     1     192.999   2.753 100.103  1.00  0.00     0.000 C 
BRANCH   6   7
ATOM      7  C   UNL     1     193.000   1.539 101.044  1.00  0.00    -0.003 C 
ATOM      8  C   UNL     1     191.605   0.931 101.157  1.00  0.00     0.004 C 
ENDBRANCH   6   7
ENDBRANCH   1   6
TORSDOF 4
ENDMDL
MODEL 8
REMARK VINA RESULT:    -3.131      2.246      3.700
REMARK INTER + INTRA:          -4.117
REMARK INTER:                  -3.925
REMARK INTRA:                  -0.192
REMARK UNBOUND:                -0.253
REMARK SMILES CCCCCC(=O)[O-]
REMARK SMILES IDX 4 1 5 2 6 3 7 4 8 5 3 6 2 7 1 8
REMARK H PARENT
REMARK Flexibility Score: inf
ROOT
ATOM      1  C   UNL     1     189.954   4.523  96.862  1.00  0.00     0.006 C 
ENDROOT
BRANCH   1   2
ATOM      2  C   UNL     1     190.154   3.858  98.232  1.00  0.00     0.053 C 
BRANCH   2   3
ATOM      3  C   UNL     1     191.594   3.541  98.496  1.00  0.00     0.041 C 
ATOM      4  O   UNL     1     192.423   4.469  98.693  1.00  0.00    -0.550 OA
ATOM      5  O   UNL     1     192.016   2.218  98.553  1.00  0.00    -0.550 OA
ENDBRANCH   2   3
ENDBRANCH   1   2
BRANCH   1   6
ATOM      6  C   UNL     1     189.721   3.533  95.706  1.00  0.00     0.000 C 
BRANCH   6   7
ATOM      7  C   UNL     1     190.978   3.310  94.853  1.00  0.00    -0.003 C 
ATOM      8  C   UNL     1     191.673   4.632  94.541  1.00  0.00     0.004 C 
ENDBRANCH   6   7
ENDBRANCH   1   6
TORSDOF 4
ENDMDL
MODEL 9
REMARK VINA RESULT:    -3.124      3.378      4.841
REMARK INTER + INTRA:          -4.108
REMARK INTER:                  -4.048
REMARK INTRA:                  -0.060
REMARK UNBOUND:                -0.253
REMARK SMILES CCCCCC(=O)[O-]
REMARK SMILES IDX 4 1 5 2 6 3 7 4 8 5 3 6 2 7 1 8
REMARK H PARENT
REMARK Flexibility Score: inf
ROOT
ATOM      1  C   UNL     1     193.172   2.773 100.517  1.00  0.00     0.006 C 
ENDROOT
BRANCH   1   2
ATOM      2  C   UNL     1     192.198   2.216  99.468  1.00  0.00     0.053 C 
BRANCH   2   3
ATOM      3  C   UNL     1     191.685   3.288  98.556  1.00  0.00     0.041 C 
ATOM      4  O   UNL     1     190.848   3.009  97.657  1.00  0.00    -0.550 OA
ATOM      5  O   UNL     1     192.109   4.601  98.718  1.00  0.00    -0.550 OA
ENDBRANCH   2   3
ENDBRANCH   1   2
BRANCH   1   6
ATOM      6  C   UNL     1     193.426   1.830 101.708  1.00  0.00     0.000 C 
BRANCH   6   7
ATOM      7  C   UNL     1     193.804   2.584 102.992  1.00  0.00    -0.003 C 
ATOM      8  C   UNL     1     192.722   2.428 104.057  1.00  0.00     0.004 C 
ENDBRANCH   6   7
ENDBRANCH   1   6
TORSDOF 4
ENDMDL
