MODEL 1
REMARK VINA RESULT:    -5.505      0.000      0.000
REMARK INTER + INTRA:          -8.023
REMARK INTER:                  -7.436
REMARK INTRA:                  -0.587
REMARK UNBOUND:                -0.587
REMARK SMILES CC(=O)CCC=C(C)CCC=C(C)C
REMARK SMILES IDX 7 1 6 2 8 3 9 4 10 5 11 6 13 7 12 8 14 9 5 10 4 11 2 12 3 13
REMARK SMILES IDX 1 14
REMARK H PARENT
REMARK Flexibility Score: inf
ROOT
ATOM      1  C   UNL     1     -60.984 -76.632 219.029  1.00  0.00    -0.077 C 
ATOM      2  C   UNL     1     -59.849 -76.387 218.333  1.00  0.00    -0.028 C 
ATOM      3  C   UNL     1     -62.307 -76.015 218.641  1.00  0.00     0.039 C 
ENDROOT
BRANCH   1   4
ATOM      4  C   UNL     1     -60.929 -77.566 220.218  1.00  0.00     0.034 C 
BRANCH   4   5
ATOM      5  C   UNL     1     -61.307 -76.829 221.508  1.00  0.00     0.032 C 
BRANCH   5   6
ATOM      6  C   UNL     1     -62.677 -77.246 221.980  1.00  0.00    -0.028 C 
ATOM      7  C   UNL     1     -64.996 -76.948 222.738  1.00  0.00     0.039 C 
ATOM      8  C   UNL     1     -63.691 -76.389 222.231  1.00  0.00    -0.080 C 
ATOM      9  C   UNL     1     -63.558 -74.901 222.005  1.00  0.00     0.039 C 
ENDBRANCH   5   6
ENDBRANCH   4   5
ENDBRANCH   1   4
BRANCH   2  10
ATOM     10  C   UNL     1     -59.755 -75.452 217.154  1.00  0.00     0.035 C 
BRANCH  10  11
ATOM     11  C   UNL     1     -58.295 -75.109 216.847  1.00  0.00     0.079 C 
BRANCH  11  12
ATOM     12  C   UNL     1     -58.180 -73.718 216.285  1.00  0.00     0.130 C 
ATOM     13  O   UNL     1     -58.511 -72.760 216.966  1.00  0.00    -0.300 OA
ATOM     14  C   UNL     1     -57.640 -73.499 214.904  1.00  0.00     0.087 C 
ENDBRANCH  11  12
ENDBRANCH  10  11
ENDBRANCH   2  10
TORSDOF 6
ENDMDL
MODEL 2
REMARK VINA RESULT:    -5.061      4.928      8.581
REMARK INTER + INTRA:          -7.423
REMARK INTER:                  -6.689
REMARK INTRA:                  -0.734
REMARK UNBOUND:                -0.587
REMARK SMILES CC(=O)CCC=C(C)CCC=C(C)C
REMARK SMILES IDX 7 1 6 2 8 3 9 4 10 5 11 6 13 7 12 8 14 9 5 10 4 11 2 12 3 13
REMARK SMILES IDX 1 14
REMARK H PARENT
REMARK Flexibility Score: inf
ROOT
ATOM      1  C   UNL     1     -62.935 -78.839 224.688  1.00  0.00    -0.077 C 
ATOM      2  C   UNL     1     -64.204 -78.376 224.776  1.00  0.00    -0.028 C 
ATOM      3  C   UNL     1     -62.145 -79.239 225.912  1.00  0.00     0.039 C 
ENDROOT
BRANCH   1   4
ATOM      4  C   UNL     1     -62.296 -78.977 223.324  1.00  0.00     0.034 C 
BRANCH   4   5
ATOM      5  C   UNL     1     -61.510 -77.712 222.960  1.00  0.00     0.032 C 
BRANCH   5   6
ATOM      6  C   UNL     1     -61.768 -77.315 221.528  1.00  0.00    -0.028 C 
ATOM      7  C   UNL     1     -62.828 -76.099 219.674  1.00  0.00     0.039 C 
ATOM      8  C   UNL     1     -62.645 -76.361 221.148  1.00  0.00    -0.080 C 
ATOM      9  C   UNL     1     -63.428 -75.545 222.150  1.00  0.00     0.039 C 
ENDBRANCH   5   6
ENDBRANCH   4   5
ENDBRANCH   1   4
BRANCH   2  10
ATOM     10  C   UNL     1     -64.945 -78.156 226.070  1.00  0.00     0.035 C 
BRANCH  10  11
ATOM     11  C   UNL     1     -66.373 -78.702 225.979  1.00  0.00     0.079 C 
BRANCH  11  12
ATOM     12  C   UNL     1     -67.245 -77.782 225.168  1.00  0.00     0.130 C 
ATOM     13  O   UNL     1     -67.579 -76.701 225.629  1.00  0.00    -0.300 OA
ATOM     14  C   UNL     1     -67.685 -78.172 223.790  1.00  0.00     0.087 C 
ENDBRANCH  11  12
ENDBRANCH  10  11
ENDBRANCH   2  10
TORSDOF 6
ENDMDL
MODEL 3
REMARK VINA RESULT:    -4.995      5.496      8.142
REMARK INTER + INTRA:          -7.334
REMARK INTER:                  -6.440
REMARK INTRA:                  -0.894
REMARK UNBOUND:                -0.587
REMARK SMILES CC(=O)CCC=C(C)CCC=C(C)C
REMARK SMILES IDX 7 1 6 2 8 3 9 4 10 5 11 6 13 7 12 8 14 9 5 10 4 11 2 12 3 13
REMARK SMILES IDX 1 14
REMARK H PARENT
REMARK Flexibility Score: inf
ROOT
ATOM      1  C   UNL     1     -63.568 -76.201 222.214  1.00  0.00    -0.077 C 
ATOM      2  C   UNL     1     -64.593 -77.019 222.553  1.00  0.00    -0.028 C 
ATOM      3  C   UNL     1     -63.690 -74.697 222.289  1.00  0.00     0.039 C 
ENDROOT
BRANCH   1   4
ATOM      4  C   UNL     1     -62.259 -76.812 221.766  1.00  0.00     0.034 C 
BRANCH   4   5
ATOM      5  C   UNL     1     -62.167 -78.280 222.198  1.00  0.00     0.032 C 
BRANCH   5   6
ATOM      6  C   UNL     1     -61.149 -78.451 223.297  1.00  0.00    -0.028 C 
ATOM      7  C   UNL     1     -60.327 -78.908 225.568  1.00  0.00     0.039 C 
ATOM      8  C   UNL     1     -61.447 -78.817 224.563  1.00  0.00    -0.080 C 
ATOM      9  C   UNL     1     -62.858 -79.149 224.990  1.00  0.00     0.039 C 
ENDBRANCH   5   6
ENDBRANCH   4   5
ENDBRANCH   1   4
BRANCH   2  10
ATOM     10  C   UNL     1     -65.958 -76.544 222.980  1.00  0.00     0.035 C 
BRANCH  10  11
ATOM     11  C   UNL     1     -66.805 -77.714 223.491  1.00  0.00     0.079 C 
BRANCH  11  12
ATOM     12  C   UNL     1     -67.032 -77.601 224.974  1.00  0.00     0.130 C 
ATOM     13  O   UNL     1     -67.703 -76.681 225.416  1.00  0.00    -0.300 OA
ATOM     14  C   UNL     1     -66.461 -78.623 225.910  1.00  0.00     0.087 C 
ENDBRANCH  11  12
ENDBRANCH  10  11
ENDBRANCH   2  10
TORSDOF 6
ENDMDL
MODEL 4
REMARK VINA RESULT:    -4.994      2.565      6.952
REMARK INTER + INTRA:          -7.332
REMARK INTER:                  -6.720
REMARK INTRA:                  -0.612
REMARK UNBOUND:                -0.587
REMARK SMILES CC(=O)CCC=C(C)CCC=C(C)C
REMARK SMILES IDX 7 1 6 2 8 3 9 4 10 5 11 6 13 7 12 8 14 9 5 10 4 11 2 12 3 13
REMARK SMILES IDX 1 14
REMARK H PARENT
REMARK Flexibility Score: inf
ROOT
ATOM      1  C   UNL     1     -60.757 -77.006 219.206  1.00  0.00    -0.077 C 
ATOM      2  C   UNL     1     -61.977 -76.450 219.026  1.00  0.00    -0.028 C 
ATOM      3  C   UNL     1     -60.471 -77.946 220.354  1.00  0.00     0.039 C 
ENDROOT
BRANCH   1   4
ATOM      4  C   UNL     1     -59.654 -76.693 218.220  1.00  0.00     0.034 C 
BRANCH   4   5
ATOM      5  C   UNL     1     -60.085 -75.582 217.256  1.00  0.00     0.032 C 
BRANCH   5   6
ATOM      6  C   UNL     1     -59.075 -75.413 216.149  1.00  0.00    -0.028 C 
ATOM      7  C   UNL     1     -57.438 -74.239 214.740  1.00  0.00     0.039 C 
ATOM      8  C   UNL     1     -58.388 -74.274 215.910  1.00  0.00    -0.080 C 
ATOM      9  C   UNL     1     -58.535 -73.051 216.786  1.00  0.00     0.039 C 
ENDBRANCH   5   6
ENDBRANCH   4   5
ENDBRANCH   1   4
BRANCH   2  10
ATOM     10  C   UNL     1     -63.152 -76.648 219.950  1.00  0.00     0.035 C 
BRANCH  10  11
ATOM     11  C   UNL     1     -63.219 -75.528 220.992  1.00  0.00     0.079 C 
BRANCH  11  12
ATOM     12  C   UNL     1     -63.844 -76.022 222.268  1.00  0.00     0.130 C 
ATOM     13  O   UNL     1     -64.776 -75.407 222.764  1.00  0.00    -0.300 OA
ATOM     14  C   UNL     1     -63.347 -77.276 222.921  1.00  0.00     0.087 C 
ENDBRANCH  11  12
ENDBRANCH  10  11
ENDBRANCH   2  10
TORSDOF 6
ENDMDL
MODEL 5
REMARK VINA RESULT:    -4.967      5.618      8.429
REMARK INTER + INTRA:          -7.295
REMARK INTER:                  -6.287
REMARK INTRA:                  -1.009
REMARK UNBOUND:                -0.587
REMARK SMILES CC(=O)CCC=C(C)CCC=C(C)C
REMARK SMILES IDX 7 1 6 2 8 3 9 4 10 5 11 6 13 7 12 8 14 9 5 10 4 11 2 12 3 13
REMARK SMILES IDX 1 14
REMARK H PARENT
REMARK Flexibility Score: inf
ROOT
ATOM      1  C   UNL     1     -61.450 -78.931 224.387  1.00  0.00    -0.077 C 
ATOM      2  C   UNL     1     -62.745 -79.279 224.575  1.00  0.00    -0.028 C 
ATOM      3  C   UNL     1     -60.503 -78.729 225.547  1.00  0.00     0.039 C 
ENDROOT
BRANCH   1   4
ATOM      4  C   UNL     1     -60.933 -78.758 222.976  1.00  0.00     0.034 C 
BRANCH   4   5
ATOM      5  C   UNL     1     -62.061 -78.325 222.032  1.00  0.00     0.032 C 
BRANCH   5   6
ATOM      6  C   UNL     1     -62.255 -76.831 222.081  1.00  0.00    -0.028 C 
ATOM      7  C   UNL     1     -63.492 -74.715 222.272  1.00  0.00     0.039 C 
ATOM      8  C   UNL     1     -63.444 -76.222 222.290  1.00  0.00    -0.080 C 
ATOM      9  C   UNL     1     -64.709 -77.004 222.555  1.00  0.00     0.039 C 
ENDBRANCH   5   6
ENDBRANCH   4   5
ENDBRANCH   1   4
BRANCH   2  10
ATOM     10  C   UNL     1     -63.397 -79.449 225.923  1.00  0.00     0.035 C 
BRANCH  10  11
ATOM     11  C   UNL     1     -64.209 -78.206 226.295  1.00  0.00     0.079 C 
BRANCH  11  12
ATOM     12  C   UNL     1     -65.682 -78.458 226.120  1.00  0.00     0.130 C 
ATOM     13  O   UNL     1     -66.459 -77.515 226.088  1.00  0.00    -0.300 OA
ATOM     14  C   UNL     1     -66.200 -79.855 225.959  1.00  0.00     0.087 C 
ENDBRANCH  11  12
ENDBRANCH  10  11
ENDBRANCH   2  10
TORSDOF 6
ENDMDL
MODEL 6
REMARK VINA RESULT:    -4.937      4.402      8.504
REMARK INTER + INTRA:          -7.256
REMARK INTER:                  -6.321
REMARK INTRA:                  -0.935
REMARK UNBOUND:                -0.587
REMARK SMILES CC(=O)CCC=C(C)CCC=C(C)C
REMARK SMILES IDX 7 1 6 2 8 3 9 4 10 5 11 6 13 7 12 8 14 9 5 10 4 11 2 12 3 13
REMARK SMILES IDX 1 14
REMARK H PARENT
REMARK Flexibility Score: inf
ROOT
ATOM      1  C   UNL     1     -64.635 -77.659 222.982  1.00  0.00    -0.077 C 
ATOM      2  C   UNL     1     -63.758 -77.757 224.009  1.00  0.00    -0.028 C 
ATOM      3  C   UNL     1     -65.545 -78.802 222.598  1.00  0.00     0.039 C 
ENDROOT
BRANCH   1   4
ATOM      4  C   UNL     1     -64.718 -76.361 222.209  1.00  0.00     0.034 C 
BRANCH   4   5
ATOM      5  C   UNL     1     -63.341 -75.694 222.115  1.00  0.00     0.032 C 
BRANCH   5   6
ATOM      6  C   UNL     1     -62.731 -75.917 220.754  1.00  0.00    -0.028 C 
ATOM      7  C   UNL     1     -61.175 -76.853 219.098  1.00  0.00     0.039 C 
ATOM      8  C   UNL     1     -61.709 -76.765 220.505  1.00  0.00    -0.080 C 
ATOM      9  C   UNL     1     -61.104 -77.630 221.586  1.00  0.00     0.039 C 
ENDBRANCH   5   6
ENDBRANCH   4   5
ENDBRANCH   1   4
BRANCH   2  10
ATOM     10  C   UNL     1     -63.548 -78.999 224.837  1.00  0.00     0.035 C 
BRANCH  10  11
ATOM     11  C   UNL     1     -63.930 -78.749 226.299  1.00  0.00     0.079 C 
BRANCH  11  12
ATOM     12  C   UNL     1     -65.424 -78.661 226.453  1.00  0.00     0.130 C 
ATOM     13  O   UNL     1     -65.979 -77.576 226.370  1.00  0.00    -0.300 OA
ATOM     14  C   UNL     1     -66.238 -79.899 226.682  1.00  0.00     0.087 C 
ENDBRANCH  11  12
ENDBRANCH  10  11
ENDBRANCH   2  10
TORSDOF 6
ENDMDL
MODEL 7
REMARK VINA RESULT:    -4.903      4.918      8.376
REMARK INTER + INTRA:          -7.209
REMARK INTER:                  -6.049
REMARK INTRA:                  -1.161
REMARK UNBOUND:                -0.587
REMARK SMILES CC(=O)CCC=C(C)CCC=C(C)C
REMARK SMILES IDX 7 1 6 2 8 3 9 4 10 5 11 6 13 7 12 8 14 9 5 10 4 11 2 12 3 13
REMARK SMILES IDX 1 14
REMARK H PARENT
REMARK Flexibility Score: inf
ROOT
ATOM      1  C   UNL     1     -64.129 -77.029 222.907  1.00  0.00    -0.077 C 
ATOM      2  C   UNL     1     -65.381 -77.369 222.520  1.00  0.00    -0.028 C 
ATOM      3  C   UNL     1     -63.319 -77.899 223.840  1.00  0.00     0.039 C 
ENDROOT
BRANCH   1   4
ATOM      4  C   UNL     1     -63.517 -75.753 222.375  1.00  0.00     0.034 C 
BRANCH   4   5
ATOM      5  C   UNL     1     -63.144 -75.903 220.896  1.00  0.00     0.032 C 
BRANCH   5   6
ATOM      6  C   UNL     1     -61.799 -76.568 220.748  1.00  0.00    -0.028 C 
ATOM      7  C   UNL     1     -60.213 -78.380 220.254  1.00  0.00     0.039 C 
ATOM      8  C   UNL     1     -61.617 -77.834 220.311  1.00  0.00    -0.080 C 
ATOM      9  C   UNL     1     -62.771 -78.702 219.867  1.00  0.00     0.039 C 
ENDBRANCH   5   6
ENDBRANCH   4   5
ENDBRANCH   1   4
BRANCH   2  10
ATOM     10  C   UNL     1     -66.122 -78.591 223.001  1.00  0.00     0.035 C 
BRANCH  10  11
ATOM     11  C   UNL     1     -67.421 -78.196 223.708  1.00  0.00     0.079 C 
BRANCH  11  12
ATOM     12  C   UNL     1     -67.143 -77.716 225.106  1.00  0.00     0.130 C 
ATOM     13  O   UNL     1     -67.655 -76.680 225.504  1.00  0.00    -0.300 OA
ATOM     14  C   UNL     1     -66.263 -78.511 226.022  1.00  0.00     0.087 C 
ENDBRANCH  11  12
ENDBRANCH  10  11
ENDBRANCH   2  10
TORSDOF 6
ENDMDL
MODEL 8
REMARK VINA RESULT:    -4.825      3.839      7.356
REMARK INTER + INTRA:          -7.104
REMARK INTER:                  -6.009
REMARK INTRA:                  -1.096
REMARK UNBOUND:                -0.587
REMARK SMILES CC(=O)CCC=C(C)CCC=C(C)C
REMARK SMILES IDX 7 1 6 2 8 3 9 4 10 5 11 6 13 7 12 8 14 9 5 10 4 11 2 12 3 13
REMARK SMILES IDX 1 14
REMARK H PARENT
REMARK Flexibility Score: inf
ROOT
ATOM      1  C   UNL     1     -64.330 -78.080 223.105  1.00  0.00    -0.077 C 
ATOM      2  C   UNL     1     -63.858 -78.134 224.372  1.00  0.00    -0.028 C 
ATOM      3  C   UNL     1     -64.431 -79.314 222.239  1.00  0.00     0.039 C 
ENDROOT
BRANCH   1   4
ATOM      4  C   UNL     1     -64.787 -76.750 222.547  1.00  0.00     0.034 C 
BRANCH   4   5
ATOM      5  C   UNL     1     -63.592 -75.822 222.305  1.00  0.00     0.032 C 
BRANCH   5   6
ATOM      6  C   UNL     1     -63.079 -75.966 220.895  1.00  0.00    -0.028 C 
ATOM      7  C   UNL     1     -61.545 -76.664 219.105  1.00  0.00     0.039 C 
ATOM      8  C   UNL     1     -61.957 -76.639 220.555  1.00  0.00    -0.080 C 
ATOM      9  C   UNL     1     -61.122 -77.372 221.579  1.00  0.00     0.039 C 
ENDBRANCH   5   6
ENDBRANCH   4   5
ENDBRANCH   1   4
BRANCH   2  10
ATOM     10  C   UNL     1     -63.338 -79.382 225.038  1.00  0.00     0.035 C 
BRANCH  10  11
ATOM     11  C   UNL     1     -62.091 -79.075 225.873  1.00  0.00     0.079 C 
BRANCH  11  12
ATOM     12  C   UNL     1     -60.840 -79.349 225.085  1.00  0.00     0.130 C 
ATOM     13  O   UNL     1     -60.035 -78.450 224.892  1.00  0.00    -0.300 OA
ATOM     14  C   UNL     1     -60.562 -80.724 224.556  1.00  0.00     0.087 C 
ENDBRANCH  11  12
ENDBRANCH  10  11
ENDBRANCH   2  10
TORSDOF 6
ENDMDL
MODEL 9
REMARK VINA RESULT:    -4.803      8.889     10.217
REMARK INTER + INTRA:          -7.075
REMARK INTER:                  -6.271
REMARK INTRA:                  -0.804
REMARK UNBOUND:                -0.587
REMARK SMILES CC(=O)CCC=C(C)CCC=C(C)C
REMARK SMILES IDX 7 1 6 2 8 3 9 4 10 5 11 6 13 7 12 8 14 9 5 10 4 11 2 12 3 13
REMARK SMILES IDX 1 14
REMARK H PARENT
REMARK Flexibility Score: inf
ROOT
ATOM      1  C   UNL     1     -67.542 -75.927 215.477  1.00  0.00    -0.077 C 
ATOM      2  C   UNL     1     -68.182 -76.746 214.610  1.00  0.00    -0.028 C 
ATOM      3  C   UNL     1     -66.060 -76.050 215.746  1.00  0.00     0.039 C 
ENDROOT
BRANCH   1   4
ATOM      4  C   UNL     1     -68.330 -74.845 216.182  1.00  0.00     0.034 C 
BRANCH   4   5
ATOM      5  C   UNL     1     -69.788 -75.275 216.381  1.00  0.00     0.032 C 
BRANCH   5   6
ATOM      6  C   UNL     1     -70.729 -74.145 216.047  1.00  0.00    -0.028 C 
ATOM      7  C   UNL     1     -72.459 -72.941 214.783  1.00  0.00     0.039 C 
ATOM      8  C   UNL     1     -71.608 -74.162 215.021  1.00  0.00    -0.080 C 
ATOM      9  C   UNL     1     -71.770 -75.368 214.125  1.00  0.00     0.039 C 
ENDBRANCH   5   6
ENDBRANCH   4   5
ENDBRANCH   1   4
BRANCH   2  10
ATOM     10  C   UNL     1     -67.527 -77.885 213.869  1.00  0.00     0.035 C 
BRANCH  10  11
ATOM     11  C   UNL     1     -68.397 -78.339 212.693  1.00  0.00     0.079 C 
BRANCH  11  12
ATOM     12  C   UNL     1     -68.257 -77.395 211.530  1.00  0.00     0.130 C 
ATOM     13  O   UNL     1     -69.248 -77.061 210.899  1.00  0.00    -0.300 OA
ATOM     14  C   UNL     1     -66.915 -76.843 211.157  1.00  0.00     0.087 C 
ENDBRANCH  11  12
ENDBRANCH  10  11
ENDBRANCH   2  10
TORSDOF 6
ENDMDL
