MODEL 1
REMARK VINA RESULT:    -5.385      0.000      0.000
REMARK INTER + INTRA:         -11.366
REMARK INTER:                 -10.423
REMARK INTRA:                  -0.943
REMARK UNBOUND:                -0.943
REMARK SMILES CCCCCCCCCCCCCCCCCC(=O)[O-]
REMARK SMILES IDX 10 1 11 2 12 3 13 4 14 5 15 6 16 7 17 8 18 9 19 10 20 11
REMARK SMILES IDX 9 12 8 13 7 14 6 15 5 16 4 17 3 18 2 19 1 20
REMARK H PARENT
REMARK Flexibility Score: inf
ROOT
ATOM      1  C   UNL     1       9.569  29.746  60.616  1.00  0.00     0.000 C 
ENDROOT
BRANCH   1   2
ATOM      2  C   UNL     1      10.476  29.839  59.381  1.00  0.00     0.000 C 
BRANCH   2   3
ATOM      3  C   UNL     1      11.932  29.519  59.743  1.00  0.00     0.000 C 
BRANCH   3   4
ATOM      4  C   UNL     1      12.032  28.191  60.502  1.00  0.00     0.000 C 
BRANCH   4   5
ATOM      5  C   UNL     1      12.791  28.368  61.823  1.00  0.00     0.000 C 
BRANCH   5   6
ATOM      6  C   UNL     1      13.755  29.561  61.747  1.00  0.00     0.000 C 
BRANCH   6   7
ATOM      7  C   UNL     1      14.784  29.565  62.889  1.00  0.00     0.006 C 
BRANCH   7   8
ATOM      8  C   UNL     1      15.863  28.488  62.716  1.00  0.00     0.053 C 
BRANCH   8   9
ATOM      9  C   UNL     1      15.786  27.490  63.827  1.00  0.00     0.041 C 
ATOM     10  O   UNL     1      14.667  27.110  64.261  1.00  0.00    -0.550 OA
ATOM     11  O   UNL     1      16.950  26.941  64.350  1.00  0.00    -0.550 OA
ENDBRANCH   8   9
ENDBRANCH   7   8
ENDBRANCH   6   7
ENDBRANCH   5   6
ENDBRANCH   4   5
ENDBRANCH   3   4
ENDBRANCH   2   3
ENDBRANCH   1   2
BRANCH   1  12
ATOM     12  C   UNL     1       8.072  29.703  60.258  1.00  0.00     0.000 C 
BRANCH  12  13
ATOM     13  C   UNL     1       7.150  30.477  61.218  1.00  0.00    -0.000 C 
BRANCH  13  14
ATOM     14  C   UNL     1       6.397  31.664  60.588  1.00  0.00    -0.000 C 
BRANCH  14  15
ATOM     15  C   UNL     1       7.019  32.172  59.269  1.00  0.00    -0.000 C 
BRANCH  15  16
ATOM     16  C   UNL     1       5.981  32.817  58.335  1.00  0.00    -0.000 C 
BRANCH  16  17
ATOM     17  C   UNL     1       5.791  34.321  58.598  1.00  0.00    -0.000 C 
BRANCH  17  18
ATOM     18  C   UNL     1       6.944  35.002  59.363  1.00  0.00    -0.000 C 
BRANCH  18  19
ATOM     19  C   UNL     1       6.866  36.537  59.428  1.00  0.00    -0.003 C 
ATOM     20  C   UNL     1       8.012  37.223  58.687  1.00  0.00     0.004 C 
ENDBRANCH  18  19
ENDBRANCH  17  18
ENDBRANCH  16  17
ENDBRANCH  15  16
ENDBRANCH  14  15
ENDBRANCH  13  14
ENDBRANCH  12  13
ENDBRANCH   1  12
TORSDOF 16
ENDMDL
MODEL 2
REMARK VINA RESULT:    -5.382      5.476      7.574
REMARK INTER + INTRA:         -11.360
REMARK INTER:                 -10.133
REMARK INTRA:                  -1.227
REMARK UNBOUND:                -0.943
REMARK SMILES CCCCCCCCCCCCCCCCCC(=O)[O-]
REMARK SMILES IDX 10 1 11 2 12 3 13 4 14 5 15 6 16 7 17 8 18 9 19 10 20 11
REMARK SMILES IDX 9 12 8 13 7 14 6 15 5 16 4 17 3 18 2 19 1 20
REMARK H PARENT
REMARK Flexibility Score: inf
ROOT
ATOM      1  C   UNL     1      15.830  30.516  59.536  1.00  0.00     0.000 C 
ENDROOT
BRANCH   1   2
ATOM      2  C   UNL     1      16.099  29.744  60.835  1.00  0.00     0.000 C 
BRANCH   2   3
ATOM      3  C   UNL     1      14.915  29.867  61.802  1.00  0.00     0.000 C 
BRANCH   3   4
ATOM      4  C   UNL     1      14.613  28.525  62.478  1.00  0.00     0.000 C 
BRANCH   4   5
ATOM      5  C   UNL     1      13.144  28.129  62.282  1.00  0.00     0.000 C 
BRANCH   5   6
ATOM      6  C   UNL     1      12.361  29.251  61.585  1.00  0.00     0.000 C 
BRANCH   6   7
ATOM      7  C   UNL     1      11.313  28.715  60.596  1.00  0.00     0.006 C 
BRANCH   7   8
ATOM      8  C   UNL     1      10.674  29.825  59.752  1.00  0.00     0.053 C 
BRANCH   8   9
ATOM      9  C   UNL     1       9.201  29.887  60.000  1.00  0.00     0.041 C 
ATOM     10  O   UNL     1       8.655  29.062  60.779  1.00  0.00    -0.550 OA
ATOM     11  O   UNL     1       8.437  30.887  59.411  1.00  0.00    -0.550 OA
ENDBRANCH   8   9
ENDBRANCH   7   8
ENDBRANCH   6   7
ENDBRANCH   5   6
ENDBRANCH   4   5
ENDBRANCH   3   4
ENDBRANCH   2   3
ENDBRANCH   1   2
BRANCH   1  12
ATOM     12  C   UNL     1      14.357  30.449  59.092  1.00  0.00     0.000 C 
BRANCH  12  13
ATOM     13  C   UNL     1      13.792  31.757  58.508  1.00  0.00    -0.000 C 
BRANCH  13  14
ATOM     14  C   UNL     1      14.490  32.260  57.230  1.00  0.00    -0.000 C 
BRANCH  14  15
ATOM     15  C   UNL     1      15.207  33.616  57.400  1.00  0.00    -0.000 C 
BRANCH  15  16
ATOM     16  C   UNL     1      15.565  34.269  56.054  1.00  0.00    -0.000 C 
BRANCH  16  17
ATOM     17  C   UNL     1      15.358  35.795  56.055  1.00  0.00    -0.000 C 
BRANCH  17  18
ATOM     18  C   UNL     1      16.654  36.629  55.994  1.00  0.00    -0.000 C 
BRANCH  18  19
ATOM     19  C   UNL     1      16.905  37.532  57.214  1.00  0.00    -0.003 C 
ATOM     20  C   UNL     1      17.959  38.607  56.953  1.00  0.00     0.004 C 
ENDBRANCH  18  19
ENDBRANCH  17  18
ENDBRANCH  16  17
ENDBRANCH  15  16
ENDBRANCH  14  15
ENDBRANCH  13  14
ENDBRANCH  12  13
ENDBRANCH   1  12
TORSDOF 16
ENDMDL
MODEL 3
REMARK VINA RESULT:    -5.335      5.086      9.645
REMARK INTER + INTRA:         -11.268
REMARK INTER:                  -9.991
REMARK INTRA:                  -1.278
REMARK UNBOUND:                -0.943
REMARK SMILES CCCCCCCCCCCCCCCCCC(=O)[O-]
REMARK SMILES IDX 10 1 11 2 12 3 13 4 14 5 15 6 16 7 17 8 18 9 19 10 20 11
REMARK SMILES IDX 9 12 8 13 7 14 6 15 5 16 4 17 3 18 2 19 1 20
REMARK H PARENT
REMARK Flexibility Score: inf
ROOT
ATOM      1  C   UNL     1       9.696  28.830  58.966  1.00  0.00     0.000 C 
ENDROOT
BRANCH   1   2
ATOM      2  C   UNL     1       8.772  28.674  60.182  1.00  0.00     0.000 C 
BRANCH   2   3
ATOM      3  C   UNL     1       8.576  30.015  60.899  1.00  0.00     0.000 C 
BRANCH   3   4
ATOM      4  C   UNL     1       7.139  30.162  61.411  1.00  0.00     0.000 C 
BRANCH   4   5
ATOM      5  C   UNL     1       6.460  31.394  60.800  1.00  0.00     0.000 C 
BRANCH   5   6
ATOM      6  C   UNL     1       7.220  31.881  59.557  1.00  0.00     0.000 C 
BRANCH   6   7
ATOM      7  C   UNL     1       6.374  32.810  58.672  1.00  0.00     0.006 C 
BRANCH   7   8
ATOM      8  C   UNL     1       5.044  33.202  59.329  1.00  0.00     0.053 C 
BRANCH   8   9
ATOM      9  C   UNL     1       4.249  34.077  58.413  1.00  0.00     0.041 C 
ATOM     10  O   UNL     1       4.677  35.219  58.097  1.00  0.00    -0.550 OA
ATOM     11  O   UNL     1       3.057  33.614  57.869  1.00  0.00    -0.550 OA
ENDBRANCH   8   9
ENDBRANCH   7   8
ENDBRANCH   6   7
ENDBRANCH   5   6
ENDBRANCH   4   5
ENDBRANCH   3   4
ENDBRANCH   2   3
ENDBRANCH   1   2
BRANCH   1  12
ATOM     12  C   UNL     1      10.350  30.221  58.885  1.00  0.00     0.000 C 
BRANCH  12  13
ATOM     13  C   UNL     1      11.889  30.222  58.938  1.00  0.00    -0.000 C 
BRANCH  13  14
ATOM     14  C   UNL     1      12.508  29.279  59.987  1.00  0.00    -0.000 C 
BRANCH  14  15
ATOM     15  C   UNL     1      12.215  29.688  61.447  1.00  0.00    -0.000 C 
BRANCH  15  16
ATOM     16  C   UNL     1      13.495  29.867  62.280  1.00  0.00    -0.000 C 
BRANCH  16  17
ATOM     17  C   UNL     1      14.262  28.549  62.492  1.00  0.00    -0.000 C 
BRANCH  17  18
ATOM     18  C   UNL     1      15.585  28.680  63.274  1.00  0.00    -0.000 C 
BRANCH  18  19
ATOM     19  C   UNL     1      16.857  28.652  62.410  1.00  0.00    -0.003 C 
ATOM     20  C   UNL     1      17.374  30.047  62.064  1.00  0.00     0.004 C 
ENDBRANCH  18  19
ENDBRANCH  17  18
ENDBRANCH  16  17
ENDBRANCH  15  16
ENDBRANCH  14  15
ENDBRANCH  13  14
ENDBRANCH  12  13
ENDBRANCH   1  12
TORSDOF 16
ENDMDL
MODEL 4
REMARK VINA RESULT:    -5.326      4.460      9.037
REMARK INTER + INTRA:         -11.251
REMARK INTER:                  -9.597
REMARK INTRA:                  -1.654
REMARK UNBOUND:                -0.943
REMARK SMILES CCCCCCCCCCCCCCCCCC(=O)[O-]
REMARK SMILES IDX 10 1 11 2 12 3 13 4 14 5 15 6 16 7 17 8 18 9 19 10 20 11
REMARK SMILES IDX 9 12 8 13 7 14 6 15 5 16 4 17 3 18 2 19 1 20
REMARK H PARENT
REMARK Flexibility Score: inf
ROOT
ATOM      1  C   UNL     1       9.698  29.226  59.200  1.00  0.00     0.000 C 
ENDROOT
BRANCH   1   2
ATOM      2  C   UNL     1       8.968  28.634  60.414  1.00  0.00     0.000 C 
BRANCH   2   3
ATOM      3  C   UNL     1       8.659  29.720  61.453  1.00  0.00     0.000 C 
BRANCH   3   4
ATOM      4  C   UNL     1       7.195  30.164  61.366  1.00  0.00     0.000 C 
BRANCH   4   5
ATOM      5  C   UNL     1       7.048  31.408  60.482  1.00  0.00     0.000 C 
BRANCH   5   6
ATOM      6  C   UNL     1       5.656  32.037  60.645  1.00  0.00     0.000 C 
BRANCH   6   7
ATOM      7  C   UNL     1       5.410  33.194  59.663  1.00  0.00     0.006 C 
BRANCH   7   8
ATOM      8  C   UNL     1       6.706  33.905  59.251  1.00  0.00     0.053 C 
BRANCH   8   9
ATOM      9  C   UNL     1       6.459  35.367  59.056  1.00  0.00     0.041 C 
ATOM     10  O   UNL     1       7.140  36.215  59.692  1.00  0.00    -0.550 OA
ATOM     11  O   UNL     1       5.511  35.796  58.135  1.00  0.00    -0.550 OA
ENDBRANCH   8   9
ENDBRANCH   7   8
ENDBRANCH   6   7
ENDBRANCH   5   6
ENDBRANCH   4   5
ENDBRANCH   3   4
ENDBRANCH   2   3
ENDBRANCH   1   2
BRANCH   1  12
ATOM     12  C   UNL     1      11.174  29.557  59.491  1.00  0.00     0.000 C 
BRANCH  12  13
ATOM     13  C   UNL     1      12.036  28.359  59.930  1.00  0.00    -0.000 C 
BRANCH  13  14
ATOM     14  C   UNL     1      12.538  28.412  61.386  1.00  0.00    -0.000 C 
BRANCH  14  15
ATOM     15  C   UNL     1      12.583  29.836  61.981  1.00  0.00    -0.000 C 
BRANCH  15  16
ATOM     16  C   UNL     1      14.020  30.328  62.228  1.00  0.00    -0.000 C 
BRANCH  16  17
ATOM     17  C   UNL     1      15.086  29.353  61.698  1.00  0.00    -0.000 C 
BRANCH  17  18
ATOM     18  C   UNL     1      15.875  29.850  60.470  1.00  0.00    -0.000 C 
BRANCH  18  19
ATOM     19  C   UNL     1      15.043  30.626  59.433  1.00  0.00    -0.003 C 
ATOM     20  C   UNL     1      14.912  29.888  58.102  1.00  0.00     0.004 C 
ENDBRANCH  18  19
ENDBRANCH  17  18
ENDBRANCH  16  17
ENDBRANCH  15  16
ENDBRANCH  14  15
ENDBRANCH  13  14
ENDBRANCH  12  13
ENDBRANCH   1  12
TORSDOF 16
ENDMDL
MODEL 5
REMARK VINA RESULT:    -5.297      4.784      7.613
REMARK INTER + INTRA:         -11.196
REMARK INTER:                  -8.668
REMARK INTRA:                  -2.527
REMARK UNBOUND:                -0.943
REMARK SMILES CCCCCCCCCCCCCCCCCC(=O)[O-]
REMARK SMILES IDX 10 1 11 2 12 3 13 4 14 5 15 6 16 7 17 8 18 9 19 10 20 11
REMARK SMILES IDX 9 12 8 13 7 14 6 15 5 16 4 17 3 18 2 19 1 20
REMARK H PARENT
REMARK Flexibility Score: inf
ROOT
ATOM      1  C   UNL     1      15.263  30.083  59.116  1.00  0.00     0.000 C 
ENDROOT
BRANCH   1   2
ATOM      2  C   UNL     1      16.239  30.387  60.260  1.00  0.00     0.000 C 
BRANCH   2   3
ATOM      3  C   UNL     1      16.300  29.222  61.255  1.00  0.00     0.000 C 
BRANCH   3   4
ATOM      4  C   UNL     1      15.747  29.636  62.624  1.00  0.00     0.000 C 
BRANCH   4   5
ATOM      5  C   UNL     1      14.252  29.966  62.537  1.00  0.00     0.000 C 
BRANCH   5   6
ATOM      6  C   UNL     1      13.443  28.737  62.094  1.00  0.00     0.000 C 
BRANCH   6   7
ATOM      7  C   UNL     1      12.000  29.089  61.700  1.00  0.00     0.006 C 
BRANCH   7   8
ATOM      8  C   UNL     1      11.694  28.771  60.230  1.00  0.00     0.053 C 
BRANCH   8   9
ATOM      9  C   UNL     1      10.290  29.162  59.894  1.00  0.00     0.041 C 
ATOM     10  O   UNL     1       9.806  28.874  58.767  1.00  0.00    -0.550 OA
ATOM     11  O   UNL     1       9.499  29.799  60.841  1.00  0.00    -0.550 OA
ENDBRANCH   8   9
ENDBRANCH   7   8
ENDBRANCH   6   7
ENDBRANCH   5   6
ENDBRANCH   4   5
ENDBRANCH   3   4
ENDBRANCH   2   3
ENDBRANCH   1   2
BRANCH   1  12
ATOM     12  C   UNL     1      14.192  31.176  58.935  1.00  0.00     0.000 C 
BRANCH  12  13
ATOM     13  C   UNL     1      13.262  30.983  57.723  1.00  0.00    -0.000 C 
BRANCH  13  14
ATOM     14  C   UNL     1      13.868  31.377  56.363  1.00  0.00    -0.000 C 
BRANCH  14  15
ATOM     15  C   UNL     1      14.390  30.180  55.539  1.00  0.00    -0.000 C 
BRANCH  15  16
ATOM     16  C   UNL     1      15.890  30.293  55.217  1.00  0.00    -0.000 C 
BRANCH  16  17
ATOM     17  C   UNL     1      16.437  31.720  55.400  1.00  0.00    -0.000 C 
BRANCH  17  18
ATOM     18  C   UNL     1      17.639  31.841  56.358  1.00  0.00    -0.000 C 
BRANCH  18  19
ATOM     19  C   UNL     1      17.371  32.648  57.641  1.00  0.00    -0.003 C 
ATOM     20  C   UNL     1      16.422  33.824  57.417  1.00  0.00     0.004 C 
ENDBRANCH  18  19
ENDBRANCH  17  18
ENDBRANCH  16  17
ENDBRANCH  15  16
ENDBRANCH  14  15
ENDBRANCH  13  14
ENDBRANCH  12  13
ENDBRANCH   1  12
TORSDOF 16
ENDMDL
MODEL 6
REMARK VINA RESULT:    -5.254      4.810      7.996
REMARK INTER + INTRA:         -11.112
REMARK INTER:                  -8.647
REMARK INTRA:                  -2.464
REMARK UNBOUND:                -0.943
REMARK SMILES CCCCCCCCCCCCCCCCCC(=O)[O-]
REMARK SMILES IDX 10 1 11 2 12 3 13 4 14 5 15 6 16 7 17 8 18 9 19 10 20 11
REMARK SMILES IDX 9 12 8 13 7 14 6 15 5 16 4 17 3 18 2 19 1 20
REMARK H PARENT
REMARK Flexibility Score: inf
ROOT
ATOM      1  C   UNL     1      14.816  29.755  58.541  1.00  0.00     0.000 C 
ENDROOT
BRANCH   1   2
ATOM      2  C   UNL     1      15.708  30.339  59.646  1.00  0.00     0.000 C 
BRANCH   2   3
ATOM      3  C   UNL     1      15.719  29.430  60.881  1.00  0.00     0.000 C 
BRANCH   3   4
ATOM      4  C   UNL     1      15.095  30.136  62.090  1.00  0.00     0.000 C 
BRANCH   4   5
ATOM      5  C   UNL     1      13.565  30.027  62.062  1.00  0.00     0.000 C 
BRANCH   5   6
ATOM      6  C   UNL     1      13.122  28.578  61.811  1.00  0.00     0.000 C 
BRANCH   6   7
ATOM      7  C   UNL     1      12.049  28.468  60.715  1.00  0.00     0.006 C 
BRANCH   7   8
ATOM      8  C   UNL     1      10.898  29.462  60.913  1.00  0.00     0.053 C 
BRANCH   8   9
ATOM      9  C   UNL     1       9.724  29.075  60.072  1.00  0.00     0.041 C 
ATOM     10  O   UNL     1       9.870  28.868  58.838  1.00  0.00    -0.550 OA
ATOM     11  O   UNL     1       8.477  28.894  60.657  1.00  0.00    -0.550 OA
ENDBRANCH   8   9
ENDBRANCH   7   8
ENDBRANCH   6   7
ENDBRANCH   5   6
ENDBRANCH   4   5
ENDBRANCH   3   4
ENDBRANCH   2   3
ENDBRANCH   1   2
BRANCH   1  12
ATOM     12  C   UNL     1      13.729  30.737  58.066  1.00  0.00     0.000 C 
BRANCH  12  13
ATOM     13  C   UNL     1      13.956  32.206  58.468  1.00  0.00    -0.000 C 
BRANCH  13  14
ATOM     14  C   UNL     1      14.610  33.087  57.387  1.00  0.00    -0.000 C 
BRANCH  14  15
ATOM     15  C   UNL     1      16.071  33.479  57.697  1.00  0.00    -0.000 C 
BRANCH  15  16
ATOM     16  C   UNL     1      16.899  33.728  56.425  1.00  0.00    -0.000 C 
BRANCH  16  17
ATOM     17  C   UNL     1      17.923  32.613  56.148  1.00  0.00    -0.000 C 
BRANCH  17  18
ATOM     18  C   UNL     1      17.341  31.184  56.122  1.00  0.00    -0.000 C 
BRANCH  18  19
ATOM     19  C   UNL     1      16.777  30.736  54.764  1.00  0.00    -0.003 C 
ATOM     20  C   UNL     1      15.304  30.337  54.833  1.00  0.00     0.004 C 
ENDBRANCH  18  19
ENDBRANCH  17  18
ENDBRANCH  16  17
ENDBRANCH  15  16
ENDBRANCH  14  15
ENDBRANCH  13  14
ENDBRANCH  12  13
ENDBRANCH   1  12
TORSDOF 16
ENDMDL
MODEL 7
REMARK VINA RESULT:    -5.242      5.350      7.009
REMARK INTER + INTRA:         -11.088
REMARK INTER:                  -9.759
REMARK INTRA:                  -1.329
REMARK UNBOUND:                -0.943
REMARK SMILES CCCCCCCCCCCCCCCCCC(=O)[O-]
REMARK SMILES IDX 10 1 11 2 12 3 13 4 14 5 15 6 16 7 17 8 18 9 19 10 20 11
REMARK SMILES IDX 9 12 8 13 7 14 6 15 5 16 4 17 3 18 2 19 1 20
REMARK H PARENT
REMARK Flexibility Score: inf
ROOT
ATOM      1  C   UNL     1      14.284  29.868  58.157  1.00  0.00     0.000 C 
ENDROOT
BRANCH   1   2
ATOM      2  C   UNL     1      13.242  30.934  58.524  1.00  0.00     0.000 C 
BRANCH   2   3
ATOM      3  C   UNL     1      11.916  30.286  58.940  1.00  0.00     0.000 C 
BRANCH   3   4
ATOM      4  C   UNL     1      12.156  29.063  59.833  1.00  0.00     0.000 C 
BRANCH   4   5
ATOM      5  C   UNL     1      11.637  29.310  61.255  1.00  0.00     0.000 C 
BRANCH   5   6
ATOM      6  C   UNL     1      12.701  30.009  62.115  1.00  0.00     0.000 C 
BRANCH   6   7
ATOM      7  C   UNL     1      13.976  29.165  62.281  1.00  0.00     0.006 C 
BRANCH   7   8
ATOM      8  C   UNL     1      15.230  29.879  61.761  1.00  0.00     0.053 C 
BRANCH   8   9
ATOM      9  C   UNL     1      16.364  29.707  62.720  1.00  0.00     0.041 C 
ATOM     10  O   UNL     1      17.532  30.040  62.386  1.00  0.00    -0.550 OA
ATOM     11  O   UNL     1      16.125  29.224  64.000  1.00  0.00    -0.550 OA
ENDBRANCH   8   9
ENDBRANCH   7   8
ENDBRANCH   6   7
ENDBRANCH   5   6
ENDBRANCH   4   5
ENDBRANCH   3   4
ENDBRANCH   2   3
ENDBRANCH   1   2
BRANCH   1  12
ATOM     12  C   UNL     1      15.178  30.286  56.975  1.00  0.00     0.000 C 
BRANCH  12  13
ATOM     13  C   UNL     1      15.155  31.789  56.640  1.00  0.00    -0.000 C 
BRANCH  13  14
ATOM     14  C   UNL     1      16.489  32.529  56.859  1.00  0.00    -0.000 C 
BRANCH  14  15
ATOM     15  C   UNL     1      16.328  34.038  57.143  1.00  0.00    -0.000 C 
BRANCH  15  16
ATOM     16  C   UNL     1      15.389  34.732  56.142  1.00  0.00    -0.000 C 
BRANCH  16  17
ATOM     17  C   UNL     1      15.515  36.266  56.167  1.00  0.00    -0.000 C 
BRANCH  17  18
ATOM     18  C   UNL     1      16.961  36.802  56.198  1.00  0.00    -0.000 C 
BRANCH  18  19
ATOM     19  C   UNL     1      17.196  37.985  57.153  1.00  0.00    -0.003 C 
ATOM     20  C   UNL     1      18.283  38.940  56.662  1.00  0.00     0.004 C 
ENDBRANCH  18  19
ENDBRANCH  17  18
ENDBRANCH  16  17
ENDBRANCH  15  16
ENDBRANCH  14  15
ENDBRANCH  13  14
ENDBRANCH  12  13
ENDBRANCH   1  12
TORSDOF 16
ENDMDL
MODEL 8
REMARK VINA RESULT:    -5.218      3.943      6.715
REMARK INTER + INTRA:         -11.042
REMARK INTER:                  -9.061
REMARK INTRA:                  -1.981
REMARK UNBOUND:                -0.943
REMARK SMILES CCCCCCCCCCCCCCCCCC(=O)[O-]
REMARK SMILES IDX 10 1 11 2 12 3 13 4 14 5 15 6 16 7 17 8 18 9 19 10 20 11
REMARK SMILES IDX 9 12 8 13 7 14 6 15 5 16 4 17 3 18 2 19 1 20
REMARK H PARENT
REMARK Flexibility Score: inf
ROOT
ATOM      1  C   UNL     1      11.621  30.489  58.534  1.00  0.00     0.000 C 
ENDROOT
BRANCH   1   2
ATOM      2  C   UNL     1      11.407  29.326  59.512  1.00  0.00     0.000 C 
BRANCH   2   3
ATOM      3  C   UNL     1      10.445  29.724  60.638  1.00  0.00     0.000 C 
BRANCH   3   4
ATOM      4  C   UNL     1      11.133  29.642  62.006  1.00  0.00     0.000 C 
BRANCH   4   5
ATOM      5  C   UNL     1      12.577  29.144  61.867  1.00  0.00     0.000 C 
BRANCH   5   6
ATOM      6  C   UNL     1      13.575  30.231  62.293  1.00  0.00     0.000 C 
BRANCH   6   7
ATOM      7  C   UNL     1      15.038  29.783  62.140  1.00  0.00     0.006 C 
BRANCH   7   8
ATOM      8  C   UNL     1      15.689  29.423  63.482  1.00  0.00     0.053 C 
BRANCH   8   9
ATOM      9  C   UNL     1      16.433  28.130  63.370  1.00  0.00     0.041 C 
ATOM     10  O   UNL     1      17.357  28.002  62.524  1.00  0.00    -0.550 OA
ATOM     11  O   UNL     1      16.139  27.082  64.234  1.00  0.00    -0.550 OA
ENDBRANCH   8   9
ENDBRANCH   7   8
ENDBRANCH   6   7
ENDBRANCH   5   6
ENDBRANCH   4   5
ENDBRANCH   3   4
ENDBRANCH   2   3
ENDBRANCH   1   2
BRANCH   1  12
ATOM     12  C   UNL     1      13.069  31.012  58.532  1.00  0.00     0.000 C 
BRANCH  12  13
ATOM     13  C   UNL     1      14.155  29.923  58.616  1.00  0.00    -0.000 C 
BRANCH  13  14
ATOM     14  C   UNL     1      15.019  29.761  57.351  1.00  0.00    -0.000 C 
BRANCH  14  15
ATOM     15  C   UNL     1      14.415  30.419  56.092  1.00  0.00    -0.000 C 
BRANCH  15  16
ATOM     16  C   UNL     1      15.332  31.497  55.490  1.00  0.00    -0.000 C 
BRANCH  16  17
ATOM     17  C   UNL     1      16.791  31.029  55.343  1.00  0.00    -0.000 C 
BRANCH  17  18
ATOM     18  C   UNL     1      17.836  31.913  56.055  1.00  0.00    -0.000 C 
BRANCH  18  19
ATOM     19  C   UNL     1      17.303  32.712  57.256  1.00  0.00    -0.003 C 
ATOM     20  C   UNL     1      17.515  31.996  58.589  1.00  0.00     0.004 C 
ENDBRANCH  18  19
ENDBRANCH  17  18
ENDBRANCH  16  17
ENDBRANCH  15  16
ENDBRANCH  14  15
ENDBRANCH  13  14
ENDBRANCH  12  13
ENDBRANCH   1  12
TORSDOF 16
ENDMDL
MODEL 9
REMARK VINA RESULT:    -5.213      4.477      7.910
REMARK INTER + INTRA:         -11.033
REMARK INTER:                  -8.670
REMARK INTRA:                  -2.363
REMARK UNBOUND:                -0.943
REMARK SMILES CCCCCCCCCCCCCCCCCC(=O)[O-]
REMARK SMILES IDX 10 1 11 2 12 3 13 4 14 5 15 6 16 7 17 8 18 9 19 10 20 11
REMARK SMILES IDX 9 12 8 13 7 14 6 15 5 16 4 17 3 18 2 19 1 20
REMARK H PARENT
REMARK Flexibility Score: inf
ROOT
ATOM      1  C   UNL     1      16.197  29.663  61.341  1.00  0.00     0.000 C 
ENDROOT
BRANCH   1   2
ATOM      2  C   UNL     1      14.903  29.116  61.958  1.00  0.00     0.000 C 
BRANCH   2   3
ATOM      3  C   UNL     1      13.933  30.253  62.301  1.00  0.00     0.000 C 
BRANCH   3   4
ATOM      4  C   UNL     1      12.501  29.901  61.884  1.00  0.00     0.000 C 
BRANCH   4   5
ATOM      5  C   UNL     1      12.404  28.441  61.426  1.00  0.00     0.000 C 
BRANCH   5   6
ATOM      6  C   UNL     1      11.779  28.345  60.026  1.00  0.00     0.000 C 
BRANCH   6   7
ATOM      7  C   UNL     1      11.223  29.691  59.533  1.00  0.00     0.006 C 
BRANCH   7   8
ATOM      8  C   UNL     1       9.800  29.572  58.971  1.00  0.00     0.053 C 
BRANCH   8   9
ATOM      9  C   UNL     1       8.805  30.095  59.958  1.00  0.00     0.041 C 
ATOM     10  O   UNL     1       8.013  31.017  59.630  1.00  0.00    -0.550 OA
ATOM     11  O   UNL     1       8.718  29.530  61.224  1.00  0.00    -0.550 OA
ENDBRANCH   8   9
ENDBRANCH   7   8
ENDBRANCH   6   7
ENDBRANCH   5   6
ENDBRANCH   4   5
ENDBRANCH   3   4
ENDBRANCH   2   3
ENDBRANCH   1   2
BRANCH   1  12
ATOM     12  C   UNL     1      15.959  30.427  60.026  1.00  0.00     0.000 C 
BRANCH  12  13
ATOM     13  C   UNL     1      15.084  29.692  58.994  1.00  0.00    -0.000 C 
BRANCH  13  14
ATOM     14  C   UNL     1      14.603  30.553  57.811  1.00  0.00    -0.000 C 
BRANCH  14  15
ATOM     15  C   UNL     1      13.969  31.897  58.231  1.00  0.00    -0.000 C 
BRANCH  15  16
ATOM     16  C   UNL     1      14.579  33.097  57.486  1.00  0.00    -0.000 C 
BRANCH  16  17
ATOM     17  C   UNL     1      16.103  33.205  57.671  1.00  0.00    -0.000 C 
BRANCH  17  18
ATOM     18  C   UNL     1      16.914  33.302  56.362  1.00  0.00    -0.000 C 
BRANCH  18  19
ATOM     19  C   UNL     1      18.003  32.228  56.191  1.00  0.00    -0.003 C 
ATOM     20  C   UNL     1      17.490  30.964  55.503  1.00  0.00     0.004 C 
ENDBRANCH  18  19
ENDBRANCH  17  18
ENDBRANCH  16  17
ENDBRANCH  15  16
ENDBRANCH  14  15
ENDBRANCH  13  14
ENDBRANCH  12  13
ENDBRANCH   1  12
TORSDOF 16
ENDMDL
