MODEL 1
REMARK VINA RESULT:    -5.700      0.000      0.000
REMARK INTER + INTRA:          -6.033
REMARK INTER:                  -6.033
REMARK INTRA:                   0.000
REMARK UNBOUND:                 0.000
REMARK SMILES O=c1ccc2cc(O)c(O)cc2o1
REMARK SMILES IDX 4 1 3 2 2 3 1 4 13 5 12 6 11 7 9 8 7 9 6 10 5 11 8 12 10 14
REMARK H PARENT 8 13 10 15
REMARK Flexibility Score: inf
ROOT
ATOM      1  C   UNL     1     -33.448  -3.105 -11.649  1.00  0.00     0.019 A 
ATOM      2  C   UNL     1     -33.927  -3.915 -12.679  1.00  0.00     0.094 A 
ATOM      3  C   UNL     1     -35.205  -4.474 -12.563  1.00  0.00     0.336 A 
ATOM      4  O   UNL     1     -35.656  -5.207 -13.481  1.00  0.00    -0.246 OA
ATOM      5  O   UNL     1     -35.948  -4.235 -11.485  1.00  0.00    -0.423 OA
ATOM      6  C   UNL     1     -35.530  -3.470 -10.480  1.00  0.00     0.142 A 
ATOM      7  C   UNL     1     -36.355  -3.256  -9.373  1.00  0.00     0.098 A 
ATOM      8  C   UNL     1     -35.918  -2.449  -8.311  1.00  0.00     0.161 A 
ATOM      9  C   UNL     1     -34.649  -1.855  -8.359  1.00  0.00     0.158 A 
ATOM     10  C   UNL     1     -33.816  -2.066  -9.468  1.00  0.00     0.062 A 
ATOM     11  C   UNL     1     -34.252  -2.872 -10.529  1.00  0.00     0.022 A 
ENDROOT
BRANCH   9  12
ATOM     12  O   UNL     1     -34.222  -1.055  -7.300  1.00  0.00    -0.504 OA
ATOM     13  H   UNL     1     -33.295  -0.646  -7.285  1.00  0.00     0.293 HD
ENDBRANCH   9  12
BRANCH   8  14
ATOM     14  O   UNL     1     -36.740  -2.234  -7.207  1.00  0.00    -0.504 OA
ATOM     15  H   UNL     1     -37.025  -2.994  -6.601  1.00  0.00     0.293 HD
ENDBRANCH   8  14
TORSDOF 2
ENDMDL
MODEL 2
REMARK VINA RESULT:    -5.493      1.237      4.450
REMARK INTER + INTRA:          -5.814
REMARK INTER:                  -5.814
REMARK INTRA:                   0.000
REMARK UNBOUND:                 0.000
REMARK SMILES O=c1ccc2cc(O)c(O)cc2o1
REMARK SMILES IDX 4 1 3 2 2 3 1 4 13 5 12 6 11 7 9 8 7 9 6 10 5 11 8 12 10 14
REMARK H PARENT 8 13 10 15
REMARK Flexibility Score: inf
ROOT
ATOM      1  C   UNL     1     -33.134  -2.753 -10.711  1.00  0.00     0.019 A 
ATOM      2  C   UNL     1     -33.106  -2.017  -9.527  1.00  0.00     0.094 A 
ATOM      3  C   UNL     1     -34.286  -1.876  -8.788  1.00  0.00     0.336 A 
ATOM      4  O   UNL     1     -34.281  -1.216  -7.717  1.00  0.00    -0.246 OA
ATOM      5  O   UNL     1     -35.417  -2.435  -9.213  1.00  0.00    -0.423 OA
ATOM      6  C   UNL     1     -35.488  -3.144 -10.337  1.00  0.00     0.142 A 
ATOM      7  C   UNL     1     -36.704  -3.707 -10.733  1.00  0.00     0.098 A 
ATOM      8  C   UNL     1     -36.784  -4.455 -11.917  1.00  0.00     0.161 A 
ATOM      9  C   UNL     1     -35.640  -4.640 -12.708  1.00  0.00     0.158 A 
ATOM     10  C   UNL     1     -34.417  -4.077 -12.316  1.00  0.00     0.062 A 
ATOM     11  C   UNL     1     -34.337  -3.329 -11.133  1.00  0.00     0.022 A 
ENDROOT
BRANCH   9  12
ATOM     12  O   UNL     1     -35.728  -5.385 -13.883  1.00  0.00    -0.504 OA
ATOM     13  H   UNL     1     -36.204  -5.027 -14.703  1.00  0.00     0.293 HD
ENDBRANCH   9  12
BRANCH   8  14
ATOM     14  O   UNL     1     -37.995  -5.019 -12.313  1.00  0.00    -0.504 OA
ATOM     15  H   UNL     1     -38.090  -5.506 -13.197  1.00  0.00     0.293 HD
ENDBRANCH   8  14
TORSDOF 2
ENDMDL
MODEL 3
REMARK VINA RESULT:    -5.450      1.060      5.028
REMARK INTER + INTRA:          -5.769
REMARK INTER:                  -5.769
REMARK INTRA:                   0.000
REMARK UNBOUND:                 0.000
REMARK SMILES O=c1ccc2cc(O)c(O)cc2o1
REMARK SMILES IDX 4 1 3 2 2 3 1 4 13 5 12 6 11 7 9 8 7 9 6 10 5 11 8 12 10 14
REMARK H PARENT 8 13 10 15
REMARK Flexibility Score: inf
ROOT
ATOM      1  C   UNL     1     -36.543  -3.138  -8.957  1.00  0.00     0.019 A 
ATOM      2  C   UNL     1     -36.040  -2.338  -7.932  1.00  0.00     0.094 A 
ATOM      3  C   UNL     1     -34.766  -1.777  -8.072  1.00  0.00     0.336 A 
ATOM      4  O   UNL     1     -34.294  -1.052  -7.158  1.00  0.00    -0.246 OA
ATOM      5  O   UNL     1     -34.046  -2.007  -9.169  1.00  0.00    -0.423 OA
ATOM      6  C   UNL     1     -34.488  -2.763 -10.170  1.00  0.00     0.142 A 
ATOM      7  C   UNL     1     -33.688  -2.969 -11.297  1.00  0.00     0.098 A 
ATOM      8  C   UNL     1     -34.149  -3.766 -12.356  1.00  0.00     0.161 A 
ATOM      9  C   UNL     1     -35.418  -4.360 -12.284  1.00  0.00     0.158 A 
ATOM     10  C   UNL     1     -36.226  -4.157 -11.156  1.00  0.00     0.062 A 
ATOM     11  C   UNL     1     -35.765  -3.361 -10.098  1.00  0.00     0.022 A 
ENDROOT
BRANCH   9  12
ATOM     12  O   UNL     1     -35.869  -5.150 -13.341  1.00  0.00    -0.504 OA
ATOM     13  H   UNL     1     -36.537  -4.800 -14.017  1.00  0.00     0.293 HD
ENDBRANCH   9  12
BRANCH   8  14
ATOM     14  O   UNL     1     -33.353  -3.972 -13.481  1.00  0.00    -0.504 OA
ATOM     15  H   UNL     1     -33.688  -3.761 -14.414  1.00  0.00     0.293 HD
ENDBRANCH   8  14
TORSDOF 2
ENDMDL
MODEL 4
REMARK VINA RESULT:    -5.294      1.088      2.233
REMARK INTER + INTRA:          -5.603
REMARK INTER:                  -5.603
REMARK INTRA:                   0.000
REMARK UNBOUND:                 0.000
REMARK SMILES O=c1ccc2cc(O)c(O)cc2o1
REMARK SMILES IDX 4 1 3 2 2 3 1 4 13 5 12 6 11 7 9 8 7 9 6 10 5 11 8 12 10 14
REMARK H PARENT 8 13 10 15
REMARK Flexibility Score: inf
ROOT
ATOM      1  C   UNL     1     -36.113  -4.412 -11.286  1.00  0.00     0.019 A 
ATOM      2  C   UNL     1     -35.378  -4.505 -12.467  1.00  0.00     0.094 A 
ATOM      3  C   UNL     1     -34.220  -3.731 -12.609  1.00  0.00     0.336 A 
ATOM      4  O   UNL     1     -33.543  -3.801 -13.667  1.00  0.00    -0.246 OA
ATOM      5  O   UNL     1     -33.831  -2.918 -11.629  1.00  0.00    -0.423 OA
ATOM      6  C   UNL     1     -34.502  -2.799 -10.487  1.00  0.00     0.142 A 
ATOM      7  C   UNL     1     -34.045  -1.928  -9.494  1.00  0.00     0.098 A 
ATOM      8  C   UNL     1     -34.749  -1.799  -8.288  1.00  0.00     0.161 A 
ATOM      9  C   UNL     1     -35.918  -2.545  -8.076  1.00  0.00     0.158 A 
ATOM     10  C   UNL     1     -36.383  -3.420  -9.068  1.00  0.00     0.062 A 
ATOM     11  C   UNL     1     -35.679  -3.549 -10.274  1.00  0.00     0.022 A 
ENDROOT
BRANCH   9  12
ATOM     12  O   UNL     1     -36.612  -2.410  -6.874  1.00  0.00    -0.504 OA
ATOM     13  H   UNL     1     -37.573  -2.720  -6.780  1.00  0.00     0.293 HD
ENDBRANCH   9  12
BRANCH   8  14
ATOM     14  O   UNL     1     -34.294  -0.932  -7.296  1.00  0.00    -0.504 OA
ATOM     15  H   UNL     1     -33.434  -0.408  -7.403  1.00  0.00     0.293 HD
ENDBRANCH   8  14
TORSDOF 2
ENDMDL
MODEL 5
REMARK VINA RESULT:    -5.203      1.684      2.382
REMARK INTER + INTRA:          -5.507
REMARK INTER:                  -5.507
REMARK INTRA:                   0.000
REMARK UNBOUND:                 0.000
REMARK SMILES O=c1ccc2cc(O)c(O)cc2o1
REMARK SMILES IDX 4 1 3 2 2 3 1 4 13 5 12 6 11 7 9 8 7 9 6 10 5 11 8 12 10 14
REMARK H PARENT 8 13 10 15
REMARK Flexibility Score: inf
ROOT
ATOM      1  C   UNL     1     -35.076  -4.376 -13.203  1.00  0.00     0.019 A 
ATOM      2  C   UNL     1     -36.360  -4.866 -13.438  1.00  0.00     0.094 A 
ATOM      3  C   UNL     1     -37.346  -4.679 -12.463  1.00  0.00     0.336 A 
ATOM      4  O   UNL     1     -38.512  -5.114 -12.657  1.00  0.00    -0.246 OA
ATOM      5  O   UNL     1     -37.059  -4.044 -11.329  1.00  0.00    -0.423 OA
ATOM      6  C   UNL     1     -35.848  -3.561 -11.065  1.00  0.00     0.142 A 
ATOM      7  C   UNL     1     -35.606  -2.903  -9.856  1.00  0.00     0.098 A 
ATOM      8  C   UNL     1     -34.330  -2.392  -9.572  1.00  0.00     0.161 A 
ATOM      9  C   UNL     1     -33.293  -2.542 -10.504  1.00  0.00     0.158 A 
ATOM     10  C   UNL     1     -33.529  -3.202 -11.719  1.00  0.00     0.062 A 
ATOM     11  C   UNL     1     -34.804  -3.712 -12.002  1.00  0.00     0.022 A 
ENDROOT
BRANCH   9  12
ATOM     12  O   UNL     1     -32.028  -2.031 -10.215  1.00  0.00    -0.504 OA
ATOM     13  H   UNL     1     -31.257  -2.124 -10.866  1.00  0.00     0.293 HD
ENDBRANCH   9  12
BRANCH   8  14
ATOM     14  O   UNL     1     -34.087  -1.735  -8.368  1.00  0.00    -0.504 OA
ATOM     15  H   UNL     1     -33.249  -1.913  -7.826  1.00  0.00     0.293 HD
ENDBRANCH   8  14
TORSDOF 2
ENDMDL
MODEL 6
REMARK VINA RESULT:    -5.144      1.561      2.810
REMARK INTER + INTRA:          -5.445
REMARK INTER:                  -5.445
REMARK INTRA:                   0.000
REMARK UNBOUND:                 0.000
REMARK SMILES O=c1ccc2cc(O)c(O)cc2o1
REMARK SMILES IDX 4 1 3 2 2 3 1 4 13 5 12 6 11 7 9 8 7 9 6 10 5 11 8 12 10 14
REMARK H PARENT 8 13 10 15
REMARK Flexibility Score: inf
ROOT
ATOM      1  C   UNL     1     -37.047  -4.119 -11.366  1.00  0.00     0.019 A 
ATOM      2  C   UNL     1     -37.213  -4.792 -12.576  1.00  0.00     0.094 A 
ATOM      3  C   UNL     1     -36.120  -4.907 -13.443  1.00  0.00     0.336 A 
ATOM      4  O   UNL     1     -36.249  -5.510 -14.541  1.00  0.00    -0.246 OA
ATOM      5  O   UNL     1     -34.943  -4.379 -13.116  1.00  0.00    -0.423 OA
ATOM      6  C   UNL     1     -34.742  -3.730 -11.972  1.00  0.00     0.142 A 
ATOM      7  C   UNL     1     -33.483  -3.197 -11.682  1.00  0.00     0.098 A 
ATOM      8  C   UNL     1     -33.266  -2.512 -10.477  1.00  0.00     0.161 A 
ATOM      9  C   UNL     1     -34.315  -2.359  -9.559  1.00  0.00     0.158 A 
ATOM     10  C   UNL     1     -35.581  -2.891  -9.844  1.00  0.00     0.062 A 
ATOM     11  C   UNL     1     -35.798  -3.576 -11.048  1.00  0.00     0.022 A 
ENDROOT
BRANCH   9  12
ATOM     12  O   UNL     1     -34.091  -1.676  -8.365  1.00  0.00    -0.504 OA
ATOM     13  H   UNL     1     -34.617  -1.891  -7.525  1.00  0.00     0.293 HD
ENDBRANCH   9  12
BRANCH   8  14
ATOM     14  O   UNL     1     -32.011  -1.980 -10.186  1.00  0.00    -0.504 OA
ATOM     15  H   UNL     1     -31.268  -2.553  -9.802  1.00  0.00     0.293 HD
ENDBRANCH   8  14
TORSDOF 2
ENDMDL
MODEL 7
REMARK VINA RESULT:    -5.108     13.433     14.634
REMARK INTER + INTRA:          -5.407
REMARK INTER:                  -5.407
REMARK INTRA:                   0.000
REMARK UNBOUND:                 0.000
REMARK SMILES O=c1ccc2cc(O)c(O)cc2o1
REMARK SMILES IDX 4 1 3 2 2 3 1 4 13 5 12 6 11 7 9 8 7 9 6 10 5 11 8 12 10 14
REMARK H PARENT 8 13 10 15
REMARK Flexibility Score: inf
ROOT
ATOM      1  C   UNL     1     -20.152  -7.638  -8.748  1.00  0.00     0.019 A 
ATOM      2  C   UNL     1     -19.519  -8.277  -7.682  1.00  0.00     0.094 A 
ATOM      3  C   UNL     1     -19.803  -7.860  -6.377  1.00  0.00     0.336 A 
ATOM      4  O   UNL     1     -19.242  -8.424  -5.401  1.00  0.00    -0.246 OA
ATOM      5  O   UNL     1     -20.664  -6.868  -6.159  1.00  0.00    -0.423 OA
ATOM      6  C   UNL     1     -21.289  -6.232  -7.147  1.00  0.00     0.142 A 
ATOM      7  C   UNL     1     -22.182  -5.198  -6.857  1.00  0.00     0.098 A 
ATOM      8  C   UNL     1     -22.845  -4.524  -7.895  1.00  0.00     0.161 A 
ATOM      9  C   UNL     1     -22.610  -4.889  -9.228  1.00  0.00     0.158 A 
ATOM     10  C   UNL     1     -21.714  -5.926  -9.526  1.00  0.00     0.062 A 
ATOM     11  C   UNL     1     -21.052  -6.599  -8.489  1.00  0.00     0.022 A 
ENDROOT
BRANCH   9  12
ATOM     12  O   UNL     1     -23.271  -4.214 -10.254  1.00  0.00    -0.504 OA
ATOM     13  H   UNL     1     -24.241  -4.407 -10.475  1.00  0.00     0.293 HD
ENDBRANCH   9  12
BRANCH   8  14
ATOM     14  O   UNL     1     -23.737  -3.493  -7.608  1.00  0.00    -0.504 OA
ATOM     15  H   UNL     1     -24.050  -3.309  -6.662  1.00  0.00     0.293 HD
ENDBRANCH   8  14
TORSDOF 2
ENDMDL
MODEL 8
REMARK VINA RESULT:    -4.953     13.198     13.851
REMARK INTER + INTRA:          -5.243
REMARK INTER:                  -5.243
REMARK INTRA:                   0.000
REMARK UNBOUND:                 0.000
REMARK SMILES O=c1ccc2cc(O)c(O)cc2o1
REMARK SMILES IDX 4 1 3 2 2 3 1 4 13 5 12 6 11 7 9 8 7 9 6 10 5 11 8 12 10 14
REMARK H PARENT 8 13 10 15
REMARK Flexibility Score: inf
ROOT
ATOM      1  C   UNL     1     -22.076  -3.457  -6.440  1.00  0.00     0.019 A 
ATOM      2  C   UNL     1     -22.199  -4.409  -5.429  1.00  0.00     0.094 A 
ATOM      3  C   UNL     1     -22.320  -5.758  -5.778  1.00  0.00     0.336 A 
ATOM      4  O   UNL     1     -22.433  -6.633  -4.879  1.00  0.00    -0.246 OA
ATOM      5  O   UNL     1     -22.320  -6.125  -7.058  1.00  0.00    -0.423 OA
ATOM      6  C   UNL     1     -22.205  -5.250  -8.053  1.00  0.00     0.142 A 
ATOM      7  C   UNL     1     -22.210  -5.694  -9.379  1.00  0.00     0.098 A 
ATOM      8  C   UNL     1     -22.089  -4.775 -10.433  1.00  0.00     0.161 A 
ATOM      9  C   UNL     1     -21.962  -3.406 -10.157  1.00  0.00     0.158 A 
ATOM     10  C   UNL     1     -21.956  -2.954  -8.829  1.00  0.00     0.062 A 
ATOM     11  C   UNL     1     -22.077  -3.871  -7.776  1.00  0.00     0.022 A 
ENDROOT
BRANCH   9  12
ATOM     12  O   UNL     1     -21.842  -2.500 -11.210  1.00  0.00    -0.504 OA
ATOM     13  H   UNL     1     -22.512  -1.751 -11.343  1.00  0.00     0.293 HD
ENDBRANCH   9  12
BRANCH   8  14
ATOM     14  O   UNL     1     -22.093  -5.216 -11.754  1.00  0.00    -0.504 OA
ATOM     15  H   UNL     1     -21.498  -5.976 -12.063  1.00  0.00     0.293 HD
ENDBRANCH   8  14
TORSDOF 2
ENDMDL
MODEL 9
REMARK VINA RESULT:    -4.932      1.993      4.065
REMARK INTER + INTRA:          -5.221
REMARK INTER:                  -5.221
REMARK INTRA:                   0.000
REMARK UNBOUND:                 0.000
REMARK SMILES O=c1ccc2cc(O)c(O)cc2o1
REMARK SMILES IDX 4 1 3 2 2 3 1 4 13 5 12 6 11 7 9 8 7 9 6 10 5 11 8 12 10 14
REMARK H PARENT 8 13 10 15
REMARK Flexibility Score: inf
ROOT
ATOM      1  C   UNL     1     -36.099  -2.423  -8.270  1.00  0.00     0.019 A 
ATOM      2  C   UNL     1     -37.247  -3.132  -7.919  1.00  0.00     0.094 A 
ATOM      3  C   UNL     1     -37.690  -4.162  -8.756  1.00  0.00     0.336 A 
ATOM      4  O   UNL     1     -38.725  -4.813  -8.457  1.00  0.00    -0.246 OA
ATOM      5  O   UNL     1     -37.024  -4.457  -9.870  1.00  0.00    -0.423 OA
ATOM      6  C   UNL     1     -35.925  -3.806 -10.242  1.00  0.00     0.142 A 
ATOM      7  C   UNL     1     -35.268  -4.161 -11.423  1.00  0.00     0.098 A 
ATOM      8  C   UNL     1     -34.108  -3.478 -11.820  1.00  0.00     0.161 A 
ATOM      9  C   UNL     1     -33.605  -2.435 -11.029  1.00  0.00     0.158 A 
ATOM     10  C   UNL     1     -34.260  -2.073  -9.843  1.00  0.00     0.062 A 
ATOM     11  C   UNL     1     -35.419  -2.756  -9.446  1.00  0.00     0.022 A 
ENDROOT
BRANCH   9  12
ATOM     12  O   UNL     1     -32.452  -1.761 -11.430  1.00  0.00    -0.504 OA
ATOM     13  H   UNL     1     -31.577  -1.866 -10.931  1.00  0.00     0.293 HD
ENDBRANCH   9  12
BRANCH   8  14
ATOM     14  O   UNL     1     -33.451  -3.831 -12.996  1.00  0.00    -0.504 OA
ATOM     15  H   UNL     1     -33.807  -4.559 -13.605  1.00  0.00     0.293 HD
ENDBRANCH   8  14
TORSDOF 2
ENDMDL
