MODEL 1
REMARK VINA RESULT:    -5.266      0.000      0.000
REMARK INTER + INTRA:          -9.625
REMARK INTER:                  -8.191
REMARK INTRA:                  -1.434
REMARK UNBOUND:                -1.434
REMARK SMILES COc1cc(CNC(=O)CCCCC=CC(C)C)ccc1O
REMARK SMILES IDX 11 1 12 2 13 3 14 4 15 5 16 6 17 7 18 8 10 9 8 10 9 11 7 12
REMARK SMILES IDX 6 14 5 15 4 16 19 17 3 18 20 19 21 20 2 21 1 22 22 23
REMARK H PARENT 7 13 22 24
REMARK Flexibility Score: inf
ROOT
ATOM      1  C   UNL     1      31.669   6.664  28.166  1.00  0.00     0.010 C 
ENDROOT
BRANCH   1   2
ATOM      2  C   UNL     1      31.271   6.642  29.656  1.00  0.00     0.005 C 
BRANCH   2   3
ATOM      3  C   UNL     1      30.725   7.980  30.184  1.00  0.00     0.027 C 
BRANCH   3   4
ATOM      4  C   UNL     1      31.160   8.254  31.603  1.00  0.00    -0.031 C 
ATOM      5  C   UNL     1      31.279   9.478  32.149  1.00  0.00    -0.028 C 
BRANCH   5   6
ATOM      6  C   UNL     1      30.904  10.773  31.456  1.00  0.00     0.005 C 
ATOM      7  C   UNL     1      29.467  11.158  31.816  1.00  0.00     0.012 C 
ATOM      8  C   UNL     1      31.876  11.883  31.863  1.00  0.00     0.012 C 
ENDBRANCH   5   6
ENDBRANCH   3   4
ENDBRANCH   2   3
ENDBRANCH   1   2
BRANCH   1   9
ATOM      9  C   UNL     1      30.643   6.012  27.225  1.00  0.00     0.100 C 
BRANCH   9  10
ATOM     10  C   UNL     1      29.933   7.029  26.380  1.00  0.00     0.220 C 
ATOM     11  O   UNL     1      30.147   7.059  25.138  1.00  0.00    -0.275 OA
ATOM     12  N   UNL     1      29.047   7.982  26.985  1.00  0.00    -0.352 N 
ATOM     13  H   UNL     1      28.911   7.966  28.021  1.00  0.00     0.163 HD
BRANCH  12  14
ATOM     14  C   UNL     1      28.337   8.994  26.208  1.00  0.00     0.151 C 
BRANCH  14  15
ATOM     15  C   UNL     1      28.874  10.365  26.523  1.00  0.00    -0.025 A 
ATOM     16  C   UNL     1      28.883  11.358  25.531  1.00  0.00     0.056 A 
ATOM     17  C   UNL     1      29.394  10.653  27.792  1.00  0.00     0.009 A 
ATOM     18  C   UNL     1      29.404  12.639  25.804  1.00  0.00     0.160 A 
ATOM     19  C   UNL     1      29.908  11.920  28.069  1.00  0.00     0.050 A 
ATOM     20  C   UNL     1      29.915  12.914  27.086  1.00  0.00     0.157 A 
BRANCH  18  21
ATOM     21  O   UNL     1      29.427  13.654  24.834  1.00  0.00    -0.493 OA
ATOM     22  C   UNL     1      29.845  13.472  23.484  1.00  0.00     0.278 C 
ENDBRANCH  18  21
BRANCH  20  23
ATOM     23  O   UNL     1      30.438  14.168  27.399  1.00  0.00    -0.504 OA
ATOM     24  H   UNL     1      29.985  14.794  28.054  1.00  0.00     0.293 HD
ENDBRANCH  20  23
ENDBRANCH  14  15
ENDBRANCH  12  14
ENDBRANCH   9  10
ENDBRANCH   1   9
TORSDOF 10
ENDMDL
MODEL 2
REMARK VINA RESULT:    -5.084      3.041      5.699
REMARK INTER + INTRA:          -9.342
REMARK INTER:                  -7.973
REMARK INTRA:                  -1.369
REMARK UNBOUND:                -1.434
REMARK SMILES COc1cc(CNC(=O)CCCCC=CC(C)C)ccc1O
REMARK SMILES IDX 11 1 12 2 13 3 14 4 15 5 16 6 17 7 18 8 10 9 8 10 9 11 7 12
REMARK SMILES IDX 6 14 5 15 4 16 19 17 3 18 20 19 21 20 2 21 1 22 22 23
REMARK H PARENT 7 13 22 24
REMARK Flexibility Score: inf
ROOT
ATOM      1  C   UNL     1      31.883  10.215  33.645  1.00  0.00     0.010 C 
ENDROOT
BRANCH   1   2
ATOM      2  C   UNL     1      32.151   8.893  32.899  1.00  0.00     0.005 C 
BRANCH   2   3
ATOM      3  C   UNL     1      31.065   7.821  33.101  1.00  0.00     0.027 C 
BRANCH   3   4
ATOM      4  C   UNL     1      31.514   6.722  34.033  1.00  0.00    -0.031 C 
ATOM      5  C   UNL     1      31.365   6.739  35.370  1.00  0.00    -0.028 C 
BRANCH   5   6
ATOM      6  C   UNL     1      30.639   7.819  36.145  1.00  0.00     0.005 C 
ATOM      7  C   UNL     1      29.460   7.208  36.908  1.00  0.00     0.012 C 
ATOM      8  C   UNL     1      31.605   8.508  37.112  1.00  0.00     0.012 C 
ENDBRANCH   5   6
ENDBRANCH   3   4
ENDBRANCH   2   3
ENDBRANCH   1   2
BRANCH   1   9
ATOM      9  C   UNL     1      32.572  11.443  33.029  1.00  0.00     0.100 C 
BRANCH   9  10
ATOM     10  C   UNL     1      31.837  11.951  31.823  1.00  0.00     0.220 C 
ATOM     11  O   UNL     1      32.470  12.575  30.930  1.00  0.00    -0.275 OA
ATOM     12  N   UNL     1      30.419  11.761  31.706  1.00  0.00    -0.352 N 
ATOM     13  H   UNL     1      29.905  11.274  32.475  1.00  0.00     0.163 HD
BRANCH  12  14
ATOM     14  C   UNL     1      29.657  12.241  30.557  1.00  0.00     0.151 C 
BRANCH  14  15
ATOM     15  C   UNL     1      29.635  11.197  29.472  1.00  0.00    -0.025 A 
ATOM     16  C   UNL     1      29.796   9.842  29.801  1.00  0.00     0.056 A 
ATOM     17  C   UNL     1      29.485  11.568  28.129  1.00  0.00     0.009 A 
ATOM     18  C   UNL     1      29.801   8.855  28.795  1.00  0.00     0.160 A 
ATOM     19  C   UNL     1      29.487  10.595  27.128  1.00  0.00     0.050 A 
ATOM     20  C   UNL     1      29.642   9.244  27.452  1.00  0.00     0.157 A 
BRANCH  18  21
ATOM     21  O   UNL     1      29.959   7.492  29.091  1.00  0.00    -0.493 OA
ATOM     22  C   UNL     1      31.187   6.889  29.489  1.00  0.00     0.278 C 
ENDBRANCH  18  21
BRANCH  20  23
ATOM     23  O   UNL     1      29.640   8.301  26.424  1.00  0.00    -0.504 OA
ATOM     24  H   UNL     1      29.334   7.346  26.568  1.00  0.00     0.293 HD
ENDBRANCH  20  23
ENDBRANCH  14  15
ENDBRANCH  12  14
ENDBRANCH   9  10
ENDBRANCH   1   9
TORSDOF 10
ENDMDL
MODEL 3
REMARK VINA RESULT:    -5.004      1.467      1.946
REMARK INTER + INTRA:          -9.217
REMARK INTER:                  -7.955
REMARK INTRA:                  -1.262
REMARK UNBOUND:                -1.434
REMARK SMILES COc1cc(CNC(=O)CCCCC=CC(C)C)ccc1O
REMARK SMILES IDX 11 1 12 2 13 3 14 4 15 5 16 6 17 7 18 8 10 9 8 10 9 11 7 12
REMARK SMILES IDX 6 14 5 15 4 16 19 17 3 18 20 19 21 20 2 21 1 22 22 23
REMARK H PARENT 7 13 22 24
REMARK Flexibility Score: inf
ROOT
ATOM      1  C   UNL     1      31.782   6.521  28.541  1.00  0.00     0.010 C 
ENDROOT
BRANCH   1   2
ATOM      2  C   UNL     1      31.308   5.875  29.858  1.00  0.00     0.005 C 
BRANCH   2   3
ATOM      3  C   UNL     1      31.382   6.805  31.082  1.00  0.00     0.027 C 
BRANCH   3   4
ATOM      4  C   UNL     1      30.782   8.162  30.805  1.00  0.00    -0.031 C 
ATOM      5  C   UNL     1      30.972   9.257  31.564  1.00  0.00    -0.028 C 
BRANCH   5   6
ATOM      6  C   UNL     1      31.895   9.327  32.763  1.00  0.00     0.005 C 
ATOM      7  C   UNL     1      32.489  10.733  32.880  1.00  0.00     0.012 C 
ATOM      8  C   UNL     1      31.126   8.962  34.036  1.00  0.00     0.012 C 
ENDBRANCH   5   6
ENDBRANCH   3   4
ENDBRANCH   2   3
ENDBRANCH   1   2
BRANCH   1   9
ATOM      9  C   UNL     1      31.079   5.988  27.283  1.00  0.00     0.100 C 
BRANCH   9  10
ATOM     10  C   UNL     1      30.259   7.048  26.607  1.00  0.00     0.220 C 
ATOM     11  O   UNL     1      29.171   6.731  26.055  1.00  0.00    -0.275 OA
ATOM     12  N   UNL     1      30.727   8.404  26.558  1.00  0.00    -0.352 N 
ATOM     13  H   UNL     1      31.649   8.641  26.989  1.00  0.00     0.163 HD
BRANCH  12  14
ATOM     14  C   UNL     1      29.970   9.471  25.909  1.00  0.00     0.151 C 
BRANCH  14  15
ATOM     15  C   UNL     1      29.625  10.546  26.905  1.00  0.00    -0.025 A 
ATOM     16  C   UNL     1      29.853  11.894  26.587  1.00  0.00     0.056 A 
ATOM     17  C   UNL     1      29.105  10.212  28.163  1.00  0.00     0.009 A 
ATOM     18  C   UNL     1      29.556  12.911  27.517  1.00  0.00     0.160 A 
ATOM     19  C   UNL     1      28.807  11.214  29.088  1.00  0.00     0.050 A 
ATOM     20  C   UNL     1      29.028  12.558  28.773  1.00  0.00     0.157 A 
BRANCH  18  21
ATOM     21  O   UNL     1      29.771  14.268  27.230  1.00  0.00    -0.493 OA
ATOM     22  C   UNL     1      28.841  15.107  26.552  1.00  0.00     0.278 C 
ENDBRANCH  18  21
BRANCH  20  23
ATOM     23  O   UNL     1      28.719  13.532  29.723  1.00  0.00    -0.504 OA
ATOM     24  H   UNL     1      27.929  14.157  29.619  1.00  0.00     0.293 HD
ENDBRANCH  20  23
ENDBRANCH  14  15
ENDBRANCH  12  14
ENDBRANCH   9  10
ENDBRANCH   1   9
TORSDOF 10
ENDMDL
MODEL 4
REMARK VINA RESULT:    -4.998      1.761      2.253
REMARK INTER + INTRA:          -9.208
REMARK INTER:                  -7.411
REMARK INTRA:                  -1.796
REMARK UNBOUND:                -1.434
REMARK SMILES COc1cc(CNC(=O)CCCCC=CC(C)C)ccc1O
REMARK SMILES IDX 11 1 12 2 13 3 14 4 15 5 16 6 17 7 18 8 10 9 8 10 9 11 7 12
REMARK SMILES IDX 6 14 5 15 4 16 19 17 3 18 20 19 21 20 2 21 1 22 22 23
REMARK H PARENT 7 13 22 24
REMARK Flexibility Score: inf
ROOT
ATOM      1  C   UNL     1      31.778   6.690  28.220  1.00  0.00     0.010 C 
ENDROOT
BRANCH   1   2
ATOM      2  C   UNL     1      31.069   6.484  29.573  1.00  0.00     0.005 C 
BRANCH   2   3
ATOM      3  C   UNL     1      30.962   7.756  30.432  1.00  0.00     0.027 C 
BRANCH   3   4
ATOM      4  C   UNL     1      30.134   8.827  29.764  1.00  0.00    -0.031 C 
ATOM      5  C   UNL     1      29.999  10.088  30.215  1.00  0.00    -0.028 C 
BRANCH   5   6
ATOM      6  C   UNL     1      30.731  10.661  31.411  1.00  0.00     0.005 C 
ATOM      7  C   UNL     1      31.292  12.043  31.064  1.00  0.00     0.012 C 
ATOM      8  C   UNL     1      29.784  10.751  32.610  1.00  0.00     0.012 C 
ENDBRANCH   5   6
ENDBRANCH   3   4
ENDBRANCH   2   3
ENDBRANCH   1   2
BRANCH   1   9
ATOM      9  C   UNL     1      31.046   6.071  27.018  1.00  0.00     0.100 C 
BRANCH   9  10
ATOM     10  C   UNL     1      29.825   6.856  26.640  1.00  0.00     0.220 C 
ATOM     11  O   UNL     1      28.700   6.286  26.631  1.00  0.00    -0.275 OA
ATOM     12  N   UNL     1      29.940   8.235  26.258  1.00  0.00    -0.352 N 
ATOM     13  H   UNL     1      30.885   8.680  26.235  1.00  0.00     0.163 HD
BRANCH  12  14
ATOM     14  C   UNL     1      28.784   9.041  25.876  1.00  0.00     0.151 C 
BRANCH  14  15
ATOM     15  C   UNL     1      28.807  10.361  26.600  1.00  0.00    -0.025 A 
ATOM     16  C   UNL     1      27.643  10.839  27.222  1.00  0.00     0.056 A 
ATOM     17  C   UNL     1      29.975  11.135  26.633  1.00  0.00     0.009 A 
ATOM     18  C   UNL     1      27.644  12.084  27.884  1.00  0.00     0.160 A 
ATOM     19  C   UNL     1      29.983  12.367  27.288  1.00  0.00     0.050 A 
ATOM     20  C   UNL     1      28.827  12.845  27.914  1.00  0.00     0.157 A 
BRANCH  18  21
ATOM     21  O   UNL     1      26.497  12.590  28.517  1.00  0.00    -0.493 OA
ATOM     22  C   UNL     1      25.387  13.166  27.836  1.00  0.00     0.278 C 
ENDBRANCH  18  21
BRANCH  20  23
ATOM     23  O   UNL     1      28.872  14.081  28.558  1.00  0.00    -0.504 OA
ATOM     24  H   UNL     1      28.175  14.799  28.399  1.00  0.00     0.293 HD
ENDBRANCH  20  23
ENDBRANCH  14  15
ENDBRANCH  12  14
ENDBRANCH   9  10
ENDBRANCH   1   9
TORSDOF 10
ENDMDL
MODEL 5
REMARK VINA RESULT:    -4.942      2.189      3.491
REMARK INTER + INTRA:          -9.120
REMARK INTER:                  -7.965
REMARK INTRA:                  -1.155
REMARK UNBOUND:                -1.434
REMARK SMILES COc1cc(CNC(=O)CCCCC=CC(C)C)ccc1O
REMARK SMILES IDX 11 1 12 2 13 3 14 4 15 5 16 6 17 7 18 8 10 9 8 10 9 11 7 12
REMARK SMILES IDX 6 14 5 15 4 16 19 17 3 18 20 19 21 20 2 21 1 22 22 23
REMARK H PARENT 7 13 22 24
REMARK Flexibility Score: inf
ROOT
ATOM      1  C   UNL     1      30.441   6.770  30.752  1.00  0.00     0.010 C 
ENDROOT
BRANCH   1   2
ATOM      2  C   UNL     1      30.891   8.207  31.084  1.00  0.00     0.005 C 
BRANCH   2   3
ATOM      3  C   UNL     1      31.539   8.363  32.470  1.00  0.00     0.027 C 
BRANCH   3   4
ATOM      4  C   UNL     1      31.880   7.031  33.094  1.00  0.00    -0.031 C 
ATOM      5  C   UNL     1      31.579   6.673  34.355  1.00  0.00    -0.028 C 
BRANCH   5   6
ATOM      6  C   UNL     1      30.767   7.511  35.321  1.00  0.00     0.005 C 
ATOM      7  C   UNL     1      29.294   7.098  35.257  1.00  0.00     0.012 C 
ATOM      8  C   UNL     1      31.310   7.345  36.743  1.00  0.00     0.012 C 
ENDBRANCH   5   6
ENDBRANCH   3   4
ENDBRANCH   2   3
ENDBRANCH   1   2
BRANCH   1   9
ATOM      9  C   UNL     1      31.111   6.167  29.507  1.00  0.00     0.100 C 
BRANCH   9  10
ATOM     10  C   UNL     1      30.822   6.967  28.271  1.00  0.00     0.220 C 
ATOM     11  O   UNL     1      31.748   7.185  27.444  1.00  0.00    -0.275 OA
ATOM     12  N   UNL     1      29.512   7.511  28.051  1.00  0.00    -0.352 N 
ATOM     13  H   UNL     1      28.767   7.351  28.766  1.00  0.00     0.163 HD
BRANCH  12  14
ATOM     14  C   UNL     1      29.181   8.301  26.868  1.00  0.00     0.151 C 
BRANCH  14  15
ATOM     15  C   UNL     1      29.562   9.742  27.079  1.00  0.00    -0.025 A 
ATOM     16  C   UNL     1      29.458  10.314  28.357  1.00  0.00     0.056 A 
ATOM     17  C   UNL     1      29.993  10.530  26.003  1.00  0.00     0.009 A 
ATOM     18  C   UNL     1      29.790  11.668  28.565  1.00  0.00     0.160 A 
ATOM     19  C   UNL     1      30.325  11.870  26.203  1.00  0.00     0.050 A 
ATOM     20  C   UNL     1      30.228  12.443  27.475  1.00  0.00     0.157 A 
BRANCH  18  21
ATOM     21  O   UNL     1      29.697  12.270  29.830  1.00  0.00    -0.493 OA
ATOM     22  C   UNL     1      30.530  11.948  30.940  1.00  0.00     0.278 C 
ENDBRANCH  18  21
BRANCH  20  23
ATOM     23  O   UNL     1      30.567  13.786  27.636  1.00  0.00    -0.504 OA
ATOM     24  H   UNL     1      31.527  14.092  27.742  1.00  0.00     0.293 HD
ENDBRANCH  20  23
ENDBRANCH  14  15
ENDBRANCH  12  14
ENDBRANCH   9  10
ENDBRANCH   1   9
TORSDOF 10
ENDMDL
MODEL 6
REMARK VINA RESULT:    -4.919      2.676      4.516
REMARK INTER + INTRA:          -9.085
REMARK INTER:                  -7.970
REMARK INTRA:                  -1.115
REMARK UNBOUND:                -1.434
REMARK SMILES COc1cc(CNC(=O)CCCCC=CC(C)C)ccc1O
REMARK SMILES IDX 11 1 12 2 13 3 14 4 15 5 16 6 17 7 18 8 10 9 8 10 9 11 7 12
REMARK SMILES IDX 6 14 5 15 4 16 19 17 3 18 20 19 21 20 2 21 1 22 22 23
REMARK H PARENT 7 13 22 24
REMARK Flexibility Score: inf
ROOT
ATOM      1  C   UNL     1      31.006   7.955  31.492  1.00  0.00     0.010 C 
ENDROOT
BRANCH   1   2
ATOM      2  C   UNL     1      30.728   6.968  32.644  1.00  0.00     0.005 C 
BRANCH   2   3
ATOM      3  C   UNL     1      31.852   6.886  33.691  1.00  0.00     0.027 C 
BRANCH   3   4
ATOM      4  C   UNL     1      31.319   6.651  35.084  1.00  0.00    -0.031 C 
ATOM      5  C   UNL     1      31.131   7.611  36.008  1.00  0.00    -0.028 C 
BRANCH   5   6
ATOM      6  C   UNL     1      31.334   9.093  35.767  1.00  0.00     0.005 C 
ATOM      7  C   UNL     1      29.992   9.755  35.442  1.00  0.00     0.012 C 
ATOM      8  C   UNL     1      31.967   9.741  37.001  1.00  0.00     0.012 C 
ENDBRANCH   5   6
ENDBRANCH   3   4
ENDBRANCH   2   3
ENDBRANCH   1   2
BRANCH   1   9
ATOM      9  C   UNL     1      31.012   9.434  31.911  1.00  0.00     0.100 C 
BRANCH   9  10
ATOM     10  C   UNL     1      30.437  10.321  30.845  1.00  0.00     0.220 C 
ATOM     11  O   UNL     1      30.790  11.530  30.789  1.00  0.00    -0.275 OA
ATOM     12  N   UNL     1      29.467   9.806  29.921  1.00  0.00    -0.352 N 
ATOM     13  H   UNL     1      29.158   8.812  30.007  1.00  0.00     0.163 HD
BRANCH  12  14
ATOM     14  C   UNL     1      28.874  10.628  28.870  1.00  0.00     0.151 C 
BRANCH  14  15
ATOM     15  C   UNL     1      29.553  10.362  27.553  1.00  0.00    -0.025 A 
ATOM     16  C   UNL     1      29.778   9.041  27.136  1.00  0.00     0.056 A 
ATOM     17  C   UNL     1      29.992  11.424  26.750  1.00  0.00     0.009 A 
ATOM     18  C   UNL     1      30.434   8.776  25.916  1.00  0.00     0.160 A 
ATOM     19  C   UNL     1      30.640  11.169  25.541  1.00  0.00     0.050 A 
ATOM     20  C   UNL     1      30.862   9.854  25.119  1.00  0.00     0.157 A 
BRANCH  18  21
ATOM     21  O   UNL     1      30.673   7.467  25.470  1.00  0.00    -0.493 OA
ATOM     22  C   UNL     1      29.786   6.721  24.641  1.00  0.00     0.278 C 
ENDBRANCH  18  21
BRANCH  20  23
ATOM     23  O   UNL     1      31.513   9.638  23.905  1.00  0.00    -0.504 OA
ATOM     24  H   UNL     1      32.032   8.789  23.714  1.00  0.00     0.293 HD
ENDBRANCH  20  23
ENDBRANCH  14  15
ENDBRANCH  12  14
ENDBRANCH   9  10
ENDBRANCH   1   9
TORSDOF 10
ENDMDL
MODEL 7
REMARK VINA RESULT:    -4.915      2.697      5.572
REMARK INTER + INTRA:          -9.079
REMARK INTER:                  -8.223
REMARK INTRA:                  -0.856
REMARK UNBOUND:                -1.434
REMARK SMILES COc1cc(CNC(=O)CCCCC=CC(C)C)ccc1O
REMARK SMILES IDX 11 1 12 2 13 3 14 4 15 5 16 6 17 7 18 8 10 9 8 10 9 11 7 12
REMARK SMILES IDX 6 14 5 15 4 16 19 17 3 18 20 19 21 20 2 21 1 22 22 23
REMARK H PARENT 7 13 22 24
REMARK Flexibility Score: inf
ROOT
ATOM      1  C   UNL     1      32.271  11.702  32.902  1.00  0.00     0.010 C 
ENDROOT
BRANCH   1   2
ATOM      2  C   UNL     1      33.105  10.415  33.058  1.00  0.00     0.005 C 
BRANCH   2   3
ATOM      3  C   UNL     1      32.269   9.148  33.312  1.00  0.00     0.027 C 
BRANCH   3   4
ATOM      4  C   UNL     1      31.307   9.319  34.462  1.00  0.00    -0.031 C 
ATOM      5  C   UNL     1      30.863   8.322  35.249  1.00  0.00    -0.028 C 
BRANCH   5   6
ATOM      6  C   UNL     1      31.331   6.883  35.167  1.00  0.00     0.005 C 
ATOM      7  C   UNL     1      31.502   6.312  36.577  1.00  0.00     0.012 C 
ATOM      8  C   UNL     1      30.324   6.051  34.369  1.00  0.00     0.012 C 
ENDBRANCH   5   6
ENDBRANCH   3   4
ENDBRANCH   2   3
ENDBRANCH   1   2
BRANCH   1   9
ATOM      9  C   UNL     1      32.070  12.156  31.447  1.00  0.00     0.100 C 
BRANCH   9  10
ATOM     10  C   UNL     1      30.662  11.932  30.979  1.00  0.00     0.220 C 
ATOM     11  O   UNL     1      29.835  11.375  31.750  1.00  0.00    -0.275 OA
ATOM     12  N   UNL     1      30.271  12.314  29.652  1.00  0.00    -0.352 N 
ATOM     13  H   UNL     1      30.980  12.740  29.014  1.00  0.00     0.163 HD
BRANCH  12  14
ATOM     14  C   UNL     1      28.916  12.113  29.147  1.00  0.00     0.151 C 
BRANCH  14  15
ATOM     15  C   UNL     1      28.873  10.921  28.228  1.00  0.00    -0.025 A 
ATOM     16  C   UNL     1      29.564   9.748  28.570  1.00  0.00     0.056 A 
ATOM     17  C   UNL     1      28.173  10.980  27.015  1.00  0.00     0.009 A 
ATOM     18  C   UNL     1      29.552   8.631  27.710  1.00  0.00     0.160 A 
ATOM     19  C   UNL     1      28.155   9.877  26.160  1.00  0.00     0.050 A 
ATOM     20  C   UNL     1      28.838   8.705  26.500  1.00  0.00     0.157 A 
BRANCH  18  21
ATOM     21  O   UNL     1      30.232   7.443  28.023  1.00  0.00    -0.493 OA
ATOM     22  C   UNL     1      31.079   7.273  29.156  1.00  0.00     0.278 C 
ENDBRANCH  18  21
BRANCH  20  23
ATOM     23  O   UNL     1      28.799   7.624  25.619  1.00  0.00    -0.504 OA
ATOM     24  H   UNL     1      27.983   7.031  25.528  1.00  0.00     0.293 HD
ENDBRANCH  20  23
ENDBRANCH  14  15
ENDBRANCH  12  14
ENDBRANCH   9  10
ENDBRANCH   1   9
TORSDOF 10
ENDMDL
MODEL 8
REMARK VINA RESULT:    -4.822      1.570      2.213
REMARK INTER + INTRA:          -8.933
REMARK INTER:                  -8.058
REMARK INTRA:                  -0.875
REMARK UNBOUND:                -1.434
REMARK SMILES COc1cc(CNC(=O)CCCCC=CC(C)C)ccc1O
REMARK SMILES IDX 11 1 12 2 13 3 14 4 15 5 16 6 17 7 18 8 10 9 8 10 9 11 7 12
REMARK SMILES IDX 6 14 5 15 4 16 19 17 3 18 20 19 21 20 2 21 1 22 22 23
REMARK H PARENT 7 13 22 24
REMARK Flexibility Score: inf
ROOT
ATOM      1  C   UNL     1      31.514   6.854  28.584  1.00  0.00     0.010 C 
ENDROOT
BRANCH   1   2
ATOM      2  C   UNL     1      31.644   6.125  29.936  1.00  0.00     0.005 C 
BRANCH   2   3
ATOM      3  C   UNL     1      30.900   6.808  31.097  1.00  0.00     0.027 C 
BRANCH   3   4
ATOM      4  C   UNL     1      30.707   8.286  30.860  1.00  0.00    -0.031 C 
ATOM      5  C   UNL     1      31.135   9.259  31.686  1.00  0.00    -0.028 C 
BRANCH   5   6
ATOM      6  C   UNL     1      31.960   9.032  32.936  1.00  0.00     0.005 C 
ATOM      7  C   UNL     1      32.943  10.190  33.127  1.00  0.00     0.012 C 
ATOM      8  C   UNL     1      31.041   8.900  34.153  1.00  0.00     0.012 C 
ENDBRANCH   5   6
ENDBRANCH   3   4
ENDBRANCH   2   3
ENDBRANCH   1   2
BRANCH   1   9
ATOM      9  C   UNL     1      30.859   6.018  27.472  1.00  0.00     0.100 C 
BRANCH   9  10
ATOM     10  C   UNL     1      29.843   6.809  26.701  1.00  0.00     0.220 C 
ATOM     11  O   UNL     1      29.245   6.269  25.732  1.00  0.00    -0.275 OA
ATOM     12  N   UNL     1      29.581   8.178  27.041  1.00  0.00    -0.352 N 
ATOM     13  H   UNL     1      30.114   8.620  27.824  1.00  0.00     0.163 HD
BRANCH  12  14
ATOM     14  C   UNL     1      28.607   8.992  26.320  1.00  0.00     0.151 C 
BRANCH  14  15
ATOM     15  C   UNL     1      29.305  10.075  25.541  1.00  0.00    -0.025 A 
ATOM     16  C   UNL     1      28.764  11.369  25.501  1.00  0.00     0.056 A 
ATOM     17  C   UNL     1      30.479   9.795  24.828  1.00  0.00     0.009 A 
ATOM     18  C   UNL     1      29.394  12.388  24.758  1.00  0.00     0.160 A 
ATOM     19  C   UNL     1      31.109  10.800  24.092  1.00  0.00     0.050 A 
ATOM     20  C   UNL     1      30.576  12.092  24.054  1.00  0.00     0.157 A 
BRANCH  18  21
ATOM     21  O   UNL     1      28.879  13.692  24.699  1.00  0.00    -0.493 OA
ATOM     22  C   UNL     1      27.847  14.113  23.812  1.00  0.00     0.278 C 
ENDBRANCH  18  21
BRANCH  20  23
ATOM     23  O   UNL     1      31.233  13.070  23.307  1.00  0.00    -0.504 OA
ATOM     24  H   UNL     1      32.133  13.445  23.581  1.00  0.00     0.293 HD
ENDBRANCH  20  23
ENDBRANCH  14  15
ENDBRANCH  12  14
ENDBRANCH   9  10
ENDBRANCH   1   9
TORSDOF 10
ENDMDL
MODEL 9
REMARK VINA RESULT:    -4.784      2.259      4.583
REMARK INTER + INTRA:          -8.875
REMARK INTER:                  -7.444
REMARK INTRA:                  -1.431
REMARK UNBOUND:                -1.434
REMARK SMILES COc1cc(CNC(=O)CCCCC=CC(C)C)ccc1O
REMARK SMILES IDX 11 1 12 2 13 3 14 4 15 5 16 6 17 7 18 8 10 9 8 10 9 11 7 12
REMARK SMILES IDX 6 14 5 15 4 16 19 17 3 18 20 19 21 20 2 21 1 22 22 23
REMARK H PARENT 7 13 22 24
REMARK Flexibility Score: inf
ROOT
ATOM      1  C   UNL     1      30.441   7.832  29.978  1.00  0.00     0.010 C 
ENDROOT
BRANCH   1   2
ATOM      2  C   UNL     1      31.333   6.624  29.630  1.00  0.00     0.005 C 
BRANCH   2   3
ATOM      3  C   UNL     1      31.886   6.638  28.194  1.00  0.00     0.027 C 
BRANCH   3   4
ATOM      4  C   UNL     1      30.890   6.104  27.194  1.00  0.00    -0.031 C 
ATOM      5  C   UNL     1      30.066   6.863  26.448  1.00  0.00    -0.028 C 
BRANCH   5   6
ATOM      6  C   UNL     1      30.072   8.378  26.424  1.00  0.00     0.005 C 
ATOM      7  C   UNL     1      30.967   8.876  25.286  1.00  0.00     0.012 C 
ATOM      8  C   UNL     1      28.644   8.903  26.254  1.00  0.00     0.012 C 
ENDBRANCH   5   6
ENDBRANCH   3   4
ENDBRANCH   2   3
ENDBRANCH   1   2
BRANCH   1   9
ATOM      9  C   UNL     1      30.920   8.647  31.190  1.00  0.00     0.100 C 
BRANCH   9  10
ATOM     10  C   UNL     1      30.306  10.016  31.223  1.00  0.00     0.220 C 
ATOM     11  O   UNL     1      30.771  10.884  32.011  1.00  0.00    -0.275 OA
ATOM     12  N   UNL     1      29.177  10.323  30.393  1.00  0.00    -0.352 N 
ATOM     13  H   UNL     1      28.782   9.580  29.773  1.00  0.00     0.163 HD
BRANCH  12  14
ATOM     14  C   UNL     1      28.540  11.637  30.392  1.00  0.00     0.151 C 
BRANCH  14  15
ATOM     15  C   UNL     1      28.902  12.392  29.140  1.00  0.00    -0.025 A 
ATOM     16  C   UNL     1      28.294  13.627  28.866  1.00  0.00     0.056 A 
ATOM     17  C   UNL     1      29.823  11.858  28.227  1.00  0.00     0.009 A 
ATOM     18  C   UNL     1      28.606  14.334  27.688  1.00  0.00     0.160 A 
ATOM     19  C   UNL     1      30.138  12.554  27.060  1.00  0.00     0.050 A 
ATOM     20  C   UNL     1      29.538  13.787  26.786  1.00  0.00     0.157 A 
BRANCH  18  21
ATOM     21  O   UNL     1      28.016  15.572  27.385  1.00  0.00    -0.493 OA
ATOM     22  C   UNL     1      26.997  16.192  28.163  1.00  0.00     0.278 C 
ENDBRANCH  18  21
BRANCH  20  23
ATOM     23  O   UNL     1      29.877  14.454  25.608  1.00  0.00    -0.504 OA
ATOM     24  H   UNL     1      29.362  15.260  25.277  1.00  0.00     0.293 HD
ENDBRANCH  20  23
ENDBRANCH  14  15
ENDBRANCH  12  14
ENDBRANCH   9  10
ENDBRANCH   1   9
TORSDOF 10
ENDMDL
