MODEL 1
REMARK VINA RESULT:    -3.728      0.000      0.000
REMARK INTER + INTRA:          -4.935
REMARK INTER:                  -4.818
REMARK INTRA:                  -0.116
REMARK UNBOUND:                -0.116
REMARK SMILES CCCCCCC(=O)[O-]
REMARK SMILES IDX 5 1 6 2 7 3 8 4 9 5 4 6 3 7 2 8 1 9
REMARK H PARENT
REMARK Flexibility Score: inf
ROOT
ATOM      1  C   UNL     1      27.427  20.807  59.707  1.00  0.00     0.006 C 
ENDROOT
BRANCH   1   2
ATOM      2  C   UNL     1      26.640  21.083  58.420  1.00  0.00     0.053 C 
BRANCH   2   3
ATOM      3  C   UNL     1      26.684  19.918  57.479  1.00  0.00     0.041 C 
ATOM      4  O   UNL     1      26.272  18.786  57.849  1.00  0.00    -0.550 OA
ATOM      5  O   UNL     1      27.212  20.074  56.204  1.00  0.00    -0.550 OA
ENDBRANCH   2   3
ENDBRANCH   1   2
BRANCH   1   6
ATOM      6  C   UNL     1      27.136  21.845  60.800  1.00  0.00     0.000 C 
BRANCH   6   7
ATOM      7  C   UNL     1      26.058  21.334  61.768  1.00  0.00    -0.000 C 
BRANCH   7   8
ATOM      8  C   UNL     1      26.590  21.146  63.197  1.00  0.00    -0.003 C 
ATOM      9  C   UNL     1      26.277  19.763  63.769  1.00  0.00     0.004 C 
ENDBRANCH   7   8
ENDBRANCH   6   7
ENDBRANCH   1   6
TORSDOF 5
ENDMDL
MODEL 2
REMARK VINA RESULT:    -3.590      1.036      1.680
REMARK INTER + INTRA:          -4.756
REMARK INTER:                  -4.570
REMARK INTRA:                  -0.186
REMARK UNBOUND:                -0.116
REMARK SMILES CCCCCCC(=O)[O-]
REMARK SMILES IDX 5 1 6 2 7 3 8 4 9 5 4 6 3 7 2 8 1 9
REMARK H PARENT
REMARK Flexibility Score: inf
ROOT
ATOM      1  C   UNL     1      26.728  21.898  60.595  1.00  0.00     0.006 C 
ENDROOT
BRANCH   1   2
ATOM      2  C   UNL     1      27.407  20.719  59.886  1.00  0.00     0.053 C 
BRANCH   2   3
ATOM      3  C   UNL     1      26.842  20.493  58.517  1.00  0.00     0.041 C 
ATOM      4  O   UNL     1      26.617  21.469  57.753  1.00  0.00    -0.550 OA
ATOM      5  O   UNL     1      26.532  19.206  58.097  1.00  0.00    -0.550 OA
ENDBRANCH   2   3
ENDBRANCH   1   2
BRANCH   1   6
ATOM      6  C   UNL     1      26.619  21.678  62.111  1.00  0.00     0.000 C 
BRANCH   6   7
ATOM      7  C   UNL     1      25.165  21.400  62.522  1.00  0.00    -0.000 C 
BRANCH   7   8
ATOM      8  C   UNL     1      25.066  20.509  63.769  1.00  0.00    -0.003 C 
ATOM      9  C   UNL     1      26.259  19.565  63.920  1.00  0.00     0.004 C 
ENDBRANCH   7   8
ENDBRANCH   6   7
ENDBRANCH   1   6
TORSDOF 5
ENDMDL
MODEL 3
REMARK VINA RESULT:    -3.502      2.189      3.054
REMARK INTER + INTRA:          -4.642
REMARK INTER:                  -4.555
REMARK INTRA:                  -0.087
REMARK UNBOUND:                -0.116
REMARK SMILES CCCCCCC(=O)[O-]
REMARK SMILES IDX 5 1 6 2 7 3 8 4 9 5 4 6 3 7 2 8 1 9
REMARK H PARENT
REMARK Flexibility Score: inf
ROOT
ATOM      1  C   UNL     1      26.779  21.631  62.527  1.00  0.00     0.006 C 
ENDROOT
BRANCH   1   2
ATOM      2  C   UNL     1      26.284  21.439  61.087  1.00  0.00     0.053 C 
BRANCH   2   3
ATOM      3  C   UNL     1      27.391  21.019  60.169  1.00  0.00     0.041 C 
ATOM      4  O   UNL     1      27.382  19.874  59.646  1.00  0.00    -0.550 OA
ATOM      5  O   UNL     1      28.450  21.882  59.919  1.00  0.00    -0.550 OA
ENDBRANCH   2   3
ENDBRANCH   1   2
BRANCH   1   6
ATOM      6  C   UNL     1      26.616  20.360  63.372  1.00  0.00     0.000 C 
BRANCH   6   7
ATOM      7  C   UNL     1      25.141  20.127  63.733  1.00  0.00    -0.000 C 
BRANCH   7   8
ATOM      8  C   UNL     1      24.357  21.439  63.888  1.00  0.00    -0.003 C 
ATOM      9  C   UNL     1      23.164  21.533  62.936  1.00  0.00     0.004 C 
ENDBRANCH   7   8
ENDBRANCH   6   7
ENDBRANCH   1   6
TORSDOF 5
ENDMDL
MODEL 4
REMARK VINA RESULT:    -3.250      3.292      5.156
REMARK INTER + INTRA:          -4.316
REMARK INTER:                  -4.198
REMARK INTRA:                  -0.118
REMARK UNBOUND:                -0.116
REMARK SMILES CCCCCCC(=O)[O-]
REMARK SMILES IDX 5 1 6 2 7 3 8 4 9 5 4 6 3 7 2 8 1 9
REMARK H PARENT
REMARK Flexibility Score: inf
ROOT
ATOM      1  C   UNL     1      26.154  21.929  61.829  1.00  0.00     0.006 C 
ENDROOT
BRANCH   1   2
ATOM      2  C   UNL     1      26.628  21.146  63.060  1.00  0.00     0.053 C 
BRANCH   2   3
ATOM      3  C   UNL     1      25.522  20.340  63.667  1.00  0.00     0.041 C 
ATOM      4  O   UNL     1      25.620  19.087  63.751  1.00  0.00    -0.550 OA
ATOM      5  O   UNL     1      24.366  20.969  64.111  1.00  0.00    -0.550 OA
ENDBRANCH   2   3
ENDBRANCH   1   2
BRANCH   1   6
ATOM      6  C   UNL     1      27.264  22.092  60.781  1.00  0.00     0.000 C 
BRANCH   6   7
ATOM      7  C   UNL     1      27.412  20.818  59.935  1.00  0.00    -0.000 C 
BRANCH   7   8
ATOM      8  C   UNL     1      27.010  21.034  58.468  1.00  0.00    -0.003 C 
ATOM      9  C   UNL     1      26.501  19.757  57.800  1.00  0.00     0.004 C 
ENDBRANCH   7   8
ENDBRANCH   6   7
ENDBRANCH   1   6
TORSDOF 5
ENDMDL
MODEL 5
REMARK VINA RESULT:    -3.205      3.343      5.162
REMARK INTER + INTRA:          -4.258
REMARK INTER:                  -4.103
REMARK INTRA:                  -0.155
REMARK UNBOUND:                -0.116
REMARK SMILES CCCCCCC(=O)[O-]
REMARK SMILES IDX 5 1 6 2 7 3 8 4 9 5 4 6 3 7 2 8 1 9
REMARK H PARENT
REMARK Flexibility Score: inf
ROOT
ATOM      1  C   UNL     1      26.582  22.006  61.994  1.00  0.00     0.006 C 
ENDROOT
BRANCH   1   2
ATOM      2  C   UNL     1      26.667  21.335  63.371  1.00  0.00     0.053 C 
BRANCH   2   3
ATOM      3  C   UNL     1      25.468  20.479  63.646  1.00  0.00     0.041 C 
ATOM      4  O   UNL     1      24.338  21.005  63.821  1.00  0.00    -0.550 OA
ATOM      5  O   UNL     1      25.607  19.100  63.743  1.00  0.00    -0.550 OA
ENDBRANCH   2   3
ENDBRANCH   1   2
BRANCH   1   6
ATOM      6  C   UNL     1      27.022  21.068  60.861  1.00  0.00     0.000 C 
BRANCH   6   7
ATOM      7  C   UNL     1      27.765  21.844  59.763  1.00  0.00    -0.000 C 
BRANCH   7   8
ATOM      8  C   UNL     1      27.178  21.595  58.365  1.00  0.00    -0.003 C 
ATOM      9  C   UNL     1      26.698  20.156  58.172  1.00  0.00     0.004 C 
ENDBRANCH   7   8
ENDBRANCH   6   7
ENDBRANCH   1   6
TORSDOF 5
ENDMDL
MODEL 6
REMARK VINA RESULT:    -3.178      2.203      2.690
REMARK INTER + INTRA:          -4.223
REMARK INTER:                  -3.952
REMARK INTRA:                  -0.271
REMARK UNBOUND:                -0.116
REMARK SMILES CCCCCCC(=O)[O-]
REMARK SMILES IDX 5 1 6 2 7 3 8 4 9 5 4 6 3 7 2 8 1 9
REMARK H PARENT
REMARK Flexibility Score: inf
ROOT
ATOM      1  C   UNL     1      24.954  21.324  60.803  1.00  0.00     0.006 C 
ENDROOT
BRANCH   1   2
ATOM      2  C   UNL     1      26.231  22.115  60.491  1.00  0.00     0.053 C 
BRANCH   2   3
ATOM      3  C   UNL     1      27.388  21.209  60.198  1.00  0.00     0.041 C 
ATOM      4  O   UNL     1      27.308  19.977  60.443  1.00  0.00    -0.550 OA
ATOM      5  O   UNL     1      28.567  21.733  59.684  1.00  0.00    -0.550 OA
ENDBRANCH   2   3
ENDBRANCH   1   2
BRANCH   1   6
ATOM      6  C   UNL     1      24.171  21.926  61.979  1.00  0.00     0.000 C 
BRANCH   6   7
ATOM      7  C   UNL     1      24.310  21.051  63.234  1.00  0.00    -0.000 C 
BRANCH   7   8
ATOM      8  C   UNL     1      25.760  20.964  63.734  1.00  0.00    -0.003 C 
ATOM      9  C   UNL     1      26.261  19.524  63.847  1.00  0.00     0.004 C 
ENDBRANCH   7   8
ENDBRANCH   6   7
ENDBRANCH   1   6
TORSDOF 5
ENDMDL
MODEL 7
REMARK VINA RESULT:    -2.920      3.397      5.684
REMARK INTER + INTRA:          -3.890
REMARK INTER:                  -3.565
REMARK INTRA:                  -0.325
REMARK UNBOUND:                -0.116
REMARK SMILES CCCCCCC(=O)[O-]
REMARK SMILES IDX 5 1 6 2 7 3 8 4 9 5 4 6 3 7 2 8 1 9
REMARK H PARENT
REMARK Flexibility Score: inf
ROOT
ATOM      1  C   UNL     1      26.345  20.378  55.490  1.00  0.00     0.006 C 
ENDROOT
BRANCH   1   2
ATOM      2  C   UNL     1      26.782  20.934  56.852  1.00  0.00     0.053 C 
BRANCH   2   3
ATOM      3  C   UNL     1      26.641  19.915  57.940  1.00  0.00     0.041 C 
ATOM      4  O   UNL     1      26.121  18.794  57.698  1.00  0.00    -0.550 OA
ATOM      5  O   UNL     1      27.054  20.216  59.232  1.00  0.00    -0.550 OA
ENDBRANCH   2   3
ENDBRANCH   1   2
BRANCH   1   6
ATOM      6  C   UNL     1      25.148  21.143  54.907  1.00  0.00     0.000 C 
BRANCH   6   7
ATOM      7  C   UNL     1      23.992  20.185  54.580  1.00  0.00    -0.000 C 
BRANCH   7   8
ATOM      8  C   UNL     1      24.424  18.711  54.600  1.00  0.00    -0.003 C 
ATOM      9  C   UNL     1      23.571  17.857  55.539  1.00  0.00     0.004 C 
ENDBRANCH   7   8
ENDBRANCH   6   7
ENDBRANCH   1   6
TORSDOF 5
ENDMDL
MODEL 8
REMARK VINA RESULT:    -2.865      3.337      5.306
REMARK INTER + INTRA:          -3.819
REMARK INTER:                  -3.382
REMARK INTRA:                  -0.437
REMARK UNBOUND:                -0.116
REMARK SMILES CCCCCCC(=O)[O-]
REMARK SMILES IDX 5 1 6 2 7 3 8 4 9 5 4 6 3 7 2 8 1 9
REMARK H PARENT
REMARK Flexibility Score: inf
ROOT
ATOM      1  C   UNL     1      24.168  20.513  58.122  1.00  0.00     0.006 C 
ENDROOT
BRANCH   1   2
ATOM      2  C   UNL     1      25.619  20.956  57.900  1.00  0.00     0.053 C 
BRANCH   2   3
ATOM      3  C   UNL     1      26.463  19.844  57.354  1.00  0.00     0.041 C 
ATOM      4  O   UNL     1      26.563  18.757  57.981  1.00  0.00    -0.550 OA
ATOM      5  O   UNL     1      27.165  20.023  56.169  1.00  0.00    -0.550 OA
ENDBRANCH   2   3
ENDBRANCH   1   2
BRANCH   1   6
ATOM      6  C   UNL     1      23.480  20.097  56.814  1.00  0.00     0.000 C 
BRANCH   6   7
ATOM      7  C   UNL     1      23.130  18.601  56.831  1.00  0.00    -0.000 C 
BRANCH   7   8
ATOM      8  C   UNL     1      23.760  17.835  55.657  1.00  0.00    -0.003 C 
ATOM      9  C   UNL     1      24.259  18.760  54.546  1.00  0.00     0.004 C 
ENDBRANCH   7   8
ENDBRANCH   6   7
ENDBRANCH   1   6
TORSDOF 5
ENDMDL
MODEL 9
REMARK VINA RESULT:    -2.859      2.821      5.458
REMARK INTER + INTRA:          -3.811
REMARK INTER:                  -3.668
REMARK INTRA:                  -0.143
REMARK UNBOUND:                -0.116
REMARK SMILES CCCCCCC(=O)[O-]
REMARK SMILES IDX 5 1 6 2 7 3 8 4 9 5 4 6 3 7 2 8 1 9
REMARK H PARENT
REMARK Flexibility Score: inf
ROOT
ATOM      1  C   UNL     1      26.596  19.631  57.698  1.00  0.00     0.006 C 
ENDROOT
BRANCH   1   2
ATOM      2  C   UNL     1      26.779  21.031  58.296  1.00  0.00     0.053 C 
BRANCH   2   3
ATOM      3  C   UNL     1      27.540  20.991  59.586  1.00  0.00     0.041 C 
ATOM      4  O   UNL     1      27.302  20.093  60.436  1.00  0.00    -0.550 OA
ATOM      5  O   UNL     1      28.489  21.966  59.864  1.00  0.00    -0.550 OA
ENDBRANCH   2   3
ENDBRANCH   1   2
BRANCH   1   6
ATOM      6  C   UNL     1      25.233  19.465  57.010  1.00  0.00     0.000 C 
BRANCH   6   7
ATOM      7  C   UNL     1      25.336  19.774  55.509  1.00  0.00    -0.000 C 
BRANCH   7   8
ATOM      8  C   UNL     1      24.427  18.873  54.658  1.00  0.00    -0.003 C 
ATOM      9  C   UNL     1      23.695  17.818  55.488  1.00  0.00     0.004 C 
ENDBRANCH   7   8
ENDBRANCH   6   7
ENDBRANCH   1   6
TORSDOF 5
ENDMDL
