MODEL 1
REMARK VINA RESULT:    -5.124      0.000      0.000
REMARK INTER + INTRA:          -6.207
REMARK INTER:                  -6.023
REMARK INTRA:                  -0.184
REMARK UNBOUND:                -0.184
REMARK SMILES COc1cc2ccc(=O)oc2c(OC)c1OC
REMARK SMILES IDX 3 1 15 2 12 3 11 4 5 5 4 6 6 7 7 8 8 9 9 10 10 11 2 12 1 13
REMARK SMILES IDX 16 14 17 15 13 16 14 17
REMARK H PARENT
REMARK Flexibility Score: inf
ROOT
ATOM      1  C   UNL     1       7.807  -6.134  -7.037  1.00  0.00     0.165 A 
ATOM      2  C   UNL     1       7.962  -7.512  -7.260  1.00  0.00     0.207 A 
ATOM      3  C   UNL     1       8.072  -8.010  -8.578  1.00  0.00     0.208 A 
ATOM      4  C   UNL     1       8.122  -7.116  -9.655  1.00  0.00     0.184 A 
ATOM      5  C   UNL     1       7.999  -5.729  -9.429  1.00  0.00     0.025 A 
ATOM      6  C   UNL     1       7.825  -5.244  -8.128  1.00  0.00     0.062 A 
ATOM      7  C   UNL     1       8.042  -4.867 -10.529  1.00  0.00     0.020 A 
ATOM      8  C   UNL     1       8.203  -5.395 -11.809  1.00  0.00     0.094 A 
ATOM      9  C   UNL     1       8.317  -6.781 -11.959  1.00  0.00     0.336 A 
ATOM     10  O   UNL     1       8.461  -7.279 -13.106  1.00  0.00    -0.246 OA
ATOM     11  O   UNL     1       8.271  -7.579 -10.895  1.00  0.00    -0.419 OA
ENDROOT
BRANCH   1  12
ATOM     12  O   UNL     1       7.658  -5.687  -5.714  1.00  0.00    -0.493 OA
ATOM     13  C   UNL     1       8.728  -5.246  -4.885  1.00  0.00     0.278 C 
ENDBRANCH   1  12
BRANCH   2  14
ATOM     14  O   UNL     1       8.020  -8.361  -6.151  1.00  0.00    -0.490 OA
ATOM     15  C   UNL     1       6.862  -8.993  -5.614  1.00  0.00     0.278 C 
ENDBRANCH   2  14
BRANCH   3  16
ATOM     16  O   UNL     1       8.118  -9.382  -8.846  1.00  0.00    -0.490 OA
ATOM     17  C   UNL     1       9.344 -10.104  -8.924  1.00  0.00     0.278 C 
ENDBRANCH   3  16
TORSDOF 3
ENDMDL
MODEL 2
REMARK VINA RESULT:    -5.047      1.444      4.835
REMARK INTER + INTRA:          -6.117
REMARK INTER:                  -5.903
REMARK INTRA:                  -0.214
REMARK UNBOUND:                -0.184
REMARK SMILES COc1cc2ccc(=O)oc2c(OC)c1OC
REMARK SMILES IDX 3 1 15 2 12 3 11 4 5 5 4 6 6 7 7 8 8 9 9 10 10 11 2 12 1 13
REMARK SMILES IDX 16 14 17 15 13 16 14 17
REMARK H PARENT
REMARK Flexibility Score: inf
ROOT
ATOM      1  C   UNL     1       8.399  -5.779 -10.658  1.00  0.00     0.165 A 
ATOM      2  C   UNL     1       8.174  -7.149 -10.878  1.00  0.00     0.207 A 
ATOM      3  C   UNL     1       8.004  -8.025  -9.783  1.00  0.00     0.208 A 
ATOM      4  C   UNL     1       7.963  -7.508  -8.481  1.00  0.00     0.184 A 
ATOM      5  C   UNL     1       8.156  -6.129  -8.262  1.00  0.00     0.025 A 
ATOM      6  C   UNL     1       8.389  -5.273  -9.344  1.00  0.00     0.062 A 
ATOM      7  C   UNL     1       8.121  -5.650  -6.949  1.00  0.00     0.020 A 
ATOM      8  C   UNL     1       7.898  -6.540  -5.900  1.00  0.00     0.094 A 
ATOM      9  C   UNL     1       7.718  -7.896  -6.190  1.00  0.00     0.336 A 
ATOM     10  O   UNL     1       7.518  -8.717  -5.258  1.00  0.00    -0.246 OA
ATOM     11  O   UNL     1       7.758  -8.325  -7.449  1.00  0.00    -0.419 OA
ENDROOT
BRANCH   1  12
ATOM     12  O   UNL     1       8.606  -4.953 -11.774  1.00  0.00    -0.493 OA
ATOM     13  C   UNL     1       7.642  -4.043 -12.296  1.00  0.00     0.278 C 
ENDBRANCH   1  12
BRANCH   2  14
ATOM     14  O   UNL     1       8.109  -7.607 -12.197  1.00  0.00    -0.490 OA
ATOM     15  C   UNL     1       9.241  -8.150 -12.871  1.00  0.00     0.278 C 
ENDBRANCH   2  14
BRANCH   3  16
ATOM     16  O   UNL     1       7.887  -9.408  -9.955  1.00  0.00    -0.490 OA
ATOM     17  C   UNL     1       6.666 -10.028 -10.348  1.00  0.00     0.278 C 
ENDBRANCH   3  16
TORSDOF 3
ENDMDL
MODEL 3
REMARK VINA RESULT:    -4.773      2.440      5.318
REMARK INTER + INTRA:          -5.795
REMARK INTER:                  -5.541
REMARK INTRA:                  -0.253
REMARK UNBOUND:                -0.184
REMARK SMILES COc1cc2ccc(=O)oc2c(OC)c1OC
REMARK SMILES IDX 3 1 15 2 12 3 11 4 5 5 4 6 6 7 7 8 8 9 9 10 10 11 2 12 1 13
REMARK SMILES IDX 16 14 17 15 13 16 14 17
REMARK H PARENT
REMARK Flexibility Score: inf
ROOT
ATOM      1  C   UNL     1       8.564  -8.556 -10.225  1.00  0.00     0.165 A 
ATOM      2  C   UNL     1       9.947  -8.316 -10.218  1.00  0.00     0.207 A 
ATOM      3  C   UNL     1      10.516  -7.470  -9.240  1.00  0.00     0.208 A 
ATOM      4  C   UNL     1       9.710  -6.949  -8.219  1.00  0.00     0.184 A 
ATOM      5  C   UNL     1       8.325  -7.217  -8.208  1.00  0.00     0.025 A 
ATOM      6  C   UNL     1       7.754  -8.002  -9.215  1.00  0.00     0.062 A 
ATOM      7  C   UNL     1       7.548  -6.671  -7.181  1.00  0.00     0.020 A 
ATOM      8  C   UNL     1       8.156  -5.883  -6.205  1.00  0.00     0.094 A 
ATOM      9  C   UNL     1       9.535  -5.657  -6.281  1.00  0.00     0.336 A 
ATOM     10  O   UNL     1      10.104  -4.947  -5.411  1.00  0.00    -0.246 OA
ATOM     11  O   UNL     1      10.250  -6.188  -7.270  1.00  0.00    -0.419 OA
ENDROOT
BRANCH   1  12
ATOM     12  O   UNL     1       8.035  -9.368 -11.242  1.00  0.00    -0.493 OA
ATOM     13  C   UNL     1       7.265  -8.889 -12.340  1.00  0.00     0.278 C 
ENDBRANCH   1  12
BRANCH   2  14
ATOM     14  O   UNL     1      10.735  -8.946 -11.186  1.00  0.00    -0.490 OA
ATOM     15  C   UNL     1      11.021  -8.343 -12.445  1.00  0.00     0.278 C 
ENDBRANCH   2  14
BRANCH   3  16
ATOM     16  O   UNL     1      11.870  -7.120  -9.264  1.00  0.00    -0.490 OA
ATOM     17  C   UNL     1      12.352  -5.982  -9.972  1.00  0.00     0.278 C 
ENDBRANCH   3  16
TORSDOF 3
ENDMDL
MODEL 4
REMARK VINA RESULT:    -4.714      2.359      2.543
REMARK INTER + INTRA:          -5.725
REMARK INTER:                  -5.473
REMARK INTRA:                  -0.251
REMARK UNBOUND:                -0.184
REMARK SMILES COc1cc2ccc(=O)oc2c(OC)c1OC
REMARK SMILES IDX 3 1 15 2 12 3 11 4 5 5 4 6 6 7 7 8 8 9 9 10 10 11 2 12 1 13
REMARK SMILES IDX 16 14 17 15 13 16 14 17
REMARK H PARENT
REMARK Flexibility Score: inf
ROOT
ATOM      1  C   UNL     1       8.643  -6.445  -6.926  1.00  0.00     0.165 A 
ATOM      2  C   UNL     1       8.195  -7.765  -7.100  1.00  0.00     0.207 A 
ATOM      3  C   UNL     1       8.809  -8.603  -8.058  1.00  0.00     0.208 A 
ATOM      4  C   UNL     1       9.927  -8.144  -8.766  1.00  0.00     0.184 A 
ATOM      5  C   UNL     1      10.397  -6.829  -8.569  1.00  0.00     0.025 A 
ATOM      6  C   UNL     1       9.747  -5.980  -7.666  1.00  0.00     0.062 A 
ATOM      7  C   UNL     1      11.508  -6.400  -9.301  1.00  0.00     0.020 A 
ATOM      8  C   UNL     1      12.117  -7.275 -10.200  1.00  0.00     0.094 A 
ATOM      9  C   UNL     1      11.596  -8.564 -10.346  1.00  0.00     0.336 A 
ATOM     10  O   UNL     1      12.129  -9.370 -11.153  1.00  0.00    -0.246 OA
ATOM     11  O   UNL     1      10.536  -8.946  -9.638  1.00  0.00    -0.419 OA
ENDROOT
BRANCH   1  12
ATOM     12  O   UNL     1       7.976  -5.634  -5.994  1.00  0.00    -0.493 OA
ATOM     13  C   UNL     1       8.488  -5.290  -4.710  1.00  0.00     0.278 C 
ENDBRANCH   1  12
BRANCH   2  14
ATOM     14  O   UNL     1       7.149  -8.222  -6.293  1.00  0.00    -0.490 OA
ATOM     15  C   UNL     1       7.374  -8.825  -5.022  1.00  0.00     0.278 C 
ENDBRANCH   2  14
BRANCH   3  16
ATOM     16  O   UNL     1       8.323  -9.884  -8.336  1.00  0.00    -0.490 OA
ATOM     17  C   UNL     1       7.321 -10.125  -9.319  1.00  0.00     0.278 C 
ENDBRANCH   3  16
TORSDOF 3
ENDMDL
MODEL 5
REMARK VINA RESULT:    -4.676      1.806      4.813
REMARK INTER + INTRA:          -5.680
REMARK INTER:                  -5.458
REMARK INTRA:                  -0.221
REMARK UNBOUND:                -0.184
REMARK SMILES COc1cc2ccc(=O)oc2c(OC)c1OC
REMARK SMILES IDX 3 1 15 2 12 3 11 4 5 5 4 6 6 7 7 8 8 9 9 10 10 11 2 12 1 13
REMARK SMILES IDX 16 14 17 15 13 16 14 17
REMARK H PARENT
REMARK Flexibility Score: inf
ROOT
ATOM      1  C   UNL     1       9.754  -6.105  -9.972  1.00  0.00     0.165 A 
ATOM      2  C   UNL     1       9.264  -7.358 -10.374  1.00  0.00     0.207 A 
ATOM      3  C   UNL     1       8.606  -8.195  -9.445  1.00  0.00     0.208 A 
ATOM      4  C   UNL     1       8.360  -7.731  -8.146  1.00  0.00     0.184 A 
ATOM      5  C   UNL     1       8.823  -6.459  -7.751  1.00  0.00     0.025 A 
ATOM      6  C   UNL     1       9.531  -5.659  -8.655  1.00  0.00     0.062 A 
ATOM      7  C   UNL     1       8.570  -6.032  -6.443  1.00  0.00     0.020 A 
ATOM      8  C   UNL     1       7.872  -6.867  -5.572  1.00  0.00     0.094 A 
ATOM      9  C   UNL     1       7.444  -8.117  -6.032  1.00  0.00     0.336 A 
ATOM     10  O   UNL     1       6.815  -8.888  -5.261  1.00  0.00    -0.246 OA
ATOM     11  O   UNL     1       7.701  -8.499  -7.280  1.00  0.00    -0.419 OA
ENDROOT
BRANCH   1  12
ATOM     12  O   UNL     1      10.439  -5.324 -10.917  1.00  0.00    -0.493 OA
ATOM     13  C   UNL     1      11.857  -5.277 -11.050  1.00  0.00     0.278 C 
ENDBRANCH   1  12
BRANCH   2  14
ATOM     14  O   UNL     1       9.430  -7.738 -11.709  1.00  0.00    -0.490 OA
ATOM     15  C   UNL     1       8.485  -7.401 -12.720  1.00  0.00     0.278 C 
ENDBRANCH   2  14
BRANCH   3  16
ATOM     16  O   UNL     1       8.201  -9.492  -9.777  1.00  0.00    -0.490 OA
ATOM     17  C   UNL     1       6.931  -9.769 -10.359  1.00  0.00     0.278 C 
ENDBRANCH   3  16
TORSDOF 3
ENDMDL
MODEL 6
REMARK VINA RESULT:    -4.637      2.450      4.924
REMARK INTER + INTRA:          -5.635
REMARK INTER:                  -5.426
REMARK INTRA:                  -0.209
REMARK UNBOUND:                -0.184
REMARK SMILES COc1cc2ccc(=O)oc2c(OC)c1OC
REMARK SMILES IDX 3 1 15 2 12 3 11 4 5 5 4 6 6 7 7 8 8 9 9 10 10 11 2 12 1 13
REMARK SMILES IDX 16 14 17 15 13 16 14 17
REMARK H PARENT
REMARK Flexibility Score: inf
ROOT
ATOM      1  C   UNL     1      11.247  -6.617  -9.351  1.00  0.00     0.165 A 
ATOM      2  C   UNL     1      10.797  -7.876  -9.782  1.00  0.00     0.207 A 
ATOM      3  C   UNL     1       9.802  -8.563  -9.051  1.00  0.00     0.208 A 
ATOM      4  C   UNL     1       9.197  -7.942  -7.950  1.00  0.00     0.184 A 
ATOM      5  C   UNL     1       9.627  -6.664  -7.536  1.00  0.00     0.025 A 
ATOM      6  C   UNL     1      10.658  -6.014  -8.223  1.00  0.00     0.062 A 
ATOM      7  C   UNL     1       9.010  -6.080  -6.425  1.00  0.00     0.020 A 
ATOM      8  C   UNL     1       7.996  -6.769  -5.762  1.00  0.00     0.094 A 
ATOM      9  C   UNL     1       7.622  -8.035  -6.227  1.00  0.00     0.336 A 
ATOM     10  O   UNL     1       6.711  -8.675  -5.642  1.00  0.00    -0.246 OA
ATOM     11  O   UNL     1       8.228  -8.568  -7.285  1.00  0.00    -0.419 OA
ENDROOT
BRANCH   1  12
ATOM     12  O   UNL     1      12.268  -5.990 -10.083  1.00  0.00    -0.493 OA
ATOM     13  C   UNL     1      12.051  -5.026 -11.109  1.00  0.00     0.278 C 
ENDBRANCH   1  12
BRANCH   2  14
ATOM     14  O   UNL     1      11.345  -8.411 -10.951  1.00  0.00    -0.490 OA
ATOM     15  C   UNL     1      10.739  -8.234 -12.228  1.00  0.00     0.278 C 
ENDBRANCH   2  14
BRANCH   3  16
ATOM     16  O   UNL     1       9.405  -9.861  -9.386  1.00  0.00    -0.490 OA
ATOM     17  C   UNL     1       8.330 -10.125 -10.282  1.00  0.00     0.278 C 
ENDBRANCH   3  16
TORSDOF 3
ENDMDL
MODEL 7
REMARK VINA RESULT:    -4.568      2.293      3.867
REMARK INTER + INTRA:          -5.554
REMARK INTER:                  -5.310
REMARK INTRA:                  -0.244
REMARK UNBOUND:                -0.184
REMARK SMILES COc1cc2ccc(=O)oc2c(OC)c1OC
REMARK SMILES IDX 3 1 15 2 12 3 11 4 5 5 4 6 6 7 7 8 8 9 9 10 10 11 2 12 1 13
REMARK SMILES IDX 16 14 17 15 13 16 14 17
REMARK H PARENT
REMARK Flexibility Score: inf
ROOT
ATOM      1  C   UNL     1       9.205  -7.304  -7.536  1.00  0.00     0.165 A 
ATOM      2  C   UNL     1       9.018  -6.238  -8.432  1.00  0.00     0.207 A 
ATOM      3  C   UNL     1       9.641  -6.259  -9.700  1.00  0.00     0.208 A 
ATOM      4  C   UNL     1      10.366  -7.390 -10.098  1.00  0.00     0.184 A 
ATOM      5  C   UNL     1      10.526  -8.474  -9.211  1.00  0.00     0.025 A 
ATOM      6  C   UNL     1       9.963  -8.423  -7.931  1.00  0.00     0.062 A 
ATOM      7  C   UNL     1      11.266  -9.582  -9.637  1.00  0.00     0.020 A 
ATOM      8  C   UNL     1      11.821  -9.585 -10.916  1.00  0.00     0.094 A 
ATOM      9  C   UNL     1      11.624  -8.474 -11.742  1.00  0.00     0.336 A 
ATOM     10  O   UNL     1      12.118  -8.455 -12.899  1.00  0.00    -0.246 OA
ATOM     11  O   UNL     1      10.917  -7.432 -11.310  1.00  0.00    -0.419 OA
ENDROOT
BRANCH   1  12
ATOM     12  O   UNL     1       8.603  -7.221  -6.270  1.00  0.00    -0.493 OA
ATOM     13  C   UNL     1       7.475  -7.988  -5.860  1.00  0.00     0.278 C 
ENDBRANCH   1  12
BRANCH   2  14
ATOM     14  O   UNL     1       8.195  -5.179  -8.040  1.00  0.00    -0.490 OA
ATOM     15  C   UNL     1       6.788  -5.186  -8.260  1.00  0.00     0.278 C 
ENDBRANCH   2  14
BRANCH   3  16
ATOM     16  O   UNL     1       9.569  -5.171 -10.575  1.00  0.00    -0.490 OA
ATOM     17  C   UNL     1       8.492  -4.997 -11.491  1.00  0.00     0.278 C 
ENDBRANCH   3  16
TORSDOF 3
ENDMDL
MODEL 8
REMARK VINA RESULT:    -4.526      1.342      3.214
REMARK INTER + INTRA:          -5.505
REMARK INTER:                  -5.344
REMARK INTRA:                  -0.160
REMARK UNBOUND:                -0.184
REMARK SMILES COc1cc2ccc(=O)oc2c(OC)c1OC
REMARK SMILES IDX 3 1 15 2 12 3 11 4 5 5 4 6 6 7 7 8 8 9 9 10 10 11 2 12 1 13
REMARK SMILES IDX 16 14 17 15 13 16 14 17
REMARK H PARENT
REMARK Flexibility Score: inf
ROOT
ATOM      1  C   UNL     1       8.034  -8.160  -6.922  1.00  0.00     0.165 A 
ATOM      2  C   UNL     1       7.856  -6.779  -7.111  1.00  0.00     0.207 A 
ATOM      3  C   UNL     1       7.898  -6.229  -8.412  1.00  0.00     0.208 A 
ATOM      4  C   UNL     1       8.022  -7.078  -9.520  1.00  0.00     0.184 A 
ATOM      5  C   UNL     1       8.168  -8.468  -9.333  1.00  0.00     0.025 A 
ATOM      6  C   UNL     1       8.190  -9.002  -8.040  1.00  0.00     0.062 A 
ATOM      7  C   UNL     1       8.301  -9.283 -10.461  1.00  0.00     0.020 A 
ATOM      8  C   UNL     1       8.286  -8.707 -11.730  1.00  0.00     0.094 A 
ATOM      9  C   UNL     1       8.140  -7.321 -11.841  1.00  0.00     0.336 A 
ATOM     10  O   UNL     1       8.127  -6.779 -12.977  1.00  0.00    -0.246 OA
ATOM     11  O   UNL     1       8.017  -6.568 -10.751  1.00  0.00    -0.419 OA
ENDROOT
BRANCH   1  12
ATOM     12  O   UNL     1       8.027  -8.657  -5.609  1.00  0.00    -0.493 OA
ATOM     13  C   UNL     1       6.859  -9.072  -4.908  1.00  0.00     0.278 C 
ENDBRANCH   1  12
BRANCH   2  14
ATOM     14  O   UNL     1       7.622  -5.981  -5.988  1.00  0.00    -0.490 OA
ATOM     15  C   UNL     1       8.671  -5.297  -5.308  1.00  0.00     0.278 C 
ENDBRANCH   2  14
BRANCH   3  16
ATOM     16  O   UNL     1       7.835  -4.850  -8.633  1.00  0.00    -0.490 OA
ATOM     17  C   UNL     1       6.604  -4.167  -8.853  1.00  0.00     0.278 C 
ENDBRANCH   3  16
TORSDOF 3
ENDMDL
MODEL 9
REMARK VINA RESULT:    -4.411     10.548     12.942
REMARK INTER + INTRA:          -5.369
REMARK INTER:                  -5.168
REMARK INTRA:                  -0.201
REMARK UNBOUND:                -0.184
REMARK SMILES COc1cc2ccc(=O)oc2c(OC)c1OC
REMARK SMILES IDX 3 1 15 2 12 3 11 4 5 5 4 6 6 7 7 8 8 9 9 10 10 11 2 12 1 13
REMARK SMILES IDX 16 14 17 15 13 16 14 17
REMARK H PARENT
REMARK Flexibility Score: inf
ROOT
ATOM      1  C   UNL     1      14.792   4.398  -7.013  1.00  0.00     0.165 A 
ATOM      2  C   UNL     1      13.799   3.728  -7.748  1.00  0.00     0.207 A 
ATOM      3  C   UNL     1      12.714   3.116  -7.081  1.00  0.00     0.208 A 
ATOM      4  C   UNL     1      12.580   3.263  -5.694  1.00  0.00     0.184 A 
ATOM      5  C   UNL     1      13.559   3.964  -4.960  1.00  0.00     0.025 A 
ATOM      6  C   UNL     1      14.667   4.513  -5.615  1.00  0.00     0.062 A 
ATOM      7  C   UNL     1      13.400   4.080  -3.576  1.00  0.00     0.020 A 
ATOM      8  C   UNL     1      12.288   3.506  -2.962  1.00  0.00     0.094 A 
ATOM      9  C   UNL     1      11.357   2.824  -3.752  1.00  0.00     0.336 A 
ATOM     10  O   UNL     1      10.347   2.296  -3.219  1.00  0.00    -0.246 OA
ATOM     11  O   UNL     1      11.535   2.726  -5.068  1.00  0.00    -0.419 OA
ENDROOT
BRANCH   1  12
ATOM     12  O   UNL     1      15.875   4.954  -7.713  1.00  0.00    -0.493 OA
ATOM     13  C   UNL     1      16.974   5.623  -7.101  1.00  0.00     0.278 C 
ENDBRANCH   1  12
BRANCH   2  14
ATOM     14  O   UNL     1      13.910   3.701  -9.141  1.00  0.00    -0.490 OA
ATOM     15  C   UNL     1      14.491   2.603  -9.838  1.00  0.00     0.278 C 
ENDBRANCH   2  14
BRANCH   3  16
ATOM     16  O   UNL     1      11.766   2.349  -7.765  1.00  0.00    -0.490 OA
ATOM     17  C   UNL     1      10.638   2.929  -8.414  1.00  0.00     0.278 C 
ENDBRANCH   3  16
TORSDOF 3
ENDMDL
