MODEL 1
REMARK VINA RESULT:     8.432      0.000      0.000
REMARK INTER + INTRA:          12.167
REMARK INTER:                  12.376
REMARK INTRA:                  -0.209
REMARK UNBOUND:                -0.209
REMARK SMILES O=c1c(O[C@@H]2O[C@@H](CO)[C@H](O)[C@@H](O)[C@@H]2O)c(-c2ccc(O)c(O)c2)oc2cc(O)cc(O)c12
REMARK SMILES IDX 4 1 3 2 16 3 25 4 2 5 26 6 1 7 33 8 27 9 31 10 28 11 30 12
REMARK SMILES IDX 17 13 18 14 19 15 20 16 24 17 22 18 21 19 23 21 32 23 29 25
REMARK SMILES IDX 5 27 14 28 6 29 12 30 7 31 10 32 15 33 13 35 8 37 9 38 11 40
REMARK H PARENT 21 20 23 22 32 24 29 26 15 34 13 36 9 39 11 41
REMARK Flexibility Score: inf
ROOT
ATOM      1  O   UNL     1      95.615 103.763 100.110  1.00  0.00    -0.454 OA
ENDROOT
BRANCH   1   2
ATOM      2  C   UNL     1      95.423 105.027  99.542  1.00  0.00     0.214 A 
ATOM      3  C   UNL     1      95.485 105.230  98.151  1.00  0.00     0.180 A 
ATOM      4  O   UNL     1      95.400 106.461  97.662  1.00  0.00    -0.452 OA
ATOM      5  C   UNL     1      95.196 106.124 100.379  1.00  0.00     0.239 A 
ATOM      6  C   UNL     1      95.200 107.534  98.418  1.00  0.00     0.146 A 
ATOM      7  O   UNL     1      95.181 105.931 101.622  1.00  0.00    -0.285 OA
ATOM      8  C   UNL     1      95.040 107.415  99.824  1.00  0.00     0.111 A 
ATOM      9  C   UNL     1      95.154 108.786  97.801  1.00  0.00     0.094 A 
ATOM     10  C   UNL     1      94.775 108.595 100.580  1.00  0.00     0.134 A 
ATOM     11  C   UNL     1      94.956 109.941  98.560  1.00  0.00     0.123 A 
ATOM     12  C   UNL     1      94.773 109.840  99.939  1.00  0.00     0.093 A 
BRANCH   3  13
ATOM     13  C   UNL     1      95.663 104.112  97.203  1.00  0.00     0.025 A 
ATOM     14  C   UNL     1      96.697 104.124  96.254  1.00  0.00     0.016 A 
ATOM     15  C   UNL     1      96.842 103.066  95.354  1.00  0.00     0.051 A 
ATOM     16  C   UNL     1      95.961 101.980  95.394  1.00  0.00     0.157 A 
ATOM     17  C   UNL     1      94.793 103.008  97.262  1.00  0.00     0.062 A 
ATOM     18  C   UNL     1      94.932 101.948  96.355  1.00  0.00     0.158 A 
BRANCH  16  19
ATOM     19  O   UNL     1      96.118 100.943  94.475  1.00  0.00    -0.504 OA
ATOM     20  H   UNL     1      96.450 100.026  94.750  1.00  0.00     0.293 HD
ENDBRANCH  16  19
BRANCH  18  21
ATOM     21  O   UNL     1      94.047 100.872  96.395  1.00  0.00    -0.504 OA
ATOM     22  H   UNL     1      93.092 100.960  96.074  1.00  0.00     0.293 HD
ENDBRANCH  18  21
ENDBRANCH   3  13
BRANCH  10  23
ATOM     23  O   UNL     1      94.484 108.597 101.948  1.00  0.00    -0.507 OA
ATOM     24  H   UNL     1      93.556 108.537 102.340  1.00  0.00     0.293 HD
ENDBRANCH  10  23
BRANCH  11  25
ATOM     25  O   UNL     1      94.933 111.194  97.953  1.00  0.00    -0.508 OA
ATOM     26  H   UNL     1      95.785 111.700  97.745  1.00  0.00     0.293 HD
ENDBRANCH  11  25
ENDBRANCH   1   2
BRANCH   1  27
ATOM     27  C   UNL     1      94.712 102.684  99.873  1.00  0.00     0.339 C 
ATOM     28  C   UNL     1      95.243 101.428 100.577  1.00  0.00     0.214 C 
ATOM     29  O   UNL     1      93.431 103.034 100.367  1.00  0.00    -0.332 OA
ATOM     30  C   UNL     1      94.309 100.250 100.294  1.00  0.00     0.180 C 
ATOM     31  C   UNL     1      92.443 102.044 100.119  1.00  0.00     0.179 C 
ATOM     32  C   UNL     1      92.839 100.616 100.605  1.00  0.00     0.177 C 
BRANCH  28  33
ATOM     33  O   UNL     1      95.324 101.643 101.963  1.00  0.00    -0.384 OA
ATOM     34  H   UNL     1      96.231 102.005 102.148  1.00  0.00     0.211 HD
ENDBRANCH  28  33
BRANCH  30  35
ATOM     35  O   UNL     1      94.451  99.857  98.952  1.00  0.00    -0.387 OA
ATOM     36  H   UNL     1      95.367 100.108  98.666  1.00  0.00     0.211 HD
ENDBRANCH  30  35
BRANCH  31  37
ATOM     37  C   UNL     1      91.875 102.116  98.684  1.00  0.00     0.191 C 
BRANCH  37  38
ATOM     38  O   UNL     1      91.875 100.867  98.050  1.00  0.00    -0.394 OA
ATOM     39  H   UNL     1      90.995 100.453  98.245  1.00  0.00     0.210 HD
ENDBRANCH  37  38
ENDBRANCH  31  37
BRANCH  32  40
ATOM     40  O   UNL     1      92.647 100.525 101.995  1.00  0.00    -0.387 OA
ATOM     41  H   UNL     1      93.545 100.585 102.416  1.00  0.00     0.211 HD
ENDBRANCH  32  40
ENDBRANCH   1  27
TORSDOF 12
ENDMDL
MODEL 2
REMARK VINA RESULT:    10.676      0.858      1.822
REMARK INTER + INTRA:          15.459
REMARK INTER:                  12.606
REMARK INTRA:                   2.854
REMARK UNBOUND:                -0.209
REMARK SMILES O=c1c(O[C@@H]2O[C@@H](CO)[C@H](O)[C@@H](O)[C@@H]2O)c(-c2ccc(O)c(O)c2)oc2cc(O)cc(O)c12
REMARK SMILES IDX 4 1 3 2 16 3 25 4 2 5 26 6 1 7 33 8 27 9 31 10 28 11 30 12
REMARK SMILES IDX 17 13 18 14 19 15 20 16 24 17 22 18 21 19 23 21 32 23 29 25
REMARK SMILES IDX 5 27 14 28 6 29 12 30 7 31 10 32 15 33 13 35 8 37 9 38 11 40
REMARK H PARENT 21 20 23 22 32 24 29 26 15 34 13 36 9 39 11 41
REMARK Flexibility Score: inf
ROOT
ATOM      1  O   UNL     1      96.131 103.562 100.067  1.00  0.00    -0.454 OA
ENDROOT
BRANCH   1   2
ATOM      2  C   UNL     1      95.736 104.805  99.562  1.00  0.00     0.214 A 
ATOM      3  C   UNL     1      95.553 105.019  98.184  1.00  0.00     0.180 A 
ATOM      4  O   UNL     1      95.280 106.239  97.738  1.00  0.00    -0.452 OA
ATOM      5  C   UNL     1      95.551 105.873 100.446  1.00  0.00     0.239 A 
ATOM      6  C   UNL     1      95.109 107.286  98.538  1.00  0.00     0.146 A 
ATOM      7  O   UNL     1      95.755 105.674 101.671  1.00  0.00    -0.285 OA
ATOM      8  C   UNL     1      95.191 107.147  99.948  1.00  0.00     0.111 A 
ATOM      9  C   UNL     1      94.850 108.532  97.961  1.00  0.00     0.094 A 
ATOM     10  C   UNL     1      94.947 108.293 100.760  1.00  0.00     0.134 A 
ATOM     11  C   UNL     1      94.675 109.660  98.765  1.00  0.00     0.123 A 
ATOM     12  C   UNL     1      94.728 109.536 100.152  1.00  0.00     0.093 A 
BRANCH   3  13
ATOM     13  C   UNL     1      95.675 103.927  97.198  1.00  0.00     0.025 A 
ATOM     14  C   UNL     1      96.767 103.864  96.317  1.00  0.00     0.016 A 
ATOM     15  C   UNL     1      96.859 102.833  95.380  1.00  0.00     0.051 A 
ATOM     16  C   UNL     1      95.867 101.848  95.314  1.00  0.00     0.157 A 
ATOM     17  C   UNL     1      94.691 102.923  97.150  1.00  0.00     0.062 A 
ATOM     18  C   UNL     1      94.778 101.891  96.205  1.00  0.00     0.158 A 
BRANCH  16  19
ATOM     19  O   UNL     1      95.975 100.837  94.359  1.00  0.00    -0.504 OA
ATOM     20  H   UNL     1      96.164 101.036  93.384  1.00  0.00     0.293 HD
ENDBRANCH  16  19
BRANCH  18  21
ATOM     21  O   UNL     1      93.782 100.917  96.139  1.00  0.00    -0.504 OA
ATOM     22  H   UNL     1      93.002 101.000  95.501  1.00  0.00     0.293 HD
ENDBRANCH  18  21
ENDBRANCH   3  13
BRANCH  10  23
ATOM     23  O   UNL     1      94.883 108.262 102.157  1.00  0.00    -0.507 OA
ATOM     24  H   UNL     1      94.715 107.433 102.708  1.00  0.00     0.293 HD
ENDBRANCH  10  23
BRANCH  11  25
ATOM     25  O   UNL     1      94.441 110.908  98.194  1.00  0.00    -0.508 OA
ATOM     26  H   UNL     1      95.189 111.575  98.047  1.00  0.00     0.293 HD
ENDBRANCH  11  25
ENDBRANCH   1   2
BRANCH   1  27
ATOM     27  C   UNL     1      95.184 102.551 100.410  1.00  0.00     0.339 C 
ATOM     28  C   UNL     1      93.880 103.224 100.857  1.00  0.00     0.214 C 
ATOM     29  O   UNL     1      94.962 101.723  99.283  1.00  0.00    -0.332 OA
ATOM     30  C   UNL     1      92.868 102.154 101.272  1.00  0.00     0.180 C 
ATOM     31  C   UNL     1      94.077 100.643  99.544  1.00  0.00     0.179 C 
ATOM     32  C   UNL     1      92.718 101.074 100.176  1.00  0.00     0.177 C 
BRANCH  28  33
ATOM     33  O   UNL     1      93.346 103.998  99.813  1.00  0.00    -0.384 OA
ATOM     34  H   UNL     1      94.013 103.989  99.076  1.00  0.00     0.211 HD
ENDBRANCH  28  33
BRANCH  30  35
ATOM     35  O   UNL     1      93.276 101.576 102.487  1.00  0.00    -0.387 OA
ATOM     36  H   UNL     1      93.501 100.628 102.303  1.00  0.00     0.211 HD
ENDBRANCH  30  35
BRANCH  31  37
ATOM     37  C   UNL     1      94.777  99.455 100.240  1.00  0.00     0.191 C 
BRANCH  37  38
ATOM     38  O   UNL     1      96.172  99.586 100.242  1.00  0.00    -0.394 OA
ATOM     39  H   UNL     1      96.471  99.407  99.314  1.00  0.00     0.210 HD
ENDBRANCH  37  38
ENDBRANCH  31  37
BRANCH  32  40
ATOM     40  O   UNL     1      91.875 101.581  99.171  1.00  0.00    -0.387 OA
ATOM     41  H   UNL     1      92.280 102.433  98.856  1.00  0.00     0.211 HD
ENDBRANCH  32  40
ENDBRANCH   1  27
TORSDOF 12
ENDMDL
MODEL 3
REMARK VINA RESULT:    10.955      0.920      1.617
REMARK INTER + INTRA:          15.869
REMARK INTER:                  14.439
REMARK INTRA:                   1.430
REMARK UNBOUND:                -0.209
REMARK SMILES O=c1c(O[C@@H]2O[C@@H](CO)[C@H](O)[C@@H](O)[C@@H]2O)c(-c2ccc(O)c(O)c2)oc2cc(O)cc(O)c12
REMARK SMILES IDX 4 1 3 2 16 3 25 4 2 5 26 6 1 7 33 8 27 9 31 10 28 11 30 12
REMARK SMILES IDX 17 13 18 14 19 15 20 16 24 17 22 18 21 19 23 21 32 23 29 25
REMARK SMILES IDX 5 27 14 28 6 29 12 30 7 31 10 32 15 33 13 35 8 37 9 38 11 40
REMARK H PARENT 21 20 23 22 32 24 29 26 15 34 13 36 9 39 11 41
REMARK Flexibility Score: inf
ROOT
ATOM      1  O   UNL     1      95.383 103.657 100.131  1.00  0.00    -0.454 OA
ENDROOT
BRANCH   1   2
ATOM      2  C   UNL     1      95.259 104.942  99.592  1.00  0.00     0.214 A 
ATOM      3  C   UNL     1      95.412 105.184  98.214  1.00  0.00     0.180 A 
ATOM      4  O   UNL     1      95.389 106.431  97.760  1.00  0.00    -0.452 OA
ATOM      5  C   UNL     1      95.010 106.020 100.447  1.00  0.00     0.239 A 
ATOM      6  C   UNL     1      95.170 107.486  98.536  1.00  0.00     0.146 A 
ATOM      7  O   UNL     1      94.914 105.790 101.681  1.00  0.00    -0.285 OA
ATOM      8  C   UNL     1      94.922 107.331  99.925  1.00  0.00     0.111 A 
ATOM      9  C   UNL     1      95.194 108.757  97.957  1.00  0.00     0.094 A 
ATOM     10  C   UNL     1      94.641 108.494 100.700  1.00  0.00     0.134 A 
ATOM     11  C   UNL     1      94.981 109.894  98.739  1.00  0.00     0.123 A 
ATOM     12  C   UNL     1      94.710 109.757 100.100  1.00  0.00     0.093 A 
BRANCH   3  13
ATOM     13  C   UNL     1      95.618 104.091  97.244  1.00  0.00     0.025 A 
ATOM     14  C   UNL     1      96.838 103.946  96.563  1.00  0.00     0.016 A 
ATOM     15  C   UNL     1      97.011 102.916  95.637  1.00  0.00     0.051 A 
ATOM     16  C   UNL     1      95.973 102.013  95.384  1.00  0.00     0.157 A 
ATOM     17  C   UNL     1      94.584 103.167  97.010  1.00  0.00     0.062 A 
ATOM     18  C   UNL     1      94.754 102.136  96.075  1.00  0.00     0.158 A 
BRANCH  16  19
ATOM     19  O   UNL     1      96.167 101.001  94.443  1.00  0.00    -0.504 OA
ATOM     20  H   UNL     1      95.762 100.079  94.553  1.00  0.00     0.293 HD
ENDBRANCH  16  19
BRANCH  18  21
ATOM     21  O   UNL     1      93.713 101.244  95.821  1.00  0.00    -0.504 OA
ATOM     22  H   UNL     1      92.834 101.299  96.321  1.00  0.00     0.293 HD
ENDBRANCH  18  21
ENDBRANCH   3  13
BRANCH  10  23
ATOM     23  O   UNL     1      94.267 108.463 102.048  1.00  0.00    -0.507 OA
ATOM     24  H   UNL     1      94.052 109.277 102.605  1.00  0.00     0.293 HD
ENDBRANCH  10  23
BRANCH  11  25
ATOM     25  O   UNL     1      95.027 111.165  98.171  1.00  0.00    -0.508 OA
ATOM     26  H   UNL     1      95.715 111.851  98.458  1.00  0.00     0.293 HD
ENDBRANCH  11  25
ENDBRANCH   1   2
BRANCH   1  27
ATOM     27  C   UNL     1      94.263 102.782 100.262  1.00  0.00     0.339 C 
ATOM     28  C   UNL     1      94.257 101.803  99.080  1.00  0.00     0.214 C 
ATOM     29  O   UNL     1      94.362 102.085 101.491  1.00  0.00    -0.332 OA
ATOM     30  C   UNL     1      93.035 100.887  99.182  1.00  0.00     0.180 C 
ATOM     31  C   UNL     1      93.255 101.232 101.744  1.00  0.00     0.179 C 
ATOM     32  C   UNL     1      92.940 100.239 100.582  1.00  0.00     0.177 C 
BRANCH  28  33
ATOM     33  O   UNL     1      95.429 101.029  99.080  1.00  0.00    -0.384 OA
ATOM     34  H   UNL     1      96.109 101.533  99.600  1.00  0.00     0.211 HD
ENDBRANCH  28  33
BRANCH  30  35
ATOM     35  O   UNL     1      91.875 101.627  98.895  1.00  0.00    -0.387 OA
ATOM     36  H   UNL     1      92.125 102.587  98.912  1.00  0.00     0.211 HD
ENDBRANCH  30  35
BRANCH  31  37
ATOM     37  C   UNL     1      92.034 101.991 102.308  1.00  0.00     0.191 C 
BRANCH  37  38
ATOM     38  O   UNL     1      92.240 102.427 103.623  1.00  0.00    -0.394 OA
ATOM     39  H   UNL     1      91.345 102.636 103.993  1.00  0.00     0.210 HD
ENDBRANCH  37  38
ENDBRANCH  31  37
BRANCH  32  40
ATOM     40  O   UNL     1      93.841  99.161 100.631  1.00  0.00    -0.387 OA
ATOM     41  H   UNL     1      94.329  99.151  99.765  1.00  0.00     0.211 HD
ENDBRANCH  32  40
ENDBRANCH   1  27
TORSDOF 12
ENDMDL
