MODEL 1
REMARK VINA RESULT:    -5.747      0.000      0.000
REMARK INTER + INTRA:          -7.576
REMARK INTER:                  -8.099
REMARK INTRA:                   0.523
REMARK UNBOUND:                 0.523
REMARK SMILES CC1=CCC(=C(C)C)C(=O)CC(C)=CCC1
REMARK SMILES IDX 12 1 14 2 13 3 15 4 16 5 2 6 1 7 3 8 11 10 9 11 10 12 5 13
REMARK SMILES IDX 6 14 7 15 8 16 4 17
REMARK H PARENT
REMARK Flexibility Score: 60.00
ROOT
ATOM      1  C   UNL     1      39.532 -13.109   9.146  1.00  0.00    -0.070 C 
ATOM      2  C   UNL     1      39.117 -11.841   9.370  1.00  0.00    -0.027 C 
ATOM      3  C   UNL     1      39.058 -13.801   7.894  1.00  0.00     0.039 C 
ENDROOT
BRANCH   2   4
ATOM      4  C   UNL     1      39.607 -10.955  10.487  1.00  0.00     0.032 C 
BRANCH   4   5
ATOM      5  C   UNL     1      40.225  -9.679   9.905  1.00  0.00     0.034 C 
BRANCH   5   6
ATOM      6  C   UNL     1      41.381  -9.968   8.969  1.00  0.00    -0.077 C 
ATOM      7  C   UNL     1      41.298  -9.480   7.545  1.00  0.00     0.039 C 
ATOM      8  C   UNL     1      42.462 -10.710   9.321  1.00  0.00    -0.023 CG0
ATOM      9  G   UNL     1      42.798 -11.258  10.695  1.00  0.00     0.000 G0
ENDBRANCH   5   6
ENDBRANCH   4   5
ENDBRANCH   2   4
BRANCH   1  10
ATOM     10  C   UNL     1      40.431 -13.872  10.099  1.00  0.00     0.111 C 
BRANCH  10  11
ATOM     11  C   UNL     1      41.888 -13.543   9.885  1.00  0.00     0.163 C 
ATOM     12  O   UNL     1      42.423 -13.966   8.824  1.00  0.00    -0.294 OA
BRANCH  11  13
ATOM     13  C   UNL     1      42.723 -12.769  10.864  1.00  0.00    -0.002 C 
ATOM     14  C   UNL     1      43.261 -13.387  11.960  1.00  0.00    -0.069 C 
ATOM     15  C   UNL     1      43.287 -14.894  12.084  1.00  0.00     0.039 C 
ATOM     16  C   UNL     1      43.907 -12.607  13.083  1.00  0.00     0.039 C 
BRANCH  13  17
ATOM     17  C   UNL     1      42.795 -11.255  10.696  1.00  0.00     0.066 CG0
ATOM     18  G   UNL     1      42.464 -10.711   9.319  1.00  0.00     0.000 G0
ENDBRANCH  13  17
ENDBRANCH  11  13
ENDBRANCH  10  11
ENDBRANCH   1  10
TORSDOF 0
ENDMDL
MODEL 2
REMARK VINA RESULT:    -5.547      1.718      4.548
REMARK INTER + INTRA:          -7.294
REMARK INTER:                  -7.495
REMARK INTRA:                   0.202
REMARK UNBOUND:                 0.523
REMARK SMILES CC1=CCC(=C(C)C)C(=O)CC(C)=CCC1
REMARK SMILES IDX 12 1 14 2 13 3 15 4 16 5 2 6 1 7 3 8 11 10 9 11 10 12 5 13
REMARK SMILES IDX 6 14 7 15 8 16 4 17
REMARK H PARENT
REMARK Flexibility Score: 60.00
ROOT
ATOM      1  C   UNL     1      41.503  -9.852  10.352  1.00  0.00    -0.070 C 
ATOM      2  C   UNL     1      42.328 -10.448  11.243  1.00  0.00    -0.027 C 
ATOM      3  C   UNL     1      40.328  -9.073  10.885  1.00  0.00     0.039 C 
ENDROOT
BRANCH   2   4
ATOM      4  C   UNL     1      43.623 -11.139  10.895  1.00  0.00     0.032 C 
BRANCH   4   5
ATOM      5  C   UNL     1      43.573 -12.600  11.355  1.00  0.00     0.034 C 
BRANCH   5   6
ATOM      6  C   UNL     1      43.439 -13.569  10.198  1.00  0.00    -0.077 C 
ATOM      7  C   UNL     1      44.681 -14.250   9.679  1.00  0.00     0.039 C 
ATOM      8  C   UNL     1      42.271 -13.805   9.549  1.00  0.00    -0.023 CG0
ATOM      9  G   UNL     1      40.891 -13.289   9.914  1.00  0.00     0.000 G0
ENDBRANCH   5   6
ENDBRANCH   4   5
ENDBRANCH   2   4
BRANCH   1  10
ATOM     10  C   UNL     1      41.690  -9.945   8.850  1.00  0.00     0.111 C 
BRANCH  10  11
ATOM     11  C   UNL     1      41.256 -11.286   8.310  1.00  0.00     0.163 C 
ATOM     12  O   UNL     1      41.722 -11.632   7.190  1.00  0.00    -0.294 OA
BRANCH  11  13
ATOM     13  C   UNL     1      40.297 -12.200   9.016  1.00  0.00    -0.002 C 
ATOM     14  C   UNL     1      38.952 -11.952   8.988  1.00  0.00    -0.069 C 
ATOM     15  C   UNL     1      38.353 -10.943   8.035  1.00  0.00     0.039 C 
ATOM     16  C   UNL     1      37.980 -12.706   9.869  1.00  0.00     0.039 C 
BRANCH  13  17
ATOM     17  C   UNL     1      40.881 -13.293   9.903  1.00  0.00     0.066 CG0
ATOM     18  G   UNL     1      42.263 -13.798   9.534  1.00  0.00     0.000 G0
ENDBRANCH  13  17
ENDBRANCH  11  13
ENDBRANCH  10  11
ENDBRANCH   1  10
TORSDOF 0
ENDMDL
MODEL 3
REMARK VINA RESULT:    -5.408      1.484      4.062
REMARK INTER + INTRA:          -7.098
REMARK INTER:                  -7.474
REMARK INTRA:                   0.377
REMARK UNBOUND:                 0.523
REMARK SMILES CC1=CCC(=C(C)C)C(=O)CC(C)=CCC1
REMARK SMILES IDX 12 1 14 2 13 3 15 4 16 5 2 6 1 7 3 8 11 10 9 11 10 12 5 13
REMARK SMILES IDX 6 14 7 15 8 16 4 17
REMARK H PARENT
REMARK Flexibility Score: 60.00
ROOT
ATOM      1  C   UNL     1      40.825 -13.467   9.207  1.00  0.00    -0.070 C 
ATOM      2  C   UNL     1      41.823 -14.318   9.537  1.00  0.00    -0.027 C 
ATOM      3  C   UNL     1      39.520 -13.581   9.954  1.00  0.00     0.039 C 
ENDROOT
BRANCH   2   4
ATOM      4  C   UNL     1      43.230 -14.250   9.000  1.00  0.00     0.032 C 
BRANCH   4   5
ATOM      5  C   UNL     1      44.150 -13.590  10.033  1.00  0.00     0.034 C 
BRANCH   5   6
ATOM      6  C   UNL     1      43.445 -13.320  11.348  1.00  0.00    -0.077 C 
ATOM      7  C   UNL     1      43.311 -14.448  12.340  1.00  0.00     0.039 C 
ATOM      8  C   UNL     1      42.859 -12.136  11.655  1.00  0.00    -0.023 CG0
ATOM      9  G   UNL     1      42.905 -10.848  10.853  1.00  0.00     0.000 G0
ENDBRANCH   5   6
ENDBRANCH   4   5
ENDBRANCH   2   4
BRANCH   1  10
ATOM     10  C   UNL     1      40.946 -12.422   8.116  1.00  0.00     0.111 C 
BRANCH  10  11
ATOM     11  C   UNL     1      41.817 -11.264   8.539  1.00  0.00     0.163 C 
ATOM     12  O   UNL     1      42.669 -10.852   7.705  1.00  0.00    -0.294 OA
BRANCH  11  13
ATOM     13  C   UNL     1      41.736 -10.606   9.885  1.00  0.00    -0.002 C 
ATOM     14  C   UNL     1      40.751  -9.695  10.155  1.00  0.00    -0.069 C 
ATOM     15  C   UNL     1      39.559  -9.525   9.241  1.00  0.00     0.039 C 
ATOM     16  C   UNL     1      40.768  -8.843  11.405  1.00  0.00     0.039 C 
BRANCH  13  17
ATOM     17  C   UNL     1      42.879 -10.846  10.865  1.00  0.00     0.066 CG0
ATOM     18  G   UNL     1      42.834 -12.142  11.653  1.00  0.00     0.000 G0
ENDBRANCH  13  17
ENDBRANCH  11  13
ENDBRANCH  10  11
ENDBRANCH   1  10
TORSDOF 0
ENDMDL
MODEL 4
REMARK VINA RESULT:    -5.362      1.575      3.290
REMARK INTER + INTRA:          -7.033
REMARK INTER:                  -7.112
REMARK INTRA:                   0.079
REMARK UNBOUND:                 0.523
REMARK SMILES CC1=CCC(=C(C)C)C(=O)CC(C)=CCC1
REMARK SMILES IDX 12 1 14 2 13 3 15 4 16 5 2 6 1 7 3 8 11 10 9 11 10 12 5 13
REMARK SMILES IDX 6 14 7 15 8 16 4 17
REMARK H PARENT
REMARK Flexibility Score: 60.00
ROOT
ATOM      1  C   UNL     1      41.063 -10.125   9.966  1.00  0.00    -0.070 C 
ATOM      2  C   UNL     1      39.716 -10.215   9.881  1.00  0.00    -0.027 C 
ATOM      3  C   UNL     1      41.658  -9.552  11.226  1.00  0.00     0.039 C 
ENDROOT
BRANCH   2   4
ATOM      4  C   UNL     1      38.963 -10.893   8.764  1.00  0.00     0.032 C 
BRANCH   4   5
ATOM      5  C   UNL     1      38.433 -12.249   9.242  1.00  0.00     0.034 C 
BRANCH   5   6
ATOM      6  C   UNL     1      39.174 -13.414   8.616  1.00  0.00    -0.077 C 
ATOM      7  C   UNL     1      38.650 -13.994   7.326  1.00  0.00     0.039 C 
ATOM      8  C   UNL     1      40.245 -14.017   9.190  1.00  0.00    -0.023 CG0
ATOM      9  G   UNL     1      40.984 -13.587  10.445  1.00  0.00     0.000 G0
ENDBRANCH   5   6
ENDBRANCH   4   5
ENDBRANCH   2   4
BRANCH   1  10
ATOM     10  C   UNL     1      41.999 -10.552   8.852  1.00  0.00     0.111 C 
BRANCH  10  11
ATOM     11  C   UNL     1      42.416 -11.996   8.989  1.00  0.00     0.163 C 
ATOM     12  O   UNL     1      42.894 -12.555   7.964  1.00  0.00    -0.294 OA
BRANCH  11  13
ATOM     13  C   UNL     1      42.273 -12.791  10.254  1.00  0.00    -0.002 C 
ATOM     14  C   UNL     1      43.328 -12.923  11.115  1.00  0.00    -0.069 C 
ATOM     15  C   UNL     1      44.565 -12.062  10.988  1.00  0.00     0.039 C 
ATOM     16  C   UNL     1      43.300 -13.895  12.273  1.00  0.00     0.039 C 
BRANCH  13  17
ATOM     17  C   UNL     1      40.987 -13.586  10.452  1.00  0.00     0.066 CG0
ATOM     18  G   UNL     1      40.258 -14.017   9.193  1.00  0.00     0.000 G0
ENDBRANCH  13  17
ENDBRANCH  11  13
ENDBRANCH  10  11
ENDBRANCH   1  10
TORSDOF 0
ENDMDL
MODEL 5
REMARK VINA RESULT:    -5.300      2.058      4.536
REMARK INTER + INTRA:          -6.946
REMARK INTER:                  -7.226
REMARK INTRA:                   0.280
REMARK UNBOUND:                 0.523
REMARK SMILES CC1=CCC(=C(C)C)C(=O)CC(C)=CCC1
REMARK SMILES IDX 12 1 14 2 13 3 15 4 16 5 2 6 1 7 3 8 11 10 9 11 10 12 5 13
REMARK SMILES IDX 6 14 7 15 8 16 4 17
REMARK H PARENT
REMARK Flexibility Score: 60.00
ROOT
ATOM      1  C   UNL     1      39.407 -12.413   9.946  1.00  0.00    -0.070 C 
ATOM      2  C   UNL     1      40.084 -13.582   9.874  1.00  0.00    -0.027 C 
ATOM      3  C   UNL     1      37.990 -12.381   9.432  1.00  0.00     0.039 C 
ENDROOT
BRANCH   2   4
ATOM      4  C   UNL     1      41.447 -13.829  10.470  1.00  0.00     0.032 C 
BRANCH   4   5
ATOM      5  C   UNL     1      42.495 -13.909   9.355  1.00  0.00     0.034 C 
BRANCH   5   6
ATOM      6  C   UNL     1      43.322 -12.643   9.246  1.00  0.00    -0.077 C 
ATOM      7  C   UNL     1      44.560 -12.513  10.097  1.00  0.00     0.039 C 
ATOM      8  C   UNL     1      42.971 -11.582   8.476  1.00  0.00    -0.023 CG0
ATOM      9  G   UNL     1      41.813 -11.494   7.498  1.00  0.00     0.000 G0
ENDBRANCH   5   6
ENDBRANCH   4   5
ENDBRANCH   2   4
BRANCH   1  10
ATOM     10  C   UNL     1      40.006 -11.134  10.500  1.00  0.00     0.111 C 
BRANCH  10  11
ATOM     11  C   UNL     1      40.545 -10.245   9.406  1.00  0.00     0.163 C 
ATOM     12  O   UNL     1      40.944  -9.097   9.744  1.00  0.00    -0.294 OA
BRANCH  11  13
ATOM     13  C   UNL     1      40.607 -10.643   7.960  1.00  0.00    -0.002 C 
ATOM     14  C   UNL     1      39.553 -10.393   7.124  1.00  0.00    -0.069 C 
ATOM     15  C   UNL     1      38.424  -9.472   7.528  1.00  0.00     0.039 C 
ATOM     16  C   UNL     1      39.479 -10.979   5.731  1.00  0.00     0.039 C 
BRANCH  13  17
ATOM     17  C   UNL     1      41.793 -11.487   7.505  1.00  0.00     0.066 CG0
ATOM     18  G   UNL     1      42.960 -11.588   8.469  1.00  0.00     0.000 G0
ENDBRANCH  13  17
ENDBRANCH  11  13
ENDBRANCH  10  11
ENDBRANCH   1  10
TORSDOF 0
ENDMDL
MODEL 6
REMARK VINA RESULT:    -5.201      1.814      4.573
REMARK INTER + INTRA:          -6.806
REMARK INTER:                  -6.917
REMARK INTRA:                   0.112
REMARK UNBOUND:                 0.523
REMARK SMILES CC1=CCC(=C(C)C)C(=O)CC(C)=CCC1
REMARK SMILES IDX 12 1 14 2 13 3 15 4 16 5 2 6 1 7 3 8 11 10 9 11 10 12 5 13
REMARK SMILES IDX 6 14 7 15 8 16 4 17
REMARK H PARENT
REMARK Flexibility Score: 60.00
ROOT
ATOM      1  C   UNL     1      40.946 -10.370  10.625  1.00  0.00    -0.070 C 
ATOM      2  C   UNL     1      42.149 -10.415  11.242  1.00  0.00    -0.027 C 
ATOM      3  C   UNL     1      40.431  -9.029  10.171  1.00  0.00     0.039 C 
ENDROOT
BRANCH   2   4
ATOM      4  C   UNL     1      42.878 -11.678  11.627  1.00  0.00     0.032 C 
BRANCH   4   5
ATOM      5  C   UNL     1      43.975 -11.978  10.600  1.00  0.00     0.034 C 
BRANCH   5   6
ATOM      6  C   UNL     1      43.631 -13.157   9.712  1.00  0.00    -0.077 C 
ATOM      7  C   UNL     1      44.004 -14.543  10.174  1.00  0.00     0.039 C 
ATOM      8  C   UNL     1      43.070 -13.030   8.483  1.00  0.00    -0.023 CG0
ATOM      9  G   UNL     1      42.559 -11.761   7.828  1.00  0.00     0.000 G0
ENDBRANCH   5   6
ENDBRANCH   4   5
ENDBRANCH   2   4
BRANCH   1  10
ATOM     10  C   UNL     1      40.086 -11.596  10.386  1.00  0.00     0.111 C 
BRANCH  10  11
ATOM     11  C   UNL     1      40.299 -12.174   9.008  1.00  0.00     0.163 C 
ATOM     12  O   UNL     1      39.811 -13.315   8.782  1.00  0.00    -0.294 OA
BRANCH  11  13
ATOM     13  C   UNL     1      41.067 -11.480   7.920  1.00  0.00    -0.002 C 
ATOM     14  C   UNL     1      40.413 -10.754   6.962  1.00  0.00    -0.069 C 
ATOM     15  C   UNL     1      38.955 -10.383   7.109  1.00  0.00     0.039 C 
ATOM     16  C   UNL     1      41.119 -10.237   5.728  1.00  0.00     0.039 C 
BRANCH  13  17
ATOM     17  C   UNL     1      42.562 -11.760   7.816  1.00  0.00     0.066 CG0
ATOM     18  G   UNL     1      43.062 -13.023   8.493  1.00  0.00     0.000 G0
ENDBRANCH  13  17
ENDBRANCH  11  13
ENDBRANCH  10  11
ENDBRANCH   1  10
TORSDOF 0
ENDMDL
MODEL 7
REMARK VINA RESULT:    -5.159      2.042      5.111
REMARK INTER + INTRA:          -6.746
REMARK INTER:                  -7.214
REMARK INTRA:                   0.468
REMARK UNBOUND:                 0.523
REMARK SMILES CC1=CCC(=C(C)C)C(=O)CC(C)=CCC1
REMARK SMILES IDX 12 1 14 2 13 3 15 4 16 5 2 6 1 7 3 8 11 10 9 11 10 12 5 13
REMARK SMILES IDX 6 14 7 15 8 16 4 17
REMARK H PARENT
REMARK Flexibility Score: 60.00
ROOT
ATOM      1  C   UNL     1      41.510 -10.385  10.016  1.00  0.00    -0.070 C 
ATOM      2  C   UNL     1      42.671 -11.058   9.848  1.00  0.00    -0.027 C 
ATOM      3  C   UNL     1      41.375  -9.491  11.221  1.00  0.00     0.039 C 
ENDROOT
BRANCH   2   4
ATOM      4  C   UNL     1      43.030 -11.875   8.633  1.00  0.00     0.032 C 
BRANCH   4   5
ATOM      5  C   UNL     1      43.271 -13.333   9.040  1.00  0.00     0.034 C 
BRANCH   5   6
ATOM      6  C   UNL     1      42.325 -13.795  10.130  1.00  0.00    -0.077 C 
ATOM      7  C   UNL     1      42.860 -13.953  11.531  1.00  0.00     0.039 C 
ATOM      8  C   UNL     1      41.034 -14.147   9.903  1.00  0.00    -0.023 CG0
ATOM      9  G   UNL     1      40.258 -14.023   8.605  1.00  0.00     0.000 G0
ENDBRANCH   5   6
ENDBRANCH   4   5
ENDBRANCH   2   4
BRANCH   1  10
ATOM     10  C   UNL     1      40.335 -10.500   9.064  1.00  0.00     0.111 C 
BRANCH  10  11
ATOM     11  C   UNL     1      39.472 -11.699   9.376  1.00  0.00     0.163 C 
ATOM     12  O   UNL     1      38.886 -11.709  10.493  1.00  0.00    -0.294 OA
BRANCH  11  13
ATOM     13  C   UNL     1      39.298 -12.868   8.450  1.00  0.00    -0.002 C 
ATOM     14  C   UNL     1      38.208 -12.947   7.628  1.00  0.00    -0.069 C 
ATOM     15  C   UNL     1      37.299 -11.759   7.404  1.00  0.00     0.039 C 
ATOM     16  C   UNL     1      37.876 -14.204   6.856  1.00  0.00     0.039 C 
BRANCH  13  17
ATOM     17  C   UNL     1      40.269 -14.035   8.589  1.00  0.00     0.066 CG0
ATOM     18  G   UNL     1      41.026 -14.133   9.900  1.00  0.00     0.000 G0
ENDBRANCH  13  17
ENDBRANCH  11  13
ENDBRANCH  10  11
ENDBRANCH   1  10
TORSDOF 0
ENDMDL
MODEL 8
REMARK VINA RESULT:    -5.031      1.921      2.532
REMARK INTER + INTRA:          -6.567
REMARK INTER:                  -6.731
REMARK INTRA:                   0.164
REMARK UNBOUND:                 0.523
REMARK SMILES CC1=CCC(=C(C)C)C(=O)CC(C)=CCC1
REMARK SMILES IDX 12 1 14 2 13 3 15 4 16 5 2 6 1 7 3 8 11 10 9 11 10 12 5 13
REMARK SMILES IDX 6 14 7 15 8 16 4 17
REMARK H PARENT
REMARK Flexibility Score: 60.00
ROOT
ATOM      1  C   UNL     1      39.975 -13.246   8.964  1.00  0.00    -0.070 C 
ATOM      2  C   UNL     1      39.275 -12.835   7.881  1.00  0.00    -0.027 C 
ATOM      3  C   UNL     1      40.407 -14.689   9.022  1.00  0.00     0.039 C 
ENDROOT
BRANCH   2   4
ATOM      4  C   UNL     1      38.893 -11.406   7.591  1.00  0.00     0.032 C 
BRANCH   4   5
ATOM      5  C   UNL     1      39.876 -10.800   6.583  1.00  0.00     0.034 C 
BRANCH   5   6
ATOM      6  C   UNL     1      40.864  -9.852   7.234  1.00  0.00    -0.077 C 
ATOM      7  C   UNL     1      40.487  -8.398   7.369  1.00  0.00     0.039 C 
ATOM      8  C   UNL     1      42.104 -10.224   7.639  1.00  0.00    -0.023 CG0
ATOM      9  G   UNL     1      42.688 -11.625   7.659  1.00  0.00     0.000 G0
ENDBRANCH   5   6
ENDBRANCH   4   5
ENDBRANCH   2   4
BRANCH   1  10
ATOM     10  C   UNL     1      40.328 -12.336  10.123  1.00  0.00     0.111 C 
BRANCH  10  11
ATOM     11  C   UNL     1      41.766 -11.881  10.065  1.00  0.00     0.163 C 
ATOM     12  O   UNL     1      42.147 -11.068  10.951  1.00  0.00    -0.294 OA
BRANCH  11  13
ATOM     13  C   UNL     1      42.740 -12.323   9.012  1.00  0.00    -0.002 C 
ATOM     14  C   UNL     1      43.737 -13.210   9.316  1.00  0.00    -0.069 C 
ATOM     15  C   UNL     1      43.733 -13.990  10.611  1.00  0.00     0.039 C 
ATOM     16  C   UNL     1      44.869 -13.502   8.357  1.00  0.00     0.039 C 
BRANCH  13  17
ATOM     17  C   UNL     1      42.694 -11.620   7.660  1.00  0.00     0.066 CG0
ATOM     18  G   UNL     1      42.096 -10.226   7.643  1.00  0.00     0.000 G0
ENDBRANCH  13  17
ENDBRANCH  11  13
ENDBRANCH  10  11
ENDBRANCH   1  10
TORSDOF 0
ENDMDL
MODEL 9
REMARK VINA RESULT:    -4.940      3.322      5.840
REMARK INTER + INTRA:          -6.439
REMARK INTER:                  -6.350
REMARK INTRA:                  -0.088
REMARK UNBOUND:                 0.523
REMARK SMILES CC1=CCC(=C(C)C)C(=O)CC(C)=CCC1
REMARK SMILES IDX 12 1 14 2 13 3 15 4 16 5 2 6 1 7 3 8 11 10 9 11 10 12 5 13
REMARK SMILES IDX 6 14 7 15 8 16 4 17
REMARK H PARENT
REMARK Flexibility Score: 60.00
ROOT
ATOM      1  C   UNL     1      40.769 -10.129  10.245  1.00  0.00    -0.070 C 
ATOM      2  C   UNL     1      40.075 -11.265  10.486  1.00  0.00    -0.027 C 
ATOM      3  C   UNL     1      41.003  -9.183  11.396  1.00  0.00     0.039 C 
ENDROOT
BRANCH   2   4
ATOM      4  C   UNL     1      39.877 -12.383   9.494  1.00  0.00     0.032 C 
BRANCH   4   5
ATOM      5  C   UNL     1      38.456 -12.324   8.922  1.00  0.00     0.034 C 
BRANCH   5   6
ATOM      6  C   UNL     1      38.408 -12.686   7.451  1.00  0.00    -0.077 C 
ATOM      7  C   UNL     1      38.366 -14.143   7.066  1.00  0.00     0.039 C 
ATOM      8  C   UNL     1      38.476 -11.770   6.452  1.00  0.00    -0.023 CG0
ATOM      9  G   UNL     1      38.468 -10.258   6.583  1.00  0.00     0.000 G0
ENDBRANCH   5   6
ENDBRANCH   4   5
ENDBRANCH   2   4
BRANCH   1  10
ATOM     10  C   UNL     1      41.304  -9.752   8.878  1.00  0.00     0.111 C 
BRANCH  10  11
ATOM     11  C   UNL     1      40.257  -9.069   8.031  1.00  0.00     0.163 C 
ATOM     12  O   UNL     1      39.718  -8.034   8.510  1.00  0.00    -0.294 OA
BRANCH  11  13
ATOM     13  C   UNL     1      39.819  -9.564   6.684  1.00  0.00    -0.002 C 
ATOM     14  C   UNL     1      40.542  -9.259   5.563  1.00  0.00    -0.069 C 
ATOM     15  C   UNL     1      41.934  -8.674   5.654  1.00  0.00     0.039 C 
ATOM     16  C   UNL     1      40.018  -9.536   4.171  1.00  0.00     0.039 C 
BRANCH  13  17
ATOM     17  C   UNL     1      38.462 -10.251   6.585  1.00  0.00     0.066 CG0
ATOM     18  G   UNL     1      38.477 -11.762   6.444  1.00  0.00     0.000 G0
ENDBRANCH  13  17
ENDBRANCH  11  13
ENDBRANCH  10  11
ENDBRANCH   1  10
TORSDOF 0
ENDMDL
