MODEL 1
REMARK VINA RESULT:    -4.139      0.000      0.000
REMARK INTER + INTRA:          -6.127
REMARK INTER:                  -5.590
REMARK INTRA:                  -0.537
REMARK UNBOUND:                -0.537
REMARK SMILES [NH3+]CCCC[C@H]([NH3+])C(=O)[O-]
REMARK SMILES IDX 4 1 3 2 2 3 1 4 5 8 6 9 7 10 8 14 9 15 10 16
REMARK H PARENT 1 5 1 6 1 7 7 11 7 12 7 13
REMARK Flexibility Score: inf
ROOT
ATOM      1  C   UNL     1     -21.816  28.399  -8.959  1.00  0.00     0.012 C 
ENDROOT
BRANCH   1   2
ATOM      2  C   UNL     1     -21.563  26.994  -8.398  1.00  0.00     0.061 C 
BRANCH   2   3
ATOM      3  C   UNL     1     -20.102  26.572  -8.606  1.00  0.00     0.258 C 
BRANCH   3   4
ATOM      4  N   UNL     1     -19.209  27.728  -8.534  1.00  0.00    -0.358 N 
ATOM      5  H   UNL     1     -19.740  28.587  -8.800  1.00  0.00     0.344 HD
ATOM      6  H   UNL     1     -18.846  27.841  -7.559  1.00  0.00     0.344 HD
ATOM      7  H   UNL     1     -18.409  27.605  -9.198  1.00  0.00     0.344 HD
ENDBRANCH   3   4
ENDBRANCH   2   3
ENDBRANCH   1   2
BRANCH   1   8
ATOM      8  C   UNL     1     -22.528  28.327 -10.319  1.00  0.00     0.072 C 
BRANCH   8   9
ATOM      9  C   UNL     1     -21.775  29.098 -11.427  1.00  0.00     0.227 C 
BRANCH   9  10
ATOM     10  N   UNL     1     -22.631  29.350 -12.596  1.00  0.00    -0.350 N 
ATOM     11  H   UNL     1     -23.285  28.547 -12.738  1.00  0.00     0.345 HD
ATOM     12  H   UNL     1     -22.046  29.437 -13.458  1.00  0.00     0.345 HD
ATOM     13  H   UNL     1     -23.189  30.226 -12.466  1.00  0.00     0.345 HD
ENDBRANCH   9  10
BRANCH   9  14
ATOM     14  C   UNL     1     -20.550  28.325 -11.837  1.00  0.00     0.099 C 
ATOM     15  O   UNL     1     -20.658  27.276 -12.527  1.00  0.00    -0.544 OA
ATOM     16  O   UNL     1     -19.291  28.757 -11.439  1.00  0.00    -0.544 OA
ENDBRANCH   9  14
ENDBRANCH   8   9
ENDBRANCH   1   8
TORSDOF 7
ENDMDL
MODEL 2
REMARK VINA RESULT:    -4.120      2.010      2.410
REMARK INTER + INTRA:          -6.102
REMARK INTER:                  -5.558
REMARK INTRA:                  -0.544
REMARK UNBOUND:                -0.537
REMARK SMILES [NH3+]CCCC[C@H]([NH3+])C(=O)[O-]
REMARK SMILES IDX 4 1 3 2 2 3 1 4 5 8 6 9 7 10 8 14 9 15 10 16
REMARK H PARENT 1 5 1 6 1 7 7 11 7 12 7 13
REMARK Flexibility Score: inf
ROOT
ATOM      1  C   UNL     1     -19.427  27.992  -9.472  1.00  0.00     0.012 C 
ENDROOT
BRANCH   1   2
ATOM      2  C   UNL     1     -20.032  26.595  -9.276  1.00  0.00     0.061 C 
BRANCH   2   3
ATOM      3  C   UNL     1     -21.089  26.603  -8.163  1.00  0.00     0.258 C 
BRANCH   3   4
ATOM      4  N   UNL     1     -21.807  27.878  -8.133  1.00  0.00    -0.358 N 
ATOM      5  H   UNL     1     -21.604  28.362  -7.230  1.00  0.00     0.344 HD
ATOM      6  H   UNL     1     -21.491  28.487  -8.923  1.00  0.00     0.344 HD
ATOM      7  H   UNL     1     -22.837  27.710  -8.204  1.00  0.00     0.344 HD
ENDBRANCH   3   4
ENDBRANCH   2   3
ENDBRANCH   1   2
BRANCH   1   8
ATOM      8  C   UNL     1     -19.333  28.345 -10.964  1.00  0.00     0.072 C 
BRANCH   8   9
ATOM      9  C   UNL     1     -20.567  27.875 -11.766  1.00  0.00     0.227 C 
BRANCH   9  10
ATOM     10  N   UNL     1     -20.256  27.692 -13.192  1.00  0.00    -0.350 N 
ATOM     11  H   UNL     1     -19.347  28.154 -13.420  1.00  0.00     0.345 HD
ATOM     12  H   UNL     1     -20.993  28.140 -13.781  1.00  0.00     0.345 HD
ATOM     13  H   UNL     1     -20.192  26.675 -13.430  1.00  0.00     0.345 HD
ENDBRANCH   9  10
BRANCH   9  14
ATOM     14  C   UNL     1     -21.686  28.870 -11.603  1.00  0.00     0.099 C 
ATOM     15  O   UNL     1     -22.683  28.596 -10.883  1.00  0.00    -0.544 OA
ATOM     16  O   UNL     1     -21.632  30.090 -12.265  1.00  0.00    -0.544 OA
ENDBRANCH   9  14
ENDBRANCH   8   9
ENDBRANCH   1   8
TORSDOF 7
ENDMDL
MODEL 3
REMARK VINA RESULT:    -4.112      1.282      1.636
REMARK INTER + INTRA:          -6.091
REMARK INTER:                  -5.552
REMARK INTRA:                  -0.539
REMARK UNBOUND:                -0.537
REMARK SMILES [NH3+]CCCC[C@H]([NH3+])C(=O)[O-]
REMARK SMILES IDX 4 1 3 2 2 3 1 4 5 8 6 9 7 10 8 14 9 15 10 16
REMARK H PARENT 1 5 1 6 1 7 7 11 7 12 7 13
REMARK Flexibility Score: inf
ROOT
ATOM      1  C   UNL     1     -21.355  25.767 -10.395  1.00  0.00     0.012 C 
ENDROOT
BRANCH   1   2
ATOM      2  C   UNL     1     -21.460  26.662  -9.153  1.00  0.00     0.061 C 
BRANCH   2   3
ATOM      3  C   UNL     1     -20.199  26.551  -8.286  1.00  0.00     0.258 C 
BRANCH   3   4
ATOM      4  N   UNL     1     -19.302  27.682  -8.521  1.00  0.00    -0.358 N 
ATOM      5  H   UNL     1     -18.508  27.635  -7.844  1.00  0.00     0.344 HD
ATOM      6  H   UNL     1     -18.920  27.641  -9.494  1.00  0.00     0.344 HD
ATOM      7  H   UNL     1     -19.816  28.583  -8.379  1.00  0.00     0.344 HD
ENDBRANCH   3   4
ENDBRANCH   2   3
ENDBRANCH   1   2
BRANCH   1   8
ATOM      8  C   UNL     1     -21.520  26.591 -11.682  1.00  0.00     0.072 C 
BRANCH   8   9
ATOM      9  C   UNL     1     -21.566  28.112 -11.412  1.00  0.00     0.227 C 
BRANCH   9  10
ATOM     10  N   UNL     1     -22.730  28.745 -12.048  1.00  0.00    -0.350 N 
ATOM     11  H   UNL     1     -22.415  29.506 -12.692  1.00  0.00     0.345 HD
ATOM     12  H   UNL     1     -23.344  29.181 -11.323  1.00  0.00     0.345 HD
ATOM     13  H   UNL     1     -23.283  28.044 -12.594  1.00  0.00     0.345 HD
ENDBRANCH   9  10
BRANCH   9  14
ATOM     14  C   UNL     1     -20.294  28.751 -11.904  1.00  0.00     0.099 C 
ATOM     15  O   UNL     1     -19.182  28.423 -11.411  1.00  0.00    -0.544 OA
ATOM     16  O   UNL     1     -20.345  29.725 -12.894  1.00  0.00    -0.544 OA
ENDBRANCH   9  14
ENDBRANCH   8   9
ENDBRANCH   1   8
TORSDOF 7
ENDMDL
MODEL 4
REMARK VINA RESULT:    -3.983      1.907      3.629
REMARK INTER + INTRA:          -5.917
REMARK INTER:                  -5.394
REMARK INTRA:                  -0.523
REMARK UNBOUND:                -0.537
REMARK SMILES [NH3+]CCCC[C@H]([NH3+])C(=O)[O-]
REMARK SMILES IDX 4 1 3 2 2 3 1 4 5 8 6 9 7 10 8 14 9 15 10 16
REMARK H PARENT 1 5 1 6 1 7 7 11 7 12 7 13
REMARK Flexibility Score: inf
ROOT
ATOM      1  C   UNL     1     -22.274  28.194 -10.451  1.00  0.00     0.012 C 
ENDROOT
BRANCH   1   2
ATOM      2  C   UNL     1     -22.252  29.110 -11.681  1.00  0.00     0.061 C 
BRANCH   2   3
ATOM      3  C   UNL     1     -21.194  28.649 -12.694  1.00  0.00     0.258 C 
BRANCH   3   4
ATOM      4  N   UNL     1     -19.964  29.427 -12.556  1.00  0.00    -0.358 N 
ATOM      5  H   UNL     1     -19.907  29.806 -11.584  1.00  0.00     0.344 HD
ATOM      6  H   UNL     1     -19.131  28.819 -12.732  1.00  0.00     0.344 HD
ATOM      7  H   UNL     1     -19.968  30.227 -13.231  1.00  0.00     0.344 HD
ENDBRANCH   3   4
ENDBRANCH   2   3
ENDBRANCH   1   2
BRANCH   1   8
ATOM      8  C   UNL     1     -21.677  26.817 -10.780  1.00  0.00     0.072 C 
BRANCH   8   9
ATOM      9  C   UNL     1     -20.695  26.320  -9.696  1.00  0.00     0.227 C 
BRANCH   9  10
ATOM     10  N   UNL     1     -21.385  26.012  -8.434  1.00  0.00    -0.350 N 
ATOM     11  H   UNL     1     -22.299  25.546  -8.633  1.00  0.00     0.345 HD
ATOM     12  H   UNL     1     -21.588  26.893  -7.910  1.00  0.00     0.345 HD
ATOM     13  H   UNL     1     -20.802  25.380  -7.837  1.00  0.00     0.345 HD
ENDBRANCH   9  10
BRANCH   9  14
ATOM     14  C   UNL     1     -19.629  27.357  -9.464  1.00  0.00     0.099 C 
ATOM     15  O   UNL     1     -18.775  27.606 -10.357  1.00  0.00    -0.544 OA
ATOM     16  O   UNL     1     -19.570  28.034  -8.252  1.00  0.00    -0.544 OA
ENDBRANCH   9  14
ENDBRANCH   8   9
ENDBRANCH   1   8
TORSDOF 7
ENDMDL
MODEL 5
REMARK VINA RESULT:    -3.959      2.322      4.148
REMARK INTER + INTRA:          -5.885
REMARK INTER:                  -5.329
REMARK INTRA:                  -0.556
REMARK UNBOUND:                -0.537
REMARK SMILES [NH3+]CCCC[C@H]([NH3+])C(=O)[O-]
REMARK SMILES IDX 4 1 3 2 2 3 1 4 5 8 6 9 7 10 8 14 9 15 10 16
REMARK H PARENT 1 5 1 6 1 7 7 11 7 12 7 13
REMARK Flexibility Score: inf
ROOT
ATOM      1  C   UNL     1     -21.810  26.106 -11.428  1.00  0.00     0.012 C 
ENDROOT
BRANCH   1   2
ATOM      2  C   UNL     1     -21.178  26.865 -12.602  1.00  0.00     0.061 C 
BRANCH   2   3
ATOM      3  C   UNL     1     -22.072  28.029 -13.051  1.00  0.00     0.258 C 
BRANCH   3   4
ATOM      4  N   UNL     1     -21.535  29.308 -12.588  1.00  0.00    -0.358 N 
ATOM      5  H   UNL     1     -20.748  29.129 -11.926  1.00  0.00     0.344 HD
ATOM      6  H   UNL     1     -21.176  29.862 -13.400  1.00  0.00     0.344 HD
ATOM      7  H   UNL     1     -22.279  29.851 -12.090  1.00  0.00     0.344 HD
ENDBRANCH   3   4
ENDBRANCH   2   3
ENDBRANCH   1   2
BRANCH   1   8
ATOM      8  C   UNL     1     -20.817  25.973 -10.262  1.00  0.00     0.072 C 
BRANCH   8   9
ATOM      9  C   UNL     1     -20.409  27.340  -9.670  1.00  0.00     0.227 C 
BRANCH   9  10
ATOM     10  N   UNL     1     -19.387  27.199  -8.622  1.00  0.00    -0.350 N 
ATOM     11  H   UNL     1     -18.459  27.514  -8.986  1.00  0.00     0.345 HD
ATOM     12  H   UNL     1     -19.292  26.196  -8.345  1.00  0.00     0.345 HD
ATOM     13  H   UNL     1     -19.636  27.770  -7.781  1.00  0.00     0.345 HD
ENDBRANCH   9  10
BRANCH   9  14
ATOM     14  C   UNL     1     -21.625  28.036  -9.118  1.00  0.00     0.099 C 
ATOM     15  O   UNL     1     -21.937  29.190  -9.518  1.00  0.00    -0.544 OA
ATOM     16  O   UNL     1     -22.400  27.415  -8.146  1.00  0.00    -0.544 OA
ENDBRANCH   9  14
ENDBRANCH   8   9
ENDBRANCH   1   8
TORSDOF 7
ENDMDL
MODEL 6
REMARK VINA RESULT:    -3.884      2.288      4.011
REMARK INTER + INTRA:          -5.783
REMARK INTER:                  -5.318
REMARK INTRA:                  -0.466
REMARK UNBOUND:                -0.537
REMARK SMILES [NH3+]CCCC[C@H]([NH3+])C(=O)[O-]
REMARK SMILES IDX 4 1 3 2 2 3 1 4 5 8 6 9 7 10 8 14 9 15 10 16
REMARK H PARENT 1 5 1 6 1 7 7 11 7 12 7 13
REMARK Flexibility Score: inf
ROOT
ATOM      1  C   UNL     1     -22.132  28.727 -10.540  1.00  0.00     0.012 C 
ENDROOT
BRANCH   1   2
ATOM      2  C   UNL     1     -22.419  28.590 -12.041  1.00  0.00     0.061 C 
BRANCH   2   3
ATOM      3  C   UNL     1     -21.347  27.736 -12.731  1.00  0.00     0.258 C 
BRANCH   3   4
ATOM      4  N   UNL     1     -21.714  26.320 -12.710  1.00  0.00    -0.358 N 
ATOM      5  H   UNL     1     -22.396  26.156 -11.936  1.00  0.00     0.344 HD
ATOM      6  H   UNL     1     -22.159  26.050 -13.617  1.00  0.00     0.344 HD
ATOM      7  H   UNL     1     -20.864  25.732 -12.542  1.00  0.00     0.344 HD
ENDBRANCH   3   4
ENDBRANCH   2   3
ENDBRANCH   1   2
BRANCH   1   8
ATOM      8  C   UNL     1     -20.628  28.599 -10.253  1.00  0.00     0.072 C 
BRANCH   8   9
ATOM      9  C   UNL     1     -20.337  27.933  -8.889  1.00  0.00     0.227 C 
BRANCH   9  10
ATOM     10  N   UNL     1     -18.893  27.802  -8.643  1.00  0.00    -0.350 N 
ATOM     11  H   UNL     1     -18.512  28.702  -8.273  1.00  0.00     0.345 HD
ATOM     12  H   UNL     1     -18.393  27.591  -9.536  1.00  0.00     0.345 HD
ATOM     13  H   UNL     1     -18.703  27.040  -7.951  1.00  0.00     0.345 HD
ENDBRANCH   9  10
BRANCH   9  14
ATOM     14  C   UNL     1     -20.998  26.582  -8.834  1.00  0.00     0.099 C 
ATOM     15  O   UNL     1     -21.757  26.281  -7.874  1.00  0.00    -0.544 OA
ATOM     16  O   UNL     1     -20.757  25.649  -9.835  1.00  0.00    -0.544 OA
ENDBRANCH   9  14
ENDBRANCH   8   9
ENDBRANCH   1   8
TORSDOF 7
ENDMDL
MODEL 7
REMARK VINA RESULT:    -3.652      2.154      3.734
REMARK INTER + INTRA:          -5.470
REMARK INTER:                  -5.144
REMARK INTRA:                  -0.326
REMARK UNBOUND:                -0.537
REMARK SMILES [NH3+]CCCC[C@H]([NH3+])C(=O)[O-]
REMARK SMILES IDX 4 1 3 2 2 3 1 4 5 8 6 9 7 10 8 14 9 15 10 16
REMARK H PARENT 1 5 1 6 1 7 7 11 7 12 7 13
REMARK Flexibility Score: inf
ROOT
ATOM      1  C   UNL     1     -22.256  28.656 -11.636  1.00  0.00     0.012 C 
ENDROOT
BRANCH   1   2
ATOM      2  C   UNL     1     -21.175  28.916 -12.693  1.00  0.00     0.061 C 
BRANCH   2   3
ATOM      3  C   UNL     1     -20.622  27.599 -13.253  1.00  0.00     0.258 C 
BRANCH   3   4
ATOM      4  N   UNL     1     -21.499  26.478 -12.914  1.00  0.00    -0.358 N 
ATOM      5  H   UNL     1     -22.190  26.341 -13.686  1.00  0.00     0.344 HD
ATOM      6  H   UNL     1     -20.937  25.602 -12.803  1.00  0.00     0.344 HD
ATOM      7  H   UNL     1     -22.016  26.682 -12.028  1.00  0.00     0.344 HD
ENDBRANCH   3   4
ENDBRANCH   2   3
ENDBRANCH   1   2
BRANCH   1   8
ATOM      8  C   UNL     1     -21.693  28.838 -10.218  1.00  0.00     0.072 C 
BRANCH   8   9
ATOM      9  C   UNL     1     -21.693  27.525  -9.405  1.00  0.00     0.227 C 
BRANCH   9  10
ATOM     10  N   UNL     1     -22.297  27.704  -8.076  1.00  0.00    -0.350 N 
ATOM     11  H   UNL     1     -22.330  28.721  -7.835  1.00  0.00     0.345 HD
ATOM     12  H   UNL     1     -21.717  27.227  -7.349  1.00  0.00     0.345 HD
ATOM     13  H   UNL     1     -23.268  27.316  -8.054  1.00  0.00     0.345 HD
ENDBRANCH   9  10
BRANCH   9  14
ATOM     14  C   UNL     1     -20.284  27.013  -9.269  1.00  0.00     0.099 C 
ATOM     15  O   UNL     1     -20.024  26.055  -8.493  1.00  0.00    -0.544 OA
ATOM     16  O   UNL     1     -19.256  27.611  -9.988  1.00  0.00    -0.544 OA
ENDBRANCH   9  14
ENDBRANCH   8   9
ENDBRANCH   1   8
TORSDOF 7
ENDMDL
MODEL 8
REMARK VINA RESULT:    -3.589      2.003      2.366
REMARK INTER + INTRA:          -5.385
REMARK INTER:                  -5.253
REMARK INTRA:                  -0.132
REMARK UNBOUND:                -0.537
REMARK SMILES [NH3+]CCCC[C@H]([NH3+])C(=O)[O-]
REMARK SMILES IDX 4 1 3 2 2 3 1 4 5 8 6 9 7 10 8 14 9 15 10 16
REMARK H PARENT 1 5 1 6 1 7 7 11 7 12 7 13
REMARK Flexibility Score: inf
ROOT
ATOM      1  C   UNL     1     -19.184  28.191 -10.063  1.00  0.00     0.012 C 
ENDROOT
BRANCH   1   2
ATOM      2  C   UNL     1     -19.620  27.699  -8.676  1.00  0.00     0.061 C 
BRANCH   2   3
ATOM      3  C   UNL     1     -20.272  26.312  -8.762  1.00  0.00     0.258 C 
BRANCH   3   4
ATOM      4  N   UNL     1     -21.612  26.328  -8.177  1.00  0.00    -0.358 N 
ATOM      5  H   UNL     1     -21.827  27.293  -7.841  1.00  0.00     0.344 HD
ATOM      6  H   UNL     1     -22.321  26.054  -8.896  1.00  0.00     0.344 HD
ATOM      7  H   UNL     1     -21.657  25.669  -7.366  1.00  0.00     0.344 HD
ENDBRANCH   3   4
ENDBRANCH   2   3
ENDBRANCH   1   2
BRANCH   1   8
ATOM      8  C   UNL     1     -20.034  27.545 -11.167  1.00  0.00     0.072 C 
BRANCH   8   9
ATOM      9  C   UNL     1     -21.092  28.512 -11.746  1.00  0.00     0.227 C 
BRANCH   9  10
ATOM     10  N   UNL     1     -22.008  29.004 -10.707  1.00  0.00    -0.350 N 
ATOM     11  H   UNL     1     -22.590  28.216 -10.343  1.00  0.00     0.345 HD
ATOM     12  H   UNL     1     -22.659  29.716 -11.109  1.00  0.00     0.345 HD
ATOM     13  H   UNL     1     -21.476  29.430  -9.914  1.00  0.00     0.345 HD
ENDBRANCH   9  10
BRANCH   9  14
ATOM     14  C   UNL     1     -21.867  27.821 -12.836  1.00  0.00     0.099 C 
ATOM     15  O   UNL     1     -22.817  28.410 -13.416  1.00  0.00    -0.544 OA
ATOM     16  O   UNL     1     -21.548  26.516 -13.195  1.00  0.00    -0.544 OA
ENDBRANCH   9  14
ENDBRANCH   8   9
ENDBRANCH   1   8
TORSDOF 7
ENDMDL
MODEL 9
REMARK VINA RESULT:    -3.542     12.183     13.160
REMARK INTER + INTRA:          -5.321
REMARK INTER:                  -5.182
REMARK INTRA:                  -0.139
REMARK UNBOUND:                -0.537
REMARK SMILES [NH3+]CCCC[C@H]([NH3+])C(=O)[O-]
REMARK SMILES IDX 4 1 3 2 2 3 1 4 5 8 6 9 7 10 8 14 9 15 10 16
REMARK H PARENT 1 5 1 6 1 7 7 11 7 12 7 13
REMARK Flexibility Score: inf
ROOT
ATOM      1  C   UNL     1     -23.285  34.942   1.415  1.00  0.00     0.012 C 
ENDROOT
BRANCH   1   2
ATOM      2  C   UNL     1     -23.726  34.424   2.790  1.00  0.00     0.061 C 
BRANCH   2   3
ATOM      3  C   UNL     1     -25.009  35.124   3.259  1.00  0.00     0.258 C 
BRANCH   3   4
ATOM      4  N   UNL     1     -26.107  34.883   2.323  1.00  0.00    -0.358 N 
ATOM      5  H   UNL     1     -25.892  34.033   1.756  1.00  0.00     0.344 HD
ATOM      6  H   UNL     1     -26.998  34.725   2.847  1.00  0.00     0.344 HD
ATOM      7  H   UNL     1     -26.215  35.701   1.679  1.00  0.00     0.344 HD
ENDBRANCH   3   4
ENDBRANCH   2   3
ENDBRANCH   1   2
BRANCH   1   8
ATOM      8  C   UNL     1     -21.948  34.312   0.993  1.00  0.00     0.072 C 
BRANCH   8   9
ATOM      9  C   UNL     1     -22.062  33.494  -0.312  1.00  0.00     0.227 C 
BRANCH   9  10
ATOM     10  N   UNL     1     -23.380  33.653  -0.944  1.00  0.00    -0.350 N 
ATOM     11  H   UNL     1     -23.267  33.787  -1.975  1.00  0.00     0.345 HD
ATOM     12  H   UNL     1     -23.860  34.502  -0.568  1.00  0.00     0.345 HD
ATOM     13  H   UNL     1     -23.979  32.812  -0.772  1.00  0.00     0.345 HD
ENDBRANCH   9  10
BRANCH   9  14
ATOM     14  C   UNL     1     -21.798  32.040  -0.024  1.00  0.00     0.099 C 
ATOM     15  O   UNL     1     -22.751  31.255   0.227  1.00  0.00    -0.544 OA
ATOM     16  O   UNL     1     -20.494  31.560  -0.012  1.00  0.00    -0.544 OA
ENDBRANCH   9  14
ENDBRANCH   8   9
ENDBRANCH   1   8
TORSDOF 7
ENDMDL
