MODEL 1
REMARK VINA RESULT:    -5.392      0.000      0.000
REMARK INTER + INTRA:          -6.107
REMARK INTER:                  -5.865
REMARK INTRA:                  -0.242
REMARK UNBOUND:                -0.242
REMARK SMILES C=C1C[C@]2(O)O[C@]3(C[C@H]2C(C)C)[C@H](C)CC[C@@H]13
REMARK SMILES IDX 14 1 13 2 15 3 16 4 17 5 7 6 8 7 9 8 4 9 6 10 3 11 2 12 1 13
REMARK SMILES IDX 10 14 11 15 12 16 5 17
REMARK H PARENT 5 18
REMARK Flexibility Score: inf
ROOT
ATOM      1  C   UNL     1      11.125  50.833  18.441  1.00  0.00     0.011 C 
ATOM      2  C   UNL     1      10.893  52.041  19.364  1.00  0.00     0.019 C 
ATOM      3  C   UNL     1      11.535  53.333  18.792  1.00  0.00     0.007 C 
ATOM      4  C   UNL     1      12.761  53.666  19.666  1.00  0.00     0.011 C 
ATOM      5  C   UNL     1      12.971  52.412  20.501  1.00  0.00     0.047 C 
ATOM      6  C   UNL     1      11.560  51.879  20.742  1.00  0.00     0.081 C 
ATOM      7  C   UNL     1      10.789  52.658  21.846  1.00  0.00     0.046 C 
ATOM      8  C   UNL     1      10.945  51.774  23.083  1.00  0.00     0.054 C 
ATOM      9  C   UNL     1      11.986  50.741  22.593  1.00  0.00     0.173 C 
ATOM     10  O   UNL     1      11.701  50.558  21.216  1.00  0.00    -0.342 OA
ATOM     11  C   UNL     1      13.447  51.302  22.764  1.00  0.00     0.096 C 
ATOM     12  C   UNL     1      13.712  52.463  21.815  1.00  0.00    -0.066 C 
ATOM     13  C   UNL     1      14.696  53.341  22.052  1.00  0.00     0.008 C 
ENDROOT
BRANCH   8  14
ATOM     14  C   UNL     1       9.602  51.153  23.592  1.00  0.00    -0.009 C 
ATOM     15  C   UNL     1       9.464  51.291  25.116  1.00  0.00     0.008 C 
ATOM     16  C   UNL     1       8.342  51.695  22.889  1.00  0.00     0.008 C 
ENDBRANCH   8  14
BRANCH   9  17
ATOM     17  O   UNL     1      11.872  49.508  23.260  1.00  0.00    -0.365 OA
ATOM     18  H   UNL     1      12.785  49.125  23.329  1.00  0.00     0.214 HD
ENDBRANCH   9  17
TORSDOF 2
ENDMDL
MODEL 2
REMARK VINA RESULT:    -5.206      1.726      4.790
REMARK INTER + INTRA:          -5.904
REMARK INTER:                  -5.628
REMARK INTRA:                  -0.276
REMARK UNBOUND:                -0.242
REMARK SMILES C=C1C[C@]2(O)O[C@]3(C[C@H]2C(C)C)[C@H](C)CC[C@@H]13
REMARK SMILES IDX 14 1 13 2 15 3 16 4 17 5 7 6 8 7 9 8 4 9 6 10 3 11 2 12 1 13
REMARK SMILES IDX 10 14 11 15 12 16 5 17
REMARK H PARENT 5 18
REMARK Flexibility Score: inf
ROOT
ATOM      1  C   UNL     1      11.463  48.835  24.805  1.00  0.00     0.011 C 
ATOM      2  C   UNL     1      11.511  50.367  24.925  1.00  0.00     0.019 C 
ATOM      3  C   UNL     1      10.096  50.973  25.125  1.00  0.00     0.007 C 
ATOM      4  C   UNL     1       9.710  51.691  23.816  1.00  0.00     0.011 C 
ATOM      5  C   UNL     1      10.753  51.219  22.814  1.00  0.00     0.047 C 
ATOM      6  C   UNL     1      12.024  51.052  23.645  1.00  0.00     0.081 C 
ATOM      7  C   UNL     1      12.732  52.401  23.964  1.00  0.00     0.046 C 
ATOM      8  C   UNL     1      13.851  52.472  22.926  1.00  0.00     0.054 C 
ATOM      9  C   UNL     1      13.486  51.289  21.999  1.00  0.00     0.173 C 
ATOM     10  O   UNL     1      12.929  50.309  22.859  1.00  0.00    -0.342 OA
ATOM     11  C   UNL     1      12.417  51.730  20.931  1.00  0.00     0.096 C 
ATOM     12  C   UNL     1      11.072  52.025  21.579  1.00  0.00    -0.066 C 
ATOM     13  C   UNL     1      10.158  52.787  20.963  1.00  0.00     0.008 C 
ENDROOT
BRANCH   8  14
ATOM     14  C   UNL     1      15.289  52.400  23.538  1.00  0.00    -0.009 C 
ATOM     15  C   UNL     1      16.114  53.645  23.178  1.00  0.00     0.008 C 
ATOM     16  C   UNL     1      15.323  52.156  25.059  1.00  0.00     0.008 C 
ENDBRANCH   8  14
BRANCH   9  17
ATOM     17  O   UNL     1      14.611  50.752  21.348  1.00  0.00    -0.365 OA
ATOM     18  H   UNL     1      14.375  49.830  21.064  1.00  0.00     0.214 HD
ENDBRANCH   9  17
TORSDOF 2
ENDMDL
MODEL 3
REMARK VINA RESULT:    -4.917      1.996      3.828
REMARK INTER + INTRA:          -5.590
REMARK INTER:                  -5.383
REMARK INTRA:                  -0.207
REMARK UNBOUND:                -0.242
REMARK SMILES C=C1C[C@]2(O)O[C@]3(C[C@H]2C(C)C)[C@H](C)CC[C@@H]13
REMARK SMILES IDX 14 1 13 2 15 3 16 4 17 5 7 6 8 7 9 8 4 9 6 10 3 11 2 12 1 13
REMARK SMILES IDX 10 14 11 15 12 16 5 17
REMARK H PARENT 5 18
REMARK Flexibility Score: inf
ROOT
ATOM      1  C   UNL     1      14.488  54.404  20.655  1.00  0.00     0.011 C 
ATOM      2  C   UNL     1      13.959  52.987  20.932  1.00  0.00     0.019 C 
ATOM      3  C   UNL     1      14.877  51.900  20.312  1.00  0.00     0.007 C 
ATOM      4  C   UNL     1      14.127  51.291  19.109  1.00  0.00     0.011 C 
ATOM      5  C   UNL     1      12.961  52.241  18.882  1.00  0.00     0.047 C 
ATOM      6  C   UNL     1      12.588  52.722  20.284  1.00  0.00     0.081 C 
ATOM      7  C   UNL     1      11.766  51.677  21.093  1.00  0.00     0.046 C 
ATOM      8  C   UNL     1      10.324  52.157  20.936  1.00  0.00     0.054 C 
ATOM      9  C   UNL     1      10.482  53.258  19.862  1.00  0.00     0.173 C 
ATOM     10  O   UNL     1      11.748  53.842  20.119  1.00  0.00    -0.342 OA
ATOM     11  C   UNL     1      10.469  52.630  18.418  1.00  0.00     0.096 C 
ATOM     12  C   UNL     1      11.712  51.789  18.166  1.00  0.00    -0.066 C 
ATOM     13  C   UNL     1      11.733  50.853  17.208  1.00  0.00     0.008 C 
ENDROOT
BRANCH   8  14
ATOM     14  C   UNL     1       9.668  52.641  22.272  1.00  0.00    -0.009 C 
ATOM     15  C   UNL     1       8.205  52.182  22.376  1.00  0.00     0.008 C 
ATOM     16  C   UNL     1      10.444  52.247  23.543  1.00  0.00     0.008 C 
ENDBRANCH   8  14
BRANCH   9  17
ATOM     17  O   UNL     1       9.486  54.246  19.957  1.00  0.00    -0.365 OA
ATOM     18  H   UNL     1       9.347  54.433  20.922  1.00  0.00     0.214 HD
ENDBRANCH   9  17
TORSDOF 2
ENDMDL
MODEL 4
REMARK VINA RESULT:    -4.893      1.059      1.218
REMARK INTER + INTRA:          -5.564
REMARK INTER:                  -5.354
REMARK INTRA:                  -0.209
REMARK UNBOUND:                -0.242
REMARK SMILES C=C1C[C@]2(O)O[C@]3(C[C@H]2C(C)C)[C@H](C)CC[C@@H]13
REMARK SMILES IDX 14 1 13 2 15 3 16 4 17 5 7 6 8 7 9 8 4 9 6 10 3 11 2 12 1 13
REMARK SMILES IDX 10 14 11 15 12 16 5 17
REMARK H PARENT 5 18
REMARK Flexibility Score: inf
ROOT
ATOM      1  C   UNL     1      11.542  50.651  17.558  1.00  0.00     0.011 C 
ATOM      2  C   UNL     1      11.288  52.002  18.246  1.00  0.00     0.019 C 
ATOM      3  C   UNL     1      12.200  53.119  17.674  1.00  0.00     0.007 C 
ATOM      4  C   UNL     1      13.254  53.454  18.750  1.00  0.00     0.011 C 
ATOM      5  C   UNL     1      13.119  52.326  19.762  1.00  0.00     0.047 C 
ATOM      6  C   UNL     1      11.630  51.983  19.748  1.00  0.00     0.081 C 
ATOM      7  C   UNL     1      10.758  52.996  20.545  1.00  0.00     0.046 C 
ATOM      8  C   UNL     1      10.537  52.299  21.887  1.00  0.00     0.054 C 
ATOM      9  C   UNL     1      11.510  51.103  21.775  1.00  0.00     0.173 C 
ATOM     10  O   UNL     1      11.493  50.743  20.404  1.00  0.00    -0.342 OA
ATOM     11  C   UNL     1      12.966  51.530  22.195  1.00  0.00     0.096 C 
ATOM     12  C   UNL     1      13.572  52.500  21.191  1.00  0.00    -0.066 C 
ATOM     13  C   UNL     1      14.595  53.297  21.528  1.00  0.00     0.008 C 
ENDROOT
BRANCH   8  14
ATOM     14  C   UNL     1       9.048  51.904  22.158  1.00  0.00    -0.009 C 
ATOM     15  C   UNL     1       8.656  52.169  23.620  1.00  0.00     0.008 C 
ATOM     16  C   UNL     1       8.030  52.559  21.204  1.00  0.00     0.008 C 
ENDBRANCH   8  14
BRANCH   9  17
ATOM     17  O   UNL     1      11.098  50.003  22.550  1.00  0.00    -0.365 OA
ATOM     18  H   UNL     1      10.107  49.966  22.505  1.00  0.00     0.214 HD
ENDBRANCH   9  17
TORSDOF 2
ENDMDL
MODEL 5
REMARK VINA RESULT:    -4.672      1.794      4.500
REMARK INTER + INTRA:          -5.324
REMARK INTER:                  -5.046
REMARK INTRA:                  -0.278
REMARK UNBOUND:                -0.242
REMARK SMILES C=C1C[C@]2(O)O[C@]3(C[C@H]2C(C)C)[C@H](C)CC[C@@H]13
REMARK SMILES IDX 14 1 13 2 15 3 16 4 17 5 7 6 8 7 9 8 4 9 6 10 3 11 2 12 1 13
REMARK SMILES IDX 10 14 11 15 12 16 5 17
REMARK H PARENT 5 18
REMARK Flexibility Score: inf
ROOT
ATOM      1  C   UNL     1      16.391  50.293  21.510  1.00  0.00     0.011 C 
ATOM      2  C   UNL     1      15.832  51.719  21.648  1.00  0.00     0.019 C 
ATOM      3  C   UNL     1      16.312  52.399  22.958  1.00  0.00     0.007 C 
ATOM      4  C   UNL     1      15.100  52.481  23.909  1.00  0.00     0.011 C 
ATOM      5  C   UNL     1      14.060  51.580  23.259  1.00  0.00     0.047 C 
ATOM      6  C   UNL     1      14.297  51.753  21.760  1.00  0.00     0.081 C 
ATOM      7  C   UNL     1      13.712  53.079  21.193  1.00  0.00     0.046 C 
ATOM      8  C   UNL     1      12.386  52.647  20.569  1.00  0.00     0.054 C 
ATOM      9  C   UNL     1      12.268  51.190  21.074  1.00  0.00     0.173 C 
ATOM     10  O   UNL     1      13.601  50.708  21.116  1.00  0.00    -0.342 OA
ATOM     11  C   UNL     1      11.642  51.153  22.518  1.00  0.00     0.096 C 
ATOM     12  C   UNL     1      12.589  51.750  23.550  1.00  0.00    -0.066 C 
ATOM     13  C   UNL     1      12.137  52.193  24.731  1.00  0.00     0.008 C 
ENDROOT
BRANCH   8  14
ATOM     14  C   UNL     1      12.338  52.802  19.012  1.00  0.00    -0.009 C 
ATOM     15  C   UNL     1      11.331  53.882  18.588  1.00  0.00     0.008 C 
ATOM     16  C   UNL     1      13.708  53.060  18.355  1.00  0.00     0.008 C 
ENDBRANCH   8  14
BRANCH   9  17
ATOM     17  O   UNL     1      11.509  50.383  20.209  1.00  0.00    -0.365 OA
ATOM     18  H   UNL     1      11.764  50.625  19.280  1.00  0.00     0.214 HD
ENDBRANCH   9  17
TORSDOF 2
ENDMDL
MODEL 6
REMARK VINA RESULT:    -4.476      1.686      2.229
REMARK INTER + INTRA:          -5.111
REMARK INTER:                  -4.836
REMARK INTRA:                  -0.274
REMARK UNBOUND:                -0.242
REMARK SMILES C=C1C[C@]2(O)O[C@]3(C[C@H]2C(C)C)[C@H](C)CC[C@@H]13
REMARK SMILES IDX 14 1 13 2 15 3 16 4 17 5 7 6 8 7 9 8 4 9 6 10 3 11 2 12 1 13
REMARK SMILES IDX 10 14 11 15 12 16 5 17
REMARK H PARENT 5 18
REMARK Flexibility Score: inf
ROOT
ATOM      1  C   UNL     1      13.301  51.019  17.217  1.00  0.00     0.011 C 
ATOM      2  C   UNL     1      12.896  52.364  17.842  1.00  0.00     0.019 C 
ATOM      3  C   UNL     1      13.994  53.444  17.644  1.00  0.00     0.007 C 
ATOM      4  C   UNL     1      14.653  53.692  19.016  1.00  0.00     0.011 C 
ATOM      5  C   UNL     1      14.146  52.548  19.881  1.00  0.00     0.047 C 
ATOM      6  C   UNL     1      12.729  52.288  19.371  1.00  0.00     0.081 C 
ATOM      7  C   UNL     1      11.691  53.328  19.885  1.00  0.00     0.046 C 
ATOM      8  C   UNL     1      11.015  52.610  21.052  1.00  0.00     0.054 C 
ATOM      9  C   UNL     1      11.917  51.365  21.211  1.00  0.00     0.173 C 
ATOM     10  O   UNL     1      12.331  51.041  19.895  1.00  0.00    -0.342 OA
ATOM     11  C   UNL     1      13.174  51.700  22.098  1.00  0.00     0.096 C 
ATOM     12  C   UNL     1      14.116  52.660  21.386  1.00  0.00    -0.066 C 
ATOM     13  C   UNL     1      15.007  53.391  22.069  1.00  0.00     0.008 C 
ENDROOT
BRANCH   8  14
ATOM     14  C   UNL     1       9.502  52.291  20.809  1.00  0.00    -0.009 C 
ATOM     15  C   UNL     1       8.617  52.909  21.903  1.00  0.00     0.008 C 
ATOM     16  C   UNL     1       8.983  52.687  19.413  1.00  0.00     0.008 C 
ENDBRANCH   8  14
BRANCH   9  17
ATOM     17  O   UNL     1      11.227  50.271  21.764  1.00  0.00    -0.365 OA
ATOM     18  H   UNL     1      10.328  50.247  21.344  1.00  0.00     0.214 HD
ENDBRANCH   9  17
TORSDOF 2
ENDMDL
MODEL 7
REMARK VINA RESULT:    -4.465     14.330     15.747
REMARK INTER + INTRA:          -5.099
REMARK INTER:                  -4.926
REMARK INTRA:                  -0.172
REMARK UNBOUND:                -0.242
REMARK SMILES C=C1C[C@]2(O)O[C@]3(C[C@H]2C(C)C)[C@H](C)CC[C@@H]13
REMARK SMILES IDX 14 1 13 2 15 3 16 4 17 5 7 6 8 7 9 8 4 9 6 10 3 11 2 12 1 13
REMARK SMILES IDX 10 14 11 15 12 16 5 17
REMARK H PARENT 5 18
REMARK Flexibility Score: inf
ROOT
ATOM      1  C   UNL     1      17.507  51.767   7.124  1.00  0.00     0.011 C 
ATOM      2  C   UNL     1      16.616  52.259   5.971  1.00  0.00     0.019 C 
ATOM      3  C   UNL     1      17.443  52.984   4.875  1.00  0.00     0.007 C 
ATOM      4  C   UNL     1      17.116  54.488   4.967  1.00  0.00     0.011 C 
ATOM      5  C   UNL     1      16.372  54.624   6.287  1.00  0.00     0.047 C 
ATOM      6  C   UNL     1      15.590  53.318   6.415  1.00  0.00     0.081 C 
ATOM      7  C   UNL     1      14.309  53.279   5.532  1.00  0.00     0.046 C 
ATOM      8  C   UNL     1      13.189  53.625   6.512  1.00  0.00     0.054 C 
ATOM      9  C   UNL     1      13.994  54.059   7.759  1.00  0.00     0.173 C 
ATOM     10  O   UNL     1      15.150  53.238   7.753  1.00  0.00    -0.342 OA
ATOM     11  C   UNL     1      14.416  55.572   7.648  1.00  0.00     0.096 C 
ATOM     12  C   UNL     1      15.441  55.784   6.543  1.00  0.00    -0.066 C 
ATOM     13  C   UNL     1      15.634  56.994   6.000  1.00  0.00     0.008 C 
ENDROOT
BRANCH   8  14
ATOM     14  C   UNL     1      12.182  52.454   6.763  1.00  0.00    -0.009 C 
ATOM     15  C   UNL     1      10.747  52.977   6.934  1.00  0.00     0.008 C 
ATOM     16  C   UNL     1      12.223  51.339   5.701  1.00  0.00     0.008 C 
ENDBRANCH   8  14
BRANCH   9  17
ATOM     17  O   UNL     1      13.283  53.853   8.954  1.00  0.00    -0.365 OA
ATOM     18  H   UNL     1      12.510  53.268   8.740  1.00  0.00     0.214 HD
ENDBRANCH   9  17
TORSDOF 2
ENDMDL
MODEL 8
REMARK VINA RESULT:    -4.369     13.842     14.954
REMARK INTER + INTRA:          -4.994
REMARK INTER:                  -4.732
REMARK INTRA:                  -0.262
REMARK UNBOUND:                -0.242
REMARK SMILES C=C1C[C@]2(O)O[C@]3(C[C@H]2C(C)C)[C@H](C)CC[C@@H]13
REMARK SMILES IDX 14 1 13 2 15 3 16 4 17 5 7 6 8 7 9 8 4 9 6 10 3 11 2 12 1 13
REMARK SMILES IDX 10 14 11 15 12 16 5 17
REMARK H PARENT 5 18
REMARK Flexibility Score: inf
ROOT
ATOM      1  C   UNL     1      11.843  50.033   7.875  1.00  0.00     0.011 C 
ATOM      2  C   UNL     1      11.440  51.018   6.764  1.00  0.00     0.019 C 
ATOM      3  C   UNL     1      11.912  50.534   5.368  1.00  0.00     0.007 C 
ATOM      4  C   UNL     1      13.071  51.451   4.927  1.00  0.00     0.011 C 
ATOM      5  C   UNL     1      13.436  52.218   6.189  1.00  0.00     0.047 C 
ATOM      6  C   UNL     1      12.105  52.398   6.918  1.00  0.00     0.081 C 
ATOM      7  C   UNL     1      11.222  53.528   6.314  1.00  0.00     0.046 C 
ATOM      8  C   UNL     1      11.478  54.716   7.240  1.00  0.00     0.054 C 
ATOM      9  C   UNL     1      12.654  54.191   8.096  1.00  0.00     0.173 C 
ATOM     10  O   UNL     1      12.414  52.800   8.233  1.00  0.00    -0.342 OA
ATOM     11  C   UNL     1      14.024  54.424   7.357  1.00  0.00     0.096 C 
ATOM     12  C   UNL     1      14.145  53.548   6.118  1.00  0.00    -0.066 C 
ATOM     13  C   UNL     1      15.000  53.854   5.133  1.00  0.00     0.008 C 
ENDROOT
BRANCH   8  14
ATOM     14  C   UNL     1      10.223  55.161   8.062  1.00  0.00    -0.009 C 
ATOM     15  C   UNL     1       9.974  56.672   7.930  1.00  0.00     0.008 C 
ATOM     16  C   UNL     1       8.937  54.376   7.737  1.00  0.00     0.008 C 
ENDBRANCH   8  14
BRANCH   9  17
ATOM     17  O   UNL     1      12.696  54.784   9.370  1.00  0.00    -0.365 OA
ATOM     18  H   UNL     1      13.579  54.564   9.768  1.00  0.00     0.214 HD
ENDBRANCH   9  17
TORSDOF 2
ENDMDL
MODEL 9
REMARK VINA RESULT:    -4.278      2.587      5.060
REMARK INTER + INTRA:          -4.895
REMARK INTER:                  -4.619
REMARK INTRA:                  -0.276
REMARK UNBOUND:                -0.242
REMARK SMILES C=C1C[C@]2(O)O[C@]3(C[C@H]2C(C)C)[C@H](C)CC[C@@H]13
REMARK SMILES IDX 14 1 13 2 15 3 16 4 17 5 7 6 8 7 9 8 4 9 6 10 3 11 2 12 1 13
REMARK SMILES IDX 10 14 11 15 12 16 5 17
REMARK H PARENT 5 18
REMARK Flexibility Score: inf
ROOT
ATOM      1  C   UNL     1      12.381  53.472  19.886  1.00  0.00     0.011 C 
ATOM      2  C   UNL     1      13.011  52.114  20.235  1.00  0.00     0.019 C 
ATOM      3  C   UNL     1      11.934  51.015  20.436  1.00  0.00     0.007 C 
ATOM      4  C   UNL     1      11.876  50.694  21.944  1.00  0.00     0.011 C 
ATOM      5  C   UNL     1      12.675  51.815  22.591  1.00  0.00     0.047 C 
ATOM      6  C   UNL     1      13.770  52.132  21.574  1.00  0.00     0.081 C 
ATOM      7  C   UNL     1      14.936  51.101  21.585  1.00  0.00     0.046 C 
ATOM      8  C   UNL     1      16.014  51.788  22.421  1.00  0.00     0.054 C 
ATOM      9  C   UNL     1      15.239  53.002  22.984  1.00  0.00     0.173 C 
ATOM     10  O   UNL     1      14.334  53.367  21.956  1.00  0.00    -0.342 OA
ATOM     11  C   UNL     1      14.440  52.598  24.279  1.00  0.00     0.096 C 
ATOM     12  C   UNL     1      13.300  51.643  23.954  1.00  0.00    -0.066 C 
ATOM     13  C   UNL     1      12.759  50.862  24.898  1.00  0.00     0.008 C 
ENDROOT
BRANCH   8  14
ATOM     14  C   UNL     1      17.304  52.157  21.615  1.00  0.00    -0.009 C 
ATOM     15  C   UNL     1      18.547  51.472  22.204  1.00  0.00     0.008 C 
ATOM     16  C   UNL     1      17.208  51.884  20.101  1.00  0.00     0.008 C 
ENDBRANCH   8  14
BRANCH   9  17
ATOM     17  O   UNL     1      16.082  54.091  23.270  1.00  0.00    -0.365 OA
ATOM     18  H   UNL     1      16.150  54.160  24.258  1.00  0.00     0.214 HD
ENDBRANCH   9  17
TORSDOF 2
ENDMDL
