MODEL 1
REMARK VINA RESULT:    -6.376      0.000      0.000
REMARK INTER + INTRA:          -7.690
REMARK INTER:                  -7.494
REMARK INTRA:                  -0.195
REMARK UNBOUND:                -0.195
REMARK SMILES O=c1c(O)c(-c2ccc(O)c(O)c2)oc2cc(O)ccc12
REMARK SMILES IDX 5 1 3 2 2 3 1 4 21 5 15 6 14 7 16 8 17 9 19 10 20 11 6 12
REMARK SMILES IDX 7 13 8 14 9 15 13 16 11 17 10 18 12 20 4 22 18 24
REMARK H PARENT 10 19 12 21 4 23 18 25
REMARK Flexibility Score: inf
ROOT
ATOM      1  C   UNL     1     -16.756  -1.580 -16.713  1.00  0.00     0.180 A 
ATOM      2  C   UNL     1     -17.789  -2.504 -16.975  1.00  0.00     0.208 A 
ATOM      3  C   UNL     1     -17.452  -3.843 -17.222  1.00  0.00     0.235 A 
ATOM      4  O   UNL     1     -18.357  -4.687 -17.470  1.00  0.00    -0.285 OA
ATOM      5  C   UNL     1     -16.104  -4.234 -17.185  1.00  0.00     0.069 A 
ATOM      6  C   UNL     1     -15.131  -3.253 -16.892  1.00  0.00     0.142 A 
ATOM      7  O   UNL     1     -15.491  -1.994 -16.673  1.00  0.00    -0.452 OA
ATOM      8  C   UNL     1     -13.778  -3.605 -16.835  1.00  0.00     0.094 A 
ATOM      9  C   UNL     1     -13.382  -4.929 -17.069  1.00  0.00     0.119 A 
ATOM     10  C   UNL     1     -14.345  -5.902 -17.361  1.00  0.00     0.047 A 
ATOM     11  C   UNL     1     -15.700  -5.561 -17.418  1.00  0.00     0.020 A 
ENDROOT
BRANCH   1  12
ATOM     12  C   UNL     1     -17.029  -0.147 -16.461  1.00  0.00     0.025 A 
ATOM     13  C   UNL     1     -17.650   0.238 -15.262  1.00  0.00     0.016 A 
ATOM     14  C   UNL     1     -17.898   1.587 -14.995  1.00  0.00     0.051 A 
ATOM     15  C   UNL     1     -17.515   2.572 -15.915  1.00  0.00     0.157 A 
ATOM     16  C   UNL     1     -16.627   0.847 -17.373  1.00  0.00     0.062 A 
ATOM     17  C   UNL     1     -16.874   2.202 -17.103  1.00  0.00     0.158 A 
BRANCH  15  18
ATOM     18  O   UNL     1     -17.763   3.918 -15.653  1.00  0.00    -0.504 OA
ATOM     19  H   UNL     1     -18.586   4.216 -15.143  1.00  0.00     0.293 HD
ENDBRANCH  15  18
BRANCH  17  20
ATOM     20  O   UNL     1     -16.481   3.184 -18.011  1.00  0.00    -0.504 OA
ATOM     21  H   UNL     1     -17.154   3.666 -18.595  1.00  0.00     0.293 HD
ENDBRANCH  17  20
ENDBRANCH   1  12
BRANCH   2  22
ATOM     22  O   UNL     1     -19.125  -2.096 -16.957  1.00  0.00    -0.502 OA
ATOM     23  H   UNL     1     -19.393  -1.127 -16.827  1.00  0.00     0.293 HD
ENDBRANCH   2  22
BRANCH   9  24
ATOM     24  O   UNL     1     -12.038  -5.288 -17.016  1.00  0.00    -0.508 OA
ATOM     25  H   UNL     1     -11.318  -4.710 -17.434  1.00  0.00     0.293 HD
ENDBRANCH   9  24
TORSDOF 5
ENDMDL
MODEL 2
REMARK VINA RESULT:    -6.012      1.590      2.850
REMARK INTER + INTRA:          -7.261
REMARK INTER:                  -7.640
REMARK INTRA:                   0.378
REMARK UNBOUND:                -0.195
REMARK SMILES O=c1c(O)c(-c2ccc(O)c(O)c2)oc2cc(O)ccc12
REMARK SMILES IDX 5 1 3 2 2 3 1 4 21 5 15 6 14 7 16 8 17 9 19 10 20 11 6 12
REMARK SMILES IDX 7 13 8 14 9 15 13 16 11 17 10 18 12 20 4 22 18 24
REMARK H PARENT 10 19 12 21 4 23 18 25
REMARK Flexibility Score: inf
ROOT
ATOM      1  C   UNL     1     -16.870  -1.302 -16.734  1.00  0.00     0.180 A 
ATOM      2  C   UNL     1     -15.856  -1.703 -17.630  1.00  0.00     0.208 A 
ATOM      3  C   UNL     1     -15.679  -3.071 -17.883  1.00  0.00     0.235 A 
ATOM      4  O   UNL     1     -14.772  -3.455 -18.671  1.00  0.00    -0.285 OA
ATOM      5  C   UNL     1     -16.522  -4.004 -17.257  1.00  0.00     0.069 A 
ATOM      6  C   UNL     1     -17.528  -3.521 -16.392  1.00  0.00     0.142 A 
ATOM      7  O   UNL     1     -17.657  -2.218 -16.172  1.00  0.00    -0.452 OA
ATOM      8  C   UNL     1     -18.395  -4.418 -15.757  1.00  0.00     0.094 A 
ATOM      9  C   UNL     1     -18.268  -5.796 -15.976  1.00  0.00     0.119 A 
ATOM     10  C   UNL     1     -17.270  -6.277 -16.831  1.00  0.00     0.047 A 
ATOM     11  C   UNL     1     -16.400  -5.389 -17.472  1.00  0.00     0.020 A 
ENDROOT
BRANCH   1  12
ATOM     12  C   UNL     1     -17.107   0.120 -16.401  1.00  0.00     0.025 A 
ATOM     13  C   UNL     1     -17.744   0.450 -15.193  1.00  0.00     0.016 A 
ATOM     14  C   UNL     1     -17.960   1.787 -14.849  1.00  0.00     0.051 A 
ATOM     15  C   UNL     1     -17.530   2.814 -15.699  1.00  0.00     0.157 A 
ATOM     16  C   UNL     1     -16.659   1.155 -17.242  1.00  0.00     0.062 A 
ATOM     17  C   UNL     1     -16.874   2.498 -16.896  1.00  0.00     0.158 A 
BRANCH  15  18
ATOM     18  O   UNL     1     -17.745   4.148 -15.361  1.00  0.00    -0.504 OA
ATOM     19  H   UNL     1     -17.122   4.644 -14.735  1.00  0.00     0.293 HD
ENDBRANCH  15  18
BRANCH  17  20
ATOM     20  O   UNL     1     -16.434   3.521 -17.734  1.00  0.00    -0.504 OA
ATOM     21  H   UNL     1     -15.464   3.598 -18.014  1.00  0.00     0.293 HD
ENDBRANCH  17  20
ENDBRANCH   1  12
BRANCH   2  22
ATOM     22  O   UNL     1     -15.065  -0.749 -18.275  1.00  0.00    -0.502 OA
ATOM     23  H   UNL     1     -15.457  -0.050 -18.896  1.00  0.00     0.293 HD
ENDBRANCH   2  22
BRANCH   9  24
ATOM     24  O   UNL     1     -19.125  -6.697 -15.348  1.00  0.00    -0.508 OA
ATOM     25  H   UNL     1     -19.395  -6.582 -14.377  1.00  0.00     0.293 HD
ENDBRANCH   9  24
TORSDOF 5
ENDMDL
MODEL 3
REMARK VINA RESULT:    -5.895      3.510      5.100
REMARK INTER + INTRA:          -7.124
REMARK INTER:                  -6.866
REMARK INTRA:                  -0.258
REMARK UNBOUND:                -0.195
REMARK SMILES O=c1c(O)c(-c2ccc(O)c(O)c2)oc2cc(O)ccc12
REMARK SMILES IDX 5 1 3 2 2 3 1 4 21 5 15 6 14 7 16 8 17 9 19 10 20 11 6 12
REMARK SMILES IDX 7 13 8 14 9 15 13 16 11 17 10 18 12 20 4 22 18 24
REMARK H PARENT 10 19 12 21 4 23 18 25
REMARK Flexibility Score: inf
ROOT
ATOM      1  C   UNL     1     -13.966  -2.690 -18.486  1.00  0.00     0.180 A 
ATOM      2  C   UNL     1     -13.941  -3.948 -19.125  1.00  0.00     0.208 A 
ATOM      3  C   UNL     1     -12.846  -4.272 -19.939  1.00  0.00     0.235 A 
ATOM      4  O   UNL     1     -12.806  -5.386 -20.529  1.00  0.00    -0.285 OA
ATOM      5  C   UNL     1     -11.796  -3.351 -20.083  1.00  0.00     0.069 A 
ATOM      6  C   UNL     1     -11.885  -2.122 -19.392  1.00  0.00     0.142 A 
ATOM      7  O   UNL     1     -12.943  -1.850 -18.638  1.00  0.00    -0.452 OA
ATOM      8  C   UNL     1     -10.854  -1.182 -19.501  1.00  0.00     0.094 A 
ATOM      9  C   UNL     1      -9.733  -1.453 -20.297  1.00  0.00     0.119 A 
ATOM     10  C   UNL     1      -9.644  -2.668 -20.984  1.00  0.00     0.047 A 
ATOM     11  C   UNL     1     -10.667  -3.616 -20.880  1.00  0.00     0.020 A 
ENDROOT
BRANCH   1  12
ATOM     12  C   UNL     1     -15.094  -2.266 -17.627  1.00  0.00     0.025 A 
ATOM     13  C   UNL     1     -16.050  -1.371 -18.134  1.00  0.00     0.016 A 
ATOM     14  C   UNL     1     -17.135  -0.974 -17.347  1.00  0.00     0.051 A 
ATOM     15  C   UNL     1     -17.288  -1.477 -16.048  1.00  0.00     0.157 A 
ATOM     16  C   UNL     1     -15.263  -2.785 -16.330  1.00  0.00     0.062 A 
ATOM     17  C   UNL     1     -16.353  -2.388 -15.540  1.00  0.00     0.158 A 
BRANCH  15  18
ATOM     18  O   UNL     1     -18.366  -1.081 -15.260  1.00  0.00    -0.504 OA
ATOM     19  H   UNL     1     -18.696  -0.124 -15.255  1.00  0.00     0.293 HD
ENDBRANCH  15  18
BRANCH  17  20
ATOM     20  O   UNL     1     -16.514  -2.898 -14.253  1.00  0.00    -0.504 OA
ATOM     21  H   UNL     1     -16.915  -3.814 -14.092  1.00  0.00     0.293 HD
ENDBRANCH  17  20
ENDBRANCH   1  12
BRANCH   2  22
ATOM     22  O   UNL     1     -14.977  -4.863 -18.923  1.00  0.00    -0.502 OA
ATOM     23  H   UNL     1     -15.746  -4.963 -19.576  1.00  0.00     0.293 HD
ENDBRANCH   2  22
BRANCH   9  24
ATOM     24  O   UNL     1      -8.703  -0.523 -20.413  1.00  0.00    -0.508 OA
ATOM     25  H   UNL     1      -7.745  -0.762 -20.182  1.00  0.00     0.293 HD
ENDBRANCH   9  24
TORSDOF 5
ENDMDL
MODEL 4
REMARK VINA RESULT:    -5.840      3.952      6.854
REMARK INTER + INTRA:          -7.059
REMARK INTER:                  -6.836
REMARK INTRA:                  -0.223
REMARK UNBOUND:                -0.195
REMARK SMILES O=c1c(O)c(-c2ccc(O)c(O)c2)oc2cc(O)ccc12
REMARK SMILES IDX 5 1 3 2 2 3 1 4 21 5 15 6 14 7 16 8 17 9 19 10 20 11 6 12
REMARK SMILES IDX 7 13 8 14 9 15 13 16 11 17 10 18 12 20 4 22 18 24
REMARK H PARENT 10 19 12 21 4 23 18 25
REMARK Flexibility Score: inf
ROOT
ATOM      1  C   UNL     1     -12.407  -2.603 -18.729  1.00  0.00     0.180 A 
ATOM      2  C   UNL     1     -12.399  -3.856 -18.081  1.00  0.00     0.208 A 
ATOM      3  C   UNL     1     -13.548  -4.267 -17.389  1.00  0.00     0.235 A 
ATOM      4  O   UNL     1     -13.562  -5.379 -16.792  1.00  0.00    -0.285 OA
ATOM      5  C   UNL     1     -14.680  -3.436 -17.374  1.00  0.00     0.069 A 
ATOM      6  C   UNL     1     -14.616  -2.207 -18.067  1.00  0.00     0.142 A 
ATOM      7  O   UNL     1     -13.506  -1.851 -18.703  1.00  0.00    -0.452 OA
ATOM      8  C   UNL     1     -15.727  -1.356 -18.085  1.00  0.00     0.094 A 
ATOM      9  C   UNL     1     -16.903  -1.716 -17.415  1.00  0.00     0.119 A 
ATOM     10  C   UNL     1     -16.968  -2.933 -16.726  1.00  0.00     0.047 A 
ATOM     11  C   UNL     1     -15.865  -3.792 -16.704  1.00  0.00     0.020 A 
ENDROOT
BRANCH   1  12
ATOM     12  C   UNL     1     -11.229  -2.090 -19.463  1.00  0.00     0.025 A 
ATOM     13  C   UNL     1     -10.888  -2.654 -20.703  1.00  0.00     0.016 A 
ATOM     14  C   UNL     1      -9.791  -2.172 -21.423  1.00  0.00     0.051 A 
ATOM     15  C   UNL     1      -9.029  -1.108 -20.921  1.00  0.00     0.157 A 
ATOM     16  C   UNL     1     -10.473  -1.009 -18.973  1.00  0.00     0.062 A 
ATOM     17  C   UNL     1      -9.374  -0.522 -19.697  1.00  0.00     0.158 A 
BRANCH  15  18
ATOM     18  O   UNL     1      -7.934  -0.626 -21.635  1.00  0.00    -0.504 OA
ATOM     19  H   UNL     1      -8.016  -0.344 -22.604  1.00  0.00     0.293 HD
ENDBRANCH  15  18
BRANCH  17  20
ATOM     20  O   UNL     1      -8.623   0.544 -19.206  1.00  0.00    -0.504 OA
ATOM     21  H   UNL     1      -8.638   1.453 -19.652  1.00  0.00     0.293 HD
ENDBRANCH  17  20
ENDBRANCH   1  12
BRANCH   2  22
ATOM     22  O   UNL     1     -11.276  -4.683 -18.154  1.00  0.00    -0.502 OA
ATOM     23  H   UNL     1     -10.987  -5.129 -19.017  1.00  0.00     0.293 HD
ENDBRANCH   2  22
BRANCH   9  24
ATOM     24  O   UNL     1     -18.013  -0.875 -17.427  1.00  0.00    -0.508 OA
ATOM     25  H   UNL     1     -18.117  -0.145 -18.122  1.00  0.00     0.293 HD
ENDBRANCH   9  24
TORSDOF 5
ENDMDL
MODEL 5
REMARK VINA RESULT:    -5.748      3.189      5.063
REMARK INTER + INTRA:          -6.952
REMARK INTER:                  -6.674
REMARK INTRA:                  -0.278
REMARK UNBOUND:                -0.195
REMARK SMILES O=c1c(O)c(-c2ccc(O)c(O)c2)oc2cc(O)ccc12
REMARK SMILES IDX 5 1 3 2 2 3 1 4 21 5 15 6 14 7 16 8 17 9 19 10 20 11 6 12
REMARK SMILES IDX 7 13 8 14 9 15 13 16 11 17 10 18 12 20 4 22 18 24
REMARK H PARENT 10 19 12 21 4 23 18 25
REMARK Flexibility Score: inf
ROOT
ATOM      1  C   UNL     1     -14.061  -3.228 -18.178  1.00  0.00     0.180 A 
ATOM      2  C   UNL     1     -13.319  -2.196 -18.790  1.00  0.00     0.208 A 
ATOM      3  C   UNL     1     -12.100  -2.515 -19.408  1.00  0.00     0.235 A 
ATOM      4  O   UNL     1     -11.413  -1.608 -19.953  1.00  0.00    -0.285 OA
ATOM      5  C   UNL     1     -11.660  -3.848 -19.420  1.00  0.00     0.069 A 
ATOM      6  C   UNL     1     -12.472  -4.826 -18.805  1.00  0.00     0.142 A 
ATOM      7  O   UNL     1     -13.615  -4.482 -18.223  1.00  0.00    -0.452 OA
ATOM      8  C   UNL     1     -12.073  -6.168 -18.805  1.00  0.00     0.094 A 
ATOM      9  C   UNL     1     -10.867  -6.545 -19.412  1.00  0.00     0.119 A 
ATOM     10  C   UNL     1     -10.060  -5.577 -20.019  1.00  0.00     0.047 A 
ATOM     11  C   UNL     1     -10.451  -4.234 -20.026  1.00  0.00     0.020 A 
ENDROOT
BRANCH   1  12
ATOM     12  C   UNL     1     -15.346  -2.970 -17.489  1.00  0.00     0.025 A 
ATOM     13  C   UNL     1     -16.521  -2.840 -18.247  1.00  0.00     0.016 A 
ATOM     14  C   UNL     1     -17.749  -2.617 -17.616  1.00  0.00     0.051 A 
ATOM     15  C   UNL     1     -17.821  -2.536 -16.220  1.00  0.00     0.157 A 
ATOM     16  C   UNL     1     -15.427  -2.909 -16.086  1.00  0.00     0.062 A 
ATOM     17  C   UNL     1     -16.659  -2.687 -15.452  1.00  0.00     0.158 A 
BRANCH  15  18
ATOM     18  O   UNL     1     -19.042  -2.311 -15.587  1.00  0.00    -0.504 OA
ATOM     19  H   UNL     1     -19.853  -2.886 -15.781  1.00  0.00     0.293 HD
ENDBRANCH  15  18
BRANCH  17  20
ATOM     20  O   UNL     1     -16.735  -2.620 -14.062  1.00  0.00    -0.504 OA
ATOM     21  H   UNL     1     -16.984  -3.428 -13.505  1.00  0.00     0.293 HD
ENDBRANCH  17  20
ENDBRANCH   1  12
BRANCH   2  22
ATOM     22  O   UNL     1     -13.806  -0.887 -18.804  1.00  0.00    -0.502 OA
ATOM     23  H   UNL     1     -14.795  -0.678 -18.887  1.00  0.00     0.293 HD
ENDBRANCH   2  22
BRANCH   9  24
ATOM     24  O   UNL     1     -10.461  -7.877 -19.415  1.00  0.00    -0.508 OA
ATOM     25  H   UNL     1     -11.105  -8.627 -19.643  1.00  0.00     0.293 HD
ENDBRANCH   9  24
TORSDOF 5
ENDMDL
MODEL 6
REMARK VINA RESULT:    -5.655      3.341      5.790
REMARK INTER + INTRA:          -6.842
REMARK INTER:                  -6.525
REMARK INTRA:                  -0.317
REMARK UNBOUND:                -0.195
REMARK SMILES O=c1c(O)c(-c2ccc(O)c(O)c2)oc2cc(O)ccc12
REMARK SMILES IDX 5 1 3 2 2 3 1 4 21 5 15 6 14 7 16 8 17 9 19 10 20 11 6 12
REMARK SMILES IDX 7 13 8 14 9 15 13 16 11 17 10 18 12 20 4 22 18 24
REMARK H PARENT 10 19 12 21 4 23 18 25
REMARK Flexibility Score: inf
ROOT
ATOM      1  C   UNL     1     -13.702  -3.174 -18.143  1.00  0.00     0.180 A 
ATOM      2  C   UNL     1     -14.137  -4.379 -18.735  1.00  0.00     0.208 A 
ATOM      3  C   UNL     1     -15.303  -4.988 -18.248  1.00  0.00     0.235 A 
ATOM      4  O   UNL     1     -15.707  -6.072 -18.753  1.00  0.00    -0.285 OA
ATOM      5  C   UNL     1     -16.017  -4.379 -17.204  1.00  0.00     0.069 A 
ATOM      6  C   UNL     1     -15.529  -3.162 -16.682  1.00  0.00     0.142 A 
ATOM      7  O   UNL     1     -14.416  -2.621 -17.164  1.00  0.00    -0.452 OA
ATOM      8  C   UNL     1     -16.218  -2.518 -15.647  1.00  0.00     0.094 A 
ATOM      9  C   UNL     1     -17.391  -3.078 -15.125  1.00  0.00     0.119 A 
ATOM     10  C   UNL     1     -17.875  -4.286 -15.640  1.00  0.00     0.047 A 
ATOM     11  C   UNL     1     -17.196  -4.936 -16.675  1.00  0.00     0.020 A 
ENDROOT
BRANCH   1  12
ATOM     12  C   UNL     1     -12.473  -2.479 -18.587  1.00  0.00     0.025 A 
ATOM     13  C   UNL     1     -11.236  -2.837 -18.026  1.00  0.00     0.016 A 
ATOM     14  C   UNL     1     -10.060  -2.209 -18.444  1.00  0.00     0.051 A 
ATOM     15  C   UNL     1     -10.101  -1.225 -19.440  1.00  0.00     0.157 A 
ATOM     16  C   UNL     1     -12.506  -1.505 -19.602  1.00  0.00     0.062 A 
ATOM     17  C   UNL     1     -11.326  -0.876 -20.024  1.00  0.00     0.158 A 
BRANCH  15  18
ATOM     18  O   UNL     1      -8.931  -0.595 -19.859  1.00  0.00    -0.504 OA
ATOM     19  H   UNL     1      -8.927   0.050 -20.640  1.00  0.00     0.293 HD
ENDBRANCH  15  18
BRANCH  17  20
ATOM     20  O   UNL     1     -11.362   0.094 -21.025  1.00  0.00    -0.504 OA
ATOM     21  H   UNL     1     -10.541   0.323 -21.571  1.00  0.00     0.293 HD
ENDBRANCH  17  20
ENDBRANCH   1  12
BRANCH   2  22
ATOM     22  O   UNL     1     -13.433  -4.935 -19.805  1.00  0.00    -0.502 OA
ATOM     23  H   UNL     1     -13.290  -5.935 -19.898  1.00  0.00     0.293 HD
ENDBRANCH   2  22
BRANCH   9  24
ATOM     24  O   UNL     1     -18.083  -2.445 -14.095  1.00  0.00    -0.508 OA
ATOM     25  H   UNL     1     -19.095  -2.376 -14.101  1.00  0.00     0.293 HD
ENDBRANCH   9  24
TORSDOF 5
ENDMDL
MODEL 7
REMARK VINA RESULT:    -5.652      2.784      6.328
REMARK INTER + INTRA:          -6.838
REMARK INTER:                  -6.573
REMARK INTRA:                  -0.265
REMARK UNBOUND:                -0.195
REMARK SMILES O=c1c(O)c(-c2ccc(O)c(O)c2)oc2cc(O)ccc12
REMARK SMILES IDX 5 1 3 2 2 3 1 4 21 5 15 6 14 7 16 8 17 9 19 10 20 11 6 12
REMARK SMILES IDX 7 13 8 14 9 15 13 16 11 17 10 18 12 20 4 22 18 24
REMARK H PARENT 10 19 12 21 4 23 18 25
REMARK Flexibility Score: inf
ROOT
ATOM      1  C   UNL     1     -14.781  -3.149 -17.993  1.00  0.00     0.180 A 
ATOM      2  C   UNL     1     -15.324  -1.850 -17.916  1.00  0.00     0.208 A 
ATOM      3  C   UNL     1     -16.573  -1.674 -17.300  1.00  0.00     0.235 A 
ATOM      4  O   UNL     1     -17.085  -0.523 -17.229  1.00  0.00    -0.285 OA
ATOM      5  C   UNL     1     -17.239  -2.786 -16.762  1.00  0.00     0.069 A 
ATOM      6  C   UNL     1     -16.618  -4.050 -16.859  1.00  0.00     0.142 A 
ATOM      7  O   UNL     1     -15.439  -4.175 -17.456  1.00  0.00    -0.452 OA
ATOM      8  C   UNL     1     -17.245  -5.182 -16.324  1.00  0.00     0.094 A 
ATOM      9  C   UNL     1     -18.491  -5.066 -15.695  1.00  0.00     0.119 A 
ATOM     10  C   UNL     1     -19.110  -3.815 -15.600  1.00  0.00     0.047 A 
ATOM     11  C   UNL     1     -18.491  -2.678 -16.128  1.00  0.00     0.020 A 
ENDROOT
BRANCH   1  12
ATOM     12  C   UNL     1     -13.478  -3.419 -18.642  1.00  0.00     0.025 A 
ATOM     13  C   UNL     1     -13.451  -3.943 -19.945  1.00  0.00     0.016 A 
ATOM     14  C   UNL     1     -12.232  -4.186 -20.585  1.00  0.00     0.051 A 
ATOM     15  C   UNL     1     -11.024  -3.895 -19.938  1.00  0.00     0.157 A 
ATOM     16  C   UNL     1     -12.263  -3.109 -18.004  1.00  0.00     0.062 A 
ATOM     17  C   UNL     1     -11.039  -3.351 -18.647  1.00  0.00     0.158 A 
BRANCH  15  18
ATOM     18  O   UNL     1      -9.807  -4.139 -20.571  1.00  0.00    -0.504 OA
ATOM     19  H   UNL     1      -8.938  -4.180 -20.052  1.00  0.00     0.293 HD
ENDBRANCH  15  18
BRANCH  17  20
ATOM     20  O   UNL     1      -9.836  -3.050 -18.011  1.00  0.00    -0.504 OA
ATOM     21  H   UNL     1      -8.946  -3.345 -18.392  1.00  0.00     0.293 HD
ENDBRANCH  17  20
ENDBRANCH   1  12
BRANCH   2  22
ATOM     22  O   UNL     1     -14.615  -0.756 -18.417  1.00  0.00    -0.502 OA
ATOM     23  H   UNL     1     -14.002  -0.195 -17.836  1.00  0.00     0.293 HD
ENDBRANCH   2  22
BRANCH   9  24
ATOM     24  O   UNL     1     -19.124  -6.186 -15.161  1.00  0.00    -0.508 OA
ATOM     25  H   UNL     1     -18.787  -6.632 -14.316  1.00  0.00     0.293 HD
ENDBRANCH   9  24
TORSDOF 5
ENDMDL
MODEL 8
REMARK VINA RESULT:    -5.649      3.130      5.116
REMARK INTER + INTRA:          -6.835
REMARK INTER:                  -6.586
REMARK INTRA:                  -0.250
REMARK UNBOUND:                -0.195
REMARK SMILES O=c1c(O)c(-c2ccc(O)c(O)c2)oc2cc(O)ccc12
REMARK SMILES IDX 5 1 3 2 2 3 1 4 21 5 15 6 14 7 16 8 17 9 19 10 20 11 6 12
REMARK SMILES IDX 7 13 8 14 9 15 13 16 11 17 10 18 12 20 4 22 18 24
REMARK H PARENT 10 19 12 21 4 23 18 25
REMARK Flexibility Score: inf
ROOT
ATOM      1  C   UNL     1     -14.170  -3.253 -17.794  1.00  0.00     0.180 A 
ATOM      2  C   UNL     1     -13.489  -4.482 -17.670  1.00  0.00     0.208 A 
ATOM      3  C   UNL     1     -12.270  -4.651 -18.343  1.00  0.00     0.235 A 
ATOM      4  O   UNL     1     -11.647  -5.745 -18.257  1.00  0.00    -0.285 OA
ATOM      5  C   UNL     1     -11.749  -3.592 -19.104  1.00  0.00     0.069 A 
ATOM      6  C   UNL     1     -12.480  -2.385 -19.158  1.00  0.00     0.142 A 
ATOM      7  O   UNL     1     -13.635  -2.269 -18.514  1.00  0.00    -0.452 OA
ATOM      8  C   UNL     1     -11.988  -1.302 -19.898  1.00  0.00     0.094 A 
ATOM      9  C   UNL     1     -10.774  -1.411 -20.586  1.00  0.00     0.119 A 
ATOM     10  C   UNL     1     -10.049  -2.607 -20.535  1.00  0.00     0.047 A 
ATOM     11  C   UNL     1     -10.530  -3.694 -19.798  1.00  0.00     0.020 A 
ENDROOT
BRANCH   1  12
ATOM     12  C   UNL     1     -15.470  -3.004 -17.131  1.00  0.00     0.025 A 
ATOM     13  C   UNL     1     -15.502  -2.740 -15.752  1.00  0.00     0.016 A 
ATOM     14  C   UNL     1     -16.716  -2.482 -15.109  1.00  0.00     0.051 A 
ATOM     15  C   UNL     1     -17.913  -2.469 -15.837  1.00  0.00     0.157 A 
ATOM     16  C   UNL     1     -16.671  -2.969 -17.862  1.00  0.00     0.062 A 
ATOM     17  C   UNL     1     -17.890  -2.708 -17.217  1.00  0.00     0.158 A 
BRANCH  15  18
ATOM     18  O   UNL     1     -19.125  -2.214 -15.200  1.00  0.00    -0.504 OA
ATOM     19  H   UNL     1     -19.579  -2.914 -14.625  1.00  0.00     0.293 HD
ENDBRANCH  15  18
BRANCH  17  20
ATOM     20  O   UNL     1     -19.080  -2.681 -17.942  1.00  0.00    -0.504 OA
ATOM     21  H   UNL     1     -19.880  -3.241 -17.671  1.00  0.00     0.293 HD
ENDBRANCH  17  20
ENDBRANCH   1  12
BRANCH   2  22
ATOM     22  O   UNL     1     -14.008  -5.500 -16.866  1.00  0.00    -0.502 OA
ATOM     23  H   UNL     1     -13.475  -6.330 -16.632  1.00  0.00     0.293 HD
ENDBRANCH   2  22
BRANCH   9  24
ATOM     24  O   UNL     1     -10.278  -0.340 -21.325  1.00  0.00    -0.508 OA
ATOM     25  H   UNL     1     -10.163  -0.399 -22.331  1.00  0.00     0.293 HD
ENDBRANCH   9  24
TORSDOF 5
ENDMDL
MODEL 9
REMARK VINA RESULT:    -5.548      2.195      6.840
REMARK INTER + INTRA:          -6.716
REMARK INTER:                  -6.394
REMARK INTRA:                  -0.322
REMARK UNBOUND:                -0.195
REMARK SMILES O=c1c(O)c(-c2ccc(O)c(O)c2)oc2cc(O)ccc12
REMARK SMILES IDX 5 1 3 2 2 3 1 4 21 5 15 6 14 7 16 8 17 9 19 10 20 11 6 12
REMARK SMILES IDX 7 13 8 14 9 15 13 16 11 17 10 18 12 20 4 22 18 24
REMARK H PARENT 10 19 12 21 4 23 18 25
REMARK Flexibility Score: inf
ROOT
ATOM      1  C   UNL     1     -15.565  -4.549 -17.520  1.00  0.00     0.180 A 
ATOM      2  C   UNL     1     -16.467  -5.476 -16.958  1.00  0.00     0.208 A 
ATOM      3  C   UNL     1     -17.510  -5.000 -16.149  1.00  0.00     0.235 A 
ATOM      4  O   UNL     1     -18.323  -5.811 -15.626  1.00  0.00    -0.285 OA
ATOM      5  C   UNL     1     -17.641  -3.619 -15.934  1.00  0.00     0.069 A 
ATOM      6  C   UNL     1     -16.711  -2.755 -16.551  1.00  0.00     0.142 A 
ATOM      7  O   UNL     1     -15.733  -3.246 -17.303  1.00  0.00    -0.452 OA
ATOM      8  C   UNL     1     -16.815  -1.370 -16.369  1.00  0.00     0.094 A 
ATOM      9  C   UNL     1     -17.838  -0.838 -15.575  1.00  0.00     0.119 A 
ATOM     10  C   UNL     1     -18.760  -1.693 -14.961  1.00  0.00     0.047 A 
ATOM     11  C   UNL     1     -18.666  -3.077 -15.138  1.00  0.00     0.020 A 
ENDROOT
BRANCH   1  12
ATOM     12  C   UNL     1     -14.429  -4.973 -18.369  1.00  0.00     0.025 A 
ATOM     13  C   UNL     1     -14.575  -4.979 -19.766  1.00  0.00     0.016 A 
ATOM     14  C   UNL     1     -13.509  -5.356 -20.587  1.00  0.00     0.051 A 
ATOM     15  C   UNL     1     -12.278  -5.718 -20.026  1.00  0.00     0.157 A 
ATOM     16  C   UNL     1     -13.184  -5.318 -17.810  1.00  0.00     0.062 A 
ATOM     17  C   UNL     1     -12.113  -5.695 -18.635  1.00  0.00     0.158 A 
BRANCH  15  18
ATOM     18  O   UNL     1     -11.213  -6.097 -20.841  1.00  0.00    -0.504 OA
ATOM     19  H   UNL     1     -10.846  -7.041 -20.829  1.00  0.00     0.293 HD
ENDBRANCH  15  18
BRANCH  17  20
ATOM     20  O   UNL     1     -10.883  -6.042 -18.079  1.00  0.00    -0.504 OA
ATOM     21  H   UNL     1     -10.566  -7.004 -18.052  1.00  0.00     0.293 HD
ENDBRANCH  17  20
ENDBRANCH   1  12
BRANCH   2  22
ATOM     22  O   UNL     1     -16.340  -6.840 -17.230  1.00  0.00    -0.502 OA
ATOM     23  H   UNL     1     -16.265  -7.535 -16.495  1.00  0.00     0.293 HD
ENDBRANCH   2  22
BRANCH   9  24
ATOM     24  O   UNL     1     -17.948   0.538 -15.388  1.00  0.00    -0.508 OA
ATOM     25  H   UNL     1     -17.901   0.952 -14.463  1.00  0.00     0.293 HD
ENDBRANCH   9  24
TORSDOF 5
ENDMDL
