MODEL 1
REMARK VINA RESULT:    -4.952      0.000      0.000
REMARK INTER + INTRA:          -5.096
REMARK INTER:                  -5.096
REMARK INTRA:                   0.000
REMARK UNBOUND:                 0.000
REMARK SMILES Oc1ccc2[nH]ccc2c1
REMARK SMILES IDX 3 1 4 2 5 3 9 4 8 5 7 6 6 7 10 8 2 9 1 11
REMARK H PARENT 6 10 1 12
REMARK Flexibility Score: inf
ROOT
ATOM      1  C   UNL     1      30.934 -35.254  -9.110  1.00  0.00     0.048 A 
ATOM      2  C   UNL     1      30.501 -33.927  -8.933  1.00  0.00     0.030 A 
ATOM      3  C   UNL     1      30.903 -32.981  -9.873  1.00  0.00     0.046 A 
ATOM      4  C   UNL     1      31.693 -33.316 -10.940  1.00  0.00     0.003 A 
ATOM      5  C   UNL     1      31.908 -32.168 -11.671  1.00  0.00     0.028 A 
ATOM      6  C   UNL     1      31.218 -31.169 -10.991  1.00  0.00     0.083 A 
ATOM      7  N   UNL     1      30.605 -31.671  -9.893  1.00  0.00    -0.361 N 
ATOM      8  C   UNL     1      32.139 -34.620 -11.145  1.00  0.00     0.056 A 
ATOM      9  C   UNL     1      31.750 -35.604 -10.210  1.00  0.00     0.116 A 
ATOM     10  H   UNL     1      30.022 -31.144  -9.205  1.00  0.00     0.166 HD
ENDROOT
BRANCH   9  11
ATOM     11  O   UNL     1      32.165 -36.925 -10.363  1.00  0.00    -0.508 OA
ATOM     12  H   UNL     1      31.942 -37.456 -11.197  1.00  0.00     0.293 HD
ENDBRANCH   9  11
TORSDOF 1
ENDMDL
MODEL 2
REMARK VINA RESULT:    -4.913      2.428      3.585
REMARK INTER + INTRA:          -5.056
REMARK INTER:                  -5.056
REMARK INTRA:                   0.000
REMARK UNBOUND:                 0.000
REMARK SMILES Oc1ccc2[nH]ccc2c1
REMARK SMILES IDX 3 1 4 2 5 3 9 4 8 5 7 6 6 7 10 8 2 9 1 11
REMARK H PARENT 6 10 1 12
REMARK Flexibility Score: inf
ROOT
ATOM      1  C   UNL     1      31.387 -32.308  -8.224  1.00  0.00     0.048 A 
ATOM      2  C   UNL     1      31.610 -32.525  -9.596  1.00  0.00     0.030 A 
ATOM      3  C   UNL     1      31.601 -33.841 -10.056  1.00  0.00     0.046 A 
ATOM      4  C   UNL     1      31.382 -34.897  -9.213  1.00  0.00     0.003 A 
ATOM      5  C   UNL     1      31.435 -36.047  -9.970  1.00  0.00     0.028 A 
ATOM      6  C   UNL     1      31.690 -35.616 -11.269  1.00  0.00     0.083 A 
ATOM      7  N   UNL     1      31.790 -34.267 -11.316  1.00  0.00    -0.361 N 
ATOM      8  C   UNL     1      31.157 -34.717  -7.850  1.00  0.00     0.056 A 
ATOM      9  C   UNL     1      31.161 -33.397  -7.350  1.00  0.00     0.116 A 
ATOM     10  H   UNL     1      31.977 -33.681 -12.161  1.00  0.00     0.166 HD
ENDROOT
BRANCH   9  11
ATOM     11  O   UNL     1      30.941 -33.155  -5.996  1.00  0.00    -0.508 OA
ATOM     12  H   UNL     1      30.818 -33.914  -5.337  1.00  0.00     0.293 HD
ENDBRANCH   9  11
TORSDOF 1
ENDMDL
MODEL 3
REMARK VINA RESULT:    -4.897      2.992      4.238
REMARK INTER + INTRA:          -5.040
REMARK INTER:                  -5.040
REMARK INTRA:                   0.000
REMARK UNBOUND:                 0.000
REMARK SMILES Oc1ccc2[nH]ccc2c1
REMARK SMILES IDX 3 1 4 2 5 3 9 4 8 5 7 6 6 7 10 8 2 9 1 11
REMARK H PARENT 6 10 1 12
REMARK Flexibility Score: inf
ROOT
ATOM      1  C   UNL     1      31.211 -34.260  -9.995  1.00  0.00     0.048 A 
ATOM      2  C   UNL     1      31.527 -35.233  -9.030  1.00  0.00     0.030 A 
ATOM      3  C   UNL     1      31.625 -34.824  -7.701  1.00  0.00     0.046 A 
ATOM      4  C   UNL     1      31.421 -33.521  -7.332  1.00  0.00     0.003 A 
ATOM      5  C   UNL     1      31.589 -33.448  -5.967  1.00  0.00     0.028 A 
ATOM      6  C   UNL     1      31.893 -34.746  -5.568  1.00  0.00     0.083 A 
ATOM      7  N   UNL     1      31.914 -35.583  -6.631  1.00  0.00    -0.361 N 
ATOM      8  C   UNL     1      31.106 -32.533  -8.263  1.00  0.00     0.056 A 
ATOM      9  C   UNL     1      31.000 -32.914  -9.618  1.00  0.00     0.116 A 
ATOM     10  H   UNL     1      32.114 -36.608  -6.618  1.00  0.00     0.166 HD
ENDROOT
BRANCH   9  11
ATOM     11  O   UNL     1      30.687 -31.970 -10.593  1.00  0.00    -0.508 OA
ATOM     12  H   UNL     1      29.743 -31.619 -10.705  1.00  0.00     0.293 HD
ENDBRANCH   9  11
TORSDOF 1
ENDMDL
MODEL 4
REMARK VINA RESULT:    -4.744      7.664      8.418
REMARK INTER + INTRA:          -4.883
REMARK INTER:                  -4.883
REMARK INTRA:                   0.000
REMARK UNBOUND:                 0.000
REMARK SMILES Oc1ccc2[nH]ccc2c1
REMARK SMILES IDX 3 1 4 2 5 3 9 4 8 5 7 6 6 7 10 8 2 9 1 11
REMARK H PARENT 6 10 1 12
REMARK Flexibility Score: inf
ROOT
ATOM      1  C   UNL     1      22.746 -37.891 -10.791  1.00  0.00     0.048 A 
ATOM      2  C   UNL     1      22.213 -37.225  -9.672  1.00  0.00     0.030 A 
ATOM      3  C   UNL     1      23.002 -36.257  -9.054  1.00  0.00     0.046 A 
ATOM      4  C   UNL     1      24.257 -35.953  -9.509  1.00  0.00     0.003 A 
ATOM      5  C   UNL     1      24.764 -34.968  -8.691  1.00  0.00     0.028 A 
ATOM      6  C   UNL     1      23.763 -34.720  -7.756  1.00  0.00     0.083 A 
ATOM      7  N   UNL     1      22.689 -35.510  -7.982  1.00  0.00    -0.361 N 
ATOM      8  C   UNL     1      24.814 -36.593 -10.614  1.00  0.00     0.056 A 
ATOM      9  C   UNL     1      24.042 -37.580 -11.264  1.00  0.00     0.116 A 
ATOM     10  H   UNL     1      21.800 -35.532  -7.434  1.00  0.00     0.166 HD
ENDROOT
BRANCH   9  11
ATOM     11  O   UNL     1      24.547 -38.253 -12.374  1.00  0.00    -0.508 OA
ATOM     12  H   UNL     1      24.581 -39.265 -12.407  1.00  0.00     0.293 HD
ENDBRANCH   9  11
TORSDOF 1
ENDMDL
MODEL 5
REMARK VINA RESULT:    -4.622      7.470      8.325
REMARK INTER + INTRA:          -4.758
REMARK INTER:                  -4.758
REMARK INTRA:                   0.000
REMARK UNBOUND:                 0.000
REMARK SMILES Oc1ccc2[nH]ccc2c1
REMARK SMILES IDX 3 1 4 2 5 3 9 4 8 5 7 6 6 7 10 8 2 9 1 11
REMARK H PARENT 6 10 1 12
REMARK Flexibility Score: inf
ROOT
ATOM      1  C   UNL     1      23.452 -31.039 -13.125  1.00  0.00     0.048 A 
ATOM      2  C   UNL     1      24.705 -30.399 -13.096  1.00  0.00     0.030 A 
ATOM      3  C   UNL     1      25.241 -30.074 -11.852  1.00  0.00     0.046 A 
ATOM      4  C   UNL     1      24.582 -30.363 -10.686  1.00  0.00     0.003 A 
ATOM      5  C   UNL     1      25.370 -29.919  -9.647  1.00  0.00     0.028 A 
ATOM      6  C   UNL     1      26.496 -29.369 -10.253  1.00  0.00     0.083 A 
ATOM      7  N   UNL     1      26.412 -29.466 -11.600  1.00  0.00    -0.361 N 
ATOM      8  C   UNL     1      23.341 -30.997 -10.680  1.00  0.00     0.056 A 
ATOM      9  C   UNL     1      22.769 -31.339 -11.924  1.00  0.00     0.116 A 
ATOM     10  H   UNL     1      27.116 -29.135 -12.297  1.00  0.00     0.166 HD
ENDROOT
BRANCH   9  11
ATOM     11  O   UNL     1      21.531 -31.974 -11.980  1.00  0.00    -0.508 OA
ATOM     12  H   UNL     1      21.137 -32.288 -12.859  1.00  0.00     0.293 HD
ENDBRANCH   9  11
TORSDOF 1
ENDMDL
MODEL 6
REMARK VINA RESULT:    -4.622      0.901      2.262
REMARK INTER + INTRA:          -4.757
REMARK INTER:                  -4.757
REMARK INTRA:                   0.000
REMARK UNBOUND:                 0.000
REMARK SMILES Oc1ccc2[nH]ccc2c1
REMARK SMILES IDX 3 1 4 2 5 3 9 4 8 5 7 6 6 7 10 8 2 9 1 11
REMARK H PARENT 6 10 1 12
REMARK Flexibility Score: inf
ROOT
ATOM      1  C   UNL     1      32.319 -34.855 -11.240  1.00  0.00     0.048 A 
ATOM      2  C   UNL     1      31.867 -33.527 -11.133  1.00  0.00     0.030 A 
ATOM      3  C   UNL     1      30.975 -33.225 -10.106  1.00  0.00     0.046 A 
ATOM      4  C   UNL     1      30.544 -34.178  -9.222  1.00  0.00     0.003 A 
ATOM      5  C   UNL     1      29.682 -33.563  -8.341  1.00  0.00     0.028 A 
ATOM      6  C   UNL     1      29.633 -32.233  -8.748  1.00  0.00     0.083 A 
ATOM      7  N   UNL     1      30.424 -32.031  -9.826  1.00  0.00    -0.361 N 
ATOM      8  C   UNL     1      30.973 -35.501  -9.300  1.00  0.00     0.056 A 
ATOM      9  C   UNL     1      31.876 -35.842 -10.330  1.00  0.00     0.116 A 
ATOM     10  H   UNL     1      30.574 -31.131 -10.335  1.00  0.00     0.166 HD
ENDROOT
BRANCH   9  11
ATOM     11  O   UNL     1      32.340 -37.150 -10.457  1.00  0.00    -0.508 OA
ATOM     12  H   UNL     1      32.189 -37.837  -9.728  1.00  0.00     0.293 HD
ENDBRANCH   9  11
TORSDOF 1
ENDMDL
MODEL 7
REMARK VINA RESULT:    -4.554      8.330      9.280
REMARK INTER + INTRA:          -4.687
REMARK INTER:                  -4.687
REMARK INTRA:                   0.000
REMARK UNBOUND:                 0.000
REMARK SMILES Oc1ccc2[nH]ccc2c1
REMARK SMILES IDX 3 1 4 2 5 3 9 4 8 5 7 6 6 7 10 8 2 9 1 11
REMARK H PARENT 6 10 1 12
REMARK Flexibility Score: inf
ROOT
ATOM      1  C   UNL     1      24.587 -36.381 -10.820  1.00  0.00     0.048 A 
ATOM      2  C   UNL     1      24.240 -35.641  -9.675  1.00  0.00     0.030 A 
ATOM      3  C   UNL     1      23.123 -36.050  -8.950  1.00  0.00     0.046 A 
ATOM      4  C   UNL     1      22.378 -37.136  -9.326  1.00  0.00     0.003 A 
ATOM      5  C   UNL     1      21.358 -37.273  -8.412  1.00  0.00     0.028 A 
ATOM      6  C   UNL     1      21.542 -36.235  -7.503  1.00  0.00     0.083 A 
ATOM      7  N   UNL     1      22.622 -35.491  -7.836  1.00  0.00    -0.361 N 
ATOM      8  C   UNL     1      22.694 -37.890 -10.454  1.00  0.00     0.056 A 
ATOM      9  C   UNL     1      23.820 -37.502 -11.213  1.00  0.00     0.116 A 
ATOM     10  H   UNL     1      22.988 -34.654  -7.329  1.00  0.00     0.166 HD
ENDROOT
BRANCH   9  11
ATOM     11  O   UNL     1      24.185 -38.218 -12.350  1.00  0.00    -0.508 OA
ATOM     12  H   UNL     1      23.840 -39.156 -12.518  1.00  0.00     0.293 HD
ENDBRANCH   9  11
TORSDOF 1
ENDMDL
MODEL 8
REMARK VINA RESULT:    -4.523      7.514      8.411
REMARK INTER + INTRA:          -4.655
REMARK INTER:                  -4.655
REMARK INTRA:                   0.000
REMARK UNBOUND:                 0.000
REMARK SMILES Oc1ccc2[nH]ccc2c1
REMARK SMILES IDX 3 1 4 2 5 3 9 4 8 5 7 6 6 7 10 8 2 9 1 11
REMARK H PARENT 6 10 1 12
REMARK Flexibility Score: inf
ROOT
ATOM      1  C   UNL     1      24.168 -37.283 -10.994  1.00  0.00     0.048 A 
ATOM      2  C   UNL     1      25.083 -36.390 -10.407  1.00  0.00     0.030 A 
ATOM      3  C   UNL     1      24.630 -35.591  -9.358  1.00  0.00     0.046 A 
ATOM      4  C   UNL     1      23.340 -35.663  -8.903  1.00  0.00     0.003 A 
ATOM      5  C   UNL     1      23.216 -34.756  -7.874  1.00  0.00     0.028 A 
ATOM      6  C   UNL     1      24.470 -34.166  -7.754  1.00  0.00     0.083 A 
ATOM      7  N   UNL     1      25.331 -34.679  -8.664  1.00  0.00    -0.361 N 
ATOM      8  C   UNL     1      22.410 -36.536  -9.463  1.00  0.00     0.056 A 
ATOM      9  C   UNL     1      22.836 -37.359 -10.527  1.00  0.00     0.116 A 
ATOM     10  H   UNL     1      26.334 -34.418  -8.795  1.00  0.00     0.166 HD
ENDROOT
BRANCH   9  11
ATOM     11  O   UNL     1      21.950 -38.253 -11.126  1.00  0.00    -0.508 OA
ATOM     12  H   UNL     1      22.246 -39.179 -11.411  1.00  0.00     0.293 HD
ENDBRANCH   9  11
TORSDOF 1
ENDMDL
MODEL 9
REMARK VINA RESULT:    -4.476      1.999      2.606
REMARK INTER + INTRA:          -4.607
REMARK INTER:                  -4.607
REMARK INTRA:                   0.000
REMARK UNBOUND:                 0.000
REMARK SMILES Oc1ccc2[nH]ccc2c1
REMARK SMILES IDX 3 1 4 2 5 3 9 4 8 5 7 6 6 7 10 8 2 9 1 11
REMARK H PARENT 6 10 1 12
REMARK Flexibility Score: inf
ROOT
ATOM      1  C   UNL     1      31.296 -35.215  -8.411  1.00  0.00     0.048 A 
ATOM      2  C   UNL     1      31.236 -34.706  -9.721  1.00  0.00     0.030 A 
ATOM      3  C   UNL     1      31.273 -33.323  -9.884  1.00  0.00     0.046 A 
ATOM      4  C   UNL     1      31.365 -32.474  -8.813  1.00  0.00     0.003 A 
ATOM      5  C   UNL     1      31.380 -31.188  -9.307  1.00  0.00     0.028 A 
ATOM      6  C   UNL     1      31.293 -31.328 -10.689  1.00  0.00     0.083 A 
ATOM      7  N   UNL     1      31.228 -32.634 -11.036  1.00  0.00    -0.361 N 
ATOM      8  C   UNL     1      31.427 -32.946  -7.503  1.00  0.00     0.056 A 
ATOM      9  C   UNL     1      31.391 -34.342  -7.303  1.00  0.00     0.116 A 
ATOM     10  H   UNL     1      31.157 -33.023 -12.003  1.00  0.00     0.166 HD
ENDROOT
BRANCH   9  11
ATOM     11  O   UNL     1      31.450 -34.872  -6.016  1.00  0.00    -0.508 OA
ATOM     12  H   UNL     1      31.081 -34.366  -5.219  1.00  0.00     0.293 HD
ENDBRANCH   9  11
TORSDOF 1
ENDMDL
