MODEL 1
REMARK VINA RESULT:    -4.302      0.000      0.000
REMARK INTER + INTRA:         -15.279
REMARK INTER:                 -10.842
REMARK INTRA:                  -4.437
REMARK UNBOUND:                -4.437
REMARK SMILES CCCCCCCCCCCCCCCCCCCCCCCCCCCC(=O)[O-]
REMARK SMILES IDX 15 1 16 2 17 3 18 4 19 5 20 6 21 7 22 8 23 9 24 10 25 11
REMARK SMILES IDX 26 12 27 13 28 14 29 15 30 16 14 17 13 18 12 19 11 20 10 21
REMARK SMILES IDX 9 22 8 23 7 24 6 25 5 26 4 27 3 28 2 29 1 30
REMARK H PARENT
REMARK Flexibility Score: inf
ROOT
ATOM      1  C   UNL     1      -5.775  26.762 -13.206  1.00  0.00     0.000 C 
ENDROOT
BRANCH   1   2
ATOM      2  C   UNL     1      -6.937  26.141 -14.010  1.00  0.00     0.000 C 
BRANCH   2   3
ATOM      3  C   UNL     1      -8.286  26.797 -13.668  1.00  0.00     0.000 C 
BRANCH   3   4
ATOM      4  C   UNL     1      -9.163  25.919 -12.761  1.00  0.00     0.000 C 
BRANCH   4   5
ATOM      5  C   UNL     1      -8.469  24.611 -12.351  1.00  0.00     0.000 C 
BRANCH   5   6
ATOM      6  C   UNL     1      -8.146  24.543 -10.849  1.00  0.00     0.000 C 
BRANCH   6   7
ATOM      7  C   UNL     1      -8.433  25.853 -10.085  1.00  0.00     0.000 C 
BRANCH   7   8
ATOM      8  C   UNL     1      -7.151  26.512  -9.542  1.00  0.00     0.000 C 
BRANCH   8   9
ATOM      9  C   UNL     1      -7.078  28.013  -9.872  1.00  0.00     0.000 C 
BRANCH   9  10
ATOM     10  C   UNL     1      -8.394  28.553 -10.459  1.00  0.00     0.000 C 
BRANCH  10  11
ATOM     11  C   UNL     1      -8.970  29.721  -9.630  1.00  0.00     0.000 C 
BRANCH  11  12
ATOM     12  C   UNL     1     -10.120  29.305  -8.695  1.00  0.00     0.006 C 
BRANCH  12  13
ATOM     13  C   UNL     1     -11.521  29.520  -9.288  1.00  0.00     0.053 C 
BRANCH  13  14
ATOM     14  C   UNL     1     -12.415  30.290  -8.362  1.00  0.00     0.041 C 
ATOM     15  O   UNL     1     -12.380  31.549  -8.349  1.00  0.00    -0.550 OA
ATOM     16  O   UNL     1     -13.280  29.617  -7.509  1.00  0.00    -0.550 OA
ENDBRANCH  13  14
ENDBRANCH  12  13
ENDBRANCH  11  12
ENDBRANCH  10  11
ENDBRANCH   9  10
ENDBRANCH   8   9
ENDBRANCH   7   8
ENDBRANCH   6   7
ENDBRANCH   5   6
ENDBRANCH   4   5
ENDBRANCH   3   4
ENDBRANCH   2   3
ENDBRANCH   1   2
BRANCH   1  17
ATOM     17  C   UNL     1      -4.558  25.833 -13.057  1.00  0.00     0.000 C 
BRANCH  17  18
ATOM     18  C   UNL     1      -4.645  24.922 -11.819  1.00  0.00     0.000 C 
BRANCH  18  19
ATOM     19  C   UNL     1      -4.435  23.431 -12.154  1.00  0.00     0.000 C 
BRANCH  19  20
ATOM     20  C   UNL     1      -5.322  22.903 -13.300  1.00  0.00     0.000 C 
BRANCH  20  21
ATOM     21  C   UNL     1      -5.021  21.469 -13.765  1.00  0.00     0.000 C 
BRANCH  21  22
ATOM     22  C   UNL     1      -6.252  20.546 -13.711  1.00  0.00    -0.000 C 
BRANCH  22  23
ATOM     23  C   UNL     1      -7.566  21.333 -13.571  1.00  0.00    -0.000 C 
BRANCH  23  24
ATOM     24  C   UNL     1      -8.348  20.952 -12.305  1.00  0.00    -0.000 C 
BRANCH  24  25
ATOM     25  C   UNL     1      -7.429  20.265 -11.284  1.00  0.00    -0.000 C 
BRANCH  25  26
ATOM     26  C   UNL     1      -6.843  21.248 -10.258  1.00  0.00    -0.000 C 
BRANCH  26  27
ATOM     27  C   UNL     1      -6.341  20.542  -8.986  1.00  0.00    -0.000 C 
BRANCH  27  28
ATOM     28  C   UNL     1      -6.449  19.011  -9.078  1.00  0.00    -0.000 C 
BRANCH  28  29
ATOM     29  C   UNL     1      -6.862  18.369  -7.746  1.00  0.00    -0.003 C 
ATOM     30  C   UNL     1      -7.928  19.204  -7.043  1.00  0.00     0.004 C 
ENDBRANCH  28  29
ENDBRANCH  27  28
ENDBRANCH  26  27
ENDBRANCH  25  26
ENDBRANCH  24  25
ENDBRANCH  23  24
ENDBRANCH  22  23
ENDBRANCH  21  22
ENDBRANCH  20  21
ENDBRANCH  19  20
ENDBRANCH  18  19
ENDBRANCH  17  18
ENDBRANCH   1  17
TORSDOF 26
ENDMDL
MODEL 2
REMARK VINA RESULT:    -4.108      2.589      5.682
REMARK INTER + INTRA:         -14.789
REMARK INTER:                 -10.309
REMARK INTRA:                  -4.480
REMARK UNBOUND:                -4.437
REMARK SMILES CCCCCCCCCCCCCCCCCCCCCCCCCCCC(=O)[O-]
REMARK SMILES IDX 15 1 16 2 17 3 18 4 19 5 20 6 21 7 22 8 23 9 24 10 25 11
REMARK SMILES IDX 26 12 27 13 28 14 29 15 30 16 14 17 13 18 12 19 11 20 10 21
REMARK SMILES IDX 9 22 8 23 7 24 6 25 5 26 4 27 3 28 2 29 1 30
REMARK H PARENT
REMARK Flexibility Score: inf
ROOT
ATOM      1  C   UNL     1      -5.375  26.495 -13.294  1.00  0.00     0.000 C 
ENDROOT
BRANCH   1   2
ATOM      2  C   UNL     1      -6.493  25.753 -14.057  1.00  0.00     0.000 C 
BRANCH   2   3
ATOM      3  C   UNL     1      -7.713  26.656 -14.310  1.00  0.00     0.000 C 
BRANCH   3   4
ATOM      4  C   UNL     1      -9.048  25.909 -14.164  1.00  0.00     0.000 C 
BRANCH   4   5
ATOM      5  C   UNL     1      -8.935  24.660 -13.275  1.00  0.00     0.000 C 
BRANCH   5   6
ATOM      6  C   UNL     1     -10.299  24.132 -12.799  1.00  0.00     0.000 C 
BRANCH   6   7
ATOM      7  C   UNL     1     -10.802  24.782 -11.493  1.00  0.00     0.000 C 
BRANCH   7   8
ATOM      8  C   UNL     1     -11.840  25.890 -11.747  1.00  0.00     0.000 C 
BRANCH   8   9
ATOM      9  C   UNL     1     -12.601  26.286 -10.469  1.00  0.00     0.000 C 
BRANCH   9  10
ATOM     10  C   UNL     1     -13.470  27.540 -10.664  1.00  0.00     0.000 C 
BRANCH  10  11
ATOM     11  C   UNL     1     -13.184  28.624  -9.602  1.00  0.00     0.000 C 
BRANCH  11  12
ATOM     12  C   UNL     1     -12.770  28.050  -8.234  1.00  0.00     0.006 C 
BRANCH  12  13
ATOM     13  C   UNL     1     -12.017  29.046  -7.338  1.00  0.00     0.053 C 
BRANCH  13  14
ATOM     14  C   UNL     1     -12.949  29.971  -6.613  1.00  0.00     0.041 C 
ATOM     15  O   UNL     1     -13.263  31.080  -7.120  1.00  0.00    -0.550 OA
ATOM     16  O   UNL     1     -13.462  29.611  -5.373  1.00  0.00    -0.550 OA
ENDBRANCH  13  14
ENDBRANCH  12  13
ENDBRANCH  11  12
ENDBRANCH  10  11
ENDBRANCH   9  10
ENDBRANCH   8   9
ENDBRANCH   7   8
ENDBRANCH   6   7
ENDBRANCH   5   6
ENDBRANCH   4   5
ENDBRANCH   3   4
ENDBRANCH   2   3
ENDBRANCH   1   2
BRANCH   1  17
ATOM     17  C   UNL     1      -4.230  25.581 -12.828  1.00  0.00     0.000 C 
BRANCH  17  18
ATOM     18  C   UNL     1      -4.506  24.090 -13.095  1.00  0.00     0.000 C 
BRANCH  18  19
ATOM     19  C   UNL     1      -4.675  23.268 -11.800  1.00  0.00     0.000 C 
BRANCH  19  20
ATOM     20  C   UNL     1      -6.081  23.352 -11.170  1.00  0.00     0.000 C 
BRANCH  20  21
ATOM     21  C   UNL     1      -6.217  24.315  -9.979  1.00  0.00     0.000 C 
BRANCH  21  22
ATOM     22  C   UNL     1      -7.467  25.209 -10.067  1.00  0.00    -0.000 C 
BRANCH  22  23
ATOM     23  C   UNL     1      -7.116  26.706 -10.072  1.00  0.00    -0.000 C 
BRANCH  23  24
ATOM     24  C   UNL     1      -8.113  27.542 -10.888  1.00  0.00    -0.000 C 
BRANCH  24  25
ATOM     25  C   UNL     1      -9.271  28.025 -10.003  1.00  0.00    -0.000 C 
BRANCH  25  26
ATOM     26  C   UNL     1      -9.255  29.546  -9.782  1.00  0.00    -0.000 C 
BRANCH  26  27
ATOM     27  C   UNL     1      -7.837  30.091  -9.536  1.00  0.00    -0.000 C 
BRANCH  27  28
ATOM     28  C   UNL     1      -7.556  30.358  -8.048  1.00  0.00    -0.000 C 
BRANCH  28  29
ATOM     29  C   UNL     1      -6.119  30.838  -7.798  1.00  0.00    -0.003 C 
ATOM     30  C   UNL     1      -5.231  30.565  -9.008  1.00  0.00     0.004 C 
ENDBRANCH  28  29
ENDBRANCH  27  28
ENDBRANCH  26  27
ENDBRANCH  25  26
ENDBRANCH  24  25
ENDBRANCH  23  24
ENDBRANCH  22  23
ENDBRANCH  21  22
ENDBRANCH  20  21
ENDBRANCH  19  20
ENDBRANCH  18  19
ENDBRANCH  17  18
ENDBRANCH   1  17
TORSDOF 26
ENDMDL
MODEL 3
REMARK VINA RESULT:    -4.030      1.558      3.849
REMARK INTER + INTRA:         -14.593
REMARK INTER:                 -10.289
REMARK INTRA:                  -4.304
REMARK UNBOUND:                -4.437
REMARK SMILES CCCCCCCCCCCCCCCCCCCCCCCCCCCC(=O)[O-]
REMARK SMILES IDX 15 1 16 2 17 3 18 4 19 5 20 6 21 7 22 8 23 9 24 10 25 11
REMARK SMILES IDX 26 12 27 13 28 14 29 15 30 16 14 17 13 18 12 19 11 20 10 21
REMARK SMILES IDX 9 22 8 23 7 24 6 25 5 26 4 27 3 28 2 29 1 30
REMARK H PARENT
REMARK Flexibility Score: inf
ROOT
ATOM      1  C   UNL     1      -8.804  25.346 -10.663  1.00  0.00     0.000 C 
ENDROOT
BRANCH   1   2
ATOM      2  C   UNL     1      -8.759  26.070  -9.300  1.00  0.00     0.000 C 
BRANCH   2   3
ATOM      3  C   UNL     1      -7.447  25.791  -8.545  1.00  0.00     0.000 C 
BRANCH   3   4
ATOM      4  C   UNL     1      -6.605  27.058  -8.324  1.00  0.00     0.000 C 
BRANCH   4   5
ATOM      5  C   UNL     1      -6.538  27.950  -9.573  1.00  0.00     0.000 C 
BRANCH   5   6
ATOM      6  C   UNL     1      -6.324  29.437  -9.241  1.00  0.00     0.000 C 
BRANCH   6   7
ATOM      7  C   UNL     1      -7.622  30.271  -9.228  1.00  0.00     0.000 C 
BRANCH   7   8
ATOM      8  C   UNL     1      -8.693  29.711 -10.182  1.00  0.00     0.000 C 
BRANCH   8   9
ATOM      9  C   UNL     1     -10.092  29.680  -9.542  1.00  0.00     0.000 C 
BRANCH   9  10
ATOM     10  C   UNL     1     -10.164  30.501  -8.242  1.00  0.00     0.000 C 
BRANCH  10  11
ATOM     11  C   UNL     1     -11.070  29.841  -7.180  1.00  0.00     0.000 C 
BRANCH  11  12
ATOM     12  C   UNL     1     -11.028  28.302  -7.207  1.00  0.00     0.006 C 
BRANCH  12  13
ATOM     13  C   UNL     1     -12.402  27.640  -7.391  1.00  0.00     0.053 C 
BRANCH  13  14
ATOM     14  C   UNL     1     -12.786  27.526  -8.837  1.00  0.00     0.041 C 
ATOM     15  O   UNL     1     -13.692  28.260  -9.312  1.00  0.00    -0.550 OA
ATOM     16  O   UNL     1     -12.148  26.603  -9.656  1.00  0.00    -0.550 OA
ENDBRANCH  13  14
ENDBRANCH  12  13
ENDBRANCH  11  12
ENDBRANCH  10  11
ENDBRANCH   9  10
ENDBRANCH   8   9
ENDBRANCH   7   8
ENDBRANCH   6   7
ENDBRANCH   5   6
ENDBRANCH   4   5
ENDBRANCH   3   4
ENDBRANCH   2   3
ENDBRANCH   1   2
BRANCH   1  17
ATOM     17  C   UNL     1      -9.419  26.189 -11.793  1.00  0.00     0.000 C 
BRANCH  17  18
ATOM     18  C   UNL     1      -8.360  26.876 -12.674  1.00  0.00     0.000 C 
BRANCH  18  19
ATOM     19  C   UNL     1      -7.337  25.885 -13.268  1.00  0.00     0.000 C 
BRANCH  19  20
ATOM     20  C   UNL     1      -5.933  26.480 -13.500  1.00  0.00     0.000 C 
BRANCH  20  21
ATOM     21  C   UNL     1      -4.931  26.283 -12.351  1.00  0.00     0.000 C 
BRANCH  21  22
ATOM     22  C   UNL     1      -4.560  24.807 -12.121  1.00  0.00    -0.000 C 
BRANCH  22  23
ATOM     23  C   UNL     1      -5.058  24.282 -10.765  1.00  0.00    -0.000 C 
BRANCH  23  24
ATOM     24  C   UNL     1      -5.904  23.008 -10.901  1.00  0.00    -0.000 C 
BRANCH  24  25
ATOM     25  C   UNL     1      -5.321  22.080 -11.976  1.00  0.00    -0.000 C 
BRANCH  25  26
ATOM     26  C   UNL     1      -5.710  20.608 -11.765  1.00  0.00    -0.000 C 
BRANCH  26  27
ATOM     27  C   UNL     1      -6.976  20.451 -10.904  1.00  0.00    -0.000 C 
BRANCH  27  28
ATOM     28  C   UNL     1      -6.820  19.379  -9.814  1.00  0.00    -0.000 C 
BRANCH  28  29
ATOM     29  C   UNL     1      -6.831  19.973  -8.398  1.00  0.00    -0.003 C 
ATOM     30  C   UNL     1      -7.643  19.102  -7.444  1.00  0.00     0.004 C 
ENDBRANCH  28  29
ENDBRANCH  27  28
ENDBRANCH  26  27
ENDBRANCH  25  26
ENDBRANCH  24  25
ENDBRANCH  23  24
ENDBRANCH  22  23
ENDBRANCH  21  22
ENDBRANCH  20  21
ENDBRANCH  19  20
ENDBRANCH  18  19
ENDBRANCH  17  18
ENDBRANCH   1  17
TORSDOF 26
ENDMDL
MODEL 4
REMARK VINA RESULT:    -4.019      3.803      8.523
REMARK INTER + INTRA:         -14.564
REMARK INTER:                  -9.958
REMARK INTRA:                  -4.606
REMARK UNBOUND:                -4.437
REMARK SMILES CCCCCCCCCCCCCCCCCCCCCCCCCCCC(=O)[O-]
REMARK SMILES IDX 15 1 16 2 17 3 18 4 19 5 20 6 21 7 22 8 23 9 24 10 25 11
REMARK SMILES IDX 26 12 27 13 28 14 29 15 30 16 14 17 13 18 12 19 11 20 10 21
REMARK SMILES IDX 9 22 8 23 7 24 6 25 5 26 4 27 3 28 2 29 1 30
REMARK H PARENT
REMARK Flexibility Score: inf
ROOT
ATOM      1  C   UNL     1      -8.005  29.856  -8.872  1.00  0.00     0.000 C 
ENDROOT
BRANCH   1   2
ATOM      2  C   UNL     1      -6.880  28.867  -9.245  1.00  0.00     0.000 C 
BRANCH   2   3
ATOM      3  C   UNL     1      -7.436  27.493  -9.656  1.00  0.00     0.000 C 
BRANCH   3   4
ATOM      4  C   UNL     1      -6.415  26.358  -9.476  1.00  0.00     0.000 C 
BRANCH   4   5
ATOM      5  C   UNL     1      -5.890  25.814 -10.814  1.00  0.00     0.000 C 
BRANCH   5   6
ATOM      6  C   UNL     1      -5.995  26.833 -11.962  1.00  0.00     0.000 C 
BRANCH   6   7
ATOM      7  C   UNL     1      -5.986  26.197 -13.368  1.00  0.00     0.000 C 
BRANCH   7   8
ATOM      8  C   UNL     1      -7.262  26.517 -14.169  1.00  0.00     0.000 C 
BRANCH   8   9
ATOM      9  C   UNL     1      -8.468  26.807 -13.259  1.00  0.00     0.000 C 
BRANCH   9  10
ATOM     10  C   UNL     1      -9.388  25.586 -13.090  1.00  0.00     0.000 C 
BRANCH  10  11
ATOM     11  C   UNL     1      -9.209  24.901 -11.717  1.00  0.00     0.000 C 
BRANCH  11  12
ATOM     12  C   UNL     1      -8.954  23.386 -11.814  1.00  0.00     0.006 C 
BRANCH  12  13
ATOM     13  C   UNL     1      -7.626  23.015 -12.492  1.00  0.00     0.053 C 
BRANCH  13  14
ATOM     14  C   UNL     1      -6.721  22.242 -11.579  1.00  0.00     0.041 C 
ATOM     15  O   UNL     1      -6.791  22.403 -10.332  1.00  0.00    -0.550 OA
ATOM     16  O   UNL     1      -5.796  21.351 -12.107  1.00  0.00    -0.550 OA
ENDBRANCH  13  14
ENDBRANCH  12  13
ENDBRANCH  11  12
ENDBRANCH  10  11
ENDBRANCH   9  10
ENDBRANCH   8   9
ENDBRANCH   7   8
ENDBRANCH   6   7
ENDBRANCH   5   6
ENDBRANCH   4   5
ENDBRANCH   3   4
ENDBRANCH   2   3
ENDBRANCH   1   2
BRANCH   1  17
ATOM     17  C   UNL     1      -9.147  29.912  -9.901  1.00  0.00     0.000 C 
BRANCH  17  18
ATOM     18  C   UNL     1     -10.311  30.815  -9.457  1.00  0.00     0.000 C 
BRANCH  18  19
ATOM     19  C   UNL     1     -10.312  31.093  -7.939  1.00  0.00     0.000 C 
BRANCH  19  20
ATOM     20  C   UNL     1     -11.353  30.281  -7.142  1.00  0.00     0.000 C 
BRANCH  20  21
ATOM     21  C   UNL     1     -12.653  29.950  -7.894  1.00  0.00     0.000 C 
BRANCH  21  22
ATOM     22  C   UNL     1     -12.835  28.443  -8.147  1.00  0.00    -0.000 C 
BRANCH  22  23
ATOM     23  C   UNL     1     -11.599  27.626  -7.734  1.00  0.00    -0.000 C 
BRANCH  23  24
ATOM     24  C   UNL     1     -11.100  26.706  -8.857  1.00  0.00    -0.000 C 
BRANCH  24  25
ATOM     25  C   UNL     1     -11.638  27.167 -10.219  1.00  0.00    -0.000 C 
BRANCH  25  26
ATOM     26  C   UNL     1     -12.650  26.180 -10.822  1.00  0.00    -0.000 C 
BRANCH  26  27
ATOM     27  C   UNL     1     -13.653  26.867 -11.766  1.00  0.00    -0.000 C 
BRANCH  27  28
ATOM     28  C   UNL     1     -14.941  27.298 -11.047  1.00  0.00    -0.000 C 
BRANCH  28  29
ATOM     29  C   UNL     1     -16.203  26.727 -11.710  1.00  0.00    -0.003 C 
ATOM     30  C   UNL     1     -15.986  25.282 -12.150  1.00  0.00     0.004 C 
ENDBRANCH  28  29
ENDBRANCH  27  28
ENDBRANCH  26  27
ENDBRANCH  25  26
ENDBRANCH  24  25
ENDBRANCH  23  24
ENDBRANCH  22  23
ENDBRANCH  21  22
ENDBRANCH  20  21
ENDBRANCH  19  20
ENDBRANCH  18  19
ENDBRANCH  17  18
ENDBRANCH   1  17
TORSDOF 26
ENDMDL
MODEL 5
REMARK VINA RESULT:    -4.016      1.524      3.147
REMARK INTER + INTRA:         -14.556
REMARK INTER:                  -9.680
REMARK INTRA:                  -4.876
REMARK UNBOUND:                -4.437
REMARK SMILES CCCCCCCCCCCCCCCCCCCCCCCCCCCC(=O)[O-]
REMARK SMILES IDX 15 1 16 2 17 3 18 4 19 5 20 6 21 7 22 8 23 9 24 10 25 11
REMARK SMILES IDX 26 12 27 13 28 14 29 15 30 16 14 17 13 18 12 19 11 20 10 21
REMARK SMILES IDX 9 22 8 23 7 24 6 25 5 26 4 27 3 28 2 29 1 30
REMARK H PARENT
REMARK Flexibility Score: inf
ROOT
ATOM      1  C   UNL     1      -5.198  24.202 -12.891  1.00  0.00     0.000 C 
ENDROOT
BRANCH   1   2
ATOM      2  C   UNL     1      -4.902  23.624 -11.491  1.00  0.00     0.000 C 
BRANCH   2   3
ATOM      3  C   UNL     1      -5.135  24.663 -10.380  1.00  0.00     0.000 C 
BRANCH   3   4
ATOM      4  C   UNL     1      -6.509  24.517  -9.706  1.00  0.00     0.000 C 
BRANCH   4   5
ATOM      5  C   UNL     1      -7.107  25.867  -9.280  1.00  0.00     0.000 C 
BRANCH   5   6
ATOM      6  C   UNL     1      -6.460  27.066  -9.995  1.00  0.00     0.000 C 
BRANCH   6   7
ATOM      7  C   UNL     1      -7.015  28.436  -9.551  1.00  0.00     0.000 C 
BRANCH   7   8
ATOM      8  C   UNL     1      -8.412  28.329  -8.914  1.00  0.00     0.000 C 
BRANCH   8   9
ATOM      9  C   UNL     1      -9.527  28.800  -9.863  1.00  0.00     0.000 C 
BRANCH   9  10
ATOM     10  C   UNL     1     -10.668  27.775  -9.989  1.00  0.00     0.000 C 
BRANCH  10  11
ATOM     11  C   UNL     1     -10.754  26.840  -8.764  1.00  0.00     0.000 C 
BRANCH  11  12
ATOM     12  C   UNL     1     -12.119  26.882  -8.052  1.00  0.00     0.006 C 
BRANCH  12  13
ATOM     13  C   UNL     1     -12.128  27.714  -6.761  1.00  0.00     0.053 C 
BRANCH  13  14
ATOM     14  C   UNL     1     -12.136  29.188  -7.038  1.00  0.00     0.041 C 
ATOM     15  O   UNL     1     -11.242  29.930  -6.551  1.00  0.00    -0.550 OA
ATOM     16  O   UNL     1     -13.137  29.743  -7.826  1.00  0.00    -0.550 OA
ENDBRANCH  13  14
ENDBRANCH  12  13
ENDBRANCH  11  12
ENDBRANCH  10  11
ENDBRANCH   9  10
ENDBRANCH   8   9
ENDBRANCH   7   8
ENDBRANCH   6   7
ENDBRANCH   5   6
ENDBRANCH   4   5
ENDBRANCH   3   4
ENDBRANCH   2   3
ENDBRANCH   1   2
BRANCH   1  17
ATOM     17  C   UNL     1      -4.663  25.629 -13.099  1.00  0.00     0.000 C 
BRANCH  17  18
ATOM     18  C   UNL     1      -5.777  26.654 -13.376  1.00  0.00     0.000 C 
BRANCH  18  19
ATOM     19  C   UNL     1      -7.082  26.002 -13.880  1.00  0.00     0.000 C 
BRANCH  19  20
ATOM     20  C   UNL     1      -8.345  26.414 -13.097  1.00  0.00     0.000 C 
BRANCH  20  21
ATOM     21  C   UNL     1      -9.051  25.280 -12.335  1.00  0.00     0.000 C 
BRANCH  21  22
ATOM     22  C   UNL     1      -9.815  24.316 -13.261  1.00  0.00    -0.000 C 
BRANCH  22  23
ATOM     23  C   UNL     1      -9.431  22.846 -13.019  1.00  0.00    -0.000 C 
BRANCH  23  24
ATOM     24  C   UNL     1      -8.484  22.674 -11.823  1.00  0.00    -0.000 C 
BRANCH  24  25
ATOM     25  C   UNL     1      -8.293  21.187 -11.490  1.00  0.00    -0.000 C 
BRANCH  25  26
ATOM     26  C   UNL     1      -7.217  20.517 -12.360  1.00  0.00    -0.000 C 
BRANCH  26  27
ATOM     27  C   UNL     1      -5.970  20.119 -11.551  1.00  0.00    -0.000 C 
BRANCH  27  28
ATOM     28  C   UNL     1      -6.149  20.341 -10.041  1.00  0.00    -0.000 C 
BRANCH  28  29
ATOM     29  C   UNL     1      -5.950  19.052  -9.230  1.00  0.00    -0.003 C 
ATOM     30  C   UNL     1      -7.253  18.615  -8.567  1.00  0.00     0.004 C 
ENDBRANCH  28  29
ENDBRANCH  27  28
ENDBRANCH  26  27
ENDBRANCH  25  26
ENDBRANCH  24  25
ENDBRANCH  23  24
ENDBRANCH  22  23
ENDBRANCH  21  22
ENDBRANCH  20  21
ENDBRANCH  19  20
ENDBRANCH  18  19
ENDBRANCH  17  18
ENDBRANCH   1  17
TORSDOF 26
ENDMDL
MODEL 6
REMARK VINA RESULT:    -4.010      3.795      8.775
REMARK INTER + INTRA:         -14.542
REMARK INTER:                  -9.959
REMARK INTRA:                  -4.582
REMARK UNBOUND:                -4.437
REMARK SMILES CCCCCCCCCCCCCCCCCCCCCCCCCCCC(=O)[O-]
REMARK SMILES IDX 15 1 16 2 17 3 18 4 19 5 20 6 21 7 22 8 23 9 24 10 25 11
REMARK SMILES IDX 26 12 27 13 28 14 29 15 30 16 14 17 13 18 12 19 11 20 10 21
REMARK SMILES IDX 9 22 8 23 7 24 6 25 5 26 4 27 3 28 2 29 1 30
REMARK H PARENT
REMARK Flexibility Score: inf
ROOT
ATOM      1  C   UNL     1      -5.559  25.292 -10.310  1.00  0.00     0.000 C 
ENDROOT
BRANCH   1   2
ATOM      2  C   UNL     1      -4.621  24.613 -11.330  1.00  0.00     0.000 C 
BRANCH   2   3
ATOM      3  C   UNL     1      -4.423  25.473 -12.591  1.00  0.00     0.000 C 
BRANCH   3   4
ATOM      4  C   UNL     1      -5.362  26.689 -12.636  1.00  0.00     0.000 C 
BRANCH   4   5
ATOM      5  C   UNL     1      -6.423  26.578 -13.741  1.00  0.00     0.000 C 
BRANCH   5   6
ATOM      6  C   UNL     1      -7.862  26.565 -13.198  1.00  0.00     0.000 C 
BRANCH   6   7
ATOM      7  C   UNL     1      -8.534  25.176 -13.232  1.00  0.00     0.000 C 
BRANCH   7   8
ATOM      8  C   UNL     1      -7.674  24.122 -13.953  1.00  0.00     0.000 C 
BRANCH   8   9
ATOM      9  C   UNL     1      -7.515  22.831 -13.131  1.00  0.00     0.000 C 
BRANCH   9  10
ATOM     10  C   UNL     1      -6.200  22.093 -13.438  1.00  0.00     0.000 C 
BRANCH  10  11
ATOM     11  C   UNL     1      -5.725  21.223 -12.254  1.00  0.00     0.000 C 
BRANCH  11  12
ATOM     12  C   UNL     1      -6.861  20.803 -11.304  1.00  0.00     0.006 C 
BRANCH  12  13
ATOM     13  C   UNL     1      -6.503  20.905  -9.813  1.00  0.00     0.053 C 
BRANCH  13  14
ATOM     14  C   UNL     1      -6.817  19.642  -9.068  1.00  0.00     0.041 C 
ATOM     15  O   UNL     1      -6.360  18.539  -9.469  1.00  0.00    -0.550 OA
ATOM     16  O   UNL     1      -7.622  19.683  -7.937  1.00  0.00    -0.550 OA
ENDBRANCH  13  14
ENDBRANCH  12  13
ENDBRANCH  11  12
ENDBRANCH  10  11
ENDBRANCH   9  10
ENDBRANCH   8   9
ENDBRANCH   7   8
ENDBRANCH   6   7
ENDBRANCH   5   6
ENDBRANCH   4   5
ENDBRANCH   3   4
ENDBRANCH   2   3
ENDBRANCH   1   2
BRANCH   1  17
ATOM     17  C   UNL     1      -6.874  24.530 -10.074  1.00  0.00     0.000 C 
BRANCH  17  18
ATOM     18  C   UNL     1      -8.024  25.444  -9.617  1.00  0.00     0.000 C 
BRANCH  18  19
ATOM     19  C   UNL     1      -7.660  26.298  -8.384  1.00  0.00     0.000 C 
BRANCH  19  20
ATOM     20  C   UNL     1      -8.447  27.619  -8.267  1.00  0.00     0.000 C 
BRANCH  20  21
ATOM     21  C   UNL     1      -8.582  28.428  -9.568  1.00  0.00     0.000 C 
BRANCH  21  22
ATOM     22  C   UNL     1      -7.641  29.646  -9.619  1.00  0.00    -0.000 C 
BRANCH  22  23
ATOM     23  C   UNL     1      -6.265  29.349  -8.999  1.00  0.00    -0.000 C 
BRANCH  23  24
ATOM     24  C   UNL     1      -5.418  30.616  -8.812  1.00  0.00    -0.000 C 
BRANCH  24  25
ATOM     25  C   UNL     1      -5.252  30.944  -7.321  1.00  0.00    -0.000 C 
BRANCH  25  26
ATOM     26  C   UNL     1      -6.305  31.941  -6.812  1.00  0.00    -0.000 C 
BRANCH  26  27
ATOM     27  C   UNL     1      -7.492  31.244  -6.124  1.00  0.00    -0.000 C 
BRANCH  27  28
ATOM     28  C   UNL     1      -8.851  31.768  -6.617  1.00  0.00    -0.000 C 
BRANCH  28  29
ATOM     29  C   UNL     1      -9.896  30.652  -6.756  1.00  0.00    -0.003 C 
ATOM     30  C   UNL     1      -9.861  29.714  -5.553  1.00  0.00     0.004 C 
ENDBRANCH  28  29
ENDBRANCH  27  28
ENDBRANCH  26  27
ENDBRANCH  25  26
ENDBRANCH  24  25
ENDBRANCH  23  24
ENDBRANCH  22  23
ENDBRANCH  21  22
ENDBRANCH  20  21
ENDBRANCH  19  20
ENDBRANCH  18  19
ENDBRANCH  17  18
ENDBRANCH   1  17
TORSDOF 26
ENDMDL
MODEL 7
REMARK VINA RESULT:    -3.989      5.919      9.272
REMARK INTER + INTRA:         -14.489
REMARK INTER:                  -9.267
REMARK INTRA:                  -5.222
REMARK UNBOUND:                -4.437
REMARK SMILES CCCCCCCCCCCCCCCCCCCCCCCCCCCC(=O)[O-]
REMARK SMILES IDX 15 1 16 2 17 3 18 4 19 5 20 6 21 7 22 8 23 9 24 10 25 11
REMARK SMILES IDX 26 12 27 13 28 14 29 15 30 16 14 17 13 18 12 19 11 20 10 21
REMARK SMILES IDX 9 22 8 23 7 24 6 25 5 26 4 27 3 28 2 29 1 30
REMARK H PARENT
REMARK Flexibility Score: inf
ROOT
ATOM      1  C   UNL     1     -13.124  28.985  -8.258  1.00  0.00     0.000 C 
ENDROOT
BRANCH   1   2
ATOM      2  C   UNL     1     -12.458  27.593  -8.191  1.00  0.00     0.000 C 
BRANCH   2   3
ATOM      3  C   UNL     1     -12.432  26.903  -9.566  1.00  0.00     0.000 C 
BRANCH   3   4
ATOM      4  C   UNL     1     -11.062  26.289  -9.899  1.00  0.00     0.000 C 
BRANCH   4   5
ATOM      5  C   UNL     1      -9.897  27.051  -9.247  1.00  0.00     0.000 C 
BRANCH   5   6
ATOM      6  C   UNL     1      -9.268  28.103 -10.176  1.00  0.00     0.000 C 
BRANCH   6   7
ATOM      7  C   UNL     1      -7.813  28.469  -9.815  1.00  0.00     0.000 C 
BRANCH   7   8
ATOM      8  C   UNL     1      -7.387  27.913  -8.444  1.00  0.00     0.000 C 
BRANCH   8   9
ATOM      9  C   UNL     1      -6.344  28.805  -7.748  1.00  0.00     0.000 C 
BRANCH   9  10
ATOM     10  C   UNL     1      -5.901  29.990  -8.624  1.00  0.00     0.000 C 
BRANCH  10  11
ATOM     11  C   UNL     1      -5.080  31.031  -7.833  1.00  0.00     0.000 C 
BRANCH  11  12
ATOM     12  C   UNL     1      -5.916  31.830  -6.816  1.00  0.00     0.006 C 
BRANCH  12  13
ATOM     13  C   UNL     1      -5.483  31.633  -5.355  1.00  0.00     0.053 C 
BRANCH  13  14
ATOM     14  C   UNL     1      -4.735  32.819  -4.822  1.00  0.00     0.041 C 
ATOM     15  O   UNL     1      -4.467  32.900  -3.594  1.00  0.00    -0.550 OA
ATOM     16  O   UNL     1      -4.342  33.838  -5.680  1.00  0.00    -0.550 OA
ENDBRANCH  13  14
ENDBRANCH  12  13
ENDBRANCH  11  12
ENDBRANCH  10  11
ENDBRANCH   9  10
ENDBRANCH   8   9
ENDBRANCH   7   8
ENDBRANCH   6   7
ENDBRANCH   5   6
ENDBRANCH   4   5
ENDBRANCH   3   4
ENDBRANCH   2   3
ENDBRANCH   1   2
BRANCH   1  17
ATOM     17  C   UNL     1     -12.442  29.952  -9.241  1.00  0.00     0.000 C 
BRANCH  17  18
ATOM     18  C   UNL     1     -12.631  31.430  -8.857  1.00  0.00     0.000 C 
BRANCH  18  19
ATOM     19  C   UNL     1     -11.342  32.078  -8.310  1.00  0.00     0.000 C 
BRANCH  19  20
ATOM     20  C   UNL     1     -10.064  31.244  -8.533  1.00  0.00     0.000 C 
BRANCH  20  21
ATOM     21  C   UNL     1      -9.302  30.844  -7.258  1.00  0.00     0.000 C 
BRANCH  21  22
ATOM     22  C   UNL     1     -10.222  30.285  -6.158  1.00  0.00    -0.000 C 
BRANCH  22  23
ATOM     23  C   UNL     1      -9.993  28.784  -5.911  1.00  0.00    -0.000 C 
BRANCH  23  24
ATOM     24  C   UNL     1      -9.549  28.486  -4.471  1.00  0.00    -0.000 C 
BRANCH  24  25
ATOM     25  C   UNL     1     -10.738  28.015  -3.622  1.00  0.00    -0.000 C 
BRANCH  25  26
ATOM     26  C   UNL     1     -11.962  27.637  -4.471  1.00  0.00    -0.000 C 
BRANCH  26  27
ATOM     27  C   UNL     1     -13.286  28.084  -3.828  1.00  0.00    -0.000 C 
BRANCH  27  28
ATOM     28  C   UNL     1     -13.447  29.613  -3.807  1.00  0.00    -0.000 C 
BRANCH  28  29
ATOM     29  C   UNL     1     -13.746  30.193  -5.197  1.00  0.00    -0.003 C 
ATOM     30  C   UNL     1     -13.587  31.710  -5.204  1.00  0.00     0.004 C 
ENDBRANCH  28  29
ENDBRANCH  27  28
ENDBRANCH  26  27
ENDBRANCH  25  26
ENDBRANCH  24  25
ENDBRANCH  23  24
ENDBRANCH  22  23
ENDBRANCH  21  22
ENDBRANCH  20  21
ENDBRANCH  19  20
ENDBRANCH  18  19
ENDBRANCH  17  18
ENDBRANCH   1  17
TORSDOF 26
ENDMDL
MODEL 8
REMARK VINA RESULT:    -3.983      3.715      8.375
REMARK INTER + INTRA:         -14.473
REMARK INTER:                 -10.397
REMARK INTRA:                  -4.077
REMARK UNBOUND:                -4.437
REMARK SMILES CCCCCCCCCCCCCCCCCCCCCCCCCCCC(=O)[O-]
REMARK SMILES IDX 15 1 16 2 17 3 18 4 19 5 20 6 21 7 22 8 23 9 24 10 25 11
REMARK SMILES IDX 26 12 27 13 28 14 29 15 30 16 14 17 13 18 12 19 11 20 10 21
REMARK SMILES IDX 9 22 8 23 7 24 6 25 5 26 4 27 3 28 2 29 1 30
REMARK H PARENT
REMARK Flexibility Score: inf
ROOT
ATOM      1  C   UNL     1      -5.909  26.609 -12.551  1.00  0.00     0.000 C 
ENDROOT
BRANCH   1   2
ATOM      2  C   UNL     1      -4.722  25.627 -12.664  1.00  0.00     0.000 C 
BRANCH   2   3
ATOM      3  C   UNL     1      -4.216  25.502 -14.111  1.00  0.00     0.000 C 
BRANCH   3   4
ATOM      4  C   UNL     1      -4.409  24.092 -14.691  1.00  0.00     0.000 C 
BRANCH   4   5
ATOM      5  C   UNL     1      -5.360  24.073 -15.899  1.00  0.00     0.000 C 
BRANCH   5   6
ATOM      6  C   UNL     1      -6.768  23.560 -15.551  1.00  0.00     0.000 C 
BRANCH   6   7
ATOM      7  C   UNL     1      -7.727  24.656 -15.041  1.00  0.00     0.000 C 
BRANCH   7   8
ATOM      8  C   UNL     1      -8.418  24.269 -13.721  1.00  0.00     0.000 C 
BRANCH   8   9
ATOM      9  C   UNL     1      -8.052  22.846 -13.263  1.00  0.00     0.000 C 
BRANCH   9  10
ATOM     10  C   UNL     1      -7.423  22.822 -11.859  1.00  0.00     0.000 C 
BRANCH  10  11
ATOM     11  C   UNL     1      -6.044  22.127 -11.845  1.00  0.00     0.000 C 
BRANCH  11  12
ATOM     12  C   UNL     1      -5.861  21.146 -10.673  1.00  0.00     0.006 C 
BRANCH  12  13
ATOM     13  C   UNL     1      -7.178  20.661 -10.048  1.00  0.00     0.053 C 
BRANCH  13  14
ATOM     14  C   UNL     1      -6.960  19.569  -9.043  1.00  0.00     0.041 C 
ATOM     15  O   UNL     1      -6.269  18.561  -9.343  1.00  0.00    -0.550 OA
ATOM     16  O   UNL     1      -7.529  19.662  -7.779  1.00  0.00    -0.550 OA
ENDBRANCH  13  14
ENDBRANCH  12  13
ENDBRANCH  11  12
ENDBRANCH  10  11
ENDBRANCH   9  10
ENDBRANCH   8   9
ENDBRANCH   7   8
ENDBRANCH   6   7
ENDBRANCH   5   6
ENDBRANCH   4   5
ENDBRANCH   3   4
ENDBRANCH   2   3
ENDBRANCH   1   2
BRANCH   1  17
ATOM     17  C   UNL     1      -6.464  26.748 -11.123  1.00  0.00     0.000 C 
BRANCH  17  18
ATOM     18  C   UNL     1      -8.002  26.800 -11.079  1.00  0.00     0.000 C 
BRANCH  18  19
ATOM     19  C   UNL     1      -8.611  25.753 -10.123  1.00  0.00     0.000 C 
BRANCH  19  20
ATOM     20  C   UNL     1     -10.054  25.335 -10.470  1.00  0.00     0.000 C 
BRANCH  20  21
ATOM     21  C   UNL     1     -11.148  26.344 -10.082  1.00  0.00     0.000 C 
BRANCH  21  22
ATOM     22  C   UNL     1     -11.013  26.852  -8.635  1.00  0.00    -0.000 C 
BRANCH  22  23
ATOM     23  C   UNL     1     -11.479  28.309  -8.481  1.00  0.00    -0.000 C 
BRANCH  23  24
ATOM     24  C   UNL     1     -10.341  29.250  -8.061  1.00  0.00    -0.000 C 
BRANCH  24  25
ATOM     25  C   UNL     1      -9.983  30.213  -9.202  1.00  0.00    -0.000 C 
BRANCH  25  26
ATOM     26  C   UNL     1      -8.552  30.008  -9.725  1.00  0.00    -0.000 C 
BRANCH  26  27
ATOM     27  C   UNL     1      -7.511  29.961  -8.593  1.00  0.00    -0.000 C 
BRANCH  27  28
ATOM     28  C   UNL     1      -6.101  29.621  -9.100  1.00  0.00    -0.000 C 
BRANCH  28  29
ATOM     29  C   UNL     1      -5.100  30.761  -8.864  1.00  0.00    -0.003 C 
ATOM     30  C   UNL     1      -5.106  31.203  -7.404  1.00  0.00     0.004 C 
ENDBRANCH  28  29
ENDBRANCH  27  28
ENDBRANCH  26  27
ENDBRANCH  25  26
ENDBRANCH  24  25
ENDBRANCH  23  24
ENDBRANCH  22  23
ENDBRANCH  21  22
ENDBRANCH  20  21
ENDBRANCH  19  20
ENDBRANCH  18  19
ENDBRANCH  17  18
ENDBRANCH   1  17
TORSDOF 26
ENDMDL
MODEL 9
REMARK VINA RESULT:    -3.976      3.594      8.941
REMARK INTER + INTRA:         -14.457
REMARK INTER:                 -10.399
REMARK INTRA:                  -4.058
REMARK UNBOUND:                -4.437
REMARK SMILES CCCCCCCCCCCCCCCCCCCCCCCCCCCC(=O)[O-]
REMARK SMILES IDX 15 1 16 2 17 3 18 4 19 5 20 6 21 7 22 8 23 9 24 10 25 11
REMARK SMILES IDX 26 12 27 13 28 14 29 15 30 16 14 17 13 18 12 19 11 20 10 21
REMARK SMILES IDX 9 22 8 23 7 24 6 25 5 26 4 27 3 28 2 29 1 30
REMARK H PARENT
REMARK Flexibility Score: inf
ROOT
ATOM      1  C   UNL     1     -10.169  26.475 -11.084  1.00  0.00     0.000 C 
ENDROOT
BRANCH   1   2
ATOM      2  C   UNL     1      -8.782  26.843 -11.653  1.00  0.00     0.000 C 
BRANCH   2   3
ATOM      3  C   UNL     1      -8.486  26.101 -12.968  1.00  0.00     0.000 C 
BRANCH   3   4
ATOM      4  C   UNL     1      -7.457  26.832 -13.846  1.00  0.00     0.000 C 
BRANCH   4   5
ATOM      5  C   UNL     1      -6.073  26.164 -13.816  1.00  0.00     0.000 C 
BRANCH   5   6
ATOM      6  C   UNL     1      -5.371  26.291 -12.453  1.00  0.00     0.000 C 
BRANCH   6   7
ATOM      7  C   UNL     1      -4.412  25.126 -12.130  1.00  0.00     0.000 C 
BRANCH   7   8
ATOM      8  C   UNL     1      -4.738  24.449 -10.786  1.00  0.00     0.000 C 
BRANCH   8   9
ATOM      9  C   UNL     1      -6.253  24.346 -10.533  1.00  0.00     0.000 C 
BRANCH   9  10
ATOM     10  C   UNL     1      -6.847  23.021 -11.041  1.00  0.00     0.000 C 
BRANCH  10  11
ATOM     11  C   UNL     1      -5.767  21.938 -11.260  1.00  0.00     0.000 C 
BRANCH  11  12
ATOM     12  C   UNL     1      -6.254  20.511 -10.948  1.00  0.00     0.006 C 
BRANCH  12  13
ATOM     13  C   UNL     1      -7.328  20.440  -9.852  1.00  0.00     0.053 C 
BRANCH  13  14
ATOM     14  C   UNL     1      -6.947  19.501  -8.746  1.00  0.00     0.041 C 
ATOM     15  O   UNL     1      -7.717  19.331  -7.764  1.00  0.00    -0.550 OA
ATOM     16  O   UNL     1      -5.737  18.821  -8.796  1.00  0.00    -0.550 OA
ENDBRANCH  13  14
ENDBRANCH  12  13
ENDBRANCH  11  12
ENDBRANCH  10  11
ENDBRANCH   9  10
ENDBRANCH   8   9
ENDBRANCH   7   8
ENDBRANCH   6   7
ENDBRANCH   5   6
ENDBRANCH   4   5
ENDBRANCH   3   4
ENDBRANCH   2   3
ENDBRANCH   1   2
BRANCH   1  17
ATOM     17  C   UNL     1     -10.159  26.165  -9.577  1.00  0.00     0.000 C 
BRANCH  17  18
ATOM     18  C   UNL     1     -11.308  26.850  -8.815  1.00  0.00     0.000 C 
BRANCH  18  19
ATOM     19  C   UNL     1     -12.245  27.656  -9.739  1.00  0.00     0.000 C 
BRANCH  19  20
ATOM     20  C   UNL     1     -13.191  28.623  -9.000  1.00  0.00     0.000 C 
BRANCH  20  21
ATOM     21  C   UNL     1     -12.887  28.839  -7.508  1.00  0.00     0.000 C 
BRANCH  21  22
ATOM     22  C   UNL     1     -12.207  30.189  -7.221  1.00  0.00    -0.000 C 
BRANCH  22  23
ATOM     23  C   UNL     1     -12.511  31.240  -8.302  1.00  0.00    -0.000 C 
BRANCH  23  24
ATOM     24  C   UNL     1     -11.238  31.847  -8.908  1.00  0.00    -0.000 C 
BRANCH  24  25
ATOM     25  C   UNL     1     -10.019  30.961  -8.613  1.00  0.00    -0.000 C 
BRANCH  25  26
ATOM     26  C   UNL     1      -9.505  30.224  -9.860  1.00  0.00    -0.000 C 
BRANCH  26  27
ATOM     27  C   UNL     1      -8.093  29.645  -9.662  1.00  0.00    -0.000 C 
BRANCH  27  28
ATOM     28  C   UNL     1      -7.704  29.529  -8.179  1.00  0.00    -0.000 C 
BRANCH  28  29
ATOM     29  C   UNL     1      -7.952  28.123  -7.614  1.00  0.00    -0.003 C 
ATOM     30  C   UNL     1      -6.850  27.159  -8.040  1.00  0.00     0.004 C 
ENDBRANCH  28  29
ENDBRANCH  27  28
ENDBRANCH  26  27
ENDBRANCH  25  26
ENDBRANCH  24  25
ENDBRANCH  23  24
ENDBRANCH  22  23
ENDBRANCH  21  22
ENDBRANCH  20  21
ENDBRANCH  19  20
ENDBRANCH  18  19
ENDBRANCH  17  18
ENDBRANCH   1  17
TORSDOF 26
ENDMDL
