MODEL 1
REMARK VINA RESULT:    -2.715      0.000      0.000
REMARK INTER + INTRA:          -3.225
REMARK INTER:                  -3.191
REMARK INTRA:                  -0.033
REMARK UNBOUND:                -0.033
REMARK SMILES CCCCC(=O)[O-]
REMARK SMILES IDX 4 1 5 2 6 3 7 4 3 5 2 6 1 7
REMARK H PARENT
REMARK Flexibility Score: inf
ROOT
ATOM      1  C   UNL     1      54.012  18.248  85.697  1.00  0.00     0.053 C 
ENDROOT
BRANCH   1   2
ATOM      2  C   UNL     1      52.766  18.794  85.071  1.00  0.00     0.041 C 
ATOM      3  O   UNL     1      52.818  19.826  84.353  1.00  0.00    -0.550 OA
ATOM      4  O   UNL     1      51.552  18.141  85.252  1.00  0.00    -0.550 OA
ENDBRANCH   1   2
BRANCH   1   5
ATOM      5  C   UNL     1      55.160  18.121  84.683  1.00  0.00     0.006 C 
BRANCH   5   6
ATOM      6  C   UNL     1      56.125  16.957  84.967  1.00  0.00    -0.003 C 
ATOM      7  C   UNL     1      55.852  16.272  86.305  1.00  0.00     0.004 C 
ENDBRANCH   5   6
ENDBRANCH   1   5
TORSDOF 3
ENDMDL
MODEL 2
REMARK VINA RESULT:    -2.605      9.673     10.912
REMARK INTER + INTRA:          -3.094
REMARK INTER:                  -3.067
REMARK INTRA:                  -0.027
REMARK UNBOUND:                -0.033
REMARK SMILES CCCCC(=O)[O-]
REMARK SMILES IDX 4 1 5 2 6 3 7 4 3 5 2 6 1 7
REMARK H PARENT
REMARK Flexibility Score: inf
ROOT
ATOM      1  C   UNL     1      45.809  18.989  77.798  1.00  0.00     0.053 C 
ENDROOT
BRANCH   1   2
ATOM      2  C   UNL     1      45.874  18.010  76.666  1.00  0.00     0.041 C 
ATOM      3  O   UNL     1      45.722  16.779  76.884  1.00  0.00    -0.550 OA
ATOM      4  O   UNL     1      46.069  18.461  75.366  1.00  0.00    -0.550 OA
ENDBRANCH   1   2
BRANCH   1   5
ATOM      5  C   UNL     1      47.026  19.926  77.821  1.00  0.00     0.006 C 
BRANCH   5   6
ATOM      6  C   UNL     1      48.029  19.627  78.949  1.00  0.00    -0.003 C 
ATOM      7  C   UNL     1      49.351  20.375  78.781  1.00  0.00     0.004 C 
ENDBRANCH   5   6
ENDBRANCH   1   5
TORSDOF 3
ENDMDL
MODEL 3
REMARK VINA RESULT:    -2.582     14.582     16.005
REMARK INTER + INTRA:          -3.068
REMARK INTER:                  -3.010
REMARK INTRA:                  -0.058
REMARK UNBOUND:                -0.033
REMARK SMILES CCCCC(=O)[O-]
REMARK SMILES IDX 4 1 5 2 6 3 7 4 3 5 2 6 1 7
REMARK H PARENT
REMARK Flexibility Score: inf
ROOT
ATOM      1  C   UNL     1      39.914  19.605  80.002  1.00  0.00     0.053 C 
ENDROOT
BRANCH   1   2
ATOM      2  C   UNL     1      40.837  20.234  79.005  1.00  0.00     0.041 C 
ATOM      3  O   UNL     1      40.376  20.959  78.085  1.00  0.00    -0.550 OA
ATOM      4  O   UNL     1      42.210  20.047  79.112  1.00  0.00    -0.550 OA
ENDBRANCH   1   2
BRANCH   1   5
ATOM      5  C   UNL     1      38.662  20.460  80.250  1.00  0.00     0.006 C 
BRANCH   5   6
ATOM      6  C   UNL     1      37.362  19.648  80.387  1.00  0.00    -0.003 C 
ATOM      7  C   UNL     1      37.553  18.165  80.076  1.00  0.00     0.004 C 
ENDBRANCH   5   6
ENDBRANCH   1   5
TORSDOF 3
ENDMDL
MODEL 4
REMARK VINA RESULT:    -2.563     15.289     16.217
REMARK INTER + INTRA:          -3.046
REMARK INTER:                  -3.027
REMARK INTRA:                  -0.019
REMARK UNBOUND:                -0.033
REMARK SMILES CCCCC(=O)[O-]
REMARK SMILES IDX 4 1 5 2 6 3 7 4 3 5 2 6 1 7
REMARK H PARENT
REMARK Flexibility Score: inf
ROOT
ATOM      1  C   UNL     1      38.762  20.321  80.110  1.00  0.00     0.053 C 
ENDROOT
BRANCH   1   2
ATOM      2  C   UNL     1      37.747  19.427  80.752  1.00  0.00     0.041 C 
ATOM      3  O   UNL     1      37.257  18.461  80.110  1.00  0.00    -0.550 OA
ATOM      4  O   UNL     1      37.367  19.641  82.072  1.00  0.00    -0.550 OA
ENDBRANCH   1   2
BRANCH   1   5
ATOM      5  C   UNL     1      40.042  19.561  79.730  1.00  0.00     0.006 C 
BRANCH   5   6
ATOM      6  C   UNL     1      41.133  20.442  79.096  1.00  0.00    -0.003 C 
ATOM      7  C   UNL     1      40.678  21.107  77.797  1.00  0.00     0.004 C 
ENDBRANCH   5   6
ENDBRANCH   1   5
TORSDOF 3
ENDMDL
MODEL 5
REMARK VINA RESULT:    -2.562      2.531      3.725
REMARK INTER + INTRA:          -3.044
REMARK INTER:                  -2.937
REMARK INTRA:                  -0.107
REMARK UNBOUND:                -0.033
REMARK SMILES CCCCC(=O)[O-]
REMARK SMILES IDX 4 1 5 2 6 3 7 4 3 5 2 6 1 7
REMARK H PARENT
REMARK Flexibility Score: inf
ROOT
ATOM      1  C   UNL     1      55.452  17.690  84.914  1.00  0.00     0.053 C 
ENDROOT
BRANCH   1   2
ATOM      2  C   UNL     1      55.429  17.102  86.291  1.00  0.00     0.041 C 
ATOM      3  O   UNL     1      55.655  15.876  86.460  1.00  0.00    -0.550 OA
ATOM      4  O   UNL     1      55.192  17.918  87.392  1.00  0.00    -0.550 OA
ENDBRANCH   1   2
BRANCH   1   5
ATOM      5  C   UNL     1      54.559  18.936  84.803  1.00  0.00     0.006 C 
BRANCH   5   6
ATOM      6  C   UNL     1      53.055  18.625  84.694  1.00  0.00    -0.003 C 
ATOM      7  C   UNL     1      52.214  19.401  85.706  1.00  0.00     0.004 C 
ENDBRANCH   5   6
ENDBRANCH   1   5
TORSDOF 3
ENDMDL
MODEL 6
REMARK VINA RESULT:    -2.549     15.317     16.760
REMARK INTER + INTRA:          -3.029
REMARK INTER:                  -2.945
REMARK INTRA:                  -0.084
REMARK UNBOUND:                -0.033
REMARK SMILES CCCCC(=O)[O-]
REMARK SMILES IDX 4 1 5 2 6 3 7 4 3 5 2 6 1 7
REMARK H PARENT
REMARK Flexibility Score: inf
ROOT
ATOM      1  C   UNL     1      37.365  18.961  80.306  1.00  0.00     0.053 C 
ENDROOT
BRANCH   1   2
ATOM      2  C   UNL     1      36.878  20.056  81.204  1.00  0.00     0.041 C 
ATOM      3  O   UNL     1      36.152  20.976  80.745  1.00  0.00    -0.550 OA
ATOM      4  O   UNL     1      37.198  20.041  82.557  1.00  0.00    -0.550 OA
ENDBRANCH   1   2
BRANCH   1   5
ATOM      5  C   UNL     1      38.899  18.918  80.229  1.00  0.00     0.006 C 
BRANCH   5   6
ATOM      6  C   UNL     1      39.548  20.256  79.835  1.00  0.00    -0.003 C 
ATOM      7  C   UNL     1      40.975  20.094  79.313  1.00  0.00     0.004 C 
ENDBRANCH   5   6
ENDBRANCH   1   5
TORSDOF 3
ENDMDL
MODEL 7
REMARK VINA RESULT:    -2.486     16.615     17.042
REMARK INTER + INTRA:          -2.955
REMARK INTER:                  -2.905
REMARK INTRA:                  -0.049
REMARK UNBOUND:                -0.033
REMARK SMILES CCCCC(=O)[O-]
REMARK SMILES IDX 4 1 5 2 6 3 7 4 3 5 2 6 1 7
REMARK H PARENT
REMARK Flexibility Score: inf
ROOT
ATOM      1  C   UNL     1      45.111  29.967  91.455  1.00  0.00     0.053 C 
ENDROOT
BRANCH   1   2
ATOM      2  C   UNL     1      43.982  30.566  92.233  1.00  0.00     0.041 C 
ATOM      3  O   UNL     1      44.197  31.511  93.037  1.00  0.00    -0.550 OA
ATOM      4  O   UNL     1      42.684  30.104  92.046  1.00  0.00    -0.550 OA
ENDBRANCH   1   2
BRANCH   1   5
ATOM      5  C   UNL     1      46.146  31.022  91.034  1.00  0.00     0.006 C 
BRANCH   5   6
ATOM      6  C   UNL     1      45.873  31.659  89.660  1.00  0.00    -0.003 C 
ATOM      7  C   UNL     1      47.153  32.030  88.912  1.00  0.00     0.004 C 
ENDBRANCH   5   6
ENDBRANCH   1   5
TORSDOF 3
ENDMDL
MODEL 8
REMARK VINA RESULT:    -2.438     11.451     12.176
REMARK INTER + INTRA:          -2.899
REMARK INTER:                  -2.815
REMARK INTRA:                  -0.084
REMARK UNBOUND:                -0.033
REMARK SMILES CCCCC(=O)[O-]
REMARK SMILES IDX 4 1 5 2 6 3 7 4 3 5 2 6 1 7
REMARK H PARENT
REMARK Flexibility Score: inf
ROOT
ATOM      1  C   UNL     1      46.013  18.656  77.803  1.00  0.00     0.053 C 
ENDROOT
BRANCH   1   2
ATOM      2  C   UNL     1      45.905  17.811  76.572  1.00  0.00     0.041 C 
ATOM      3  O   UNL     1      45.992  18.338  75.432  1.00  0.00    -0.550 OA
ATOM      4  O   UNL     1      45.741  16.435  76.684  1.00  0.00    -0.550 OA
ENDBRANCH   1   2
BRANCH   1   5
ATOM      5  C   UNL     1      46.176  20.147  77.468  1.00  0.00     0.006 C 
BRANCH   5   6
ATOM      6  C   UNL     1      44.889  20.974  77.638  1.00  0.00    -0.003 C 
ATOM      7  C   UNL     1      43.875  20.311  78.569  1.00  0.00     0.004 C 
ENDBRANCH   5   6
ENDBRANCH   1   5
TORSDOF 3
ENDMDL
MODEL 9
REMARK VINA RESULT:    -2.434     10.713     11.586
REMARK INTER + INTRA:          -2.894
REMARK INTER:                  -2.782
REMARK INTRA:                  -0.112
REMARK UNBOUND:                -0.033
REMARK SMILES CCCCC(=O)[O-]
REMARK SMILES IDX 4 1 5 2 6 3 7 4 3 5 2 6 1 7
REMARK H PARENT
REMARK Flexibility Score: inf
ROOT
ATOM      1  C   UNL     1      53.487  19.985  73.322  1.00  0.00     0.053 C 
ENDROOT
BRANCH   1   2
ATOM      2  C   UNL     1      54.526  19.197  74.057  1.00  0.00     0.041 C 
ATOM      3  O   UNL     1      55.230  19.747  74.944  1.00  0.00    -0.550 OA
ATOM      4  O   UNL     1      54.695  17.844  73.785  1.00  0.00    -0.550 OA
ENDBRANCH   1   2
BRANCH   1   5
ATOM      5  C   UNL     1      53.458  21.456  73.766  1.00  0.00     0.006 C 
BRANCH   5   6
ATOM      6  C   UNL     1      52.269  21.816  74.674  1.00  0.00    -0.003 C 
ATOM      7  C   UNL     1      52.658  21.920  76.148  1.00  0.00     0.004 C 
ENDBRANCH   5   6
ENDBRANCH   1   5
TORSDOF 3
ENDMDL
