MODEL 1
REMARK VINA RESULT:    -4.571      0.000      0.000
REMARK INTER + INTRA:          -4.571
REMARK INTER:                  -4.571
REMARK INTRA:                   0.000
REMARK UNBOUND:                 0.000
REMARK SMILES CC1(C)O[C@]2(C)CC[C@H]1CC2
REMARK SMILES IDX 1 1 2 2 9 3 8 4 7 5 5 6 4 7 11 8 10 9 6 10 3 11
REMARK H PARENT
REMARK Flexibility Score: inf
ROOT
ATOM      1  C   UNL     1     181.830 181.310 185.860  1.00  0.00     0.042 C 
ATOM      2  C   UNL     1     181.906 180.039 184.987  1.00  0.00     0.066 C 
ATOM      3  C   UNL     1     180.901 178.942 185.511  1.00  0.00     0.021 C 
ATOM      4  C   UNL     1     180.982 177.715 184.571  1.00  0.00     0.009 C 
ATOM      5  C   UNL     1     180.804 178.184 183.107  1.00  0.00     0.035 C 
ATOM      6  C   UNL     1     180.512 179.712 183.075  1.00  0.00     0.066 C 
ATOM      7  O   UNL     1     181.625 180.414 183.630  1.00  0.00    -0.369 OA
ATOM      8  C   UNL     1     179.246 180.003 183.931  1.00  0.00     0.035 C 
ATOM      9  C   UNL     1     179.461 179.491 185.376  1.00  0.00     0.009 C 
ATOM     10  C   UNL     1     180.299 180.184 181.633  1.00  0.00     0.042 C 
ATOM     11  C   UNL     1     183.359 179.525 185.052  1.00  0.00     0.042 C 
ENDROOT
TORSDOF 0
ENDMDL
MODEL 2
REMARK VINA RESULT:    -4.500      0.938      3.145
REMARK INTER + INTRA:          -4.500
REMARK INTER:                  -4.500
REMARK INTRA:                   0.000
REMARK UNBOUND:                 0.000
REMARK SMILES CC1(C)O[C@]2(C)CC[C@H]1CC2
REMARK SMILES IDX 1 1 2 2 9 3 8 4 7 5 5 6 4 7 11 8 10 9 6 10 3 11
REMARK H PARENT
REMARK Flexibility Score: inf
ROOT
ATOM      1  C   UNL     1     180.411 180.135 181.821  1.00  0.00     0.042 C 
ATOM      2  C   UNL     1     180.548 180.293 183.351  1.00  0.00     0.066 C 
ATOM      3  C   UNL     1     179.847 179.096 184.101  1.00  0.00     0.021 C 
ATOM      4  C   UNL     1     180.059 179.279 185.622  1.00  0.00     0.009 C 
ATOM      5  C   UNL     1     181.566 179.493 185.902  1.00  0.00     0.035 C 
ATOM      6  C   UNL     1     182.372 179.362 184.578  1.00  0.00     0.066 C 
ATOM      7  O   UNL     1     181.945 180.375 183.666  1.00  0.00    -0.369 OA
ATOM      8  C   UNL     1     182.096 177.963 183.955  1.00  0.00     0.035 C 
ATOM      9  C   UNL     1     180.576 177.785 183.720  1.00  0.00     0.009 C 
ATOM     10  C   UNL     1     183.871 179.539 184.847  1.00  0.00     0.042 C 
ATOM     11  C   UNL     1     179.890 181.636 183.733  1.00  0.00     0.042 C 
ENDROOT
TORSDOF 0
ENDMDL
MODEL 3
REMARK VINA RESULT:    -4.444      1.209      2.426
REMARK INTER + INTRA:          -4.444
REMARK INTER:                  -4.444
REMARK INTRA:                   0.000
REMARK UNBOUND:                 0.000
REMARK SMILES CC1(C)O[C@]2(C)CC[C@H]1CC2
REMARK SMILES IDX 1 1 2 2 9 3 8 4 7 5 5 6 4 7 11 8 10 9 6 10 3 11
REMARK H PARENT
REMARK Flexibility Score: inf
ROOT
ATOM      1  C   UNL     1     183.295 178.132 183.372  1.00  0.00     0.042 C 
ATOM      2  C   UNL     1     181.796 178.214 183.730  1.00  0.00     0.066 C 
ATOM      3  C   UNL     1     181.598 178.850 185.160  1.00  0.00     0.021 C 
ATOM      4  C   UNL     1     180.081 178.955 185.444  1.00  0.00     0.009 C 
ATOM      5  C   UNL     1     179.390 179.671 184.258  1.00  0.00     0.035 C 
ATOM      6  C   UNL     1     180.459 180.127 183.223  1.00  0.00     0.066 C 
ATOM      7  O   UNL     1     181.136 178.978 182.711  1.00  0.00    -0.369 OA
ATOM      8  C   UNL     1     181.488 181.052 183.934  1.00  0.00     0.035 C 
ATOM      9  C   UNL     1     182.130 180.303 185.128  1.00  0.00     0.009 C 
ATOM     10  C   UNL     1     179.791 180.868 182.059  1.00  0.00     0.042 C 
ATOM     11  C   UNL     1     181.236 176.776 183.691  1.00  0.00     0.042 C 
ENDROOT
TORSDOF 0
ENDMDL
MODEL 4
REMARK VINA RESULT:    -4.312      1.315      3.242
REMARK INTER + INTRA:          -4.312
REMARK INTER:                  -4.312
REMARK INTRA:                   0.000
REMARK UNBOUND:                 0.000
REMARK SMILES CC1(C)O[C@]2(C)CC[C@H]1CC2
REMARK SMILES IDX 1 1 2 2 9 3 8 4 7 5 5 6 4 7 11 8 10 9 6 10 3 11
REMARK H PARENT
REMARK Flexibility Score: inf
ROOT
ATOM      1  C   UNL     1     180.874 176.958 183.526  1.00  0.00     0.042 C 
ATOM      2  C   UNL     1     181.546 178.347 183.561  1.00  0.00     0.066 C 
ATOM      3  C   UNL     1     180.523 179.472 183.140  1.00  0.00     0.021 C 
ATOM      4  C   UNL     1     181.233 180.843 183.242  1.00  0.00     0.009 C 
ATOM      5  C   UNL     1     181.883 180.976 184.640  1.00  0.00     0.035 C 
ATOM      6  C   UNL     1     181.529 179.732 185.506  1.00  0.00     0.066 C 
ATOM      7  O   UNL     1     182.059 178.561 184.883  1.00  0.00    -0.369 OA
ATOM      8  C   UNL     1     179.982 179.606 185.601  1.00  0.00     0.035 C 
ATOM      9  C   UNL     1     179.376 179.505 184.179  1.00  0.00     0.009 C 
ATOM     10  C   UNL     1     182.139 179.867 186.906  1.00  0.00     0.042 C 
ATOM     11  C   UNL     1     182.740 178.303 182.583  1.00  0.00     0.042 C 
ENDROOT
TORSDOF 0
ENDMDL
MODEL 5
REMARK VINA RESULT:    -4.225      1.207      2.805
REMARK INTER + INTRA:          -4.225
REMARK INTER:                  -4.225
REMARK INTRA:                   0.000
REMARK UNBOUND:                 0.000
REMARK SMILES CC1(C)O[C@]2(C)CC[C@H]1CC2
REMARK SMILES IDX 1 1 2 2 9 3 8 4 7 5 5 6 4 7 11 8 10 9 6 10 3 11
REMARK H PARENT
REMARK Flexibility Score: inf
ROOT
ATOM      1  C   UNL     1     179.218 180.733 183.019  1.00  0.00     0.042 C 
ATOM      2  C   UNL     1     180.683 180.250 183.086  1.00  0.00     0.066 C 
ATOM      3  C   UNL     1     181.333 180.631 184.472  1.00  0.00     0.021 C 
ATOM      4  C   UNL     1     182.778 180.080 184.504  1.00  0.00     0.009 C 
ATOM      5  C   UNL     1     182.757 178.578 184.131  1.00  0.00     0.035 C 
ATOM      6  C   UNL     1     181.288 178.103 183.940  1.00  0.00     0.066 C 
ATOM      7  O   UNL     1     180.695 178.832 182.864  1.00  0.00    -0.369 OA
ATOM      8  C   UNL     1     180.492 178.383 185.247  1.00  0.00     0.035 C 
ATOM      9  C   UNL     1     180.566 179.890 185.594  1.00  0.00     0.009 C 
ATOM     10  C   UNL     1     181.251 176.608 183.603  1.00  0.00     0.042 C 
ATOM     11  C   UNL     1     181.442 180.925 181.924  1.00  0.00     0.042 C 
ENDROOT
TORSDOF 0
ENDMDL
MODEL 6
REMARK VINA RESULT:    -4.205      1.088      3.255
REMARK INTER + INTRA:          -4.205
REMARK INTER:                  -4.205
REMARK INTRA:                   0.000
REMARK UNBOUND:                 0.000
REMARK SMILES CC1(C)O[C@]2(C)CC[C@H]1CC2
REMARK SMILES IDX 1 1 2 2 9 3 8 4 7 5 5 6 4 7 11 8 10 9 6 10 3 11
REMARK H PARENT
REMARK Flexibility Score: inf
ROOT
ATOM      1  C   UNL     1     182.167 180.993 182.313  1.00  0.00     0.042 C 
ATOM      2  C   UNL     1     181.193 180.200 183.212  1.00  0.00     0.066 C 
ATOM      3  C   UNL     1     181.683 178.711 183.387  1.00  0.00     0.021 C 
ATOM      4  C   UNL     1     180.702 177.981 184.334  1.00  0.00     0.009 C 
ATOM      5  C   UNL     1     180.525 178.816 185.625  1.00  0.00     0.035 C 
ATOM      6  C   UNL     1     181.460 180.059 185.581  1.00  0.00     0.066 C 
ATOM      7  O   UNL     1     181.095 180.881 184.471  1.00  0.00    -0.369 OA
ATOM      8  C   UNL     1     182.929 179.581 185.401  1.00  0.00     0.035 C 
ATOM      9  C   UNL     1     183.049 178.728 184.115  1.00  0.00     0.009 C 
ATOM     10  C   UNL     1     181.320 180.878 186.869  1.00  0.00     0.042 C 
ATOM     11  C   UNL     1     179.807 180.242 182.533  1.00  0.00     0.042 C 
ENDROOT
TORSDOF 0
ENDMDL
MODEL 7
REMARK VINA RESULT:    -4.105      1.369      2.543
REMARK INTER + INTRA:          -4.105
REMARK INTER:                  -4.105
REMARK INTRA:                   0.000
REMARK UNBOUND:                 0.000
REMARK SMILES CC1(C)O[C@]2(C)CC[C@H]1CC2
REMARK SMILES IDX 1 1 2 2 9 3 8 4 7 5 5 6 4 7 11 8 10 9 6 10 3 11
REMARK H PARENT
REMARK Flexibility Score: inf
ROOT
ATOM      1  C   UNL     1     183.877 180.482 185.470  1.00  0.00     0.042 C 
ATOM      2  C   UNL     1     182.458 180.029 185.879  1.00  0.00     0.066 C 
ATOM      3  C   UNL     1     181.381 181.084 185.413  1.00  0.00     0.021 C 
ATOM      4  C   UNL     1     179.980 180.556 185.802  1.00  0.00     0.009 C 
ATOM      5  C   UNL     1     179.817 179.110 185.275  1.00  0.00     0.035 C 
ATOM      6  C   UNL     1     181.074 178.704 184.454  1.00  0.00     0.066 C 
ATOM      7  O   UNL     1     182.221 178.736 185.305  1.00  0.00    -0.369 OA
ATOM      8  C   UNL     1     181.271 179.721 183.293  1.00  0.00     0.035 C 
ATOM      9  C   UNL     1     181.400 181.153 183.867  1.00  0.00     0.009 C 
ATOM     10  C   UNL     1     180.911 177.285 183.897  1.00  0.00     0.042 C 
ATOM     11  C   UNL     1     182.449 179.883 187.415  1.00  0.00     0.042 C 
ENDROOT
TORSDOF 0
ENDMDL
MODEL 8
REMARK VINA RESULT:    -4.060      1.832      3.301
REMARK INTER + INTRA:          -4.060
REMARK INTER:                  -4.060
REMARK INTRA:                   0.000
REMARK UNBOUND:                 0.000
REMARK SMILES CC1(C)O[C@]2(C)CC[C@H]1CC2
REMARK SMILES IDX 1 1 2 2 9 3 8 4 7 5 5 6 4 7 11 8 10 9 6 10 3 11
REMARK H PARENT
REMARK Flexibility Score: inf
ROOT
ATOM      1  C   UNL     1     181.858 181.773 182.177  1.00  0.00     0.042 C 
ATOM      2  C   UNL     1     181.381 181.889 183.641  1.00  0.00     0.066 C 
ATOM      3  C   UNL     1     179.888 182.395 183.703  1.00  0.00     0.021 C 
ATOM      4  C   UNL     1     179.448 182.443 185.185  1.00  0.00     0.009 C 
ATOM      5  C   UNL     1     179.752 181.079 185.849  1.00  0.00     0.035 C 
ATOM      6  C   UNL     1     180.311 180.088 184.788  1.00  0.00     0.066 C 
ATOM      7  O   UNL     1     181.534 180.604 184.263  1.00  0.00    -0.369 OA
ATOM      8  C   UNL     1     179.277 179.948 183.633  1.00  0.00     0.035 C 
ATOM      9  C   UNL     1     178.985 181.340 183.020  1.00  0.00     0.009 C 
ATOM     10  C   UNL     1     180.584 178.722 185.426  1.00  0.00     0.042 C 
ATOM     11  C   UNL     1     182.324 182.882 184.353  1.00  0.00     0.042 C 
ENDROOT
TORSDOF 0
ENDMDL
MODEL 9
REMARK VINA RESULT:    -4.053      2.525      3.956
REMARK INTER + INTRA:          -4.053
REMARK INTER:                  -4.053
REMARK INTRA:                   0.000
REMARK UNBOUND:                 0.000
REMARK SMILES CC1(C)O[C@]2(C)CC[C@H]1CC2
REMARK SMILES IDX 1 1 2 2 9 3 8 4 7 5 5 6 4 7 11 8 10 9 6 10 3 11
REMARK H PARENT
REMARK Flexibility Score: inf
ROOT
ATOM      1  C   UNL     1     180.459 179.836 181.919  1.00  0.00     0.042 C 
ATOM      2  C   UNL     1     179.899 180.537 183.175  1.00  0.00     0.066 C 
ATOM      3  C   UNL     1     181.032 181.351 183.911  1.00  0.00     0.021 C 
ATOM      4  C   UNL     1     180.405 182.071 185.128  1.00  0.00     0.009 C 
ATOM      5  C   UNL     1     179.162 182.867 184.663  1.00  0.00     0.035 C 
ATOM      6  C   UNL     1     179.011 182.753 183.119  1.00  0.00     0.066 C 
ATOM      7  O   UNL     1     178.814 181.383 182.767  1.00  0.00    -0.369 OA
ATOM      8  C   UNL     1     180.312 183.272 182.443  1.00  0.00     0.035 C 
ATOM      9  C   UNL     1     181.529 182.467 182.961  1.00  0.00     0.009 C 
ATOM     10  C   UNL     1     177.802 183.564 182.641  1.00  0.00     0.042 C 
ATOM     11  C   UNL     1     179.330 179.438 184.098  1.00  0.00     0.042 C 
ENDROOT
TORSDOF 0
ENDMDL
