MODEL 1
REMARK VINA RESULT:    -6.434      0.000      0.000
REMARK INTER + INTRA:          -6.851
REMARK INTER:                  -6.810
REMARK INTRA:                  -0.041
REMARK UNBOUND:                -0.041
REMARK SMILES COc1ccc2ccc(=O)oc2c1
REMARK SMILES IDX 3 1 13 2 12 3 6 4 5 5 4 6 7 7 8 8 9 9 10 10 11 11 2 12 1 13
REMARK H PARENT
REMARK Flexibility Score: inf
ROOT
ATOM      1  C   UNL     1      27.894  24.744  45.754  1.00  0.00     0.122 A 
ATOM      2  C   UNL     1      26.989  24.002  46.525  1.00  0.00     0.094 A 
ATOM      3  C   UNL     1      27.356  23.523  47.787  1.00  0.00     0.142 A 
ATOM      4  C   UNL     1      28.648  23.789  48.290  1.00  0.00     0.018 A 
ATOM      5  C   UNL     1      29.557  24.531  47.523  1.00  0.00     0.016 A 
ATOM      6  C   UNL     1      29.183  25.006  46.262  1.00  0.00     0.047 A 
ATOM      7  C   UNL     1      28.987  23.297  49.554  1.00  0.00     0.019 A 
ATOM      8  C   UNL     1      28.046  22.564  50.276  1.00  0.00     0.094 A 
ATOM      9  C   UNL     1      26.784  22.340  49.716  1.00  0.00     0.336 A 
ATOM     10  O   UNL     1      25.921  21.681  50.352  1.00  0.00    -0.246 OA
ATOM     11  O   UNL     1      26.488  22.820  48.510  1.00  0.00    -0.423 OA
ENDROOT
BRANCH   1  12
ATOM     12  O   UNL     1      27.475  25.201  44.495  1.00  0.00    -0.497 OA
ATOM     13  C   UNL     1      26.136  25.565  44.177  1.00  0.00     0.278 C 
ENDBRANCH   1  12
TORSDOF 1
ENDMDL
MODEL 2
REMARK VINA RESULT:    -6.012      1.877      5.382
REMARK INTER + INTRA:          -6.404
REMARK INTER:                  -6.373
REMARK INTRA:                  -0.031
REMARK UNBOUND:                -0.041
REMARK SMILES COc1ccc2ccc(=O)oc2c1
REMARK SMILES IDX 3 1 13 2 12 3 6 4 5 5 4 6 7 7 8 8 9 9 10 10 11 11 2 12 1 13
REMARK H PARENT
REMARK Flexibility Score: inf
ROOT
ATOM      1  C   UNL     1      28.242  22.274  50.657  1.00  0.00     0.122 A 
ATOM      2  C   UNL     1      29.200  22.910  49.856  1.00  0.00     0.094 A 
ATOM      3  C   UNL     1      28.821  23.565  48.679  1.00  0.00     0.142 A 
ATOM      4  C   UNL     1      27.463  23.587  48.294  1.00  0.00     0.018 A 
ATOM      5  C   UNL     1      26.501  22.953  49.091  1.00  0.00     0.016 A 
ATOM      6  C   UNL     1      26.887  22.299  50.266  1.00  0.00     0.047 A 
ATOM      7  C   UNL     1      27.114  24.250  47.113  1.00  0.00     0.019 A 
ATOM      8  C   UNL     1      28.110  24.865  46.355  1.00  0.00     0.094 A 
ATOM      9  C   UNL     1      29.435  24.803  46.799  1.00  0.00     0.336 A 
ATOM     10  O   UNL     1      30.349  25.353  46.129  1.00  0.00    -0.246 OA
ATOM     11  O   UNL     1      29.739  24.166  47.927  1.00  0.00    -0.423 OA
ENDROOT
BRANCH   1  12
ATOM     12  O   UNL     1      28.675  21.632  51.826  1.00  0.00    -0.497 OA
ATOM     13  C   UNL     1      28.144  21.881  53.124  1.00  0.00     0.278 C 
ENDBRANCH   1  12
TORSDOF 1
ENDMDL
MODEL 3
REMARK VINA RESULT:    -5.923      1.337      4.733
REMARK INTER + INTRA:          -6.309
REMARK INTER:                  -6.275
REMARK INTRA:                  -0.034
REMARK UNBOUND:                -0.041
REMARK SMILES COc1ccc2ccc(=O)oc2c1
REMARK SMILES IDX 3 1 13 2 12 3 6 4 5 5 4 6 7 7 8 8 9 9 10 10 11 11 2 12 1 13
REMARK H PARENT
REMARK Flexibility Score: inf
ROOT
ATOM      1  C   UNL     1      27.643  23.542  50.176  1.00  0.00     0.122 A 
ATOM      2  C   UNL     1      26.816  23.778  49.070  1.00  0.00     0.094 A 
ATOM      3  C   UNL     1      27.362  24.197  47.852  1.00  0.00     0.142 A 
ATOM      4  C   UNL     1      28.756  24.384  47.735  1.00  0.00     0.018 A 
ATOM      5  C   UNL     1      29.587  24.150  48.838  1.00  0.00     0.016 A 
ATOM      6  C   UNL     1      29.034  23.732  50.053  1.00  0.00     0.047 A 
ATOM      7  C   UNL     1      29.273  24.804  46.505  1.00  0.00     0.019 A 
ATOM      8  C   UNL     1      28.402  25.024  45.438  1.00  0.00     0.094 A 
ATOM      9  C   UNL     1      27.032  24.818  45.626  1.00  0.00     0.336 A 
ATOM     10  O   UNL     1      26.230  25.010  44.675  1.00  0.00    -0.246 OA
ATOM     11  O   UNL     1      26.567  24.418  46.807  1.00  0.00    -0.423 OA
ENDROOT
BRANCH   1  12
ATOM     12  O   UNL     1      27.044  23.123  51.374  1.00  0.00    -0.497 OA
ATOM     13  C   UNL     1      27.668  22.270  52.329  1.00  0.00     0.278 C 
ENDBRANCH   1  12
TORSDOF 1
ENDMDL
MODEL 4
REMARK VINA RESULT:    -5.861      2.273      3.109
REMARK INTER + INTRA:          -6.244
REMARK INTER:                  -6.203
REMARK INTRA:                  -0.041
REMARK UNBOUND:                -0.041
REMARK SMILES COc1ccc2ccc(=O)oc2c1
REMARK SMILES IDX 3 1 13 2 12 3 6 4 5 5 4 6 7 7 8 8 9 9 10 10 11 11 2 12 1 13
REMARK H PARENT
REMARK Flexibility Score: inf
ROOT
ATOM      1  C   UNL     1      28.654  24.483  47.497  1.00  0.00     0.122 A 
ATOM      2  C   UNL     1      29.508  23.788  48.363  1.00  0.00     0.094 A 
ATOM      3  C   UNL     1      29.029  23.278  49.575  1.00  0.00     0.142 A 
ATOM      4  C   UNL     1      27.676  23.465  49.929  1.00  0.00     0.018 A 
ATOM      5  C   UNL     1      26.818  24.159  49.067  1.00  0.00     0.016 A 
ATOM      6  C   UNL     1      27.303  24.666  47.857  1.00  0.00     0.047 A 
ATOM      7  C   UNL     1      27.227  22.944  51.147  1.00  0.00     0.019 A 
ATOM      8  C   UNL     1      28.122  22.261  51.970  1.00  0.00     0.094 A 
ATOM      9  C   UNL     1      29.449  22.114  51.554  1.00  0.00     0.336 A 
ATOM     10  O   UNL     1      30.273  21.500  52.282  1.00  0.00    -0.246 OA
ATOM     11  O   UNL     1      29.850  22.619  50.389  1.00  0.00    -0.423 OA
ENDROOT
BRANCH   1  12
ATOM     12  O   UNL     1      29.184  24.973  46.294  1.00  0.00    -0.497 OA
ATOM     13  C   UNL     1      30.536  25.384  46.119  1.00  0.00     0.278 C 
ENDBRANCH   1  12
TORSDOF 1
ENDMDL
MODEL 5
REMARK VINA RESULT:    -5.661      2.202      3.019
REMARK INTER + INTRA:          -6.033
REMARK INTER:                  -5.997
REMARK INTRA:                  -0.035
REMARK UNBOUND:                -0.041
REMARK SMILES COc1ccc2ccc(=O)oc2c1
REMARK SMILES IDX 3 1 13 2 12 3 6 4 5 5 4 6 7 7 8 8 9 9 10 10 11 11 2 12 1 13
REMARK H PARENT
REMARK Flexibility Score: inf
ROOT
ATOM      1  C   UNL     1      28.111  24.254  47.521  1.00  0.00     0.122 A 
ATOM      2  C   UNL     1      28.813  24.561  48.694  1.00  0.00     0.094 A 
ATOM      3  C   UNL     1      28.482  23.941  49.903  1.00  0.00     0.142 A 
ATOM      4  C   UNL     1      27.433  22.998  49.944  1.00  0.00     0.018 A 
ATOM      5  C   UNL     1      26.727  22.687  48.774  1.00  0.00     0.016 A 
ATOM      6  C   UNL     1      27.064  23.312  47.569  1.00  0.00     0.047 A 
ATOM      7  C   UNL     1      27.124  22.395  51.167  1.00  0.00     0.019 A 
ATOM      8  C   UNL     1      27.856  22.740  52.303  1.00  0.00     0.094 A 
ATOM      9  C   UNL     1      28.883  23.682  52.188  1.00  0.00     0.336 A 
ATOM     10  O   UNL     1      29.556  24.006  53.201  1.00  0.00    -0.246 OA
ATOM     11  O   UNL     1      29.156  24.241  51.011  1.00  0.00    -0.423 OA
ENDROOT
BRANCH   1  12
ATOM     12  O   UNL     1      28.484  24.904  46.334  1.00  0.00    -0.497 OA
ATOM     13  C   UNL     1      27.724  24.878  45.130  1.00  0.00     0.278 C 
ENDBRANCH   1  12
TORSDOF 1
ENDMDL
MODEL 6
REMARK VINA RESULT:    -5.582      1.836      2.515
REMARK INTER + INTRA:          -5.949
REMARK INTER:                  -5.915
REMARK INTRA:                  -0.034
REMARK UNBOUND:                -0.041
REMARK SMILES COc1ccc2ccc(=O)oc2c1
REMARK SMILES IDX 3 1 13 2 12 3 6 4 5 5 4 6 7 7 8 8 9 9 10 10 11 11 2 12 1 13
REMARK H PARENT
REMARK Flexibility Score: inf
ROOT
ATOM      1  C   UNL     1      27.713  24.241  48.087  1.00  0.00     0.122 A 
ATOM      2  C   UNL     1      27.137  23.840  49.299  1.00  0.00     0.094 A 
ATOM      3  C   UNL     1      27.904  23.185  50.269  1.00  0.00     0.142 A 
ATOM      4  C   UNL     1      29.270  22.926  50.025  1.00  0.00     0.018 A 
ATOM      5  C   UNL     1      29.851  23.324  48.814  1.00  0.00     0.016 A 
ATOM      6  C   UNL     1      29.077  23.978  47.849  1.00  0.00     0.047 A 
ATOM      7  C   UNL     1      30.012  22.270  51.012  1.00  0.00     0.019 A 
ATOM      8  C   UNL     1      29.386  21.893  52.200  1.00  0.00     0.094 A 
ATOM      9  C   UNL     1      28.029  22.184  52.373  1.00  0.00     0.336 A 
ATOM     10  O   UNL     1      27.446  21.853  53.439  1.00  0.00    -0.246 OA
ATOM     11  O   UNL     1      27.347  22.810  51.417  1.00  0.00    -0.423 OA
ENDROOT
BRANCH   1  12
ATOM     12  O   UNL     1      26.898  24.893  47.149  1.00  0.00    -0.497 OA
ATOM     13  C   UNL     1      27.040  24.770  45.737  1.00  0.00     0.278 C 
ENDBRANCH   1  12
TORSDOF 1
ENDMDL
MODEL 7
REMARK VINA RESULT:    -5.331     12.119     13.080
REMARK INTER + INTRA:          -5.683
REMARK INTER:                  -5.643
REMARK INTRA:                  -0.040
REMARK UNBOUND:                -0.041
REMARK SMILES COc1ccc2ccc(=O)oc2c1
REMARK SMILES IDX 3 1 13 2 12 3 6 4 5 5 4 6 7 7 8 8 9 9 10 10 11 11 2 12 1 13
REMARK H PARENT
REMARK Flexibility Score: inf
ROOT
ATOM      1  C   UNL     1      15.639  22.235  43.105  1.00  0.00     0.122 A 
ATOM      2  C   UNL     1      14.800  21.319  43.752  1.00  0.00     0.094 A 
ATOM      3  C   UNL     1      15.311  20.115  44.249  1.00  0.00     0.142 A 
ATOM      4  C   UNL     1      16.682  19.819  44.097  1.00  0.00     0.018 A 
ATOM      5  C   UNL     1      17.526  20.732  43.451  1.00  0.00     0.016 A 
ATOM      6  C   UNL     1      17.008  21.933  42.957  1.00  0.00     0.047 A 
ATOM      7  C   UNL     1      17.164  18.608  44.603  1.00  0.00     0.019 A 
ATOM      8  C   UNL     1      16.282  17.733  45.238  1.00  0.00     0.094 A 
ATOM      9  C   UNL     1      14.935  18.093  45.353  1.00  0.00     0.336 A 
ATOM     10  O   UNL     1      14.124  17.317  45.923  1.00  0.00    -0.246 OA
ATOM     11  O   UNL     1      14.504  19.252  44.862  1.00  0.00    -0.423 OA
ENDROOT
BRANCH   1  12
ATOM     12  O   UNL     1      15.076  23.428  42.626  1.00  0.00    -0.497 OA
ATOM     13  C   UNL     1      14.064  24.168  43.302  1.00  0.00     0.278 C 
ENDBRANCH   1  12
TORSDOF 1
ENDMDL
MODEL 8
REMARK VINA RESULT:    -5.276      2.296      5.638
REMARK INTER + INTRA:          -5.625
REMARK INTER:                  -5.594
REMARK INTRA:                  -0.031
REMARK UNBOUND:                -0.041
REMARK SMILES COc1ccc2ccc(=O)oc2c1
REMARK SMILES IDX 3 1 13 2 12 3 6 4 5 5 4 6 7 7 8 8 9 9 10 10 11 11 2 12 1 13
REMARK H PARENT
REMARK Flexibility Score: inf
ROOT
ATOM      1  C   UNL     1      28.370  22.498  52.489  1.00  0.00     0.122 A 
ATOM      2  C   UNL     1      27.552  23.181  51.579  1.00  0.00     0.094 A 
ATOM      3  C   UNL     1      28.011  23.470  50.289  1.00  0.00     0.142 A 
ATOM      4  C   UNL     1      29.308  23.071  49.900  1.00  0.00     0.018 A 
ATOM      5  C   UNL     1      30.129  22.388  50.806  1.00  0.00     0.016 A 
ATOM      6  C   UNL     1      29.664  22.103  52.094  1.00  0.00     0.047 A 
ATOM      7  C   UNL     1      29.739  23.374  48.605  1.00  0.00     0.019 A 
ATOM      8  C   UNL     1      28.883  24.057  47.742  1.00  0.00     0.094 A 
ATOM      9  C   UNL     1      27.611  24.420  48.195  1.00  0.00     0.336 A 
ATOM     10  O   UNL     1      26.822  25.036  47.431  1.00  0.00    -0.246 OA
ATOM     11  O   UNL     1      27.225  24.119  49.433  1.00  0.00    -0.423 OA
ENDROOT
BRANCH   1  12
ATOM     12  O   UNL     1      27.861  22.233  53.769  1.00  0.00    -0.497 OA
ATOM     13  C   UNL     1      28.473  22.660  54.982  1.00  0.00     0.278 C 
ENDBRANCH   1  12
TORSDOF 1
ENDMDL
MODEL 9
REMARK VINA RESULT:    -5.238     12.316     13.949
REMARK INTER + INTRA:          -5.584
REMARK INTER:                  -5.541
REMARK INTRA:                  -0.043
REMARK UNBOUND:                -0.041
REMARK SMILES COc1ccc2ccc(=O)oc2c1
REMARK SMILES IDX 3 1 13 2 12 3 6 4 5 5 4 6 7 7 8 8 9 9 10 10 11 11 2 12 1 13
REMARK H PARENT
REMARK Flexibility Score: inf
ROOT
ATOM      1  C   UNL     1      14.764  18.189  45.457  1.00  0.00     0.122 A 
ATOM      2  C   UNL     1      14.344  19.420  44.936  1.00  0.00     0.094 A 
ATOM      3  C   UNL     1      15.250  20.257  44.275  1.00  0.00     0.142 A 
ATOM      4  C   UNL     1      16.596  19.860  44.132  1.00  0.00     0.018 A 
ATOM      5  C   UNL     1      17.021  18.630  44.652  1.00  0.00     0.016 A 
ATOM      6  C   UNL     1      16.110  17.799  45.312  1.00  0.00     0.047 A 
ATOM      7  C   UNL     1      17.478  20.718  43.467  1.00  0.00     0.019 A 
ATOM      8  C   UNL     1      17.006  21.931  42.968  1.00  0.00     0.094 A 
ATOM      9  C   UNL     1      15.658  22.259  43.146  1.00  0.00     0.336 A 
ATOM     10  O   UNL     1      15.211  23.349  42.702  1.00  0.00    -0.246 OA
ATOM     11  O   UNL     1      14.840  21.423  43.782  1.00  0.00    -0.423 OA
ENDROOT
BRANCH   1  12
ATOM     12  O   UNL     1      13.815  17.387  46.111  1.00  0.00    -0.497 OA
ATOM     13  C   UNL     1      12.425  17.687  46.188  1.00  0.00     0.278 C 
ENDBRANCH   1  12
TORSDOF 1
ENDMDL
