MODEL 1
REMARK VINA RESULT:    -5.621      0.000      0.000
REMARK INTER + INTRA:          -5.621
REMARK INTER:                  -5.621
REMARK INTRA:                   0.000
REMARK UNBOUND:                 0.000
REMARK SMILES CC(C)=C1CC[C@@H](C)CC1=O
REMARK SMILES IDX 8 1 7 2 6 3 5 4 4 5 2 6 1 7 3 8 10 9 11 10 9 11
REMARK H PARENT
REMARK Flexibility Score: inf
ROOT
ATOM      1  C   UNL     1       0.786  28.136  34.991  1.00  0.00     0.008 C 
ATOM      2  C   UNL     1       0.606  29.102  33.814  1.00  0.00    -0.006 C 
ATOM      3  C   UNL     1      -0.167  28.424  32.671  1.00  0.00     0.008 C 
ATOM      4  C   UNL     1      -0.446  29.407  31.527  1.00  0.00     0.039 C 
ATOM      5  C   UNL     1       0.815  30.112  31.043  1.00  0.00    -0.006 C 
ATOM      6  C   UNL     1       0.960  30.489  29.739  1.00  0.00    -0.070 C 
ATOM      7  C   UNL     1       2.228  31.138  29.235  1.00  0.00     0.039 C 
ATOM      8  C   UNL     1      -0.133  30.238  28.724  1.00  0.00     0.039 C 
ATOM      9  C   UNL     1       1.814  30.464  32.095  1.00  0.00     0.159 C 
ATOM     10  O   UNL     1       2.536  31.492  31.994  1.00  0.00    -0.295 OA
ATOM     11  C   UNL     1       1.970  29.591  33.306  1.00  0.00     0.084 C 
ENDROOT
TORSDOF 0
ENDMDL
MODEL 2
REMARK VINA RESULT:    -5.332      2.069      4.380
REMARK INTER + INTRA:          -5.332
REMARK INTER:                  -5.332
REMARK INTRA:                   0.000
REMARK UNBOUND:                 0.000
REMARK SMILES CC(C)=C1CC[C@@H](C)CC1=O
REMARK SMILES IDX 8 1 7 2 6 3 5 4 4 5 2 6 1 7 3 8 10 9 11 10 9 11
REMARK H PARENT
REMARK Flexibility Score: inf
ROOT
ATOM      1  C   UNL     1      -0.928  27.991  28.313  1.00  0.00     0.008 C 
ATOM      2  C   UNL     1      -0.773  28.672  29.678  1.00  0.00    -0.006 C 
ATOM      3  C   UNL     1       0.440  29.615  29.678  1.00  0.00     0.008 C 
ATOM      4  C   UNL     1       0.551  30.382  31.003  1.00  0.00     0.039 C 
ATOM      5  C   UNL     1       0.527  29.460  32.215  1.00  0.00    -0.006 C 
ATOM      6  C   UNL     1       1.212  29.770  33.355  1.00  0.00    -0.070 C 
ATOM      7  C   UNL     1       1.242  28.836  34.543  1.00  0.00     0.039 C 
ATOM      8  C   UNL     1       2.008  31.050  33.468  1.00  0.00     0.039 C 
ATOM      9  C   UNL     1      -0.375  28.274  32.118  1.00  0.00     0.159 C 
ATOM     10  O   UNL     1      -0.946  27.802  33.138  1.00  0.00    -0.295 OA
ATOM     11  C   UNL     1      -0.620  27.622  30.788  1.00  0.00     0.084 C 
ENDROOT
TORSDOF 0
ENDMDL
MODEL 3
REMARK VINA RESULT:    -5.272      1.138      4.081
REMARK INTER + INTRA:          -5.272
REMARK INTER:                  -5.272
REMARK INTRA:                   0.000
REMARK UNBOUND:                 0.000
REMARK SMILES CC(C)=C1CC[C@@H](C)CC1=O
REMARK SMILES IDX 8 1 7 2 6 3 5 4 4 5 2 6 1 7 3 8 10 9 11 10 9 11
REMARK H PARENT
REMARK Flexibility Score: inf
ROOT
ATOM      1  C   UNL     1       0.432  31.242  28.208  1.00  0.00     0.008 C 
ATOM      2  C   UNL     1       0.717  30.341  29.415  1.00  0.00    -0.006 C 
ATOM      3  C   UNL     1      -0.466  30.360  30.397  1.00  0.00     0.008 C 
ATOM      4  C   UNL     1      -0.241  29.385  31.560  1.00  0.00     0.039 C 
ATOM      5  C   UNL     1       1.098  29.602  32.253  1.00  0.00    -0.006 C 
ATOM      6  C   UNL     1       1.252  29.361  33.588  1.00  0.00    -0.070 C 
ATOM      7  C   UNL     1       2.560  29.625  34.298  1.00  0.00     0.039 C 
ATOM      8  C   UNL     1       0.105  28.851  34.431  1.00  0.00     0.039 C 
ATOM      9  C   UNL     1       2.241  29.976  31.368  1.00  0.00     0.159 C 
ATOM     10  O   UNL     1       3.419  29.616  31.635  1.00  0.00    -0.295 OA
ATOM     11  C   UNL     1       1.999  30.791  30.131  1.00  0.00     0.084 C 
ENDROOT
TORSDOF 0
ENDMDL
MODEL 4
REMARK VINA RESULT:    -5.197      1.570      2.437
REMARK INTER + INTRA:          -5.197
REMARK INTER:                  -5.197
REMARK INTRA:                   0.000
REMARK UNBOUND:                 0.000
REMARK SMILES CC(C)=C1CC[C@@H](C)CC1=O
REMARK SMILES IDX 8 1 7 2 6 3 5 4 4 5 2 6 1 7 3 8 10 9 11 10 9 11
REMARK H PARENT
REMARK Flexibility Score: inf
ROOT
ATOM      1  C   UNL     1       0.057  28.847  34.668  1.00  0.00     0.008 C 
ATOM      2  C   UNL     1       0.762  28.996  33.315  1.00  0.00    -0.006 C 
ATOM      3  C   UNL     1       1.530  30.326  33.248  1.00  0.00     0.008 C 
ATOM      4  C   UNL     1       2.325  30.445  31.941  1.00  0.00     0.039 C 
ATOM      5  C   UNL     1       1.462  30.207  30.709  1.00  0.00    -0.006 C 
ATOM      6  C   UNL     1       1.718  30.844  29.529  1.00  0.00    -0.070 C 
ATOM      7  C   UNL     1       0.836  30.658  28.317  1.00  0.00     0.039 C 
ATOM      8  C   UNL     1       2.882  31.800  29.391  1.00  0.00     0.039 C 
ATOM      9  C   UNL     1       0.407  29.159  30.842  1.00  0.00     0.159 C 
ATOM     10  O   UNL     1       0.057  28.455  29.856  1.00  0.00    -0.295 OA
ATOM     11  C   UNL     1      -0.256  28.921  32.168  1.00  0.00     0.084 C 
ENDROOT
TORSDOF 0
ENDMDL
MODEL 5
REMARK VINA RESULT:    -5.133      1.653      4.088
REMARK INTER + INTRA:          -5.133
REMARK INTER:                  -5.133
REMARK INTRA:                   0.000
REMARK UNBOUND:                 0.000
REMARK SMILES CC(C)=C1CC[C@@H](C)CC1=O
REMARK SMILES IDX 8 1 7 2 6 3 5 4 4 5 2 6 1 7 3 8 10 9 11 10 9 11
REMARK H PARENT
REMARK Flexibility Score: inf
ROOT
ATOM      1  C   UNL     1      -1.767  27.882  28.360  1.00  0.00     0.008 C 
ATOM      2  C   UNL     1      -0.856  27.948  29.592  1.00  0.00    -0.006 C 
ATOM      3  C   UNL     1      -1.658  27.672  30.874  1.00  0.00     0.008 C 
ATOM      4  C   UNL     1      -0.744  27.634  32.105  1.00  0.00     0.039 C 
ATOM      5  C   UNL     1       0.134  28.873  32.220  1.00  0.00    -0.006 C 
ATOM      6  C   UNL     1       0.509  29.366  33.437  1.00  0.00    -0.070 C 
ATOM      7  C   UNL     1       1.332  30.627  33.565  1.00  0.00     0.039 C 
ATOM      8  C   UNL     1       0.084  28.691  34.721  1.00  0.00     0.039 C 
ATOM      9  C   UNL     1       0.645  29.435  30.935  1.00  0.00     0.159 C 
ATOM     10  O   UNL     1       1.768  30.005  30.871  1.00  0.00    -0.295 OA
ATOM     11  C   UNL     1      -0.177  29.323  29.684  1.00  0.00     0.084 C 
ENDROOT
TORSDOF 0
ENDMDL
MODEL 6
REMARK VINA RESULT:    -5.094      2.346      3.587
REMARK INTER + INTRA:          -5.094
REMARK INTER:                  -5.094
REMARK INTRA:                   0.000
REMARK UNBOUND:                 0.000
REMARK SMILES CC(C)=C1CC[C@@H](C)CC1=O
REMARK SMILES IDX 8 1 7 2 6 3 5 4 4 5 2 6 1 7 3 8 10 9 11 10 9 11
REMARK H PARENT
REMARK Flexibility Score: inf
ROOT
ATOM      1  C   UNL     1       2.062  31.209  33.401  1.00  0.00     0.008 C 
ATOM      2  C   UNL     1       1.534  29.966  32.675  1.00  0.00    -0.006 C 
ATOM      3  C   UNL     1       1.133  30.310  31.232  1.00  0.00     0.008 C 
ATOM      4  C   UNL     1       0.699  29.058  30.460  1.00  0.00     0.039 C 
ATOM      5  C   UNL     1      -0.375  28.264  31.191  1.00  0.00    -0.006 C 
ATOM      6  C   UNL     1      -1.325  27.558  30.509  1.00  0.00    -0.070 C 
ATOM      7  C   UNL     1      -2.428  26.813  31.223  1.00  0.00     0.039 C 
ATOM      8  C   UNL     1      -1.338  27.522  28.997  1.00  0.00     0.039 C 
ATOM      9  C   UNL     1      -0.253  28.212  32.678  1.00  0.00     0.159 C 
ATOM     10  O   UNL     1      -0.629  27.201  33.331  1.00  0.00    -0.295 OA
ATOM     11  C   UNL     1       0.332  29.375  33.426  1.00  0.00     0.084 C 
ENDROOT
TORSDOF 0
ENDMDL
MODEL 7
REMARK VINA RESULT:    -5.052      1.820      2.997
REMARK INTER + INTRA:          -5.052
REMARK INTER:                  -5.052
REMARK INTRA:                   0.000
REMARK UNBOUND:                 0.000
REMARK SMILES CC(C)=C1CC[C@@H](C)CC1=O
REMARK SMILES IDX 8 1 7 2 6 3 5 4 4 5 2 6 1 7 3 8 10 9 11 10 9 11
REMARK H PARENT
REMARK Flexibility Score: inf
ROOT
ATOM      1  C   UNL     1       2.713  30.007  34.259  1.00  0.00     0.008 C 
ATOM      2  C   UNL     1       1.387  29.752  33.532  1.00  0.00    -0.006 C 
ATOM      3  C   UNL     1       0.858  28.344  33.850  1.00  0.00     0.008 C 
ATOM      4  C   UNL     1      -0.518  28.109  33.213  1.00  0.00     0.039 C 
ATOM      5  C   UNL     1      -0.531  28.416  31.721  1.00  0.00    -0.006 C 
ATOM      6  C   UNL     1      -1.342  27.729  30.863  1.00  0.00    -0.070 C 
ATOM      7  C   UNL     1      -1.322  27.985  29.374  1.00  0.00     0.039 C 
ATOM      8  C   UNL     1      -2.273  26.647  31.362  1.00  0.00     0.039 C 
ATOM      9  C   UNL     1       0.299  29.577  31.284  1.00  0.00     0.159 C 
ATOM     10  O   UNL     1      -0.043  30.294  30.305  1.00  0.00    -0.295 OA
ATOM     11  C   UNL     1       1.566  29.915  32.016  1.00  0.00     0.084 C 
ENDROOT
TORSDOF 0
ENDMDL
MODEL 8
REMARK VINA RESULT:    -4.782      2.918      4.034
REMARK INTER + INTRA:          -4.782
REMARK INTER:                  -4.782
REMARK INTRA:                   0.000
REMARK UNBOUND:                 0.000
REMARK SMILES CC(C)=C1CC[C@@H](C)CC1=O
REMARK SMILES IDX 8 1 7 2 6 3 5 4 4 5 2 6 1 7 3 8 10 9 11 10 9 11
REMARK H PARENT
REMARK Flexibility Score: inf
ROOT
ATOM      1  C   UNL     1       4.917  25.740  30.854  1.00  0.00     0.008 C 
ATOM      2  C   UNL     1       4.298  27.126  31.068  1.00  0.00    -0.006 C 
ATOM      3  C   UNL     1       3.902  27.321  32.540  1.00  0.00     0.008 C 
ATOM      4  C   UNL     1       3.376  28.740  32.793  1.00  0.00     0.039 C 
ATOM      5  C   UNL     1       2.260  29.129  31.831  1.00  0.00    -0.006 C 
ATOM      6  C   UNL     1       1.258  29.974  32.212  1.00  0.00    -0.070 C 
ATOM      7  C   UNL     1       0.116  30.323  31.286  1.00  0.00     0.039 C 
ATOM      8  C   UNL     1       1.223  30.572  33.601  1.00  0.00     0.039 C 
ATOM      9  C   UNL     1       2.399  28.629  30.432  1.00  0.00     0.159 C 
ATOM     10  O   UNL     1       1.965  29.294  29.453  1.00  0.00    -0.295 OA
ATOM     11  C   UNL     1       3.069  27.312  30.166  1.00  0.00     0.084 C 
ENDROOT
TORSDOF 0
ENDMDL
MODEL 9
REMARK VINA RESULT:    -4.722      2.425      4.873
REMARK INTER + INTRA:          -4.722
REMARK INTER:                  -4.722
REMARK INTRA:                   0.000
REMARK UNBOUND:                 0.000
REMARK SMILES CC(C)=C1CC[C@@H](C)CC1=O
REMARK SMILES IDX 8 1 7 2 6 3 5 4 4 5 2 6 1 7 3 8 10 9 11 10 9 11
REMARK H PARENT
REMARK Flexibility Score: inf
ROOT
ATOM      1  C   UNL     1       3.287  30.097  26.979  1.00  0.00     0.008 C 
ATOM      2  C   UNL     1       2.719  29.771  28.365  1.00  0.00    -0.006 C 
ATOM      3  C   UNL     1       2.582  31.048  29.209  1.00  0.00     0.008 C 
ATOM      4  C   UNL     1       1.920  30.755  30.561  1.00  0.00     0.039 C 
ATOM      5  C   UNL     1       2.609  29.627  31.317  1.00  0.00    -0.006 C 
ATOM      6  C   UNL     1       2.652  29.609  32.681  1.00  0.00    -0.070 C 
ATOM      7  C   UNL     1       3.382  28.526  33.441  1.00  0.00     0.039 C 
ATOM      8  C   UNL     1       1.999  30.701  33.500  1.00  0.00     0.039 C 
ATOM      9  C   UNL     1       3.124  28.500  30.484  1.00  0.00     0.159 C 
ATOM     10  O   UNL     1       3.152  27.320  30.926  1.00  0.00    -0.295 OA
ATOM     11  C   UNL     1       3.618  28.758  29.090  1.00  0.00     0.084 C 
ENDROOT
TORSDOF 0
ENDMDL
