MODEL 1
REMARK VINA RESULT:    -3.475      0.000      0.000
REMARK INTER + INTRA:          -4.539
REMARK INTER:                  -4.896
REMARK INTRA:                   0.358
REMARK UNBOUND:                 0.358
REMARK SMILES CC1=CCC(=C(C)C)C(=O)CC(C)=CCC1
REMARK SMILES IDX 12 1 14 2 13 3 15 4 16 5 2 6 1 7 3 8 11 10 9 11 10 12 5 13
REMARK SMILES IDX 6 14 7 15 8 16 4 17
REMARK H PARENT
REMARK Flexibility Score: 60.00
ROOT
ATOM      1  C   UNL     1       4.360  26.712  68.509  1.00  0.00    -0.070 C 
ATOM      2  C   UNL     1       4.500  26.560  69.847  1.00  0.00    -0.027 C 
ATOM      3  C   UNL     1       4.314  28.113  67.955  1.00  0.00     0.039 C 
ENDROOT
BRANCH   2   4
ATOM      4  C   UNL     1       4.504  25.236  70.577  1.00  0.00     0.032 C 
BRANCH   4   5
ATOM      5  C   UNL     1       5.911  24.625  70.632  1.00  0.00     0.034 C 
BRANCH   5   6
ATOM      6  C   UNL     1       5.982  23.208  70.080  1.00  0.00    -0.077 C 
ATOM      7  C   UNL     1       5.371  22.085  70.881  1.00  0.00     0.039 C 
ATOM      8  C   UNL     1       6.581  22.893  68.909  1.00  0.00    -0.023 CG0
ATOM      9  G   UNL     1       7.183  23.883  67.939  1.00  0.00     0.000 G0
ENDBRANCH   5   6
ENDBRANCH   4   5
ENDBRANCH   2   4
BRANCH   1  10
ATOM     10  C   UNL     1       4.251  25.540  67.553  1.00  0.00     0.111 C 
BRANCH  10  11
ATOM     11  C   UNL     1       5.489  25.414  66.709  1.00  0.00     0.163 C 
ATOM     12  O   UNL     1       5.832  26.373  65.968  1.00  0.00    -0.294 OA
BRANCH  11  13
ATOM     13  C   UNL     1       6.302  24.171  66.714  1.00  0.00    -0.002 C 
ATOM     14  C   UNL     1       6.249  23.312  65.660  1.00  0.00    -0.069 C 
ATOM     15  C   UNL     1       7.108  22.068  65.623  1.00  0.00     0.039 C 
ATOM     16  C   UNL     1       5.301  23.547  64.504  1.00  0.00     0.039 C 
BRANCH  13  17
ATOM     17  C   UNL     1       7.192  23.870  67.915  1.00  0.00     0.066 CG0
ATOM     18  G   UNL     1       6.578  22.900  68.898  1.00  0.00     0.000 G0
ENDBRANCH  13  17
ENDBRANCH  11  13
ENDBRANCH  10  11
ENDBRANCH   1  10
TORSDOF 0
ENDMDL
MODEL 2
REMARK VINA RESULT:    -3.465      7.381      9.323
REMARK INTER + INTRA:          -4.525
REMARK INTER:                  -5.390
REMARK INTRA:                   0.865
REMARK UNBOUND:                 0.358
REMARK SMILES CC1=CCC(=C(C)C)C(=O)CC(C)=CCC1
REMARK SMILES IDX 12 1 14 2 13 3 15 4 16 5 2 6 1 7 3 8 11 10 9 11 10 12 5 13
REMARK SMILES IDX 6 14 7 15 8 16 4 17
REMARK H PARENT
REMARK Flexibility Score: 60.00
ROOT
ATOM      1  C   UNL     1      13.132  27.120  73.912  1.00  0.00    -0.070 C 
ATOM      2  C   UNL     1      12.269  26.194  74.394  1.00  0.00    -0.027 C 
ATOM      3  C   UNL     1      14.402  26.636  73.262  1.00  0.00     0.039 C 
ENDROOT
BRANCH   2   4
ATOM      4  C   UNL     1      10.983  26.500  75.126  1.00  0.00     0.032 C 
BRANCH   4   5
ATOM      5  C   UNL     1       9.804  25.696  74.558  1.00  0.00     0.034 C 
BRANCH   5   6
ATOM      6  C   UNL     1       9.305  26.213  73.216  1.00  0.00    -0.077 C 
ATOM      7  C   UNL     1       8.968  25.218  72.134  1.00  0.00     0.039 C 
ATOM      8  C   UNL     1       9.160  27.527  72.931  1.00  0.00    -0.023 CG0
ATOM      9  G   UNL     1       9.379  28.664  73.902  1.00  0.00     0.000 G0
ENDBRANCH   5   6
ENDBRANCH   4   5
ENDBRANCH   2   4
BRANCH   1  10
ATOM     10  C   UNL     1      12.871  28.612  73.995  1.00  0.00     0.111 C 
BRANCH  10  11
ATOM     11  C   UNL     1      11.794  29.028  73.033  1.00  0.00     0.163 C 
ATOM     12  O   UNL     1      11.989  28.902  71.795  1.00  0.00    -0.294 OA
BRANCH  11  13
ATOM     13  C   UNL     1      10.513  29.607  73.513  1.00  0.00    -0.002 C 
ATOM     14  C   UNL     1      10.363  30.956  73.609  1.00  0.00    -0.069 C 
ATOM     15  C   UNL     1       9.050  31.566  74.046  1.00  0.00     0.039 C 
ATOM     16  C   UNL     1      11.515  31.895  73.322  1.00  0.00     0.039 C 
BRANCH  13  17
ATOM     17  C   UNL     1       9.373  28.671  73.899  1.00  0.00     0.066 CG0
ATOM     18  G   UNL     1       9.158  27.540  72.920  1.00  0.00     0.000 G0
ENDBRANCH  13  17
ENDBRANCH  11  13
ENDBRANCH  10  11
ENDBRANCH   1  10
TORSDOF 0
ENDMDL
MODEL 3
REMARK VINA RESULT:    -3.312      6.987      8.817
REMARK INTER + INTRA:          -4.310
REMARK INTER:                  -4.812
REMARK INTRA:                   0.503
REMARK UNBOUND:                 0.358
REMARK SMILES CC1=CCC(=C(C)C)C(=O)CC(C)=CCC1
REMARK SMILES IDX 12 1 14 2 13 3 15 4 16 5 2 6 1 7 3 8 11 10 9 11 10 12 5 13
REMARK SMILES IDX 6 14 7 15 8 16 4 17
REMARK H PARENT
REMARK Flexibility Score: 60.00
ROOT
ATOM      1  C   UNL     1      12.876  27.446  73.912  1.00  0.00    -0.070 C 
ATOM      2  C   UNL     1      12.693  28.624  73.269  1.00  0.00    -0.027 C 
ATOM      3  C   UNL     1      13.852  27.408  75.060  1.00  0.00     0.039 C 
ENDROOT
BRANCH   2   4
ATOM      4  C   UNL     1      11.802  28.829  72.066  1.00  0.00     0.032 C 
BRANCH   4   5
ATOM      5  C   UNL     1      10.792  29.962  72.297  1.00  0.00     0.034 C 
BRANCH   5   6
ATOM      6  C   UNL     1       9.917  29.758  73.525  1.00  0.00    -0.077 C 
ATOM      7  C   UNL     1       9.885  30.833  74.582  1.00  0.00     0.039 C 
ATOM      8  C   UNL     1       9.172  28.648  73.732  1.00  0.00    -0.023 CG0
ATOM      9  G   UNL     1       9.020  27.500  72.762  1.00  0.00     0.000 G0
ENDBRANCH   5   6
ENDBRANCH   4   5
ENDBRANCH   2   4
BRANCH   1  10
ATOM     10  C   UNL     1      12.141  26.175  73.531  1.00  0.00     0.111 C 
BRANCH  10  11
ATOM     11  C   UNL     1      10.764  26.145  74.133  1.00  0.00     0.163 C 
ATOM     12  O   UNL     1      10.637  26.091  75.385  1.00  0.00    -0.294 OA
BRANCH  11  13
ATOM     13  C   UNL     1       9.549  26.153  73.278  1.00  0.00    -0.002 C 
ATOM     14  C   UNL     1       8.927  24.986  72.958  1.00  0.00    -0.069 C 
ATOM     15  C   UNL     1       7.661  24.977  72.133  1.00  0.00     0.039 C 
ATOM     16  C   UNL     1       9.501  23.651  73.381  1.00  0.00     0.039 C 
BRANCH  13  17
ATOM     17  C   UNL     1       9.012  27.484  72.763  1.00  0.00     0.066 CG0
ATOM     18  G   UNL     1       9.174  28.624  73.741  1.00  0.00     0.000 G0
ENDBRANCH  13  17
ENDBRANCH  11  13
ENDBRANCH  10  11
ENDBRANCH   1  10
TORSDOF 0
ENDMDL
MODEL 4
REMARK VINA RESULT:    -3.166      1.785      3.570
REMARK INTER + INTRA:          -4.104
REMARK INTER:                  -4.688
REMARK INTRA:                   0.583
REMARK UNBOUND:                 0.358
REMARK SMILES CC1=CCC(=C(C)C)C(=O)CC(C)=CCC1
REMARK SMILES IDX 12 1 14 2 13 3 15 4 16 5 2 6 1 7 3 8 11 10 9 11 10 12 5 13
REMARK SMILES IDX 6 14 7 15 8 16 4 17
REMARK H PARENT
REMARK Flexibility Score: 60.00
ROOT
ATOM      1  C   UNL     1       6.084  24.080  71.085  1.00  0.00    -0.070 C 
ATOM      2  C   UNL     1       5.001  24.800  71.462  1.00  0.00    -0.027 C 
ATOM      3  C   UNL     1       7.417  24.435  71.693  1.00  0.00     0.039 C 
ENDROOT
BRANCH   2   4
ATOM      4  C   UNL     1       3.604  24.622  70.912  1.00  0.00     0.032 C 
BRANCH   4   5
ATOM      5  C   UNL     1       3.092  25.907  70.245  1.00  0.00     0.034 C 
BRANCH   5   6
ATOM      6  C   UNL     1       4.042  26.470  69.198  1.00  0.00    -0.077 C 
ATOM      7  C   UNL     1       4.560  27.876  69.368  1.00  0.00     0.039 C 
ATOM      8  C   UNL     1       4.440  25.779  68.105  1.00  0.00    -0.023 CG0
ATOM      9  G   UNL     1       4.086  24.342  67.799  1.00  0.00     0.000 G0
ENDBRANCH   5   6
ENDBRANCH   4   5
ENDBRANCH   2   4
BRANCH   1  10
ATOM     10  C   UNL     1       6.011  22.939  70.089  1.00  0.00     0.111 C 
BRANCH  10  11
ATOM     11  C   UNL     1       6.347  23.410  68.702  1.00  0.00     0.163 C 
ATOM     12  O   UNL     1       7.515  23.810  68.450  1.00  0.00    -0.294 OA
BRANCH  11  13
ATOM     13  C   UNL     1       5.322  23.435  67.627  1.00  0.00    -0.002 C 
ATOM     14  C   UNL     1       5.471  22.659  66.518  1.00  0.00    -0.069 C 
ATOM     15  C   UNL     1       4.414  22.631  65.438  1.00  0.00     0.039 C 
ATOM     16  C   UNL     1       6.718  21.827  66.306  1.00  0.00     0.039 C 
BRANCH  13  17
ATOM     17  C   UNL     1       4.106  24.341  67.780  1.00  0.00     0.066 CG0
ATOM     18  G   UNL     1       4.455  25.777  68.096  1.00  0.00     0.000 G0
ENDBRANCH  13  17
ENDBRANCH  11  13
ENDBRANCH  10  11
ENDBRANCH   1  10
TORSDOF 0
ENDMDL
MODEL 5
REMARK VINA RESULT:    -3.124      8.873     11.710
REMARK INTER + INTRA:          -4.045
REMARK INTER:                  -4.574
REMARK INTRA:                   0.529
REMARK UNBOUND:                 0.358
REMARK SMILES CC1=CCC(=C(C)C)C(=O)CC(C)=CCC1
REMARK SMILES IDX 12 1 14 2 13 3 15 4 16 5 2 6 1 7 3 8 11 10 9 11 10 12 5 13
REMARK SMILES IDX 6 14 7 15 8 16 4 17
REMARK H PARENT
REMARK Flexibility Score: 60.00
ROOT
ATOM      1  C   UNL     1       4.307  36.951  69.632  1.00  0.00    -0.070 C 
ATOM      2  C   UNL     1       5.530  37.492  69.846  1.00  0.00    -0.027 C 
ATOM      3  C   UNL     1       3.103  37.851  69.751  1.00  0.00     0.039 C 
ENDROOT
BRANCH   2   4
ATOM      4  C   UNL     1       6.834  36.728  69.827  1.00  0.00     0.032 C 
BRANCH   4   5
ATOM      5  C   UNL     1       7.833  37.339  68.834  1.00  0.00     0.034 C 
BRANCH   5   6
ATOM      6  C   UNL     1       7.280  37.481  67.423  1.00  0.00    -0.077 C 
ATOM      7  C   UNL     1       7.262  38.847  66.784  1.00  0.00     0.039 C 
ATOM      8  C   UNL     1       6.784  36.445  66.710  1.00  0.00    -0.023 CG0
ATOM      9  G   UNL     1       6.781  34.999  67.150  1.00  0.00     0.000 G0
ENDBRANCH   5   6
ENDBRANCH   4   5
ENDBRANCH   2   4
BRANCH   1  10
ATOM     10  C   UNL     1       4.100  35.492  69.277  1.00  0.00     0.111 C 
BRANCH  10  11
ATOM     11  C   UNL     1       4.290  35.261  67.804  1.00  0.00     0.163 C 
ATOM     12  O   UNL     1       3.488  35.785  66.987  1.00  0.00    -0.294 OA
BRANCH  11  13
ATOM     13  C   UNL     1       5.393  34.406  67.294  1.00  0.00    -0.002 C 
ATOM     14  C   UNL     1       5.161  33.104  66.974  1.00  0.00    -0.069 C 
ATOM     15  C   UNL     1       6.258  32.233  66.404  1.00  0.00     0.039 C 
ATOM     16  C   UNL     1       3.809  32.468  67.213  1.00  0.00     0.039 C 
BRANCH  13  17
ATOM     17  C   UNL     1       6.787  35.006  67.137  1.00  0.00     0.066 CG0
ATOM     18  G   UNL     1       6.780  36.456  66.710  1.00  0.00     0.000 G0
ENDBRANCH  13  17
ENDBRANCH  11  13
ENDBRANCH  10  11
ENDBRANCH   1  10
TORSDOF 0
ENDMDL
MODEL 6
REMARK VINA RESULT:    -3.098      9.131     12.276
REMARK INTER + INTRA:          -4.008
REMARK INTER:                  -4.525
REMARK INTRA:                   0.516
REMARK UNBOUND:                 0.358
REMARK SMILES CC1=CCC(=C(C)C)C(=O)CC(C)=CCC1
REMARK SMILES IDX 12 1 14 2 13 3 15 4 16 5 2 6 1 7 3 8 11 10 9 11 10 12 5 13
REMARK SMILES IDX 6 14 7 15 8 16 4 17
REMARK H PARENT
REMARK Flexibility Score: 60.00
ROOT
ATOM      1  C   UNL     1       7.832  36.336  68.402  1.00  0.00    -0.070 C 
ATOM      2  C   UNL     1       8.084  35.701  67.233  1.00  0.00    -0.027 C 
ATOM      3  C   UNL     1       8.664  35.967  69.604  1.00  0.00     0.039 C 
ENDROOT
BRANCH   2   4
ATOM      4  C   UNL     1       7.312  35.902  65.950  1.00  0.00     0.032 C 
BRANCH   4   5
ATOM      5  C   UNL     1       6.545  34.633  65.547  1.00  0.00     0.034 C 
BRANCH   5   6
ATOM      6  C   UNL     1       5.855  33.942  66.715  1.00  0.00    -0.077 C 
ATOM      7  C   UNL     1       6.369  32.599  67.171  1.00  0.00     0.039 C 
ATOM      8  C   UNL     1       4.788  34.462  67.363  1.00  0.00    -0.023 CG0
ATOM      9  G   UNL     1       4.177  35.819  67.098  1.00  0.00     0.000 G0
ENDBRANCH   5   6
ENDBRANCH   4   5
ENDBRANCH   2   4
BRANCH   1  10
ATOM     10  C   UNL     1       6.759  37.397  68.550  1.00  0.00     0.111 C 
BRANCH  10  11
ATOM     11  C   UNL     1       5.490  36.811  69.103  1.00  0.00     0.163 C 
ATOM     12  O   UNL     1       5.489  36.324  70.265  1.00  0.00    -0.294 OA
BRANCH  11  13
ATOM     13  C   UNL     1       4.243  36.774  68.298  1.00  0.00    -0.002 C 
ATOM     14  C   UNL     1       3.195  37.581  68.618  1.00  0.00    -0.069 C 
ATOM     15  C   UNL     1       1.937  37.596  67.780  1.00  0.00     0.039 C 
ATOM     16  C   UNL     1       3.233  38.464  69.847  1.00  0.00     0.039 C 
BRANCH  13  17
ATOM     17  C   UNL     1       4.151  35.819  67.112  1.00  0.00     0.066 CG0
ATOM     18  G   UNL     1       4.793  34.475  67.365  1.00  0.00     0.000 G0
ENDBRANCH  13  17
ENDBRANCH  11  13
ENDBRANCH  10  11
ENDBRANCH   1  10
TORSDOF 0
ENDMDL
MODEL 7
REMARK VINA RESULT:    -3.052      1.559      3.903
REMARK INTER + INTRA:          -3.943
REMARK INTER:                  -4.637
REMARK INTRA:                   0.693
REMARK UNBOUND:                 0.358
REMARK SMILES CC1=CCC(=C(C)C)C(=O)CC(C)=CCC1
REMARK SMILES IDX 12 1 14 2 13 3 15 4 16 5 2 6 1 7 3 8 11 10 9 11 10 12 5 13
REMARK SMILES IDX 6 14 7 15 8 16 4 17
REMARK H PARENT
REMARK Flexibility Score: 60.00
ROOT
ATOM      1  C   UNL     1       6.789  23.363  66.678  1.00  0.00    -0.070 C 
ATOM      2  C   UNL     1       7.081  22.786  67.868  1.00  0.00    -0.027 C 
ATOM      3  C   UNL     1       6.852  22.505  65.441  1.00  0.00     0.039 C 
ENDROOT
BRANCH   2   4
ATOM      4  C   UNL     1       7.127  23.507  69.196  1.00  0.00     0.032 C 
BRANCH   4   5
ATOM      5  C   UNL     1       6.295  22.779  70.263  1.00  0.00     0.034 C 
BRANCH   5   6
ATOM      6  C   UNL     1       4.801  22.776  69.973  1.00  0.00    -0.077 C 
ATOM      7  C   UNL     1       4.047  21.473  70.060  1.00  0.00     0.039 C 
ATOM      8  C   UNL     1       4.108  23.884  69.623  1.00  0.00    -0.023 CG0
ATOM      9  G   UNL     1       4.671  25.284  69.553  1.00  0.00     0.000 G0
ENDBRANCH   5   6
ENDBRANCH   4   5
ENDBRANCH   2   4
BRANCH   1  10
ATOM     10  C   UNL     1       6.400  24.822  66.542  1.00  0.00     0.111 C 
BRANCH  10  11
ATOM     11  C   UNL     1       4.984  25.049  66.990  1.00  0.00     0.163 C 
ATOM     12  O   UNL     1       4.039  24.516  66.349  1.00  0.00    -0.294 OA
BRANCH  11  13
ATOM     13  C   UNL     1       4.674  25.909  68.161  1.00  0.00    -0.002 C 
ATOM     14  C   UNL     1       4.407  27.232  67.989  1.00  0.00    -0.069 C 
ATOM     15  C   UNL     1       4.039  28.112  69.162  1.00  0.00     0.039 C 
ATOM     16  C   UNL     1       4.507  27.881  66.626  1.00  0.00     0.039 C 
BRANCH  13  17
ATOM     17  C   UNL     1       4.663  25.291  69.555  1.00  0.00     0.066 CG0
ATOM     18  G   UNL     1       4.111  23.885  69.592  1.00  0.00     0.000 G0
ENDBRANCH  13  17
ENDBRANCH  11  13
ENDBRANCH  10  11
ENDBRANCH   1  10
TORSDOF 0
ENDMDL
MODEL 8
REMARK VINA RESULT:    -3.045      8.436     11.434
REMARK INTER + INTRA:          -3.934
REMARK INTER:                  -4.428
REMARK INTRA:                   0.494
REMARK UNBOUND:                 0.358
REMARK SMILES CC1=CCC(=C(C)C)C(=O)CC(C)=CCC1
REMARK SMILES IDX 12 1 14 2 13 3 15 4 16 5 2 6 1 7 3 8 11 10 9 11 10 12 5 13
REMARK SMILES IDX 6 14 7 15 8 16 4 17
REMARK H PARENT
REMARK Flexibility Score: 60.00
ROOT
ATOM      1  C   UNL     1       7.705  36.127  68.543  1.00  0.00    -0.070 C 
ATOM      2  C   UNL     1       6.873  36.942  69.235  1.00  0.00    -0.027 C 
ATOM      3  C   UNL     1       8.976  36.717  67.988  1.00  0.00     0.039 C 
ENDROOT
BRANCH   2   4
ATOM      4  C   UNL     1       5.535  36.536  69.808  1.00  0.00     0.032 C 
BRANCH   4   5
ATOM      5  C   UNL     1       4.384  37.333  69.175  1.00  0.00     0.034 C 
BRANCH   5   6
ATOM      6  C   UNL     1       4.407  37.332  67.653  1.00  0.00    -0.077 C 
ATOM      7  C   UNL     1       4.647  38.633  66.929  1.00  0.00     0.039 C 
ATOM      8  C   UNL     1       4.208  36.222  66.906  1.00  0.00    -0.023 CG0
ATOM      9  G   UNL     1       4.023  34.823  67.447  1.00  0.00     0.000 G0
ENDBRANCH   5   6
ENDBRANCH   4   5
ENDBRANCH   2   4
BRANCH   1  10
ATOM     10  C   UNL     1       7.415  34.657  68.312  1.00  0.00     0.111 C 
BRANCH  10  11
ATOM     11  C   UNL     1       6.561  34.459  67.091  1.00  0.00     0.163 C 
ATOM     12  O   UNL     1       7.005  34.806  65.964  1.00  0.00    -0.294 OA
BRANCH  11  13
ATOM     13  C   UNL     1       5.195  33.885  67.190  1.00  0.00    -0.002 C 
ATOM     14  C   UNL     1       5.003  32.544  67.054  1.00  0.00    -0.069 C 
ATOM     15  C   UNL     1       3.628  31.934  67.203  1.00  0.00     0.039 C 
ATOM     16  C   UNL     1       6.150  31.620  66.708  1.00  0.00     0.039 C 
BRANCH  13  17
ATOM     17  C   UNL     1       4.014  34.815  67.443  1.00  0.00     0.066 CG0
ATOM     18  G   UNL     1       4.216  36.213  66.906  1.00  0.00     0.000 G0
ENDBRANCH  13  17
ENDBRANCH  11  13
ENDBRANCH  10  11
ENDBRANCH   1  10
TORSDOF 0
ENDMDL
MODEL 9
REMARK VINA RESULT:    -2.910     10.970     13.490
REMARK INTER + INTRA:          -3.743
REMARK INTER:                  -4.180
REMARK INTRA:                   0.437
REMARK UNBOUND:                 0.358
REMARK SMILES CC1=CCC(=C(C)C)C(=O)CC(C)=CCC1
REMARK SMILES IDX 12 1 14 2 13 3 15 4 16 5 2 6 1 7 3 8 11 10 9 11 10 12 5 13
REMARK SMILES IDX 6 14 7 15 8 16 4 17
REMARK H PARENT
REMARK Flexibility Score: 60.00
ROOT
ATOM      1  C   UNL     1       3.203  35.644  68.709  1.00  0.00    -0.070 C 
ATOM      2  C   UNL     1       2.284  36.627  68.559  1.00  0.00    -0.027 C 
ATOM      3  C   UNL     1       2.839  34.257  68.246  1.00  0.00     0.039 C 
ENDROOT
BRANCH   2   4
ATOM      4  C   UNL     1       2.455  38.056  69.020  1.00  0.00     0.032 C 
BRANCH   4   5
ATOM      5  C   UNL     1       3.157  38.913  67.956  1.00  0.00     0.034 C 
BRANCH   5   6
ATOM      6  C   UNL     1       4.410  39.612  68.466  1.00  0.00    -0.077 C 
ATOM      7  C   UNL     1       4.259  40.769  69.421  1.00  0.00     0.039 C 
ATOM      8  C   UNL     1       5.662  39.259  68.095  1.00  0.00    -0.023 CG0
ATOM      9  G   UNL     1       6.017  38.088  67.208  1.00  0.00     0.000 G0
ENDBRANCH   5   6
ENDBRANCH   4   5
ENDBRANCH   2   4
BRANCH   1  10
ATOM     10  C   UNL     1       4.573  35.881  69.315  1.00  0.00     0.111 C 
BRANCH  10  11
ATOM     11  C   UNL     1       5.654  35.742  68.280  1.00  0.00     0.163 C 
ATOM     12  O   UNL     1       5.804  34.640  67.688  1.00  0.00    -0.294 OA
BRANCH  11  13
ATOM     13  C   UNL     1       6.564  36.871  67.960  1.00  0.00    -0.002 C 
ATOM     14  C   UNL     1       7.872  36.826  68.333  1.00  0.00    -0.069 C 
ATOM     15  C   UNL     1       8.826  37.941  67.971  1.00  0.00     0.039 C 
ATOM     16  C   UNL     1       8.411  35.678  69.159  1.00  0.00     0.039 C 
BRANCH  13  17
ATOM     17  C   UNL     1       6.013  38.080  67.211  1.00  0.00     0.066 CG0
ATOM     18  G   UNL     1       5.657  39.241  68.111  1.00  0.00     0.000 G0
ENDBRANCH  13  17
ENDBRANCH  11  13
ENDBRANCH  10  11
ENDBRANCH   1  10
TORSDOF 0
ENDMDL
