MODEL 1
REMARK VINA RESULT:    15.262      0.000      0.000
REMARK INTER + INTRA:          17.417
REMARK INTER:                  17.493
REMARK INTRA:                  -0.076
REMARK UNBOUND:                -0.076
REMARK SMILES COc1cc(C(=O)[O-])ccc1O
REMARK SMILES IDX 5 1 9 2 4 3 10 4 3 5 11 6 6 7 7 8 8 9 2 10 1 11 12 12
REMARK H PARENT 12 13
REMARK Flexibility Score: inf
ROOT
ATOM      1  C   UNL     1      29.257   9.073   0.005  1.00  0.00     0.001 A 
ATOM      2  C   UNL     1      30.494   8.636  -0.494  1.00  0.00     0.014 A 
ATOM      3  C   UNL     1      28.935  10.440  -0.066  1.00  0.00     0.060 A 
ATOM      4  C   UNL     1      31.392   9.546  -1.054  1.00  0.00     0.051 A 
ATOM      5  C   UNL     1      29.838  11.364  -0.631  1.00  0.00     0.161 A 
ATOM      6  C   UNL     1      31.072  10.904  -1.126  1.00  0.00     0.157 A 
ENDROOT
BRANCH   1   7
ATOM      7  C   UNL     1      28.309   8.103   0.599  1.00  0.00     0.072 C 
ATOM      8  O   UNL     1      27.875   7.133  -0.077  1.00  0.00    -0.545 OA
ATOM      9  O   UNL     1      27.885   8.250   1.915  1.00  0.00    -0.545 OA
ENDBRANCH   1   7
BRANCH   5  10
ATOM     10  O   UNL     1      29.543  12.734  -0.717  1.00  0.00    -0.493 OA
ATOM     11  C   UNL     1      28.227  13.279  -0.745  1.00  0.00     0.278 C 
ENDBRANCH   5  10
BRANCH   6  12
ATOM     12  O   UNL     1      31.994  11.783  -1.693  1.00  0.00    -0.504 OA
ATOM     13  H   UNL     1      32.879  12.000  -1.248  1.00  0.00     0.293 HD
ENDBRANCH   6  12
TORSDOF 3
ENDMDL
MODEL 2
REMARK VINA RESULT:    15.670      1.511      4.020
REMARK INTER + INTRA:          17.884
REMARK INTER:                  17.959
REMARK INTRA:                  -0.075
REMARK UNBOUND:                -0.076
REMARK SMILES COc1cc(C(=O)[O-])ccc1O
REMARK SMILES IDX 5 1 9 2 4 3 10 4 3 5 11 6 6 7 7 8 8 9 2 10 1 11 12 12
REMARK H PARENT 12 13
REMARK Flexibility Score: inf
ROOT
ATOM      1  C   UNL     1      29.308  11.773  -0.667  1.00  0.00     0.001 A 
ATOM      2  C   UNL     1      30.664  11.810  -1.025  1.00  0.00     0.014 A 
ATOM      3  C   UNL     1      28.748  10.559  -0.228  1.00  0.00     0.060 A 
ATOM      4  C   UNL     1      31.448  10.657  -0.945  1.00  0.00     0.051 A 
ATOM      5  C   UNL     1      29.535   9.393  -0.144  1.00  0.00     0.161 A 
ATOM      6  C   UNL     1      30.893   9.452  -0.508  1.00  0.00     0.157 A 
ENDROOT
BRANCH   1   7
ATOM      7  C   UNL     1      28.481  12.998  -0.755  1.00  0.00     0.072 C 
ATOM      8  O   UNL     1      28.171  13.484  -1.874  1.00  0.00    -0.545 OA
ATOM      9  O   UNL     1      28.033  13.629   0.401  1.00  0.00    -0.545 OA
ENDBRANCH   1   7
BRANCH   5  10
ATOM     10  O   UNL     1      29.005   8.168   0.292  1.00  0.00    -0.493 OA
ATOM     11  C   UNL     1      27.875   8.034   1.149  1.00  0.00     0.278 C 
ENDBRANCH   5  10
BRANCH   6  12
ATOM     12  O   UNL     1      31.707   8.322  -0.441  1.00  0.00    -0.504 OA
ATOM     13  H   UNL     1      31.379   7.402  -0.713  1.00  0.00     0.293 HD
ENDBRANCH   6  12
TORSDOF 3
ENDMDL
MODEL 3
REMARK VINA RESULT:    16.028      1.885      5.301
REMARK INTER + INTRA:          18.295
REMARK INTER:                  18.380
REMARK INTRA:                  -0.086
REMARK UNBOUND:                -0.076
REMARK SMILES COc1cc(C(=O)[O-])ccc1O
REMARK SMILES IDX 5 1 9 2 4 3 10 4 3 5 11 6 6 7 7 8 8 9 2 10 1 11 12 12
REMARK H PARENT 12 13
REMARK Flexibility Score: inf
ROOT
ATOM      1  C   UNL     1      31.644  11.549  -1.549  1.00  0.00     0.001 A 
ATOM      2  C   UNL     1      30.427  11.989  -1.006  1.00  0.00     0.014 A 
ATOM      3  C   UNL     1      31.978  10.185  -1.465  1.00  0.00     0.060 A 
ATOM      4  C   UNL     1      29.559  11.084  -0.391  1.00  0.00     0.051 A 
ATOM      5  C   UNL     1      31.105   9.267  -0.845  1.00  0.00     0.161 A 
ATOM      6  C   UNL     1      29.890   9.729  -0.308  1.00  0.00     0.157 A 
ENDROOT
BRANCH   1   7
ATOM      7  C   UNL     1      32.561  12.512  -2.200  1.00  0.00     0.072 C 
ATOM      8  O   UNL     1      33.809  12.371  -2.109  1.00  0.00    -0.545 OA
ATOM      9  O   UNL     1      32.055  13.588  -2.922  1.00  0.00    -0.545 OA
ENDBRANCH   1   7
BRANCH   5  10
ATOM     10  O   UNL     1      31.411   7.900  -0.747  1.00  0.00    -0.493 OA
ATOM     11  C   UNL     1      32.657   7.380  -0.295  1.00  0.00     0.278 C 
ENDBRANCH   5  10
BRANCH   6  12
ATOM     12  O   UNL     1      28.998   8.856   0.313  1.00  0.00    -0.504 OA
ATOM     13  H   UNL     1      27.996   8.915   0.172  1.00  0.00     0.293 HD
ENDBRANCH   6  12
TORSDOF 3
ENDMDL
MODEL 4
REMARK VINA RESULT:    16.128      1.482      4.357
REMARK INTER + INTRA:          18.408
REMARK INTER:                  18.483
REMARK INTRA:                  -0.074
REMARK UNBOUND:                -0.076
REMARK SMILES COc1cc(C(=O)[O-])ccc1O
REMARK SMILES IDX 5 1 9 2 4 3 10 4 3 5 11 6 6 7 7 8 8 9 2 10 1 11 12 12
REMARK H PARENT 12 13
REMARK Flexibility Score: inf
ROOT
ATOM      1  C   UNL     1      31.939  11.352  -1.312  1.00  0.00     0.001 A 
ATOM      2  C   UNL     1      32.081   9.962  -1.180  1.00  0.00     0.014 A 
ATOM      3  C   UNL     1      30.706  11.947  -0.989  1.00  0.00     0.060 A 
ATOM      4  C   UNL     1      31.013   9.181  -0.733  1.00  0.00     0.051 A 
ATOM      5  C   UNL     1      29.625  11.164  -0.536  1.00  0.00     0.161 A 
ATOM      6  C   UNL     1      29.790   9.773  -0.410  1.00  0.00     0.157 A 
ENDROOT
BRANCH   1   7
ATOM      7  C   UNL     1      33.074  12.175  -1.788  1.00  0.00     0.072 C 
ATOM      8  O   UNL     1      33.536  12.021  -2.949  1.00  0.00    -0.545 OA
ATOM      9  O   UNL     1      33.646  13.132  -0.957  1.00  0.00    -0.545 OA
ENDBRANCH   1   7
BRANCH   5  10
ATOM     10  O   UNL     1      28.384  11.731  -0.205  1.00  0.00    -0.493 OA
ATOM     11  C   UNL     1      28.024  13.088  -0.444  1.00  0.00     0.278 C 
ENDBRANCH   5  10
BRANCH   6  12
ATOM     12  O   UNL     1      28.747   8.961   0.033  1.00  0.00    -0.504 OA
ATOM     13  H   UNL     1      28.030   9.298   0.667  1.00  0.00     0.293 HD
ENDBRANCH   6  12
TORSDOF 3
ENDMDL
MODEL 5
REMARK VINA RESULT:    16.676      1.508      4.340
REMARK INTER + INTRA:          19.037
REMARK INTER:                  19.107
REMARK INTRA:                  -0.071
REMARK UNBOUND:                -0.076
REMARK SMILES COc1cc(C(=O)[O-])ccc1O
REMARK SMILES IDX 5 1 9 2 4 3 10 4 3 5 11 6 6 7 7 8 8 9 2 10 1 11 12 12
REMARK H PARENT 12 13
REMARK Flexibility Score: inf
ROOT
ATOM      1  C   UNL     1      30.738  10.460  -0.722  1.00  0.00     0.001 A 
ATOM      2  C   UNL     1      30.867   9.379  -1.608  1.00  0.00     0.014 A 
ATOM      3  C   UNL     1      29.740  10.418   0.269  1.00  0.00     0.060 A 
ATOM      4  C   UNL     1      30.016   8.277  -1.507  1.00  0.00     0.051 A 
ATOM      5  C   UNL     1      28.879   9.307   0.376  1.00  0.00     0.161 A 
ATOM      6  C   UNL     1      29.026   8.235  -0.522  1.00  0.00     0.157 A 
ENDROOT
BRANCH   1   7
ATOM      7  C   UNL     1      31.643  11.627  -0.835  1.00  0.00     0.072 C 
ATOM      8  O   UNL     1      32.109  11.972  -1.953  1.00  0.00    -0.545 OA
ATOM      9  O   UNL     1      31.990  12.360   0.295  1.00  0.00    -0.545 OA
ENDBRANCH   1   7
BRANCH   5  10
ATOM     10  O   UNL     1      27.875   9.237   1.355  1.00  0.00    -0.493 OA
ATOM     11  C   UNL     1      28.024   8.606   2.623  1.00  0.00     0.278 C 
ENDBRANCH   5  10
BRANCH   6  12
ATOM     12  O   UNL     1      28.195   7.117  -0.452  1.00  0.00    -0.504 OA
ATOM     13  H   UNL     1      28.262   6.350  -1.112  1.00  0.00     0.293 HD
ENDBRANCH   6  12
TORSDOF 3
ENDMDL
