MODEL 1
REMARK VINA RESULT:    -6.127      0.000      0.000
REMARK INTER + INTRA:         -10.436
REMARK INTER:                  -9.529
REMARK INTRA:                  -0.907
REMARK UNBOUND:                -0.907
REMARK SMILES COc1cc(CNC(=O)CCCCC=CC(C)C)ccc1O
REMARK SMILES IDX 11 1 12 2 13 3 14 4 15 5 16 6 17 7 18 8 10 9 8 10 9 11 7 12
REMARK SMILES IDX 6 14 5 15 4 16 19 17 3 18 20 19 21 20 2 21 1 22 22 23
REMARK H PARENT 7 13 22 24
REMARK Flexibility Score: inf
ROOT
ATOM      1  C   UNL     1      12.952  14.771 160.486  1.00  0.00     0.010 C 
ENDROOT
BRANCH   1   2
ATOM      2  C   UNL     1      13.917  14.963 161.669  1.00  0.00     0.005 C 
BRANCH   2   3
ATOM      3  C   UNL     1      13.799  13.832 162.703  1.00  0.00     0.027 C 
BRANCH   3   4
ATOM      4  C   UNL     1      12.374  13.395 162.909  1.00  0.00    -0.031 C 
ATOM      5  C   UNL     1      11.772  12.538 162.070  1.00  0.00    -0.028 C 
BRANCH   5   6
ATOM      6  C   UNL     1      10.345  12.096 162.290  1.00  0.00     0.005 C 
ATOM      7  C   UNL     1       9.390  13.288 162.170  1.00  0.00     0.012 C 
ATOM      8  C   UNL     1       9.963  11.003 161.285  1.00  0.00     0.012 C 
ENDBRANCH   5   6
ENDBRANCH   3   4
ENDBRANCH   2   3
ENDBRANCH   1   2
BRANCH   1   9
ATOM      9  C   UNL     1      12.385  16.102 159.978  1.00  0.00     0.100 C 
BRANCH   9  10
ATOM     10  C   UNL     1      11.325  16.641 160.893  1.00  0.00     0.220 C 
ATOM     11  O   UNL     1      10.139  16.228 160.778  1.00  0.00    -0.275 OA
ATOM     12  N   UNL     1      11.652  17.645 161.864  1.00  0.00    -0.352 N 
ATOM     13  H   UNL     1      12.634  17.999 161.919  1.00  0.00     0.163 HD
BRANCH  12  14
ATOM     14  C   UNL     1      10.656  18.219 162.765  1.00  0.00     0.151 C 
BRANCH  14  15
ATOM     15  C   UNL     1      10.515  17.368 163.999  1.00  0.00    -0.025 A 
ATOM     16  C   UNL     1       9.404  17.514 164.846  1.00  0.00     0.056 A 
ATOM     17  C   UNL     1      11.486  16.403 164.295  1.00  0.00     0.009 A 
ATOM     18  C   UNL     1       9.269  16.706 165.992  1.00  0.00     0.160 A 
ATOM     19  C   UNL     1      11.356  15.598 165.428  1.00  0.00     0.050 A 
ATOM     20  C   UNL     1      10.251  15.748 166.278  1.00  0.00     0.157 A 
BRANCH  18  21
ATOM     21  O   UNL     1       8.178  16.827 166.868  1.00  0.00    -0.493 OA
ATOM     22  C   UNL     1       7.733  18.054 167.439  1.00  0.00     0.278 C 
ENDBRANCH  18  21
BRANCH  20  23
ATOM     23  O   UNL     1      10.122  14.945 167.410  1.00  0.00    -0.504 OA
ATOM     24  H   UNL     1      10.661  15.124 168.249  1.00  0.00     0.293 HD
ENDBRANCH  20  23
ENDBRANCH  14  15
ENDBRANCH  12  14
ENDBRANCH   9  10
ENDBRANCH   1   9
TORSDOF 10
ENDMDL
MODEL 2
REMARK VINA RESULT:    -6.112      1.596      1.822
REMARK INTER + INTRA:         -10.413
REMARK INTER:                  -9.160
REMARK INTRA:                  -1.253
REMARK UNBOUND:                -0.907
REMARK SMILES COc1cc(CNC(=O)CCCCC=CC(C)C)ccc1O
REMARK SMILES IDX 11 1 12 2 13 3 14 4 15 5 16 6 17 7 18 8 10 9 8 10 9 11 7 12
REMARK SMILES IDX 6 14 5 15 4 16 19 17 3 18 20 19 21 20 2 21 1 22 22 23
REMARK H PARENT 7 13 22 24
REMARK Flexibility Score: inf
ROOT
ATOM      1  C   UNL     1      14.595  15.320 162.850  1.00  0.00     0.010 C 
ENDROOT
BRANCH   1   2
ATOM      2  C   UNL     1      14.081  14.105 163.641  1.00  0.00     0.005 C 
BRANCH   2   3
ATOM      3  C   UNL     1      13.992  12.843 162.770  1.00  0.00     0.027 C 
BRANCH   3   4
ATOM      4  C   UNL     1      12.603  12.614 162.236  1.00  0.00    -0.031 C 
ATOM      5  C   UNL     1      11.518  13.059 162.886  1.00  0.00    -0.028 C 
BRANCH   5   6
ATOM      6  C   UNL     1      10.128  12.835 162.338  1.00  0.00     0.005 C 
ATOM      7  C   UNL     1       9.534  14.150 161.826  1.00  0.00     0.012 C 
ATOM      8  C   UNL     1      10.159  11.790 161.216  1.00  0.00     0.012 C 
ENDBRANCH   5   6
ENDBRANCH   3   4
ENDBRANCH   2   3
ENDBRANCH   1   2
BRANCH   1   9
ATOM      9  C   UNL     1      13.489  15.983 162.021  1.00  0.00     0.100 C 
BRANCH   9  10
ATOM     10  C   UNL     1      12.695  16.963 162.834  1.00  0.00     0.220 C 
ATOM     11  O   UNL     1      13.300  17.798 163.561  1.00  0.00    -0.275 OA
ATOM     12  N   UNL     1      11.261  16.925 162.814  1.00  0.00    -0.352 N 
ATOM     13  H   UNL     1      10.779  16.202 162.232  1.00  0.00     0.163 HD
BRANCH  12  14
ATOM     14  C   UNL     1      10.440  17.840 163.603  1.00  0.00     0.151 C 
BRANCH  14  15
ATOM     15  C   UNL     1       9.944  17.155 164.848  1.00  0.00    -0.025 A 
ATOM     16  C   UNL     1       8.743  17.557 165.455  1.00  0.00     0.056 A 
ATOM     17  C   UNL     1      10.671  16.091 165.396  1.00  0.00     0.009 A 
ATOM     18  C   UNL     1       8.274  16.905 166.613  1.00  0.00     0.160 A 
ATOM     19  C   UNL     1      10.210  15.439 166.541  1.00  0.00     0.050 A 
ATOM     20  C   UNL     1       9.015  15.844 167.152  1.00  0.00     0.157 A 
BRANCH  18  21
ATOM     21  O   UNL     1       7.083  17.282 167.254  1.00  0.00    -0.493 OA
ATOM     22  C   UNL     1       5.801  16.731 166.966  1.00  0.00     0.278 C 
ENDBRANCH  18  21
BRANCH  20  23
ATOM     23  O   UNL     1       8.556  15.195 168.296  1.00  0.00    -0.504 OA
ATOM     24  H   UNL     1       8.348  14.203 168.294  1.00  0.00     0.293 HD
ENDBRANCH  20  23
ENDBRANCH  14  15
ENDBRANCH  12  14
ENDBRANCH   9  10
ENDBRANCH   1   9
TORSDOF 10
ENDMDL
MODEL 3
REMARK VINA RESULT:    -6.024      1.439      2.978
REMARK INTER + INTRA:         -10.276
REMARK INTER:                  -8.952
REMARK INTRA:                  -1.325
REMARK UNBOUND:                -0.907
REMARK SMILES COc1cc(CNC(=O)CCCCC=CC(C)C)ccc1O
REMARK SMILES IDX 11 1 12 2 13 3 14 4 15 5 16 6 17 7 18 8 10 9 8 10 9 11 7 12
REMARK SMILES IDX 6 14 5 15 4 16 19 17 3 18 20 19 21 20 2 21 1 22 22 23
REMARK H PARENT 7 13 22 24
REMARK Flexibility Score: inf
ROOT
ATOM      1  C   UNL     1      10.200  14.144 161.043  1.00  0.00     0.010 C 
ENDROOT
BRANCH   1   2
ATOM      2  C   UNL     1      11.058  12.909 161.371  1.00  0.00     0.005 C 
BRANCH   2   3
ATOM      3  C   UNL     1      11.183  12.677 162.884  1.00  0.00     0.027 C 
BRANCH   3   4
ATOM      4  C   UNL     1      12.297  13.483 163.495  1.00  0.00    -0.031 C 
ATOM      5  C   UNL     1      13.436  13.728 162.829  1.00  0.00    -0.028 C 
BRANCH   5   6
ATOM      6  C   UNL     1      14.545  14.546 163.446  1.00  0.00     0.005 C 
ATOM      7  C   UNL     1      15.903  14.126 162.876  1.00  0.00     0.012 C 
ATOM      8  C   UNL     1      14.305  16.041 163.204  1.00  0.00     0.012 C 
ENDBRANCH   5   6
ENDBRANCH   3   4
ENDBRANCH   2   3
ENDBRANCH   1   2
BRANCH   1   9
ATOM      9  C   UNL     1      11.046  15.325 160.553  1.00  0.00     0.100 C 
BRANCH   9  10
ATOM     10  C   UNL     1      10.922  16.513 161.461  1.00  0.00     0.220 C 
ATOM     11  O   UNL     1      11.045  17.674 160.983  1.00  0.00    -0.275 OA
ATOM     12  N   UNL     1      10.704  16.328 162.867  1.00  0.00    -0.352 N 
ATOM     13  H   UNL     1      10.640  15.357 163.249  1.00  0.00     0.163 HD
BRANCH  12  14
ATOM     14  C   UNL     1      10.597  17.448 163.798  1.00  0.00     0.151 C 
BRANCH  14  15
ATOM     15  C   UNL     1       9.891  17.016 165.056  1.00  0.00    -0.025 A 
ATOM     16  C   UNL     1       8.699  17.641 165.458  1.00  0.00     0.056 A 
ATOM     17  C   UNL     1      10.412  15.966 165.823  1.00  0.00     0.009 A 
ATOM     18  C   UNL     1       8.034  17.225 166.629  1.00  0.00     0.160 A 
ATOM     19  C   UNL     1       9.756  15.548 166.982  1.00  0.00     0.050 A 
ATOM     20  C   UNL     1       8.570  16.175 167.387  1.00  0.00     0.157 A 
BRANCH  18  21
ATOM     21  O   UNL     1       6.845  17.829 167.069  1.00  0.00    -0.493 OA
ATOM     22  C   UNL     1       5.614  17.806 166.351  1.00  0.00     0.278 C 
ENDBRANCH  18  21
BRANCH  20  23
ATOM     23  O   UNL     1       7.916  15.759 168.545  1.00  0.00    -0.504 OA
ATOM     24  H   UNL     1       7.717  16.403 169.301  1.00  0.00     0.293 HD
ENDBRANCH  20  23
ENDBRANCH  14  15
ENDBRANCH  12  14
ENDBRANCH   9  10
ENDBRANCH   1   9
TORSDOF 10
ENDMDL
MODEL 4
REMARK VINA RESULT:    -5.924      2.051      4.072
REMARK INTER + INTRA:         -10.121
REMARK INTER:                  -8.780
REMARK INTRA:                  -1.341
REMARK UNBOUND:                -0.907
REMARK SMILES COc1cc(CNC(=O)CCCCC=CC(C)C)ccc1O
REMARK SMILES IDX 11 1 12 2 13 3 14 4 15 5 16 6 17 7 18 8 10 9 8 10 9 11 7 12
REMARK SMILES IDX 6 14 5 15 4 16 19 17 3 18 20 19 21 20 2 21 1 22 22 23
REMARK H PARENT 7 13 22 24
REMARK Flexibility Score: inf
ROOT
ATOM      1  C   UNL     1      11.005  12.302 162.511  1.00  0.00     0.010 C 
ENDROOT
BRANCH   1   2
ATOM      2  C   UNL     1      10.168  12.896 161.364  1.00  0.00     0.005 C 
BRANCH   2   3
ATOM      3  C   UNL     1       9.511  14.229 161.756  1.00  0.00     0.027 C 
BRANCH   3   4
ATOM      4  C   UNL     1      10.159  15.406 161.079  1.00  0.00    -0.031 C 
ATOM      5  C   UNL     1      10.911  16.283 161.761  1.00  0.00    -0.028 C 
BRANCH   5   6
ATOM      6  C   UNL     1      11.566  17.457 161.073  1.00  0.00     0.005 C 
ATOM      7  C   UNL     1      11.211  17.471 159.583  1.00  0.00     0.012 C 
ATOM      8  C   UNL     1      11.140  18.772 161.736  1.00  0.00     0.012 C 
ENDBRANCH   5   6
ENDBRANCH   3   4
ENDBRANCH   2   3
ENDBRANCH   1   2
BRANCH   1   9
ATOM      9  C   UNL     1      12.438  12.848 162.527  1.00  0.00     0.100 C 
BRANCH   9  10
ATOM     10  C   UNL     1      12.635  13.863 163.616  1.00  0.00     0.220 C 
ATOM     11  O   UNL     1      13.717  14.508 163.671  1.00  0.00    -0.275 OA
ATOM     12  N   UNL     1      11.616  14.069 164.604  1.00  0.00    -0.352 N 
ATOM     13  H   UNL     1      10.741  13.498 164.560  1.00  0.00     0.163 HD
BRANCH  12  14
ATOM     14  C   UNL     1      11.765  15.028 165.696  1.00  0.00     0.151 C 
BRANCH  14  15
ATOM     15  C   UNL     1      10.544  15.903 165.792  1.00  0.00    -0.025 A 
ATOM     16  C   UNL     1       9.662  15.784 166.879  1.00  0.00     0.056 A 
ATOM     17  C   UNL     1      10.294  16.863 164.803  1.00  0.00     0.009 A 
ATOM     18  C   UNL     1       8.528  16.615 166.973  1.00  0.00     0.160 A 
ATOM     19  C   UNL     1       9.173  17.690 164.892  1.00  0.00     0.050 A 
ATOM     20  C   UNL     1       8.289  17.568 165.973  1.00  0.00     0.157 A 
BRANCH  18  21
ATOM     21  O   UNL     1       7.618  16.522 168.038  1.00  0.00    -0.493 OA
ATOM     22  C   UNL     1       7.431  15.359 168.841  1.00  0.00     0.278 C 
ENDBRANCH  18  21
BRANCH  20  23
ATOM     23  O   UNL     1       7.169  18.393 166.061  1.00  0.00    -0.504 OA
ATOM     24  H   UNL     1       6.332  18.097 166.550  1.00  0.00     0.293 HD
ENDBRANCH  20  23
ENDBRANCH  14  15
ENDBRANCH  12  14
ENDBRANCH   9  10
ENDBRANCH   1   9
TORSDOF 10
ENDMDL
MODEL 5
REMARK VINA RESULT:    -5.914      1.604      3.450
REMARK INTER + INTRA:         -10.105
REMARK INTER:                  -9.032
REMARK INTRA:                  -1.074
REMARK UNBOUND:                -0.907
REMARK SMILES COc1cc(CNC(=O)CCCCC=CC(C)C)ccc1O
REMARK SMILES IDX 11 1 12 2 13 3 14 4 15 5 16 6 17 7 18 8 10 9 8 10 9 11 7 12
REMARK SMILES IDX 6 14 5 15 4 16 19 17 3 18 20 19 21 20 2 21 1 22 22 23
REMARK H PARENT 7 13 22 24
REMARK Flexibility Score: inf
ROOT
ATOM      1  C   UNL     1       9.650  14.063 161.750  1.00  0.00     0.010 C 
ENDROOT
BRANCH   1   2
ATOM      2  C   UNL     1      10.587  12.869 161.494  1.00  0.00     0.005 C 
BRANCH   2   3
ATOM      3  C   UNL     1      11.298  12.406 162.775  1.00  0.00     0.027 C 
BRANCH   3   4
ATOM      4  C   UNL     1      12.509  13.244 163.090  1.00  0.00    -0.031 C 
ATOM      5  C   UNL     1      13.195  13.878 162.128  1.00  0.00    -0.028 C 
BRANCH   5   6
ATOM      6  C   UNL     1      14.403  14.724 162.454  1.00  0.00     0.005 C 
ATOM      7  C   UNL     1      13.985  15.981 163.224  1.00  0.00     0.012 C 
ATOM      8  C   UNL     1      15.419  13.914 163.267  1.00  0.00     0.012 C 
ENDBRANCH   5   6
ENDBRANCH   3   4
ENDBRANCH   2   3
ENDBRANCH   1   2
BRANCH   1   9
ATOM      9  C   UNL     1      10.116  15.332 161.026  1.00  0.00     0.100 C 
BRANCH   9  10
ATOM     10  C   UNL     1      10.497  16.415 161.992  1.00  0.00     0.220 C 
ATOM     11  O   UNL     1      11.170  17.401 161.583  1.00  0.00    -0.275 OA
ATOM     12  N   UNL     1      10.131  16.312 163.375  1.00  0.00    -0.352 N 
ATOM     13  H   UNL     1       9.604  15.470 163.701  1.00  0.00     0.163 HD
BRANCH  12  14
ATOM     14  C   UNL     1      10.495  17.327 164.361  1.00  0.00     0.151 C 
BRANCH  14  15
ATOM     15  C   UNL     1       9.345  17.580 165.299  1.00  0.00    -0.025 A 
ATOM     16  C   UNL     1       8.797  16.533 166.058  1.00  0.00     0.056 A 
ATOM     17  C   UNL     1       8.829  18.875 165.436  1.00  0.00     0.009 A 
ATOM     18  C   UNL     1       7.729  16.777 166.945  1.00  0.00     0.160 A 
ATOM     19  C   UNL     1       7.773  19.123 166.315  1.00  0.00     0.050 A 
ATOM     20  C   UNL     1       7.221  18.078 167.068  1.00  0.00     0.157 A 
BRANCH  18  21
ATOM     21  O   UNL     1       7.149  15.756 167.715  1.00  0.00    -0.493 OA
ATOM     22  C   UNL     1       7.468  15.493 169.078  1.00  0.00     0.278 C 
ENDBRANCH  18  21
BRANCH  20  23
ATOM     23  O   UNL     1       6.166  18.324 167.944  1.00  0.00    -0.504 OA
ATOM     24  H   UNL     1       5.898  17.650 168.652  1.00  0.00     0.293 HD
ENDBRANCH  20  23
ENDBRANCH  14  15
ENDBRANCH  12  14
ENDBRANCH   9  10
ENDBRANCH   1   9
TORSDOF 10
ENDMDL
MODEL 6
REMARK VINA RESULT:    -5.710      2.094      3.756
REMARK INTER + INTRA:          -9.788
REMARK INTER:                  -8.849
REMARK INTRA:                  -0.939
REMARK UNBOUND:                -0.907
REMARK SMILES COc1cc(CNC(=O)CCCCC=CC(C)C)ccc1O
REMARK SMILES IDX 11 1 12 2 13 3 14 4 15 5 16 6 17 7 18 8 10 9 8 10 9 11 7 12
REMARK SMILES IDX 6 14 5 15 4 16 19 17 3 18 20 19 21 20 2 21 1 22 22 23
REMARK H PARENT 7 13 22 24
REMARK Flexibility Score: inf
ROOT
ATOM      1  C   UNL     1      12.272  13.280 163.360  1.00  0.00     0.010 C 
ENDROOT
BRANCH   1   2
ATOM      2  C   UNL     1      13.761  13.665 163.307  1.00  0.00     0.005 C 
BRANCH   2   3
ATOM      3  C   UNL     1      14.076  14.599 162.128  1.00  0.00     0.027 C 
BRANCH   3   4
ATOM      4  C   UNL     1      12.896  15.451 161.744  1.00  0.00    -0.031 C 
ATOM      5  C   UNL     1      12.332  15.365 160.529  1.00  0.00    -0.028 C 
BRANCH   5   6
ATOM      6  C   UNL     1      11.142  16.217 160.155  1.00  0.00     0.005 C 
ATOM      7  C   UNL     1       9.840  15.538 160.589  1.00  0.00     0.012 C 
ATOM      8  C   UNL     1      11.258  17.606 160.793  1.00  0.00     0.012 C 
ENDBRANCH   5   6
ENDBRANCH   3   4
ENDBRANCH   2   3
ENDBRANCH   1   2
BRANCH   1   9
ATOM      9  C   UNL     1      11.627  13.639 164.704  1.00  0.00     0.100 C 
BRANCH   9  10
ATOM     10  C   UNL     1      11.487  15.124 164.874  1.00  0.00     0.220 C 
ATOM     11  O   UNL     1      12.291  15.740 165.626  1.00  0.00    -0.275 OA
ATOM     12  N   UNL     1      10.424  15.829 164.217  1.00  0.00    -0.352 N 
ATOM     13  H   UNL     1       9.747  15.294 163.626  1.00  0.00     0.163 HD
BRANCH  12  14
ATOM     14  C   UNL     1      10.229  17.269 164.365  1.00  0.00     0.151 C 
BRANCH  14  15
ATOM     15  C   UNL     1       9.125  17.548 165.350  1.00  0.00    -0.025 A 
ATOM     16  C   UNL     1       8.586  16.513 166.132  1.00  0.00     0.056 A 
ATOM     17  C   UNL     1       8.645  18.854 165.509  1.00  0.00     0.009 A 
ATOM     18  C   UNL     1       7.562  16.780 167.063  1.00  0.00     0.160 A 
ATOM     19  C   UNL     1       7.632  19.125 166.431  1.00  0.00     0.050 A 
ATOM     20  C   UNL     1       7.089  18.092 167.207  1.00  0.00     0.157 A 
BRANCH  18  21
ATOM     21  O   UNL     1       6.991  15.773 167.857  1.00  0.00    -0.493 OA
ATOM     22  C   UNL     1       7.470  15.390 169.143  1.00  0.00     0.278 C 
ENDBRANCH  18  21
BRANCH  20  23
ATOM     23  O   UNL     1       6.077  18.362 168.126  1.00  0.00    -0.504 OA
ATOM     24  H   UNL     1       5.101  18.352 167.856  1.00  0.00     0.293 HD
ENDBRANCH  20  23
ENDBRANCH  14  15
ENDBRANCH  12  14
ENDBRANCH   9  10
ENDBRANCH   1   9
TORSDOF 10
ENDMDL
MODEL 7
REMARK VINA RESULT:    -5.641      2.299      4.059
REMARK INTER + INTRA:          -9.680
REMARK INTER:                  -8.359
REMARK INTRA:                  -1.321
REMARK UNBOUND:                -0.907
REMARK SMILES COc1cc(CNC(=O)CCCCC=CC(C)C)ccc1O
REMARK SMILES IDX 11 1 12 2 13 3 14 4 15 5 16 6 17 7 18 8 10 9 8 10 9 11 7 12
REMARK SMILES IDX 6 14 5 15 4 16 19 17 3 18 20 19 21 20 2 21 1 22 22 23
REMARK H PARENT 7 13 22 24
REMARK Flexibility Score: inf
ROOT
ATOM      1  C   UNL     1      11.244  17.840 159.681  1.00  0.00     0.010 C 
ENDROOT
BRANCH   1   2
ATOM      2  C   UNL     1      11.566  16.555 160.465  1.00  0.00     0.005 C 
BRANCH   2   3
ATOM      3  C   UNL     1      12.608  15.684 159.747  1.00  0.00     0.027 C 
BRANCH   3   4
ATOM      4  C   UNL     1      13.469  14.913 160.711  1.00  0.00    -0.031 C 
ATOM      5  C   UNL     1      13.654  15.326 161.974  1.00  0.00    -0.028 C 
BRANCH   5   6
ATOM      6  C   UNL     1      14.512  14.541 162.938  1.00  0.00     0.005 C 
ATOM      7  C   UNL     1      14.133  13.057 162.906  1.00  0.00     0.012 C 
ATOM      8  C   UNL     1      15.996  14.720 162.600  1.00  0.00     0.012 C 
ENDBRANCH   5   6
ENDBRANCH   3   4
ENDBRANCH   2   3
ENDBRANCH   1   2
BRANCH   1   9
ATOM      9  C   UNL     1      11.376  19.098 160.548  1.00  0.00     0.100 C 
BRANCH   9  10
ATOM     10  C   UNL     1      11.476  18.760 162.007  1.00  0.00     0.220 C 
ATOM     11  O   UNL     1      12.528  19.050 162.639  1.00  0.00    -0.275 OA
ATOM     12  N   UNL     1      10.399  18.080 162.666  1.00  0.00    -0.352 N 
ATOM     13  H   UNL     1       9.550  17.817 162.116  1.00  0.00     0.163 HD
BRANCH  12  14
ATOM     14  C   UNL     1      10.453  17.709 164.078  1.00  0.00     0.151 C 
BRANCH  14  15
ATOM     15  C   UNL     1      10.701  16.231 164.221  1.00  0.00    -0.025 A 
ATOM     16  C   UNL     1      10.259  15.333 163.235  1.00  0.00     0.056 A 
ATOM     17  C   UNL     1      11.400  15.745 165.333  1.00  0.00     0.009 A 
ATOM     18  C   UNL     1      10.505  13.951 163.365  1.00  0.00     0.160 A 
ATOM     19  C   UNL     1      11.649  14.377 165.466  1.00  0.00     0.050 A 
ATOM     20  C   UNL     1      11.203  13.480 164.486  1.00  0.00     0.157 A 
BRANCH  18  21
ATOM     21  O   UNL     1      10.073  13.021 162.407  1.00  0.00    -0.493 OA
ATOM     22  C   UNL     1      10.812  12.656 161.245  1.00  0.00     0.278 C 
ENDBRANCH  18  21
BRANCH  20  23
ATOM     23  O   UNL     1      11.450  12.115 164.620  1.00  0.00    -0.504 OA
ATOM     24  H   UNL     1      10.827  11.423 164.218  1.00  0.00     0.293 HD
ENDBRANCH  20  23
ENDBRANCH  14  15
ENDBRANCH  12  14
ENDBRANCH   9  10
ENDBRANCH   1   9
TORSDOF 10
ENDMDL
MODEL 8
REMARK VINA RESULT:    -5.633      1.764      2.933
REMARK INTER + INTRA:          -9.669
REMARK INTER:                  -8.842
REMARK INTRA:                  -0.826
REMARK UNBOUND:                -0.907
REMARK SMILES COc1cc(CNC(=O)CCCCC=CC(C)C)ccc1O
REMARK SMILES IDX 11 1 12 2 13 3 14 4 15 5 16 6 17 7 18 8 10 9 8 10 9 11 7 12
REMARK SMILES IDX 6 14 5 15 4 16 19 17 3 18 20 19 21 20 2 21 1 22 22 23
REMARK H PARENT 7 13 22 24
REMARK Flexibility Score: inf
ROOT
ATOM      1  C   UNL     1      12.816  14.850 160.809  1.00  0.00     0.010 C 
ENDROOT
BRANCH   1   2
ATOM      2  C   UNL     1      12.005  16.092 160.402  1.00  0.00     0.005 C 
BRANCH   2   3
ATOM      3  C   UNL     1      10.495  15.890 160.605  1.00  0.00     0.027 C 
BRANCH   3   4
ATOM      4  C   UNL     1      10.193  14.780 161.575  1.00  0.00    -0.031 C 
ATOM      5  C   UNL     1      10.185  13.494 161.193  1.00  0.00    -0.028 C 
BRANCH   5   6
ATOM      6  C   UNL     1       9.891  12.386 162.176  1.00  0.00     0.005 C 
ATOM      7  C   UNL     1       9.905  11.026 161.471  1.00  0.00     0.012 C 
ATOM      8  C   UNL     1      10.909  12.404 163.322  1.00  0.00     0.012 C 
ENDBRANCH   5   6
ENDBRANCH   3   4
ENDBRANCH   2   3
ENDBRANCH   1   2
BRANCH   1   9
ATOM      9  C   UNL     1      13.893  15.177 161.851  1.00  0.00     0.100 C 
BRANCH   9  10
ATOM     10  C   UNL     1      13.425  14.882 163.247  1.00  0.00     0.220 C 
ATOM     11  O   UNL     1      13.934  13.916 163.879  1.00  0.00    -0.275 OA
ATOM     12  N   UNL     1      12.383  15.668 163.840  1.00  0.00    -0.352 N 
ATOM     13  H   UNL     1      11.950  16.441 163.286  1.00  0.00     0.163 HD
BRANCH  12  14
ATOM     14  C   UNL     1      11.875  15.410 165.186  1.00  0.00     0.151 C 
BRANCH  14  15
ATOM     15  C   UNL     1      10.627  16.214 165.436  1.00  0.00    -0.025 A 
ATOM     16  C   UNL     1       9.840  15.978 166.575  1.00  0.00     0.056 A 
ATOM     17  C   UNL     1      10.255  17.223 164.538  1.00  0.00     0.009 A 
ATOM     18  C   UNL     1       8.679  16.740 166.813  1.00  0.00     0.160 A 
ATOM     19  C   UNL     1       9.108  17.984 164.770  1.00  0.00     0.050 A 
ATOM     20  C   UNL     1       8.319  17.745 165.903  1.00  0.00     0.157 A 
BRANCH  18  21
ATOM     21  O   UNL     1       7.862  16.530 167.935  1.00  0.00    -0.493 OA
ATOM     22  C   UNL     1       7.658  15.266 168.559  1.00  0.00     0.278 C 
ENDBRANCH  18  21
BRANCH  20  23
ATOM     23  O   UNL     1       7.173  18.503 166.133  1.00  0.00    -0.504 OA
ATOM     24  H   UNL     1       7.082  19.447 165.776  1.00  0.00     0.293 HD
ENDBRANCH  20  23
ENDBRANCH  14  15
ENDBRANCH  12  14
ENDBRANCH   9  10
ENDBRANCH   1   9
TORSDOF 10
ENDMDL
MODEL 9
REMARK VINA RESULT:    -5.609      1.774      3.203
REMARK INTER + INTRA:          -9.630
REMARK INTER:                  -8.556
REMARK INTRA:                  -1.074
REMARK UNBOUND:                -0.907
REMARK SMILES COc1cc(CNC(=O)CCCCC=CC(C)C)ccc1O
REMARK SMILES IDX 11 1 12 2 13 3 14 4 15 5 16 6 17 7 18 8 10 9 8 10 9 11 7 12
REMARK SMILES IDX 6 14 5 15 4 16 19 17 3 18 20 19 21 20 2 21 1 22 22 23
REMARK H PARENT 7 13 22 24
REMARK Flexibility Score: inf
ROOT
ATOM      1  C   UNL     1      10.869  16.807 160.659  1.00  0.00     0.010 C 
ENDROOT
BRANCH   1   2
ATOM      2  C   UNL     1      11.988  16.448 159.667  1.00  0.00     0.005 C 
BRANCH   2   3
ATOM      3  C   UNL     1      12.871  15.300 160.180  1.00  0.00     0.027 C 
BRANCH   3   4
ATOM      4  C   UNL     1      12.098  14.316 161.017  1.00  0.00    -0.031 C 
ATOM      5  C   UNL     1      12.643  13.728 162.093  1.00  0.00    -0.028 C 
BRANCH   5   6
ATOM      6  C   UNL     1      11.858  12.749 162.933  1.00  0.00     0.005 C 
ATOM      7  C   UNL     1      11.616  13.318 164.335  1.00  0.00     0.012 C 
ATOM      8  C   UNL     1      10.524  12.414 162.256  1.00  0.00     0.012 C 
ENDBRANCH   5   6
ENDBRANCH   3   4
ENDBRANCH   2   3
ENDBRANCH   1   2
BRANCH   1   9
ATOM      9  C   UNL     1      11.298  17.898 161.648  1.00  0.00     0.100 C 
BRANCH   9  10
ATOM     10  C   UNL     1      11.354  17.382 163.056  1.00  0.00     0.220 C 
ATOM     11  O   UNL     1      12.473  17.107 163.570  1.00  0.00    -0.275 OA
ATOM     12  N   UNL     1      10.144  17.169 163.796  1.00  0.00    -0.352 N 
ATOM     13  H   UNL     1       9.226  17.370 163.339  1.00  0.00     0.163 HD
BRANCH  12  14
ATOM     14  C   UNL     1      10.141  16.649 165.161  1.00  0.00     0.151 C 
BRANCH  14  15
ATOM     15  C   UNL     1       8.994  17.235 165.941  1.00  0.00    -0.025 A 
ATOM     16  C   UNL     1       8.311  16.465 166.896  1.00  0.00     0.056 A 
ATOM     17  C   UNL     1       8.617  18.568 165.731  1.00  0.00     0.009 A 
ATOM     18  C   UNL     1       7.247  17.021 167.634  1.00  0.00     0.160 A 
ATOM     19  C   UNL     1       7.565  19.125 166.461  1.00  0.00     0.050 A 
ATOM     20  C   UNL     1       6.879  18.356 167.410  1.00  0.00     0.157 A 
BRANCH  18  21
ATOM     21  O   UNL     1       6.533  16.283 168.591  1.00  0.00    -0.493 OA
ATOM     22  C   UNL     1       7.134  15.525 169.638  1.00  0.00     0.278 C 
ENDBRANCH  18  21
BRANCH  20  23
ATOM     23  O   UNL     1       5.827  18.911 168.137  1.00  0.00    -0.504 OA
ATOM     24  H   UNL     1       5.340  18.382 168.850  1.00  0.00     0.293 HD
ENDBRANCH  20  23
ENDBRANCH  14  15
ENDBRANCH  12  14
ENDBRANCH   9  10
ENDBRANCH   1   9
TORSDOF 10
ENDMDL
