MODEL 1
REMARK VINA RESULT:    -2.591      0.000      0.000
REMARK INTER + INTRA:          -2.931
REMARK INTER:                  -2.893
REMARK INTRA:                  -0.038
REMARK UNBOUND:                -0.038
REMARK SMILES CCCC(=O)[O-]
REMARK SMILES IDX 3 1 4 2 5 3 6 4 2 5 1 6
REMARK H PARENT
REMARK Flexibility Score: inf
ROOT
ATOM      1  C   UNL     1      10.450  15.358  30.269  1.00  0.00     0.052 C 
ENDROOT
BRANCH   1   2
ATOM      2  C   UNL     1       9.935  14.094  30.880  1.00  0.00     0.041 C 
ATOM      3  O   UNL     1       9.656  13.105  30.152  1.00  0.00    -0.550 OA
ATOM      4  O   UNL     1       9.716  14.022  32.250  1.00  0.00    -0.550 OA
ENDBRANCH   1   2
BRANCH   1   5
ATOM      5  C   UNL     1      11.834  15.698  30.828  1.00  0.00     0.003 C 
ATOM      6  C   UNL     1      11.796  16.984  31.649  1.00  0.00     0.004 C 
ENDBRANCH   1   5
TORSDOF 2
ENDMDL
MODEL 2
REMARK VINA RESULT:    -2.522      5.534      6.238
REMARK INTER + INTRA:          -2.855
REMARK INTER:                  -2.841
REMARK INTRA:                  -0.014
REMARK UNBOUND:                -0.038
REMARK SMILES CCCC(=O)[O-]
REMARK SMILES IDX 3 1 4 2 5 3 6 4 2 5 1 6
REMARK H PARENT
REMARK Flexibility Score: inf
ROOT
ATOM      1  C   UNL     1       5.428  11.685  32.772  1.00  0.00     0.052 C 
ENDROOT
BRANCH   1   2
ATOM      2  C   UNL     1       6.604  11.168  32.006  1.00  0.00     0.041 C 
ATOM      3  O   UNL     1       6.867   9.937  32.003  1.00  0.00    -0.550 OA
ATOM      4  O   UNL     1       7.439  12.052  31.335  1.00  0.00    -0.550 OA
ENDBRANCH   1   2
BRANCH   1   5
ATOM      5  C   UNL     1       4.619  12.663  31.915  1.00  0.00     0.003 C 
ATOM      6  C   UNL     1       3.924  13.710  32.782  1.00  0.00     0.004 C 
ENDBRANCH   1   5
TORSDOF 2
ENDMDL
MODEL 3
REMARK VINA RESULT:    -2.513      6.213      6.849
REMARK INTER + INTRA:          -2.844
REMARK INTER:                  -2.835
REMARK INTRA:                  -0.009
REMARK UNBOUND:                -0.038
REMARK SMILES CCCC(=O)[O-]
REMARK SMILES IDX 3 1 4 2 5 3 6 4 2 5 1 6
REMARK H PARENT
REMARK Flexibility Score: inf
ROOT
ATOM      1  C   UNL     1       4.957  11.907  32.750  1.00  0.00     0.052 C 
ENDROOT
BRANCH   1   2
ATOM      2  C   UNL     1       4.239  13.041  32.088  1.00  0.00     0.041 C 
ATOM      3  O   UNL     1       3.762  13.978  32.779  1.00  0.00    -0.550 OA
ATOM      4  O   UNL     1       4.055  13.038  30.712  1.00  0.00    -0.550 OA
ENDBRANCH   1   2
BRANCH   1   5
ATOM      5  C   UNL     1       6.266  11.600  32.017  1.00  0.00     0.003 C 
ATOM      6  C   UNL     1       6.801  10.223  32.398  1.00  0.00     0.004 C 
ENDBRANCH   1   5
TORSDOF 2
ENDMDL
MODEL 4
REMARK VINA RESULT:    -2.499      4.249      5.560
REMARK INTER + INTRA:          -2.829
REMARK INTER:                  -2.792
REMARK INTRA:                  -0.037
REMARK UNBOUND:                -0.038
REMARK SMILES CCCC(=O)[O-]
REMARK SMILES IDX 3 1 4 2 5 3 6 4 2 5 1 6
REMARK H PARENT
REMARK Flexibility Score: inf
ROOT
ATOM      1  C   UNL     1       6.402  12.751  32.290  1.00  0.00     0.052 C 
ENDROOT
BRANCH   1   2
ATOM      2  C   UNL     1       6.846  13.175  30.926  1.00  0.00     0.041 C 
ATOM      3  O   UNL     1       6.026  13.695  30.125  1.00  0.00    -0.550 OA
ATOM      4  O   UNL     1       8.156  12.952  30.521  1.00  0.00    -0.550 OA
ENDBRANCH   1   2
BRANCH   1   5
ATOM      5  C   UNL     1       5.775  11.355  32.240  1.00  0.00     0.003 C 
ATOM      6  C   UNL     1       6.841  10.268  32.342  1.00  0.00     0.004 C 
ENDBRANCH   1   5
TORSDOF 2
ENDMDL
MODEL 5
REMARK VINA RESULT:    -2.494     11.350     11.920
REMARK INTER + INTRA:          -2.824
REMARK INTER:                  -2.790
REMARK INTRA:                  -0.034
REMARK UNBOUND:                -0.038
REMARK SMILES CCCC(=O)[O-]
REMARK SMILES IDX 3 1 4 2 5 3 6 4 2 5 1 6
REMARK H PARENT
REMARK Flexibility Score: inf
ROOT
ATOM      1  C   UNL     1      16.580  19.970  21.779  1.00  0.00     0.052 C 
ENDROOT
BRANCH   1   2
ATOM      2  C   UNL     1      16.780  20.275  23.230  1.00  0.00     0.041 C 
ATOM      3  O   UNL     1      16.072  19.705  24.100  1.00  0.00    -0.550 OA
ATOM      4  O   UNL     1      17.716  21.224  23.618  1.00  0.00    -0.550 OA
ENDBRANCH   1   2
BRANCH   1   5
ATOM      5  C   UNL     1      17.408  18.750  21.368  1.00  0.00     0.003 C 
ATOM      6  C   UNL     1      16.508  17.579  20.982  1.00  0.00     0.004 C 
ENDBRANCH   1   5
TORSDOF 2
ENDMDL
MODEL 6
REMARK VINA RESULT:    -2.477     12.031     12.351
REMARK INTER + INTRA:          -2.804
REMARK INTER:                  -2.779
REMARK INTRA:                  -0.025
REMARK UNBOUND:                -0.038
REMARK SMILES CCCC(=O)[O-]
REMARK SMILES IDX 3 1 4 2 5 3 6 4 2 5 1 6
REMARK H PARENT
REMARK Flexibility Score: inf
ROOT
ATOM      1  C   UNL     1      17.545  21.271  23.297  1.00  0.00     0.052 C 
ENDROOT
BRANCH   1   2
ATOM      2  C   UNL     1      17.177  20.397  22.141  1.00  0.00     0.041 C 
ATOM      3  O   UNL     1      16.249  20.736  21.361  1.00  0.00    -0.550 OA
ATOM      4  O   UNL     1      17.825  19.183  21.953  1.00  0.00    -0.550 OA
ENDBRANCH   1   2
BRANCH   1   5
ATOM      5  C   UNL     1      16.339  22.098  23.750  1.00  0.00     0.003 C 
ATOM      6  C   UNL     1      16.752  23.521  24.114  1.00  0.00     0.004 C 
ENDBRANCH   1   5
TORSDOF 2
ENDMDL
MODEL 7
REMARK VINA RESULT:    -2.468     11.769     12.328
REMARK INTER + INTRA:          -2.794
REMARK INTER:                  -2.771
REMARK INTRA:                  -0.024
REMARK UNBOUND:                -0.038
REMARK SMILES CCCC(=O)[O-]
REMARK SMILES IDX 3 1 4 2 5 3 6 4 2 5 1 6
REMARK H PARENT
REMARK Flexibility Score: inf
ROOT
ATOM      1  C   UNL     1      17.636  21.092  22.814  1.00  0.00     0.052 C 
ENDROOT
BRANCH   1   2
ATOM      2  C   UNL     1      16.737  21.905  23.691  1.00  0.00     0.041 C 
ATOM      3  O   UNL     1      15.571  21.507  23.947  1.00  0.00    -0.550 OA
ATOM      4  O   UNL     1      17.171  23.128  24.187  1.00  0.00    -0.550 OA
ENDBRANCH   1   2
BRANCH   1   5
ATOM      5  C   UNL     1      16.815  20.307  21.787  1.00  0.00     0.003 C 
ATOM      6  C   UNL     1      17.412  18.924  21.546  1.00  0.00     0.004 C 
ENDBRANCH   1   5
TORSDOF 2
ENDMDL
MODEL 8
REMARK VINA RESULT:    -2.432     11.386     11.935
REMARK INTER + INTRA:          -2.754
REMARK INTER:                  -2.716
REMARK INTRA:                  -0.038
REMARK UNBOUND:                -0.038
REMARK SMILES CCCC(=O)[O-]
REMARK SMILES IDX 3 1 4 2 5 3 6 4 2 5 1 6
REMARK H PARENT
REMARK Flexibility Score: inf
ROOT
ATOM      1  C   UNL     1      17.434  19.639  21.550  1.00  0.00     0.052 C 
ENDROOT
BRANCH   1   2
ATOM      2  C   UNL     1      16.536  18.444  21.585  1.00  0.00     0.041 C 
ATOM      3  O   UNL     1      15.661  18.334  22.484  1.00  0.00    -0.550 OA
ATOM      4  O   UNL     1      16.695  17.427  20.652  1.00  0.00    -0.550 OA
ENDBRANCH   1   2
BRANCH   1   5
ATOM      5  C   UNL     1      16.745  20.846  22.190  1.00  0.00     0.003 C 
ATOM      6  C   UNL     1      17.538  21.363  23.387  1.00  0.00     0.004 C 
ENDBRANCH   1   5
TORSDOF 2
ENDMDL
MODEL 9
REMARK VINA RESULT:    -2.408      1.525      2.314
REMARK INTER + INTRA:          -2.728
REMARK INTER:                  -2.689
REMARK INTRA:                  -0.038
REMARK UNBOUND:                -0.038
REMARK SMILES CCCC(=O)[O-]
REMARK SMILES IDX 3 1 4 2 5 3 6 4 2 5 1 6
REMARK H PARENT
REMARK Flexibility Score: inf
ROOT
ATOM      1  C   UNL     1      11.789  15.844  30.659  1.00  0.00     0.052 C 
ENDROOT
BRANCH   1   2
ATOM      2  C   UNL     1      10.626  15.018  31.108  1.00  0.00     0.041 C 
ATOM      3  O   UNL     1      10.276  15.021  32.318  1.00  0.00    -0.550 OA
ATOM      4  O   UNL     1       9.959  14.205  30.201  1.00  0.00    -0.550 OA
ENDBRANCH   1   2
BRANCH   1   5
ATOM      5  C   UNL     1      11.395  16.720  29.467  1.00  0.00     0.003 C 
ATOM      6  C   UNL     1      12.145  16.304  28.205  1.00  0.00     0.004 C 
ENDBRANCH   1   5
TORSDOF 2
ENDMDL
