MODEL 1
REMARK VINA RESULT:    -4.068      0.000      0.000
REMARK INTER + INTRA:          -9.790
REMARK INTER:                  -7.635
REMARK INTRA:                  -2.155
REMARK UNBOUND:                -2.155
REMARK SMILES CCCCCCCCC=CCCCCCCCC(=O)[O-]
REMARK SMILES IDX 10 1 9 2 11 3 12 4 13 5 14 6 15 7 16 8 17 9 18 10 19 11
REMARK SMILES IDX 20 12 8 13 7 14 6 15 5 16 4 17 3 18 2 19 1 20
REMARK H PARENT
REMARK Flexibility Score: inf
ROOT
ATOM      1  C   UNL     1       9.633  63.411   8.628  1.00  0.00    -0.031 C 
ATOM      2  C   UNL     1       9.180  64.672   8.487  1.00  0.00    -0.031 C 
ENDROOT
BRANCH   1   3
ATOM      3  C   UNL     1      11.058  63.043   8.953  1.00  0.00     0.027 C 
BRANCH   3   4
ATOM      4  C   UNL     1      11.593  62.011   7.954  1.00  0.00     0.004 C 
BRANCH   4   5
ATOM      5  C   UNL     1      12.659  62.634   7.039  1.00  0.00     0.000 C 
BRANCH   5   6
ATOM      6  C   UNL     1      13.310  63.886   7.652  1.00  0.00     0.000 C 
BRANCH   6   7
ATOM      7  C   UNL     1      13.243  65.104   6.715  1.00  0.00     0.000 C 
BRANCH   7   8
ATOM      8  C   UNL     1      12.474  64.810   5.413  1.00  0.00     0.006 C 
BRANCH   8   9
ATOM      9  C   UNL     1      11.483  65.911   4.999  1.00  0.00     0.053 C 
BRANCH   9  10
ATOM     10  C   UNL     1      11.205  65.893   3.528  1.00  0.00     0.041 C 
ATOM     11  O   UNL     1      12.142  66.066   2.704  1.00  0.00    -0.550 OA
ATOM     12  O   UNL     1       9.918  65.654   3.065  1.00  0.00    -0.550 OA
ENDBRANCH   9  10
ENDBRANCH   8   9
ENDBRANCH   7   8
ENDBRANCH   6   7
ENDBRANCH   5   6
ENDBRANCH   4   5
ENDBRANCH   3   4
ENDBRANCH   1   3
BRANCH   2  13
ATOM     13  C   UNL     1      10.047  65.906   8.536  1.00  0.00     0.027 C 
BRANCH  13  14
ATOM     14  C   UNL     1       9.223  67.198   8.419  1.00  0.00     0.004 C 
BRANCH  14  15
ATOM     15  C   UNL     1       8.216  67.208   7.251  1.00  0.00     0.000 C 
BRANCH  15  16
ATOM     16  C   UNL     1       6.761  67.548   7.640  1.00  0.00     0.000 C 
BRANCH  16  17
ATOM     17  C   UNL     1       5.755  66.394   7.486  1.00  0.00    -0.000 C 
BRANCH  17  18
ATOM     18  C   UNL     1       4.847  66.226   8.716  1.00  0.00    -0.000 C 
BRANCH  18  19
ATOM     19  C   UNL     1       4.828  64.782   9.241  1.00  0.00    -0.003 C 
ATOM     20  C   UNL     1       5.751  63.852   8.455  1.00  0.00     0.004 C 
ENDBRANCH  18  19
ENDBRANCH  17  18
ENDBRANCH  16  17
ENDBRANCH  15  16
ENDBRANCH  14  15
ENDBRANCH  13  14
ENDBRANCH   2  13
TORSDOF 15
ENDMDL
MODEL 2
REMARK VINA RESULT:    -3.971      3.164      6.379
REMARK INTER + INTRA:          -9.609
REMARK INTER:                  -7.694
REMARK INTRA:                  -1.914
REMARK UNBOUND:                -2.155
REMARK SMILES CCCCCCCCC=CCCCCCCCC(=O)[O-]
REMARK SMILES IDX 10 1 9 2 11 3 12 4 13 5 14 6 15 7 16 8 17 9 18 10 19 11
REMARK SMILES IDX 20 12 8 13 7 14 6 15 5 16 4 17 3 18 2 19 1 20
REMARK H PARENT
REMARK Flexibility Score: inf
ROOT
ATOM      1  C   UNL     1      11.589  62.409   7.869  1.00  0.00    -0.031 C 
ATOM      2  C   UNL     1      12.814  62.830   7.498  1.00  0.00    -0.031 C 
ENDROOT
BRANCH   1   3
ATOM      3  C   UNL     1      10.805  62.972   9.026  1.00  0.00     0.027 C 
BRANCH   3   4
ATOM      4  C   UNL     1       9.409  63.413   8.572  1.00  0.00     0.004 C 
BRANCH   4   5
ATOM      5  C   UNL     1       9.189  64.908   8.848  1.00  0.00     0.000 C 
BRANCH   5   6
ATOM      6  C   UNL     1       7.701  65.299   8.857  1.00  0.00     0.000 C 
BRANCH   6   7
ATOM      7  C   UNL     1       6.776  64.100   8.590  1.00  0.00     0.000 C 
BRANCH   7   8
ATOM      8  C   UNL     1       5.296  64.508   8.461  1.00  0.00     0.006 C 
BRANCH   8   9
ATOM      9  C   UNL     1       5.060  65.790   7.646  1.00  0.00     0.053 C 
BRANCH   9  10
ATOM     10  C   UNL     1       4.145  66.744   8.349  1.00  0.00     0.041 C 
ATOM     11  O   UNL     1       3.351  67.464   7.688  1.00  0.00    -0.550 OA
ATOM     12  O   UNL     1       4.145  66.815   9.736  1.00  0.00    -0.550 OA
ENDBRANCH   9  10
ENDBRANCH   8   9
ENDBRANCH   7   8
ENDBRANCH   6   7
ENDBRANCH   5   6
ENDBRANCH   4   5
ENDBRANCH   3   4
ENDBRANCH   1   3
BRANCH   2  13
ATOM     13  C   UNL     1      13.629  63.860   8.240  1.00  0.00     0.027 C 
BRANCH  13  14
ATOM     14  C   UNL     1      13.729  65.186   7.467  1.00  0.00     0.004 C 
BRANCH  14  15
ATOM     15  C   UNL     1      12.591  66.184   7.766  1.00  0.00     0.000 C 
BRANCH  15  16
ATOM     16  C   UNL     1      11.839  66.712   6.526  1.00  0.00     0.000 C 
BRANCH  16  17
ATOM     17  C   UNL     1      11.218  65.629   5.627  1.00  0.00    -0.000 C 
BRANCH  17  18
ATOM     18  C   UNL     1      11.843  65.591   4.222  1.00  0.00    -0.000 C 
BRANCH  18  19
ATOM     19  C   UNL     1      10.785  65.562   3.107  1.00  0.00    -0.003 C 
ATOM     20  C   UNL     1       9.623  66.520   3.367  1.00  0.00     0.004 C 
ENDBRANCH  18  19
ENDBRANCH  17  18
ENDBRANCH  16  17
ENDBRANCH  15  16
ENDBRANCH  14  15
ENDBRANCH  13  14
ENDBRANCH   2  13
TORSDOF 15
ENDMDL
MODEL 3
REMARK VINA RESULT:    -3.956      2.700      6.299
REMARK INTER + INTRA:          -9.579
REMARK INTER:                  -7.410
REMARK INTRA:                  -2.170
REMARK UNBOUND:                -2.155
REMARK SMILES CCCCCCCCC=CCCCCCCCC(=O)[O-]
REMARK SMILES IDX 10 1 9 2 11 3 12 4 13 5 14 6 15 7 16 8 17 9 18 10 19 11
REMARK SMILES IDX 20 12 8 13 7 14 6 15 5 16 4 17 3 18 2 19 1 20
REMARK H PARENT
REMARK Flexibility Score: inf
ROOT
ATOM      1  C   UNL     1      10.947  62.957   8.815  1.00  0.00    -0.031 C 
ATOM      2  C   UNL     1      11.612  62.397   7.787  1.00  0.00    -0.031 C 
ENDROOT
BRANCH   1   3
ATOM      3  C   UNL     1      11.448  64.121   9.628  1.00  0.00     0.027 C 
BRANCH   3   4
ATOM      4  C   UNL     1      10.556  65.351   9.425  1.00  0.00     0.004 C 
BRANCH   4   5
ATOM      5  C   UNL     1       9.220  64.958   8.776  1.00  0.00     0.000 C 
BRANCH   5   6
ATOM      6  C   UNL     1       8.354  66.176   8.415  1.00  0.00     0.000 C 
BRANCH   6   7
ATOM      7  C   UNL     1       7.097  66.287   9.295  1.00  0.00     0.000 C 
BRANCH   7   8
ATOM      8  C   UNL     1       5.845  66.690   8.494  1.00  0.00     0.006 C 
BRANCH   8   9
ATOM      9  C   UNL     1       5.127  65.518   7.805  1.00  0.00     0.053 C 
BRANCH   9  10
ATOM     10  C   UNL     1       5.217  64.255   8.603  1.00  0.00     0.041 C 
ATOM     11  O   UNL     1       6.027  63.351   8.269  1.00  0.00    -0.550 OA
ATOM     12  O   UNL     1       4.429  64.089   9.735  1.00  0.00    -0.550 OA
ENDBRANCH   9  10
ENDBRANCH   8   9
ENDBRANCH   7   8
ENDBRANCH   6   7
ENDBRANCH   5   6
ENDBRANCH   4   5
ENDBRANCH   3   4
ENDBRANCH   1   3
BRANCH   2  13
ATOM     13  C   UNL     1      13.004  62.785   7.352  1.00  0.00     0.027 C 
BRANCH  13  14
ATOM     14  C   UNL     1      12.988  63.784   6.182  1.00  0.00     0.004 C 
BRANCH  14  15
ATOM     15  C   UNL     1      13.439  65.210   6.557  1.00  0.00     0.000 C 
BRANCH  15  16
ATOM     16  C   UNL     1      12.352  66.298   6.430  1.00  0.00     0.000 C 
BRANCH  16  17
ATOM     17  C   UNL     1      11.041  65.839   5.767  1.00  0.00    -0.000 C 
BRANCH  17  18
ATOM     18  C   UNL     1      10.672  66.678   4.532  1.00  0.00    -0.000 C 
BRANCH  18  19
ATOM     19  C   UNL     1      10.739  65.867   3.227  1.00  0.00    -0.003 C 
ATOM     20  C   UNL     1      12.132  65.303   2.950  1.00  0.00     0.004 C 
ENDBRANCH  18  19
ENDBRANCH  17  18
ENDBRANCH  16  17
ENDBRANCH  15  16
ENDBRANCH  14  15
ENDBRANCH  13  14
ENDBRANCH   2  13
TORSDOF 15
ENDMDL
MODEL 4
REMARK VINA RESULT:    -3.927      1.204      2.175
REMARK INTER + INTRA:          -9.525
REMARK INTER:                  -7.664
REMARK INTRA:                  -1.861
REMARK UNBOUND:                -2.155
REMARK SMILES CCCCCCCCC=CCCCCCCCC(=O)[O-]
REMARK SMILES IDX 10 1 9 2 11 3 12 4 13 5 14 6 15 7 16 8 17 9 18 10 19 11
REMARK SMILES IDX 20 12 8 13 7 14 6 15 5 16 4 17 3 18 2 19 1 20
REMARK H PARENT
REMARK Flexibility Score: inf
ROOT
ATOM      1  C   UNL     1      10.395  63.123   8.858  1.00  0.00    -0.031 C 
ATOM      2  C   UNL     1       9.240  63.712   8.495  1.00  0.00    -0.031 C 
ENDROOT
BRANCH   1   3
ATOM      3  C   UNL     1      11.497  63.801   9.630  1.00  0.00     0.027 C 
BRANCH   3   4
ATOM      4  C   UNL     1      12.742  63.981   8.755  1.00  0.00     0.004 C 
BRANCH   4   5
ATOM      5  C   UNL     1      12.726  63.004   7.569  1.00  0.00     0.000 C 
BRANCH   5   6
ATOM      6  C   UNL     1      12.965  63.702   6.220  1.00  0.00     0.000 C 
BRANCH   6   7
ATOM      7  C   UNL     1      12.718  65.219   6.290  1.00  0.00     0.000 C 
BRANCH   7   8
ATOM      8  C   UNL     1      11.301  65.611   5.829  1.00  0.00     0.006 C 
BRANCH   8   9
ATOM      9  C   UNL     1      11.267  66.604   4.655  1.00  0.00     0.053 C 
BRANCH   9  10
ATOM     10  C   UNL     1      11.305  65.910   3.329  1.00  0.00     0.041 C 
ATOM     11  O   UNL     1      10.300  65.270   2.920  1.00  0.00    -0.550 OA
ATOM     12  O   UNL     1      12.438  65.996   2.530  1.00  0.00    -0.550 OA
ENDBRANCH   9  10
ENDBRANCH   8   9
ENDBRANCH   7   8
ENDBRANCH   6   7
ENDBRANCH   5   6
ENDBRANCH   4   5
ENDBRANCH   3   4
ENDBRANCH   1   3
BRANCH   2  13
ATOM     13  C   UNL     1       8.911  65.168   8.719  1.00  0.00     0.027 C 
BRANCH  13  14
ATOM     14  C   UNL     1       7.426  65.381   9.060  1.00  0.00     0.004 C 
BRANCH  14  15
ATOM     15  C   UNL     1       6.503  64.220   8.636  1.00  0.00     0.000 C 
BRANCH  15  16
ATOM     16  C   UNL     1       5.007  64.580   8.515  1.00  0.00     0.000 C 
BRANCH  16  17
ATOM     17  C   UNL     1       4.635  65.997   8.987  1.00  0.00    -0.000 C 
BRANCH  17  18
ATOM     18  C   UNL     1       4.034  66.861   7.865  1.00  0.00    -0.000 C 
BRANCH  18  19
ATOM     19  C   UNL     1       4.495  66.414   6.468  1.00  0.00    -0.003 C 
ATOM     20  C   UNL     1       5.658  67.248   5.932  1.00  0.00     0.004 C 
ENDBRANCH  18  19
ENDBRANCH  17  18
ENDBRANCH  16  17
ENDBRANCH  15  16
ENDBRANCH  14  15
ENDBRANCH  13  14
ENDBRANCH   2  13
TORSDOF 15
ENDMDL
MODEL 5
REMARK VINA RESULT:    -3.878      1.249      2.745
REMARK INTER + INTRA:          -9.434
REMARK INTER:                  -7.579
REMARK INTRA:                  -1.855
REMARK UNBOUND:                -2.155
REMARK SMILES CCCCCCCCC=CCCCCCCCC(=O)[O-]
REMARK SMILES IDX 10 1 9 2 11 3 12 4 13 5 14 6 15 7 16 8 17 9 18 10 19 11
REMARK SMILES IDX 20 12 8 13 7 14 6 15 5 16 4 17 3 18 2 19 1 20
REMARK H PARENT
REMARK Flexibility Score: inf
ROOT
ATOM      1  C   UNL     1      12.711  62.682   7.430  1.00  0.00    -0.031 C 
ATOM      2  C   UNL     1      11.570  62.196   7.955  1.00  0.00    -0.031 C 
ENDROOT
BRANCH   1   3
ATOM      3  C   UNL     1      13.509  63.817   8.016  1.00  0.00     0.027 C 
BRANCH   3   4
ATOM      4  C   UNL     1      13.973  64.779   6.917  1.00  0.00     0.004 C 
BRANCH   4   5
ATOM      5  C   UNL     1      13.245  66.128   7.024  1.00  0.00     0.000 C 
BRANCH   5   6
ATOM      6  C   UNL     1      12.528  66.522   5.722  1.00  0.00     0.000 C 
BRANCH   6   7
ATOM      7  C   UNL     1      11.848  65.324   5.038  1.00  0.00     0.000 C 
BRANCH   7   8
ATOM      8  C   UNL     1      11.907  65.405   3.501  1.00  0.00     0.006 C 
BRANCH   8   9
ATOM      9  C   UNL     1      10.670  66.046   2.850  1.00  0.00     0.053 C 
BRANCH   9  10
ATOM     10  C   UNL     1      11.005  67.323   2.143  1.00  0.00     0.041 C 
ATOM     11  O   UNL     1      12.027  67.980   2.472  1.00  0.00    -0.550 OA
ATOM     12  O   UNL     1      10.206  67.770   1.098  1.00  0.00    -0.550 OA
ENDBRANCH   9  10
ENDBRANCH   8   9
ENDBRANCH   7   8
ENDBRANCH   6   7
ENDBRANCH   5   6
ENDBRANCH   4   5
ENDBRANCH   3   4
ENDBRANCH   1   3
BRANCH   2  13
ATOM     13  C   UNL     1      10.863  62.776   9.156  1.00  0.00     0.027 C 
BRANCH  13  14
ATOM     14  C   UNL     1       9.547  63.473   8.773  1.00  0.00     0.004 C 
BRANCH  14  15
ATOM     15  C   UNL     1       9.726  64.876   8.158  1.00  0.00     0.000 C 
BRANCH  15  16
ATOM     16  C   UNL     1       9.004  66.018   8.905  1.00  0.00     0.000 C 
BRANCH  16  17
ATOM     17  C   UNL     1       7.545  66.259   8.479  1.00  0.00    -0.000 C 
BRANCH  17  18
ATOM     18  C   UNL     1       6.540  65.991   9.613  1.00  0.00    -0.000 C 
BRANCH  18  19
ATOM     19  C   UNL     1       5.386  65.075   9.172  1.00  0.00    -0.003 C 
ATOM     20  C   UNL     1       5.864  63.855   8.385  1.00  0.00     0.004 C 
ENDBRANCH  18  19
ENDBRANCH  17  18
ENDBRANCH  16  17
ENDBRANCH  15  16
ENDBRANCH  14  15
ENDBRANCH  13  14
ENDBRANCH   2  13
TORSDOF 15
ENDMDL
MODEL 6
REMARK VINA RESULT:    -3.876      2.563      6.680
REMARK INTER + INTRA:          -9.431
REMARK INTER:                  -7.174
REMARK INTRA:                  -2.257
REMARK UNBOUND:                -2.155
REMARK SMILES CCCCCCCCC=CCCCCCCCC(=O)[O-]
REMARK SMILES IDX 10 1 9 2 11 3 12 4 13 5 14 6 15 7 16 8 17 9 18 10 19 11
REMARK SMILES IDX 20 12 8 13 7 14 6 15 5 16 4 17 3 18 2 19 1 20
REMARK H PARENT
REMARK Flexibility Score: inf
ROOT
ATOM      1  C   UNL     1       9.390  64.769   8.585  1.00  0.00    -0.031 C 
ATOM      2  C   UNL     1       9.840  63.511   8.410  1.00  0.00    -0.031 C 
ENDROOT
BRANCH   1   3
ATOM      3  C   UNL     1      10.197  65.893   9.181  1.00  0.00     0.027 C 
BRANCH   3   4
ATOM      4  C   UNL     1       9.686  67.250   8.685  1.00  0.00     0.004 C 
BRANCH   4   5
ATOM      5  C   UNL     1       8.671  67.072   7.546  1.00  0.00     0.000 C 
BRANCH   5   6
ATOM      6  C   UNL     1       7.720  68.272   7.404  1.00  0.00     0.000 C 
BRANCH   6   7
ATOM      7  C   UNL     1       6.278  67.933   7.817  1.00  0.00     0.000 C 
BRANCH   7   8
ATOM      8  C   UNL     1       6.177  66.602   8.584  1.00  0.00     0.006 C 
BRANCH   8   9
ATOM      9  C   UNL     1       5.359  65.515   7.867  1.00  0.00     0.053 C 
BRANCH   9  10
ATOM     10  C   UNL     1       5.328  64.232   8.638  1.00  0.00     0.041 C 
ATOM     11  O   UNL     1       4.435  64.034   9.503  1.00  0.00    -0.550 OA
ATOM     12  O   UNL     1       6.266  63.241   8.379  1.00  0.00    -0.550 OA
ENDBRANCH   9  10
ENDBRANCH   8   9
ENDBRANCH   7   8
ENDBRANCH   6   7
ENDBRANCH   5   6
ENDBRANCH   4   5
ENDBRANCH   3   4
ENDBRANCH   1   3
BRANCH   2  13
ATOM     13  C   UNL     1      11.187  63.010   8.871  1.00  0.00     0.027 C 
BRANCH  13  14
ATOM     14  C   UNL     1      11.842  62.077   7.839  1.00  0.00     0.004 C 
BRANCH  14  15
ATOM     15  C   UNL     1      12.565  62.807   6.689  1.00  0.00     0.000 C 
BRANCH  15  16
ATOM     16  C   UNL     1      13.351  64.070   7.104  1.00  0.00     0.000 C 
BRANCH  16  17
ATOM     17  C   UNL     1      13.182  65.282   6.171  1.00  0.00    -0.000 C 
BRANCH  17  18
ATOM     18  C   UNL     1      11.706  65.637   5.916  1.00  0.00    -0.000 C 
BRANCH  18  19
ATOM     19  C   UNL     1      11.416  65.914   4.432  1.00  0.00    -0.003 C 
ATOM     20  C   UNL     1      12.104  64.919   3.497  1.00  0.00     0.004 C 
ENDBRANCH  18  19
ENDBRANCH  17  18
ENDBRANCH  16  17
ENDBRANCH  15  16
ENDBRANCH  14  15
ENDBRANCH  13  14
ENDBRANCH   2  13
TORSDOF 15
ENDMDL
MODEL 7
REMARK VINA RESULT:    -3.856      2.313      5.326
REMARK INTER + INTRA:          -9.393
REMARK INTER:                  -6.934
REMARK INTRA:                  -2.459
REMARK UNBOUND:                -2.155
REMARK SMILES CCCCCCCCC=CCCCCCCCC(=O)[O-]
REMARK SMILES IDX 10 1 9 2 11 3 12 4 13 5 14 6 15 7 16 8 17 9 18 10 19 11
REMARK SMILES IDX 20 12 8 13 7 14 6 15 5 16 4 17 3 18 2 19 1 20
REMARK H PARENT
REMARK Flexibility Score: inf
ROOT
ATOM      1  C   UNL     1       9.460  64.172   8.592  1.00  0.00    -0.031 C 
ATOM      2  C   UNL     1      10.080  63.102   9.126  1.00  0.00    -0.031 C 
ENDROOT
BRANCH   1   3
ATOM      3  C   UNL     1      10.096  65.136   7.625  1.00  0.00     0.027 C 
BRANCH   3   4
ATOM      4  C   UNL     1       9.420  66.509   7.703  1.00  0.00     0.004 C 
BRANCH   4   5
ATOM      5  C   UNL     1       9.774  67.367   6.478  1.00  0.00     0.000 C 
BRANCH   5   6
ATOM      6  C   UNL     1      10.586  66.593   5.426  1.00  0.00     0.000 C 
BRANCH   6   7
ATOM      7  C   UNL     1      10.007  66.742   4.009  1.00  0.00     0.000 C 
BRANCH   7   8
ATOM      8  C   UNL     1      10.652  65.776   2.999  1.00  0.00     0.006 C 
BRANCH   8   9
ATOM      9  C   UNL     1      12.175  65.934   2.851  1.00  0.00     0.053 C 
BRANCH   9  10
ATOM     10  C   UNL     1      12.545  66.694   1.615  1.00  0.00     0.041 C 
ATOM     11  O   UNL     1      13.745  66.744   1.238  1.00  0.00    -0.550 OA
ATOM     12  O   UNL     1      11.560  67.319   0.862  1.00  0.00    -0.550 OA
ENDBRANCH   9  10
ENDBRANCH   8   9
ENDBRANCH   7   8
ENDBRANCH   6   7
ENDBRANCH   5   6
ENDBRANCH   4   5
ENDBRANCH   3   4
ENDBRANCH   1   3
BRANCH   2  13
ATOM     13  C   UNL     1      11.534  62.759   8.916  1.00  0.00     0.027 C 
BRANCH  13  14
ATOM     14  C   UNL     1      11.778  62.073   7.562  1.00  0.00     0.004 C 
BRANCH  14  15
ATOM     15  C   UNL     1      12.832  62.770   6.676  1.00  0.00     0.000 C 
BRANCH  15  16
ATOM     16  C   UNL     1      13.644  63.882   7.373  1.00  0.00     0.000 C 
BRANCH  16  17
ATOM     17  C   UNL     1      13.649  65.240   6.649  1.00  0.00    -0.000 C 
BRANCH  17  18
ATOM     18  C   UNL     1      13.691  66.433   7.620  1.00  0.00    -0.000 C 
BRANCH  18  19
ATOM     19  C   UNL     1      13.318  66.034   9.058  1.00  0.00    -0.003 C 
ATOM     20  C   UNL     1      12.479  67.096   9.769  1.00  0.00     0.004 C 
ENDBRANCH  18  19
ENDBRANCH  17  18
ENDBRANCH  16  17
ENDBRANCH  15  16
ENDBRANCH  14  15
ENDBRANCH  13  14
ENDBRANCH   2  13
TORSDOF 15
ENDMDL
MODEL 8
REMARK VINA RESULT:    -3.852      2.634      4.739
REMARK INTER + INTRA:          -9.384
REMARK INTER:                  -6.961
REMARK INTRA:                  -2.423
REMARK UNBOUND:                -2.155
REMARK SMILES CCCCCCCCC=CCCCCCCCC(=O)[O-]
REMARK SMILES IDX 10 1 9 2 11 3 12 4 13 5 14 6 15 7 16 8 17 9 18 10 19 11
REMARK SMILES IDX 20 12 8 13 7 14 6 15 5 16 4 17 3 18 2 19 1 20
REMARK H PARENT
REMARK Flexibility Score: inf
ROOT
ATOM      1  C   UNL     1      12.740  62.656   7.120  1.00  0.00    -0.031 C 
ATOM      2  C   UNL     1      11.664  62.139   7.742  1.00  0.00    -0.031 C 
ENDROOT
BRANCH   1   3
ATOM      3  C   UNL     1      13.562  63.806   7.643  1.00  0.00     0.027 C 
BRANCH   3   4
ATOM      4  C   UNL     1      13.655  64.926   6.601  1.00  0.00     0.004 C 
BRANCH   4   5
ATOM      5  C   UNL     1      12.619  64.725   5.485  1.00  0.00     0.000 C 
BRANCH   5   6
ATOM      6  C   UNL     1      11.702  65.945   5.298  1.00  0.00     0.000 C 
BRANCH   6   7
ATOM      7  C   UNL     1      11.149  66.054   3.867  1.00  0.00     0.000 C 
BRANCH   7   8
ATOM      8  C   UNL     1      12.218  65.776   2.794  1.00  0.00     0.006 C 
BRANCH   8   9
ATOM      9  C   UNL     1      12.698  67.025   2.037  1.00  0.00     0.053 C 
BRANCH   9  10
ATOM     10  C   UNL     1      11.886  67.283   0.806  1.00  0.00     0.041 C 
ATOM     11  O   UNL     1      12.295  66.888  -0.318  1.00  0.00    -0.550 OA
ATOM     12  O   UNL     1      10.662  67.932   0.902  1.00  0.00    -0.550 OA
ENDBRANCH   9  10
ENDBRANCH   8   9
ENDBRANCH   7   8
ENDBRANCH   6   7
ENDBRANCH   5   6
ENDBRANCH   4   5
ENDBRANCH   3   4
ENDBRANCH   1   3
BRANCH   2  13
ATOM     13  C   UNL     1      11.055  62.691   9.007  1.00  0.00     0.027 C 
BRANCH  13  14
ATOM     14  C   UNL     1       9.707  63.383   8.748  1.00  0.00     0.004 C 
BRANCH  14  15
ATOM     15  C   UNL     1       9.824  64.817   8.191  1.00  0.00     0.000 C 
BRANCH  15  16
ATOM     16  C   UNL     1      10.142  65.905   9.238  1.00  0.00     0.000 C 
BRANCH  16  17
ATOM     17  C   UNL     1      11.494  66.617   9.053  1.00  0.00    -0.000 C 
BRANCH  17  18
ATOM     18  C   UNL     1      12.533  66.205  10.110  1.00  0.00    -0.000 C 
BRANCH  18  19
ATOM     19  C   UNL     1      13.900  66.870   9.881  1.00  0.00    -0.003 C 
ATOM     20  C   UNL     1      13.874  67.909   8.761  1.00  0.00     0.004 C 
ENDBRANCH  18  19
ENDBRANCH  17  18
ENDBRANCH  16  17
ENDBRANCH  15  16
ENDBRANCH  14  15
ENDBRANCH  13  14
ENDBRANCH   2  13
TORSDOF 15
ENDMDL
MODEL 9
REMARK VINA RESULT:    -3.789      2.352      4.198
REMARK INTER + INTRA:          -9.267
REMARK INTER:                  -6.747
REMARK INTRA:                  -2.520
REMARK UNBOUND:                -2.155
REMARK SMILES CCCCCCCCC=CCCCCCCCC(=O)[O-]
REMARK SMILES IDX 10 1 9 2 11 3 12 4 13 5 14 6 15 7 16 8 17 9 18 10 19 11
REMARK SMILES IDX 20 12 8 13 7 14 6 15 5 16 4 17 3 18 2 19 1 20
REMARK H PARENT
REMARK Flexibility Score: inf
ROOT
ATOM      1  C   UNL     1      12.702  62.621   7.296  1.00  0.00    -0.031 C 
ATOM      2  C   UNL     1      11.575  62.227   7.920  1.00  0.00    -0.031 C 
ENDROOT
BRANCH   1   3
ATOM      3  C   UNL     1      13.555  63.787   7.721  1.00  0.00     0.027 C 
BRANCH   3   4
ATOM      4  C   UNL     1      13.571  64.872   6.638  1.00  0.00     0.004 C 
BRANCH   4   5
ATOM      5  C   UNL     1      12.629  64.507   5.481  1.00  0.00     0.000 C 
BRANCH   5   6
ATOM      6  C   UNL     1      12.202  65.731   4.653  1.00  0.00     0.000 C 
BRANCH   6   7
ATOM      7  C   UNL     1      11.578  65.340   3.303  1.00  0.00     0.000 C 
BRANCH   7   8
ATOM      8  C   UNL     1      10.160  65.911   3.117  1.00  0.00     0.006 C 
BRANCH   8   9
ATOM      9  C   UNL     1       9.739  66.930   4.190  1.00  0.00     0.053 C 
BRANCH   9  10
ATOM     10  C   UNL     1       9.653  68.321   3.642  1.00  0.00     0.041 C 
ATOM     11  O   UNL     1      10.662  68.856   3.112  1.00  0.00    -0.550 OA
ATOM     12  O   UNL     1       8.451  69.014   3.687  1.00  0.00    -0.550 OA
ENDBRANCH   9  10
ENDBRANCH   8   9
ENDBRANCH   7   8
ENDBRANCH   6   7
ENDBRANCH   5   6
ENDBRANCH   4   5
ENDBRANCH   3   4
ENDBRANCH   1   3
BRANCH   2  13
ATOM     13  C   UNL     1      10.941  62.951   9.083  1.00  0.00     0.027 C 
BRANCH  13  14
ATOM     14  C   UNL     1       9.678  63.723   8.665  1.00  0.00     0.004 C 
BRANCH  14  15
ATOM     15  C   UNL     1       9.955  64.999   7.844  1.00  0.00     0.000 C 
BRANCH  15  16
ATOM     16  C   UNL     1       9.347  66.296   8.420  1.00  0.00     0.000 C 
BRANCH  16  17
ATOM     17  C   UNL     1      10.229  67.036   9.441  1.00  0.00    -0.000 C 
BRANCH  17  18
ATOM     18  C   UNL     1      11.716  67.049   9.045  1.00  0.00    -0.000 C 
BRANCH  18  19
ATOM     19  C   UNL     1      12.603  66.320  10.067  1.00  0.00    -0.003 C 
ATOM     20  C   UNL     1      11.820  65.811  11.276  1.00  0.00     0.004 C 
ENDBRANCH  18  19
ENDBRANCH  17  18
ENDBRANCH  16  17
ENDBRANCH  15  16
ENDBRANCH  14  15
ENDBRANCH  13  14
ENDBRANCH   2  13
TORSDOF 15
ENDMDL
