MODEL 1
REMARK VINA RESULT:    -5.268      0.000      0.000
REMARK INTER + INTRA:          -5.741
REMARK INTER:                  -5.730
REMARK INTRA:                  -0.011
REMARK UNBOUND:                -0.011
REMARK SMILES OCc1ccccc1
REMARK SMILES IDX 2 1 3 2 6 3 5 4 7 5 4 6 8 7 1 8
REMARK H PARENT 1 9
REMARK Flexibility Score: inf
ROOT
ATOM      1  C   UNL     1      95.517 128.337  42.946  1.00  0.00     0.191 C 
ENDROOT
BRANCH   1   2
ATOM      2  C   UNL     1      96.289 129.008  44.048  1.00  0.00    -0.023 A 
ATOM      3  C   UNL     1      97.774 130.195  46.111  1.00  0.00     0.000 A 
ATOM      4  C   UNL     1      98.181 130.346  44.782  1.00  0.00     0.000 A 
ATOM      5  C   UNL     1      96.634 129.446  46.413  1.00  0.00     0.000 A 
ATOM      6  C   UNL     1      97.445 129.751  43.753  1.00  0.00     0.006 A 
ATOM      7  C   UNL     1      95.896 128.849  45.387  1.00  0.00     0.006 A 
ENDBRANCH   1   2
BRANCH   1   8
ATOM      8  O   UNL     1      95.799 126.965  42.929  1.00  0.00    -0.392 OA
ATOM      9  H   UNL     1      96.741 126.866  43.225  1.00  0.00     0.211 HD
ENDBRANCH   1   8
TORSDOF 2
ENDMDL
MODEL 2
REMARK VINA RESULT:    -5.106      2.288      2.859
REMARK INTER + INTRA:          -5.564
REMARK INTER:                  -5.545
REMARK INTRA:                  -0.020
REMARK UNBOUND:                -0.011
REMARK SMILES OCc1ccccc1
REMARK SMILES IDX 2 1 3 2 6 3 5 4 7 5 4 6 8 7 1 8
REMARK H PARENT 1 9
REMARK Flexibility Score: inf
ROOT
ATOM      1  C   UNL     1      98.058 130.571  44.131  1.00  0.00     0.191 C 
ENDROOT
BRANCH   1   2
ATOM      2  C   UNL     1      97.771 129.546  45.192  1.00  0.00    -0.023 A 
ATOM      3  C   UNL     1      97.190 127.592  47.121  1.00  0.00     0.000 A 
ATOM      4  C   UNL     1      98.321 127.458  46.310  1.00  0.00     0.000 A 
ATOM      5  C   UNL     1      96.344 128.693  46.965  1.00  0.00     0.000 A 
ATOM      6  C   UNL     1      98.609 128.428  45.345  1.00  0.00     0.006 A 
ATOM      7  C   UNL     1      96.628 129.665  46.000  1.00  0.00     0.006 A 
ENDBRANCH   1   2
BRANCH   1   8
ATOM      8  O   UNL     1      99.160 130.171  43.363  1.00  0.00    -0.392 OA
ATOM      9  H   UNL     1      99.403 129.259  43.670  1.00  0.00     0.211 HD
ENDBRANCH   1   8
TORSDOF 2
ENDMDL
MODEL 3
REMARK VINA RESULT:    -4.463      8.347      9.819
REMARK INTER + INTRA:          -4.865
REMARK INTER:                  -4.847
REMARK INTRA:                  -0.018
REMARK UNBOUND:                -0.011
REMARK SMILES OCc1ccccc1
REMARK SMILES IDX 2 1 3 2 6 3 5 4 7 5 4 6 8 7 1 8
REMARK H PARENT 1 9
REMARK Flexibility Score: inf
ROOT
ATOM      1  C   UNL     1      99.439 134.154  50.477  1.00  0.00     0.191 C 
ENDROOT
BRANCH   1   2
ATOM      2  C   UNL     1     100.789 134.814  50.517  1.00  0.00    -0.023 A 
ATOM      3  C   UNL     1     103.283 136.094  50.651  1.00  0.00     0.000 A 
ATOM      4  C   UNL     1     103.023 134.985  51.460  1.00  0.00     0.000 A 
ATOM      5  C   UNL     1     102.298 136.572  49.782  1.00  0.00     0.000 A 
ATOM      6  C   UNL     1     101.780 134.349  51.399  1.00  0.00     0.006 A 
ATOM      7  C   UNL     1     101.052 135.939  49.719  1.00  0.00     0.006 A 
ENDBRANCH   1   2
BRANCH   1   8
ATOM      8  O   UNL     1      98.775 134.491  49.291  1.00  0.00    -0.392 OA
ATOM      9  H   UNL     1      98.470 133.638  48.884  1.00  0.00     0.211 HD
ENDBRANCH   1   8
TORSDOF 2
ENDMDL
MODEL 4
REMARK VINA RESULT:    -4.458      8.365      9.753
REMARK INTER + INTRA:          -4.860
REMARK INTER:                  -4.841
REMARK INTRA:                  -0.019
REMARK UNBOUND:                -0.011
REMARK SMILES OCc1ccccc1
REMARK SMILES IDX 2 1 3 2 6 3 5 4 7 5 4 6 8 7 1 8
REMARK H PARENT 1 9
REMARK Flexibility Score: inf
ROOT
ATOM      1  C   UNL     1      99.464 134.155  50.489  1.00  0.00     0.191 C 
ENDROOT
BRANCH   1   2
ATOM      2  C   UNL     1     100.796 134.852  50.546  1.00  0.00    -0.023 A 
ATOM      3  C   UNL     1     103.307 136.102  50.595  1.00  0.00     0.000 A 
ATOM      4  C   UNL     1     102.314 136.565  49.727  1.00  0.00     0.000 A 
ATOM      5  C   UNL     1     103.053 135.012  51.431  1.00  0.00     0.000 A 
ATOM      6  C   UNL     1     101.063 135.939  49.697  1.00  0.00     0.006 A 
ATOM      7  C   UNL     1     101.804 134.384  51.404  1.00  0.00     0.006 A 
ENDBRANCH   1   2
BRANCH   1   8
ATOM      8  O   UNL     1      98.794 134.496  49.307  1.00  0.00    -0.392 OA
ATOM      9  H   UNL     1      99.430 134.329  48.563  1.00  0.00     0.211 HD
ENDBRANCH   1   8
TORSDOF 2
ENDMDL
MODEL 5
REMARK VINA RESULT:    -4.423      9.214     10.369
REMARK INTER + INTRA:          -4.821
REMARK INTER:                  -4.807
REMARK INTRA:                  -0.014
REMARK UNBOUND:                -0.011
REMARK SMILES OCc1ccccc1
REMARK SMILES IDX 2 1 3 2 6 3 5 4 7 5 4 6 8 7 1 8
REMARK H PARENT 1 9
REMARK Flexibility Score: inf
ROOT
ATOM      1  C   UNL     1     102.470 130.813  53.430  1.00  0.00     0.191 C 
ENDROOT
BRANCH   1   2
ATOM      2  C   UNL     1     102.866 131.693  52.277  1.00  0.00    -0.023 A 
ATOM      3  C   UNL     1     103.674 133.297  50.121  1.00  0.00     0.000 A 
ATOM      4  C   UNL     1     102.981 132.106  49.884  1.00  0.00     0.000 A 
ATOM      5  C   UNL     1     103.973 133.684  51.430  1.00  0.00     0.000 A 
ATOM      6  C   UNL     1     102.582 131.303  50.957  1.00  0.00     0.006 A 
ATOM      7  C   UNL     1     103.576 132.883  52.505  1.00  0.00     0.006 A 
ENDBRANCH   1   2
BRANCH   1   8
ATOM      8  O   UNL     1     102.857 129.490  53.180  1.00  0.00    -0.392 OA
ATOM      9  H   UNL     1     102.462 128.938  53.904  1.00  0.00     0.211 HD
ENDBRANCH   1   8
TORSDOF 2
ENDMDL
MODEL 6
REMARK VINA RESULT:    -4.249      8.452      8.805
REMARK INTER + INTRA:          -4.632
REMARK INTER:                  -4.617
REMARK INTRA:                  -0.015
REMARK UNBOUND:                -0.011
REMARK SMILES OCc1ccccc1
REMARK SMILES IDX 2 1 3 2 6 3 5 4 7 5 4 6 8 7 1 8
REMARK H PARENT 1 9
REMARK Flexibility Score: inf
ROOT
ATOM      1  C   UNL     1      99.962 134.861  50.052  1.00  0.00     0.191 C 
ENDROOT
BRANCH   1   2
ATOM      2  C   UNL     1     100.416 133.669  50.849  1.00  0.00    -0.023 A 
ATOM      3  C   UNL     1     101.252 131.399  52.271  1.00  0.00     0.000 A 
ATOM      4  C   UNL     1     102.191 132.189  51.601  1.00  0.00     0.000 A 
ATOM      5  C   UNL     1      99.896 131.733  52.224  1.00  0.00     0.000 A 
ATOM      6  C   UNL     1     101.776 133.318  50.888  1.00  0.00     0.006 A 
ATOM      7  C   UNL     1      99.477 132.861  51.511  1.00  0.00     0.006 A 
ENDBRANCH   1   2
BRANCH   1   8
ATOM      8  O   UNL     1      98.864 134.516  49.254  1.00  0.00    -0.392 OA
ATOM      9  H   UNL     1      98.056 134.847  49.727  1.00  0.00     0.211 HD
ENDBRANCH   1   8
TORSDOF 2
ENDMDL
MODEL 7
REMARK VINA RESULT:    -4.238      8.763      9.792
REMARK INTER + INTRA:          -4.620
REMARK INTER:                  -4.610
REMARK INTRA:                  -0.011
REMARK UNBOUND:                -0.011
REMARK SMILES OCc1ccccc1
REMARK SMILES IDX 2 1 3 2 6 3 5 4 7 5 4 6 8 7 1 8
REMARK H PARENT 1 9
REMARK Flexibility Score: inf
ROOT
ATOM      1  C   UNL     1     102.615 132.254  50.815  1.00  0.00     0.191 C 
ENDROOT
BRANCH   1   2
ATOM      2  C   UNL     1     102.355 133.715  50.567  1.00  0.00    -0.023 A 
ATOM      3  C   UNL     1     101.896 136.430  50.031  1.00  0.00     0.000 A 
ATOM      4  C   UNL     1     100.882 135.493  49.809  1.00  0.00     0.000 A 
ATOM      5  C   UNL     1     103.141 136.014  50.510  1.00  0.00     0.000 A 
ATOM      6  C   UNL     1     101.111 134.139  50.071  1.00  0.00     0.006 A 
ATOM      7  C   UNL     1     103.373 134.660  50.772  1.00  0.00     0.006 A 
ENDBRANCH   1   2
BRANCH   1   8
ATOM      8  O   UNL     1     102.761 131.579  49.596  1.00  0.00    -0.392 OA
ATOM      9  H   UNL     1     101.939 131.036  49.473  1.00  0.00     0.211 HD
ENDBRANCH   1   8
TORSDOF 2
ENDMDL
MODEL 8
REMARK VINA RESULT:    -4.168      9.264     10.274
REMARK INTER + INTRA:          -4.544
REMARK INTER:                  -4.525
REMARK INTRA:                  -0.019
REMARK UNBOUND:                -0.011
REMARK SMILES OCc1ccccc1
REMARK SMILES IDX 2 1 3 2 6 3 5 4 7 5 4 6 8 7 1 8
REMARK H PARENT 1 9
REMARK Flexibility Score: inf
ROOT
ATOM      1  C   UNL     1     100.981 135.732  49.729  1.00  0.00     0.191 C 
ENDROOT
BRANCH   1   2
ATOM      2  C   UNL     1     102.110 135.036  50.438  1.00  0.00    -0.023 A 
ATOM      3  C   UNL     1     104.262 133.748  51.696  1.00  0.00     0.000 A 
ATOM      4  C   UNL     1     104.089 135.127  51.846  1.00  0.00     0.000 A 
ATOM      5  C   UNL     1     103.369 133.012  50.912  1.00  0.00     0.000 A 
ATOM      6  C   UNL     1     103.020 135.771  51.216  1.00  0.00     0.006 A 
ATOM      7  C   UNL     1     102.300 133.653  50.279  1.00  0.00     0.006 A 
ENDBRANCH   1   2
BRANCH   1   8
ATOM      8  O   UNL     1     100.027 134.797  49.309  1.00  0.00    -0.392 OA
ATOM      9  H   UNL     1     100.447 134.274  48.576  1.00  0.00     0.211 HD
ENDBRANCH   1   8
TORSDOF 2
ENDMDL
MODEL 9
REMARK VINA RESULT:    -4.118      8.743      9.223
REMARK INTER + INTRA:          -4.490
REMARK INTER:                  -4.470
REMARK INTRA:                  -0.020
REMARK UNBOUND:                -0.011
REMARK SMILES OCc1ccccc1
REMARK SMILES IDX 2 1 3 2 6 3 5 4 7 5 4 6 8 7 1 8
REMARK H PARENT 1 9
REMARK Flexibility Score: inf
ROOT
ATOM      1  C   UNL     1      99.775 132.923  52.452  1.00  0.00     0.191 C 
ENDROOT
BRANCH   1   2
ATOM      2  C   UNL     1     100.997 132.754  51.591  1.00  0.00    -0.023 A 
ATOM      3  C   UNL     1     103.230 132.443  49.921  1.00  0.00     0.000 A 
ATOM      4  C   UNL     1     102.813 133.723  50.298  1.00  0.00     0.000 A 
ATOM      5  C   UNL     1     102.530 131.320  50.368  1.00  0.00     0.000 A 
ATOM      6  C   UNL     1     101.697 133.880  51.126  1.00  0.00     0.006 A 
ATOM      7  C   UNL     1     101.413 131.473  51.195  1.00  0.00     0.006 A 
ENDBRANCH   1   2
BRANCH   1   8
ATOM      8  O   UNL     1      99.235 131.670  52.770  1.00  0.00    -0.392 OA
ATOM      9  H   UNL     1      98.398 131.581  52.242  1.00  0.00     0.211 HD
ENDBRANCH   1   8
TORSDOF 2
ENDMDL
