MODEL 1
REMARK VINA RESULT:    -6.488      0.000      0.000
REMARK INTER + INTRA:         -10.918
REMARK INTER:                  -9.333
REMARK INTRA:                  -1.585
REMARK UNBOUND:                -1.585
REMARK SMILES O=c1c(O[C@@H]2O[C@@H](CO)[C@@H](O)[C@@H](O)[C@H]2O)c(-c2ccc(O)cc2)oc2cc(O)cc(O)c12
REMARK SMILES IDX 4 1 3 2 16 3 24 4 2 5 25 6 1 7 32 8 26 9 30 10 27 11 29 12
REMARK SMILES IDX 17 13 18 14 19 15 20 16 23 17 22 18 21 19 31 21 28 23 5 25
REMARK SMILES IDX 14 26 6 27 12 28 7 29 10 30 15 31 13 33 8 35 9 36 11 38
REMARK H PARENT 21 20 31 22 28 24 15 32 13 34 9 37 11 39
REMARK Flexibility Score: inf
ROOT
ATOM      1  O   UNL     1      16.732  -3.574 -14.344  1.00  0.00    -0.454 OA
ENDROOT
BRANCH   1   2
ATOM      2  C   UNL     1      17.351  -3.341 -15.581  1.00  0.00     0.214 A 
ATOM      3  C   UNL     1      17.680  -4.386 -16.486  1.00  0.00     0.180 A 
ATOM      4  O   UNL     1      18.403  -4.110 -17.573  1.00  0.00    -0.452 OA
ATOM      5  C   UNL     1      17.615  -2.026 -15.997  1.00  0.00     0.239 A 
ATOM      6  C   UNL     1      18.837  -2.892 -17.872  1.00  0.00     0.146 A 
ATOM      7  O   UNL     1      16.989  -1.077 -15.452  1.00  0.00    -0.285 OA
ATOM      8  C   UNL     1      18.489  -1.782 -17.064  1.00  0.00     0.111 A 
ATOM      9  C   UNL     1      19.622  -2.713 -19.021  1.00  0.00     0.094 A 
ATOM     10  C   UNL     1      19.001  -0.497 -17.404  1.00  0.00     0.134 A 
ATOM     11  C   UNL     1      20.075  -1.439 -19.374  1.00  0.00     0.123 A 
ATOM     12  C   UNL     1      19.762  -0.343 -18.569  1.00  0.00     0.093 A 
BRANCH   3  13
ATOM     13  C   UNL     1      17.144  -5.748 -16.369  1.00  0.00     0.021 A 
ATOM     14  C   UNL     1      17.947  -6.851 -16.041  1.00  0.00     0.016 A 
ATOM     15  C   UNL     1      17.394  -8.139 -16.038  1.00  0.00     0.047 A 
ATOM     16  C   UNL     1      16.059  -8.337 -16.392  1.00  0.00     0.115 A 
ATOM     17  C   UNL     1      15.799  -5.950 -16.724  1.00  0.00     0.016 A 
ATOM     18  C   UNL     1      15.254  -7.237 -16.735  1.00  0.00     0.047 A 
BRANCH  16  19
ATOM     19  O   UNL     1      15.533  -9.625 -16.428  1.00  0.00    -0.508 OA
ATOM     20  H   UNL     1      15.676 -10.235 -17.223  1.00  0.00     0.293 HD
ENDBRANCH  16  19
ENDBRANCH   3  13
BRANCH  10  21
ATOM     21  O   UNL     1      18.821   0.632 -16.601  1.00  0.00    -0.507 OA
ATOM     22  H   UNL     1      17.926   1.072 -16.419  1.00  0.00     0.293 HD
ENDBRANCH  10  21
BRANCH  11  23
ATOM     23  O   UNL     1      20.841  -1.268 -20.529  1.00  0.00    -0.508 OA
ATOM     24  H   UNL     1      20.963  -2.017 -21.200  1.00  0.00     0.293 HD
ENDBRANCH  11  23
ENDBRANCH   1   2
BRANCH   1  25
ATOM     25  C   UNL     1      17.458  -3.982 -13.161  1.00  0.00     0.339 C 
ATOM     26  C   UNL     1      18.357  -2.860 -12.531  1.00  0.00     0.214 C 
ATOM     27  O   UNL     1      16.581  -4.539 -12.201  1.00  0.00    -0.332 OA
ATOM     28  C   UNL     1      17.503  -1.698 -11.916  1.00  0.00     0.180 C 
ATOM     29  C   UNL     1      15.805  -3.597 -11.440  1.00  0.00     0.179 C 
ATOM     30  C   UNL     1      15.986  -2.111 -11.887  1.00  0.00     0.177 C 
BRANCH  26  31
ATOM     31  O   UNL     1      19.084  -3.446 -11.474  1.00  0.00    -0.384 OA
ATOM     32  H   UNL     1      18.703  -3.113 -10.602  1.00  0.00     0.211 HD
ENDBRANCH  26  31
BRANCH  28  33
ATOM     33  O   UNL     1      17.958  -1.356 -10.625  1.00  0.00    -0.387 OA
ATOM     34  H   UNL     1      18.612  -0.626 -10.726  1.00  0.00     0.211 HD
ENDBRANCH  28  33
BRANCH  29  35
ATOM     35  C   UNL     1      16.112  -3.820  -9.938  1.00  0.00     0.191 C 
BRANCH  35  36
ATOM     36  O   UNL     1      17.075  -4.826  -9.718  1.00  0.00    -0.394 OA
ATOM     37  H   UNL     1      17.297  -4.820  -8.746  1.00  0.00     0.210 HD
ENDBRANCH  35  36
ENDBRANCH  29  35
BRANCH  30  38
ATOM     38  O   UNL     1      15.168  -1.253 -11.133  1.00  0.00    -0.387 OA
ATOM     39  H   UNL     1      14.449  -1.852 -10.755  1.00  0.00     0.211 HD
ENDBRANCH  30  38
ENDBRANCH   1  25
TORSDOF 11
ENDMDL
MODEL 2
REMARK VINA RESULT:    -6.290      1.249      2.101
REMARK INTER + INTRA:         -10.632
REMARK INTER:                  -9.426
REMARK INTRA:                  -1.206
REMARK UNBOUND:                -1.585
REMARK SMILES O=c1c(O[C@@H]2O[C@@H](CO)[C@@H](O)[C@@H](O)[C@H]2O)c(-c2ccc(O)cc2)oc2cc(O)cc(O)c12
REMARK SMILES IDX 4 1 3 2 16 3 24 4 2 5 25 6 1 7 32 8 26 9 30 10 27 11 29 12
REMARK SMILES IDX 17 13 18 14 19 15 20 16 23 17 22 18 21 19 31 21 28 23 5 25
REMARK SMILES IDX 14 26 6 27 12 28 7 29 10 30 15 31 13 33 8 35 9 36 11 38
REMARK H PARENT 21 20 31 22 28 24 15 32 13 34 9 37 11 39
REMARK Flexibility Score: inf
ROOT
ATOM      1  O   UNL     1      17.128  -3.906 -14.144  1.00  0.00    -0.454 OA
ENDROOT
BRANCH   1   2
ATOM      2  C   UNL     1      17.568  -3.585 -15.436  1.00  0.00     0.214 A 
ATOM      3  C   UNL     1      17.815  -4.568 -16.432  1.00  0.00     0.180 A 
ATOM      4  O   UNL     1      18.375  -4.205 -17.587  1.00  0.00    -0.452 OA
ATOM      5  C   UNL     1      17.721  -2.239 -15.811  1.00  0.00     0.239 A 
ATOM      6  C   UNL     1      18.717  -2.956 -17.874  1.00  0.00     0.146 A 
ATOM      7  O   UNL     1      17.137  -1.349 -15.137  1.00  0.00    -0.285 OA
ATOM      8  C   UNL     1      18.435  -1.903 -16.968  1.00  0.00     0.111 A 
ATOM      9  C   UNL     1      19.335  -2.684 -19.104  1.00  0.00     0.094 A 
ATOM     10  C   UNL     1      18.847  -0.582 -17.301  1.00  0.00     0.134 A 
ATOM     11  C   UNL     1      19.685  -1.375 -19.444  1.00  0.00     0.123 A 
ATOM     12  C   UNL     1      19.439  -0.335 -18.545  1.00  0.00     0.093 A 
BRANCH   3  13
ATOM     13  C   UNL     1      17.354  -5.957 -16.320  1.00  0.00     0.021 A 
ATOM     14  C   UNL     1      18.158  -6.981 -15.798  1.00  0.00     0.016 A 
ATOM     15  C   UNL     1      17.695  -8.304 -15.805  1.00  0.00     0.047 A 
ATOM     16  C   UNL     1      16.454  -8.616 -16.361  1.00  0.00     0.115 A 
ATOM     17  C   UNL     1      16.103  -6.274 -16.878  1.00  0.00     0.016 A 
ATOM     18  C   UNL     1      15.650  -7.596 -16.899  1.00  0.00     0.047 A 
BRANCH  16  19
ATOM     19  O   UNL     1      16.024  -9.939 -16.402  1.00  0.00    -0.508 OA
ATOM     20  H   UNL     1      16.674 -10.711 -16.326  1.00  0.00     0.293 HD
ENDBRANCH  16  19
ENDBRANCH   3  13
BRANCH  10  21
ATOM     21  O   UNL     1      18.731   0.498 -16.421  1.00  0.00    -0.507 OA
ATOM     22  H   UNL     1      17.945   0.651 -15.799  1.00  0.00     0.293 HD
ENDBRANCH  10  21
BRANCH  11  23
ATOM     23  O   UNL     1      20.284  -1.111 -20.678  1.00  0.00    -0.508 OA
ATOM     24  H   UNL     1      20.109  -0.247 -21.178  1.00  0.00     0.293 HD
ENDBRANCH  11  23
ENDBRANCH   1   2
BRANCH   1  25
ATOM     25  C   UNL     1      15.838  -4.503 -13.873  1.00  0.00     0.339 C 
ATOM     26  C   UNL     1      15.720  -5.183 -12.464  1.00  0.00     0.214 C 
ATOM     27  O   UNL     1      14.798  -3.567 -14.082  1.00  0.00    -0.332 OA
ATOM     28  C   UNL     1      15.763  -4.136 -11.299  1.00  0.00     0.180 C 
ATOM     29  C   UNL     1      14.606  -2.599 -13.036  1.00  0.00     0.179 C 
ATOM     30  C   UNL     1      15.663  -2.681 -11.888  1.00  0.00     0.177 C 
BRANCH  26  31
ATOM     31  O   UNL     1      14.461  -5.817 -12.406  1.00  0.00    -0.384 OA
ATOM     32  H   UNL     1      13.758  -5.157 -12.700  1.00  0.00     0.211 HD
ENDBRANCH  26  31
BRANCH  28  33
ATOM     33  O   UNL     1      14.737  -4.372 -10.360  1.00  0.00    -0.387 OA
ATOM     34  H   UNL     1      15.121  -4.233  -9.462  1.00  0.00     0.211 HD
ENDBRANCH  28  33
BRANCH  29  35
ATOM     35  C   UNL     1      13.149  -2.721 -12.527  1.00  0.00     0.191 C 
BRANCH  35  36
ATOM     36  O   UNL     1      12.657  -1.520 -11.976  1.00  0.00    -0.394 OA
ATOM     37  H   UNL     1      13.428  -0.893 -11.888  1.00  0.00     0.210 HD
ENDBRANCH  35  36
ENDBRANCH  29  35
BRANCH  30  38
ATOM     38  O   UNL     1      15.443  -1.681 -10.926  1.00  0.00    -0.387 OA
ATOM     39  H   UNL     1      15.111  -2.178 -10.112  1.00  0.00     0.211 HD
ENDBRANCH  30  38
ENDBRANCH   1  25
TORSDOF 11
ENDMDL
MODEL 3
REMARK VINA RESULT:    -6.108      3.339      8.751
REMARK INTER + INTRA:         -10.371
REMARK INTER:                  -8.941
REMARK INTRA:                  -1.430
REMARK UNBOUND:                -1.585
REMARK SMILES O=c1c(O[C@@H]2O[C@@H](CO)[C@@H](O)[C@@H](O)[C@H]2O)c(-c2ccc(O)cc2)oc2cc(O)cc(O)c12
REMARK SMILES IDX 4 1 3 2 16 3 24 4 2 5 25 6 1 7 32 8 26 9 30 10 27 11 29 12
REMARK SMILES IDX 17 13 18 14 19 15 20 16 23 17 22 18 21 19 31 21 28 23 5 25
REMARK SMILES IDX 14 26 6 27 12 28 7 29 10 30 15 31 13 33 8 35 9 36 11 38
REMARK H PARENT 21 20 31 22 28 24 15 32 13 34 9 37 11 39
REMARK Flexibility Score: inf
ROOT
ATOM      1  O   UNL     1      16.018  -7.316 -14.025  1.00  0.00    -0.454 OA
ENDROOT
BRANCH   1   2
ATOM      2  C   UNL     1      15.093  -6.852 -13.078  1.00  0.00     0.214 A 
ATOM      3  C   UNL     1      15.195  -5.574 -12.464  1.00  0.00     0.180 A 
ATOM      4  O   UNL     1      14.371  -5.259 -11.464  1.00  0.00    -0.452 OA
ATOM      5  C   UNL     1      13.976  -7.636 -12.745  1.00  0.00     0.239 A 
ATOM      6  C   UNL     1      13.437  -6.079 -10.999  1.00  0.00     0.146 A 
ATOM      7  O   UNL     1      13.619  -8.552 -13.533  1.00  0.00    -0.285 OA
ATOM      8  C   UNL     1      13.218  -7.342 -11.605  1.00  0.00     0.111 A 
ATOM      9  C   UNL     1      12.645  -5.666  -9.918  1.00  0.00     0.094 A 
ATOM     10  C   UNL     1      12.227  -8.204 -11.056  1.00  0.00     0.134 A 
ATOM     11  C   UNL     1      11.638  -6.499  -9.422  1.00  0.00     0.123 A 
ATOM     12  C   UNL     1      11.434  -7.757  -9.992  1.00  0.00     0.093 A 
BRANCH   3  13
ATOM     13  C   UNL     1      16.072  -4.510 -12.968  1.00  0.00     0.021 A 
ATOM     14  C   UNL     1      17.437  -4.442 -12.652  1.00  0.00     0.016 A 
ATOM     15  C   UNL     1      18.200  -3.349 -13.085  1.00  0.00     0.047 A 
ATOM     16  C   UNL     1      17.603  -2.309 -13.800  1.00  0.00     0.115 A 
ATOM     17  C   UNL     1      15.474  -3.462 -13.690  1.00  0.00     0.016 A 
ATOM     18  C   UNL     1      16.233  -2.365 -14.108  1.00  0.00     0.047 A 
BRANCH  16  19
ATOM     19  O   UNL     1      18.362  -1.208 -14.188  1.00  0.00    -0.508 OA
ATOM     20  H   UNL     1      18.451  -0.942 -15.161  1.00  0.00     0.293 HD
ENDBRANCH  16  19
ENDBRANCH   3  13
BRANCH  10  21
ATOM     21  O   UNL     1      12.026  -9.514 -11.499  1.00  0.00    -0.507 OA
ATOM     22  H   UNL     1      11.349  -9.785 -12.204  1.00  0.00     0.293 HD
ENDBRANCH  10  21
BRANCH  11  23
ATOM     23  O   UNL     1      10.843  -6.073  -8.356  1.00  0.00    -0.508 OA
ATOM     24  H   UNL     1       9.993  -5.542  -8.509  1.00  0.00     0.293 HD
ENDBRANCH  11  23
ENDBRANCH   1   2
BRANCH   1  25
ATOM     25  C   UNL     1      15.882  -7.074 -15.446  1.00  0.00     0.339 C 
ATOM     26  C   UNL     1      17.095  -6.317 -16.093  1.00  0.00     0.214 C 
ATOM     27  O   UNL     1      15.598  -8.276 -16.135  1.00  0.00    -0.332 OA
ATOM     28  C   UNL     1      18.395  -7.192 -16.109  1.00  0.00     0.180 C 
ATOM     29  C   UNL     1      16.718  -9.151 -16.357  1.00  0.00     0.179 C 
ATOM     30  C   UNL     1      18.047  -8.668 -15.695  1.00  0.00     0.177 C 
BRANCH  26  31
ATOM     31  O   UNL     1      16.757  -6.052 -17.437  1.00  0.00    -0.384 OA
ATOM     32  H   UNL     1      17.031  -5.106 -17.655  1.00  0.00     0.211 HD
ENDBRANCH  26  31
BRANCH  28  33
ATOM     33  O   UNL     1      19.022  -7.156 -17.372  1.00  0.00    -0.387 OA
ATOM     34  H   UNL     1      19.945  -7.481 -17.253  1.00  0.00     0.211 HD
ENDBRANCH  28  33
BRANCH  29  35
ATOM     35  C   UNL     1      16.851  -9.386 -17.882  1.00  0.00     0.191 C 
BRANCH  35  36
ATOM     36  O   UNL     1      15.899  -8.669 -18.634  1.00  0.00    -0.394 OA
ATOM     37  H   UNL     1      15.157  -8.419 -18.018  1.00  0.00     0.210 HD
ENDBRANCH  35  36
ENDBRANCH  29  35
BRANCH  30  38
ATOM     38  O   UNL     1      19.085  -9.590 -15.913  1.00  0.00    -0.387 OA
ATOM     39  H   UNL     1      19.914  -9.023 -16.013  1.00  0.00     0.211 HD
ENDBRANCH  30  38
ENDBRANCH   1  25
TORSDOF 11
ENDMDL
MODEL 4
REMARK VINA RESULT:    -5.915      4.341      8.666
REMARK INTER + INTRA:         -10.093
REMARK INTER:                  -8.731
REMARK INTRA:                  -1.361
REMARK UNBOUND:                -1.585
REMARK SMILES O=c1c(O[C@@H]2O[C@@H](CO)[C@@H](O)[C@@H](O)[C@H]2O)c(-c2ccc(O)cc2)oc2cc(O)cc(O)c12
REMARK SMILES IDX 4 1 3 2 16 3 24 4 2 5 25 6 1 7 32 8 26 9 30 10 27 11 29 12
REMARK SMILES IDX 17 13 18 14 19 15 20 16 23 17 22 18 21 19 31 21 28 23 5 25
REMARK SMILES IDX 14 26 6 27 12 28 7 29 10 30 15 31 13 33 8 35 9 36 11 38
REMARK H PARENT 21 20 31 22 28 24 15 32 13 34 9 37 11 39
REMARK Flexibility Score: inf
ROOT
ATOM      1  O   UNL     1      17.747  -0.715 -10.974  1.00  0.00    -0.454 OA
ENDROOT
BRANCH   1   2
ATOM      2  C   UNL     1      18.746  -0.947 -10.017  1.00  0.00     0.214 A 
ATOM      3  C   UNL     1      20.111  -0.613 -10.232  1.00  0.00     0.180 A 
ATOM      4  O   UNL     1      21.028  -0.999  -9.343  1.00  0.00    -0.452 OA
ATOM      5  C   UNL     1      18.405  -1.476  -8.761  1.00  0.00     0.239 A 
ATOM      6  C   UNL     1      20.740  -1.686  -8.245  1.00  0.00     0.146 A 
ATOM      7  O   UNL     1      17.208  -1.400  -8.373  1.00  0.00    -0.285 OA
ATOM      8  C   UNL     1      19.396  -1.993  -7.917  1.00  0.00     0.111 A 
ATOM      9  C   UNL     1      21.783  -2.076  -7.393  1.00  0.00     0.094 A 
ATOM     10  C   UNL     1      19.132  -2.758  -6.746  1.00  0.00     0.134 A 
ATOM     11  C   UNL     1      21.508  -2.779  -6.217  1.00  0.00     0.123 A 
ATOM     12  C   UNL     1      20.190  -3.113  -5.900  1.00  0.00     0.093 A 
BRANCH   3  13
ATOM     13  C   UNL     1      20.560   0.269 -11.316  1.00  0.00     0.021 A 
ATOM     14  C   UNL     1      21.248  -0.208 -12.442  1.00  0.00     0.016 A 
ATOM     15  C   UNL     1      21.733   0.695 -13.397  1.00  0.00     0.047 A 
ATOM     16  C   UNL     1      21.569   2.070 -13.218  1.00  0.00     0.115 A 
ATOM     17  C   UNL     1      20.394   1.653 -11.139  1.00  0.00     0.016 A 
ATOM     18  C   UNL     1      20.894   2.554 -12.084  1.00  0.00     0.047 A 
BRANCH  16  19
ATOM     19  O   UNL     1      22.094   2.960 -14.151  1.00  0.00    -0.508 OA
ATOM     20  H   UNL     1      21.587   3.207 -14.992  1.00  0.00     0.293 HD
ENDBRANCH  16  19
ENDBRANCH   3  13
BRANCH  10  21
ATOM     21  O   UNL     1      17.858  -3.220  -6.407  1.00  0.00    -0.507 OA
ATOM     22  H   UNL     1      17.174  -3.561  -7.073  1.00  0.00     0.293 HD
ENDBRANCH  10  21
BRANCH  11  23
ATOM     23  O   UNL     1      22.552  -3.149  -5.366  1.00  0.00    -0.508 OA
ATOM     24  H   UNL     1      22.597  -4.073  -4.953  1.00  0.00     0.293 HD
ENDBRANCH  11  23
ENDBRANCH   1   2
BRANCH   1  25
ATOM     25  C   UNL     1      17.683  -1.419 -12.237  1.00  0.00     0.339 C 
ATOM     26  C   UNL     1      18.174  -2.908 -12.175  1.00  0.00     0.214 C 
ATOM     27  O   UNL     1      16.388  -1.326 -12.799  1.00  0.00    -0.332 OA
ATOM     28  C   UNL     1      17.209  -3.812 -11.332  1.00  0.00     0.180 C 
ATOM     29  C   UNL     1      15.393  -2.193 -12.227  1.00  0.00     0.179 C 
ATOM     30  C   UNL     1      15.894  -3.017 -10.998  1.00  0.00     0.177 C 
BRANCH  26  31
ATOM     31  O   UNL     1      18.166  -3.410 -13.494  1.00  0.00    -0.384 OA
ATOM     32  H   UNL     1      18.574  -2.716 -14.101  1.00  0.00     0.211 HD
ENDBRANCH  26  31
BRANCH  28  33
ATOM     33  O   UNL     1      16.913  -5.015 -12.007  1.00  0.00    -0.387 OA
ATOM     34  H   UNL     1      17.667  -5.206 -12.613  1.00  0.00     0.211 HD
ENDBRANCH  28  33
BRANCH  29  35
ATOM     35  C   UNL     1      14.819  -3.082 -13.358  1.00  0.00     0.191 C 
BRANCH  35  36
ATOM     36  O   UNL     1      13.606  -3.706 -13.005  1.00  0.00    -0.394 OA
ATOM     37  H   UNL     1      13.521  -3.655 -12.012  1.00  0.00     0.210 HD
ENDBRANCH  35  36
ENDBRANCH  29  35
BRANCH  30  38
ATOM     38  O   UNL     1      14.862  -3.806 -10.463  1.00  0.00    -0.387 OA
ATOM     39  H   UNL     1      14.664  -4.488 -11.180  1.00  0.00     0.211 HD
ENDBRANCH  30  38
ENDBRANCH   1  25
TORSDOF 11
ENDMDL
MODEL 5
REMARK VINA RESULT:    -5.893      4.326      9.086
REMARK INTER + INTRA:         -10.062
REMARK INTER:                  -8.440
REMARK INTRA:                  -1.621
REMARK UNBOUND:                -1.585
REMARK SMILES O=c1c(O[C@@H]2O[C@@H](CO)[C@@H](O)[C@@H](O)[C@H]2O)c(-c2ccc(O)cc2)oc2cc(O)cc(O)c12
REMARK SMILES IDX 4 1 3 2 16 3 24 4 2 5 25 6 1 7 32 8 26 9 30 10 27 11 29 12
REMARK SMILES IDX 17 13 18 14 19 15 20 16 23 17 22 18 21 19 31 21 28 23 5 25
REMARK SMILES IDX 14 26 6 27 12 28 7 29 10 30 15 31 13 33 8 35 9 36 11 38
REMARK H PARENT 21 20 31 22 28 24 15 32 13 34 9 37 11 39
REMARK Flexibility Score: inf
ROOT
ATOM      1  O   UNL     1      17.992  -0.289 -11.065  1.00  0.00    -0.454 OA
ENDROOT
BRANCH   1   2
ATOM      2  C   UNL     1      18.918  -0.623 -10.066  1.00  0.00     0.214 A 
ATOM      3  C   UNL     1      20.305  -0.333 -10.173  1.00  0.00     0.180 A 
ATOM      4  O   UNL     1      21.149  -0.812  -9.258  1.00  0.00    -0.452 OA
ATOM      5  C   UNL     1      18.478  -1.216  -8.871  1.00  0.00     0.239 A 
ATOM      6  C   UNL     1      20.765  -1.555  -8.227  1.00  0.00     0.146 A 
ATOM      7  O   UNL     1      17.262  -1.116  -8.553  1.00  0.00    -0.285 OA
ATOM      8  C   UNL     1      19.392  -1.826  -8.003  1.00  0.00     0.111 A 
ATOM      9  C   UNL     1      21.737  -2.042  -7.340  1.00  0.00     0.094 A 
ATOM     10  C   UNL     1      19.026  -2.652  -6.903  1.00  0.00     0.134 A 
ATOM     11  C   UNL     1      21.360  -2.806  -6.232  1.00  0.00     0.123 A 
ATOM     12  C   UNL     1      20.013  -3.104  -6.019  1.00  0.00     0.093 A 
BRANCH   3  13
ATOM     13  C   UNL     1      20.856   0.596 -11.167  1.00  0.00     0.021 A 
ATOM     14  C   UNL     1      20.438   1.932 -11.267  1.00  0.00     0.016 A 
ATOM     15  C   UNL     1      20.933   2.742 -12.298  1.00  0.00     0.047 A 
ATOM     16  C   UNL     1      21.811   2.220 -13.249  1.00  0.00     0.115 A 
ATOM     17  C   UNL     1      21.743   0.073 -12.125  1.00  0.00     0.016 A 
ATOM     18  C   UNL     1      22.223   0.878 -13.162  1.00  0.00     0.047 A 
BRANCH  16  19
ATOM     19  O   UNL     1      22.262   3.022 -14.294  1.00  0.00    -0.508 OA
ATOM     20  H   UNL     1      22.548   2.627 -15.181  1.00  0.00     0.293 HD
ENDBRANCH  16  19
ENDBRANCH   3  13
BRANCH  10  21
ATOM     21  O   UNL     1      17.716  -3.081  -6.675  1.00  0.00    -0.507 OA
ATOM     22  H   UNL     1      17.151  -3.588  -7.347  1.00  0.00     0.293 HD
ENDBRANCH  10  21
BRANCH  11  23
ATOM     23  O   UNL     1      22.333  -3.272  -5.344  1.00  0.00    -0.508 OA
ATOM     24  H   UNL     1      22.179  -3.272  -4.342  1.00  0.00     0.293 HD
ENDBRANCH  11  23
ENDBRANCH   1   2
BRANCH   1  25
ATOM     25  C   UNL     1      17.670  -1.167 -12.170  1.00  0.00     0.339 C 
ATOM     26  C   UNL     1      16.212  -1.001 -12.727  1.00  0.00     0.214 C 
ATOM     27  O   UNL     1      18.632  -1.052 -13.201  1.00  0.00    -0.332 OA
ATOM     28  C   UNL     1      16.007   0.382 -13.435  1.00  0.00     0.180 C 
ATOM     29  C   UNL     1      18.511   0.108 -14.043  1.00  0.00     0.179 C 
ATOM     30  C   UNL     1      17.393   1.105 -13.601  1.00  0.00     0.177 C 
BRANCH  26  31
ATOM     31  O   UNL     1      16.018  -2.001 -13.704  1.00  0.00    -0.384 OA
ATOM     32  H   UNL     1      15.852  -2.877 -13.235  1.00  0.00     0.211 HD
ENDBRANCH  26  31
BRANCH  28  33
ATOM     33  O   UNL     1      15.365   0.229 -14.682  1.00  0.00    -0.387 OA
ATOM     34  H   UNL     1      14.919   1.083 -14.891  1.00  0.00     0.211 HD
ENDBRANCH  28  33
BRANCH  29  35
ATOM     35  C   UNL     1      18.349  -0.374 -15.506  1.00  0.00     0.191 C 
BRANCH  35  36
ATOM     36  O   UNL     1      18.551   0.654 -16.449  1.00  0.00    -0.394 OA
ATOM     37  H   UNL     1      19.532   0.723 -16.612  1.00  0.00     0.210 HD
ENDBRANCH  35  36
ENDBRANCH  29  35
BRANCH  30  38
ATOM     38  O   UNL     1      17.361   2.232 -14.439  1.00  0.00    -0.387 OA
ATOM     39  H   UNL     1      17.949   2.911 -13.979  1.00  0.00     0.211 HD
ENDBRANCH  30  38
ENDBRANCH   1  25
TORSDOF 11
ENDMDL
MODEL 6
REMARK VINA RESULT:    -5.892      3.079      7.445
REMARK INTER + INTRA:         -10.061
REMARK INTER:                  -8.547
REMARK INTRA:                  -1.514
REMARK UNBOUND:                -1.585
REMARK SMILES O=c1c(O[C@@H]2O[C@@H](CO)[C@@H](O)[C@@H](O)[C@H]2O)c(-c2ccc(O)cc2)oc2cc(O)cc(O)c12
REMARK SMILES IDX 4 1 3 2 16 3 24 4 2 5 25 6 1 7 32 8 26 9 30 10 27 11 29 12
REMARK SMILES IDX 17 13 18 14 19 15 20 16 23 17 22 18 21 19 31 21 28 23 5 25
REMARK SMILES IDX 14 26 6 27 12 28 7 29 10 30 15 31 13 33 8 35 9 36 11 38
REMARK H PARENT 21 20 31 22 28 24 15 32 13 34 9 37 11 39
REMARK Flexibility Score: inf
ROOT
ATOM      1  O   UNL     1      15.489  -3.699 -12.931  1.00  0.00    -0.454 OA
ENDROOT
BRANCH   1   2
ATOM      2  C   UNL     1      15.917  -2.769 -11.972  1.00  0.00     0.214 A 
ATOM      3  C   UNL     1      15.930  -1.368 -12.211  1.00  0.00     0.180 A 
ATOM      4  O   UNL     1      16.490  -0.555 -11.314  1.00  0.00    -0.452 OA
ATOM      5  C   UNL     1      16.296  -3.205 -10.692  1.00  0.00     0.239 A 
ATOM      6  C   UNL     1      17.042  -0.980 -10.185  1.00  0.00     0.146 A 
ATOM      7  O   UNL     1      15.918  -4.341 -10.298  1.00  0.00    -0.285 OA
ATOM      8  C   UNL     1      17.002  -2.353  -9.833  1.00  0.00     0.111 A 
ATOM      9  C   UNL     1      17.638  -0.046  -9.324  1.00  0.00     0.094 A 
ATOM     10  C   UNL     1      17.633  -2.771  -8.628  1.00  0.00     0.134 A 
ATOM     11  C   UNL     1      18.206  -0.462  -8.117  1.00  0.00     0.123 A 
ATOM     12  C   UNL     1      18.198  -1.816  -7.775  1.00  0.00     0.093 A 
BRANCH   3  13
ATOM     13  C   UNL     1      15.228  -0.739 -13.336  1.00  0.00     0.021 A 
ATOM     14  C   UNL     1      15.903  -0.191 -14.438  1.00  0.00     0.016 A 
ATOM     15  C   UNL     1      15.182   0.480 -15.434  1.00  0.00     0.047 A 
ATOM     16  C   UNL     1      13.799   0.638 -15.322  1.00  0.00     0.115 A 
ATOM     17  C   UNL     1      13.836  -0.580 -13.227  1.00  0.00     0.016 A 
ATOM     18  C   UNL     1      13.120   0.103 -14.214  1.00  0.00     0.047 A 
BRANCH  16  19
ATOM     19  O   UNL     1      13.099   1.344 -16.296  1.00  0.00    -0.508 OA
ATOM     20  H   UNL     1      12.100   1.234 -16.417  1.00  0.00     0.293 HD
ENDBRANCH  16  19
ENDBRANCH   3  13
BRANCH  10  21
ATOM     21  O   UNL     1      17.759  -4.113  -8.259  1.00  0.00    -0.507 OA
ATOM     22  H   UNL     1      17.344  -4.524  -7.431  1.00  0.00     0.293 HD
ENDBRANCH  10  21
BRANCH  11  23
ATOM     23  O   UNL     1      18.782   0.477  -7.258  1.00  0.00    -0.508 OA
ATOM     24  H   UNL     1      18.422   1.422  -7.188  1.00  0.00     0.293 HD
ENDBRANCH  11  23
ENDBRANCH   1   2
BRANCH   1  25
ATOM     25  C   UNL     1      16.113  -3.840 -14.229  1.00  0.00     0.339 C 
ATOM     26  C   UNL     1      17.676  -3.971 -14.186  1.00  0.00     0.214 C 
ATOM     27  O   UNL     1      15.527  -4.904 -14.955  1.00  0.00    -0.332 OA
ATOM     28  C   UNL     1      18.137  -5.320 -13.536  1.00  0.00     0.180 C 
ATOM     29  C   UNL     1      15.943  -6.227 -14.574  1.00  0.00     0.179 C 
ATOM     30  C   UNL     1      16.896  -6.266 -13.337  1.00  0.00     0.177 C 
BRANCH  26  31
ATOM     31  O   UNL     1      18.135  -3.975 -15.520  1.00  0.00    -0.384 OA
ATOM     32  H   UNL     1      18.075  -3.036 -15.882  1.00  0.00     0.211 HD
ENDBRANCH  26  31
BRANCH  28  33
ATOM     33  O   UNL     1      19.132  -5.950 -14.312  1.00  0.00    -0.387 OA
ATOM     34  H   UNL     1      19.168  -5.485 -15.181  1.00  0.00     0.211 HD
ENDBRANCH  28  33
BRANCH  29  35
ATOM     35  C   UNL     1      16.540  -6.923 -15.822  1.00  0.00     0.191 C 
BRANCH  35  36
ATOM     36  O   UNL     1      16.668  -6.056 -16.926  1.00  0.00    -0.394 OA
ATOM     37  H   UNL     1      16.463  -5.134 -16.609  1.00  0.00     0.210 HD
ENDBRANCH  35  36
ENDBRANCH  29  35
BRANCH  30  38
ATOM     38  O   UNL     1      17.226  -7.588 -12.994  1.00  0.00    -0.387 OA
ATOM     39  H   UNL     1      17.652  -7.517 -12.082  1.00  0.00     0.211 HD
ENDBRANCH  30  38
ENDBRANCH   1  25
TORSDOF 11
ENDMDL
MODEL 7
REMARK VINA RESULT:    -5.815      2.488      3.961
REMARK INTER + INTRA:          -9.949
REMARK INTER:                  -8.476
REMARK INTRA:                  -1.473
REMARK UNBOUND:                -1.585
REMARK SMILES O=c1c(O[C@@H]2O[C@@H](CO)[C@@H](O)[C@@H](O)[C@H]2O)c(-c2ccc(O)cc2)oc2cc(O)cc(O)c12
REMARK SMILES IDX 4 1 3 2 16 3 24 4 2 5 25 6 1 7 32 8 26 9 30 10 27 11 29 12
REMARK SMILES IDX 17 13 18 14 19 15 20 16 23 17 22 18 21 19 31 21 28 23 5 25
REMARK SMILES IDX 14 26 6 27 12 28 7 29 10 30 15 31 13 33 8 35 9 36 11 38
REMARK H PARENT 21 20 31 22 28 24 15 32 13 34 9 37 11 39
REMARK Flexibility Score: inf
ROOT
ATOM      1  O   UNL     1      16.781  -0.671 -12.537  1.00  0.00    -0.454 OA
ENDROOT
BRANCH   1   2
ATOM      2  C   UNL     1      16.968  -1.468 -13.677  1.00  0.00     0.214 A 
ATOM      3  C   UNL     1      16.637  -2.850 -13.713  1.00  0.00     0.180 A 
ATOM      4  O   UNL     1      16.981  -3.579 -14.776  1.00  0.00    -0.452 OA
ATOM      5  C   UNL     1      17.442  -0.891 -14.866  1.00  0.00     0.239 A 
ATOM      6  C   UNL     1      17.620  -3.083 -15.828  1.00  0.00     0.146 A 
ATOM      7  O   UNL     1      17.354   0.358 -15.015  1.00  0.00    -0.285 OA
ATOM      8  C   UNL     1      17.917  -1.700 -15.906  1.00  0.00     0.111 A 
ATOM      9  C   UNL     1      17.968  -3.942 -16.880  1.00  0.00     0.094 A 
ATOM     10  C   UNL     1      18.631  -1.214 -17.038  1.00  0.00     0.134 A 
ATOM     11  C   UNL     1      18.620  -3.444 -18.011  1.00  0.00     0.123 A 
ATOM     12  C   UNL     1      18.945  -2.088 -18.085  1.00  0.00     0.093 A 
BRANCH   3  13
ATOM     13  C   UNL     1      15.803  -3.502 -12.697  1.00  0.00     0.021 A 
ATOM     14  C   UNL     1      16.333  -4.351 -11.714  1.00  0.00     0.016 A 
ATOM     15  C   UNL     1      15.473  -5.018 -10.831  1.00  0.00     0.047 A 
ATOM     16  C   UNL     1      14.089  -4.873 -10.945  1.00  0.00     0.115 A 
ATOM     17  C   UNL     1      14.409  -3.355 -12.808  1.00  0.00     0.016 A 
ATOM     18  C   UNL     1      13.552  -4.034 -11.937  1.00  0.00     0.047 A 
BRANCH  16  19
ATOM     19  O   UNL     1      13.244  -5.574 -10.091  1.00  0.00    -0.508 OA
ATOM     20  H   UNL     1      12.897  -6.496 -10.326  1.00  0.00     0.293 HD
ENDBRANCH  16  19
ENDBRANCH   3  13
BRANCH  10  21
ATOM     21  O   UNL     1      19.083   0.104 -17.147  1.00  0.00    -0.507 OA
ATOM     22  H   UNL     1      20.055   0.386 -17.082  1.00  0.00     0.293 HD
ENDBRANCH  10  21
BRANCH  11  23
ATOM     23  O   UNL     1      18.948  -4.304 -19.061  1.00  0.00    -0.508 OA
ATOM     24  H   UNL     1      18.972  -5.310 -18.935  1.00  0.00     0.293 HD
ENDBRANCH  11  23
ENDBRANCH   1   2
BRANCH   1  25
ATOM     25  C   UNL     1      17.874  -0.054 -11.817  1.00  0.00     0.339 C 
ATOM     26  C   UNL     1      17.434   0.791 -10.569  1.00  0.00     0.214 C 
ATOM     27  O   UNL     1      18.853  -1.014 -11.470  1.00  0.00    -0.332 OA
ATOM     28  C   UNL     1      16.853  -0.109  -9.425  1.00  0.00     0.180 C 
ATOM     29  C   UNL     1      18.539  -1.850 -10.343  1.00  0.00     0.179 C 
ATOM     30  C   UNL     1      17.108  -1.625  -9.759  1.00  0.00     0.177 C 
BRANCH  26  31
ATOM     31  O   UNL     1      18.589   1.419 -10.058  1.00  0.00    -0.384 OA
ATOM     32  H   UNL     1      18.556   2.396 -10.304  1.00  0.00     0.211 HD
ENDBRANCH  26  31
BRANCH  28  33
ATOM     33  O   UNL     1      17.409   0.231  -8.173  1.00  0.00    -0.387 OA
ATOM     34  H   UNL     1      16.783   0.853  -7.732  1.00  0.00     0.211 HD
ENDBRANCH  28  33
BRANCH  29  35
ATOM     35  C   UNL     1      19.659  -1.677  -9.287  1.00  0.00     0.191 C 
BRANCH  35  36
ATOM     36  O   UNL     1      19.840  -2.822  -8.485  1.00  0.00    -0.394 OA
ATOM     37  H   UNL     1      18.977  -3.001  -8.019  1.00  0.00     0.210 HD
ENDBRANCH  35  36
ENDBRANCH  29  35
BRANCH  30  38
ATOM     38  O   UNL     1      16.853  -2.503  -8.692  1.00  0.00    -0.387 OA
ATOM     39  H   UNL     1      16.608  -3.377  -9.134  1.00  0.00     0.211 HD
ENDBRANCH  30  38
ENDBRANCH   1  25
TORSDOF 11
ENDMDL
MODEL 8
REMARK VINA RESULT:    -5.797      3.125      6.289
REMARK INTER + INTRA:          -9.924
REMARK INTER:                  -8.703
REMARK INTRA:                  -1.221
REMARK UNBOUND:                -1.585
REMARK SMILES O=c1c(O[C@@H]2O[C@@H](CO)[C@@H](O)[C@@H](O)[C@H]2O)c(-c2ccc(O)cc2)oc2cc(O)cc(O)c12
REMARK SMILES IDX 4 1 3 2 16 3 24 4 2 5 25 6 1 7 32 8 26 9 30 10 27 11 29 12
REMARK SMILES IDX 17 13 18 14 19 15 20 16 23 17 22 18 21 19 31 21 28 23 5 25
REMARK SMILES IDX 14 26 6 27 12 28 7 29 10 30 15 31 13 33 8 35 9 36 11 38
REMARK H PARENT 21 20 31 22 28 24 15 32 13 34 9 37 11 39
REMARK Flexibility Score: inf
ROOT
ATOM      1  O   UNL     1      17.343  -0.741 -11.433  1.00  0.00    -0.454 OA
ENDROOT
BRANCH   1   2
ATOM      2  C   UNL     1      16.025  -0.562 -11.881  1.00  0.00     0.214 A 
ATOM      3  C   UNL     1      15.561  -1.060 -13.128  1.00  0.00     0.180 A 
ATOM      4  O   UNL     1      14.343  -0.723 -13.556  1.00  0.00    -0.452 OA
ATOM      5  C   UNL     1      15.086   0.080 -11.056  1.00  0.00     0.239 A 
ATOM      6  C   UNL     1      13.517   0.059 -12.873  1.00  0.00     0.146 A 
ATOM      7  O   UNL     1      15.316   0.163  -9.820  1.00  0.00    -0.285 OA
ATOM      8  C   UNL     1      13.872   0.535 -11.586  1.00  0.00     0.111 A 
ATOM      9  C   UNL     1      12.271   0.383 -13.429  1.00  0.00     0.094 A 
ATOM     10  C   UNL     1      12.970   1.396 -10.900  1.00  0.00     0.134 A 
ATOM     11  C   UNL     1      11.371   1.185 -12.723  1.00  0.00     0.123 A 
ATOM     12  C   UNL     1      11.722   1.684 -11.467  1.00  0.00     0.093 A 
BRANCH   3  13
ATOM     13  C   UNL     1      16.297  -2.052 -13.920  1.00  0.00     0.021 A 
ATOM     14  C   UNL     1      17.246  -1.693 -14.890  1.00  0.00     0.016 A 
ATOM     15  C   UNL     1      17.846  -2.684 -15.679  1.00  0.00     0.047 A 
ATOM     16  C   UNL     1      17.481  -4.023 -15.532  1.00  0.00     0.115 A 
ATOM     17  C   UNL     1      15.933  -3.402 -13.773  1.00  0.00     0.016 A 
ATOM     18  C   UNL     1      16.520  -4.387 -14.572  1.00  0.00     0.047 A 
BRANCH  16  19
ATOM     19  O   UNL     1      18.051  -4.993 -16.351  1.00  0.00    -0.508 OA
ATOM     20  H   UNL     1      18.311  -4.793 -17.309  1.00  0.00     0.293 HD
ENDBRANCH  16  19
ENDBRANCH   3  13
BRANCH  10  21
ATOM     21  O   UNL     1      13.282   2.018  -9.689  1.00  0.00    -0.507 OA
ATOM     22  H   UNL     1      13.390   3.019  -9.567  1.00  0.00     0.293 HD
ENDBRANCH  10  21
BRANCH  11  23
ATOM     23  O   UNL     1      10.125   1.489 -13.276  1.00  0.00    -0.508 OA
ATOM     24  H   UNL     1       9.770   0.993 -14.086  1.00  0.00     0.293 HD
ENDBRANCH  11  23
ENDBRANCH   1   2
BRANCH   1  25
ATOM     25  C   UNL     1      17.883  -2.031 -11.063  1.00  0.00     0.339 C 
ATOM     26  C   UNL     1      19.432  -2.038 -10.812  1.00  0.00     0.214 C 
ATOM     27  O   UNL     1      17.180  -2.573  -9.962  1.00  0.00    -0.332 OA
ATOM     28  C   UNL     1      19.825  -1.223  -9.532  1.00  0.00     0.180 C 
ATOM     29  C   UNL     1      17.515  -2.026  -8.674  1.00  0.00     0.179 C 
ATOM     30  C   UNL     1      18.529  -0.839  -8.729  1.00  0.00     0.177 C 
BRANCH  26  31
ATOM     31  O   UNL     1      19.817  -3.376 -10.586  1.00  0.00    -0.384 OA
ATOM     32  H   UNL     1      19.909  -3.518  -9.592  1.00  0.00     0.211 HD
ENDBRANCH  26  31
BRANCH  28  33
ATOM     33  O   UNL     1      20.726  -1.944  -8.721  1.00  0.00    -0.387 OA
ATOM     34  H   UNL     1      20.256  -2.169  -7.885  1.00  0.00     0.211 HD
ENDBRANCH  28  33
BRANCH  29  35
ATOM     35  C   UNL     1      17.990  -3.187  -7.766  1.00  0.00     0.191 C 
BRANCH  35  36
ATOM     36  O   UNL     1      17.645  -3.001  -6.412  1.00  0.00    -0.394 OA
ATOM     37  H   UNL     1      17.011  -2.233  -6.366  1.00  0.00     0.210 HD
ENDBRANCH  35  36
ENDBRANCH  29  35
BRANCH  30  38
ATOM     38  O   UNL     1      18.776  -0.326  -7.444  1.00  0.00    -0.387 OA
ATOM     39  H   UNL     1      18.931  -1.141  -6.869  1.00  0.00     0.211 HD
ENDBRANCH  30  38
ENDBRANCH   1  25
TORSDOF 11
ENDMDL
MODEL 9
REMARK VINA RESULT:    -5.758      2.896      6.785
REMARK INTER + INTRA:          -9.867
REMARK INTER:                  -8.509
REMARK INTRA:                  -1.358
REMARK UNBOUND:                -1.585
REMARK SMILES O=c1c(O[C@@H]2O[C@@H](CO)[C@@H](O)[C@@H](O)[C@H]2O)c(-c2ccc(O)cc2)oc2cc(O)cc(O)c12
REMARK SMILES IDX 4 1 3 2 16 3 24 4 2 5 25 6 1 7 32 8 26 9 30 10 27 11 29 12
REMARK SMILES IDX 17 13 18 14 19 15 20 16 23 17 22 18 21 19 31 21 28 23 5 25
REMARK SMILES IDX 14 26 6 27 12 28 7 29 10 30 15 31 13 33 8 35 9 36 11 38
REMARK H PARENT 21 20 31 22 28 24 15 32 13 34 9 37 11 39
REMARK Flexibility Score: inf
ROOT
ATOM      1  O   UNL     1      16.527  -4.917 -13.892  1.00  0.00    -0.454 OA
ENDROOT
BRANCH   1   2
ATOM      2  C   UNL     1      17.192  -3.978 -13.089  1.00  0.00     0.214 A 
ATOM      3  C   UNL     1      16.639  -2.708 -12.770  1.00  0.00     0.180 A 
ATOM      4  O   UNL     1      17.387  -1.809 -12.130  1.00  0.00    -0.452 OA
ATOM      5  C   UNL     1      18.431  -4.301 -12.511  1.00  0.00     0.239 A 
ATOM      6  C   UNL     1      18.641  -2.032 -11.758  1.00  0.00     0.146 A 
ATOM      7  O   UNL     1      18.760  -5.514 -12.413  1.00  0.00    -0.285 OA
ATOM      8  C   UNL     1      19.243  -3.298 -11.968  1.00  0.00     0.111 A 
ATOM      9  C   UNL     1      19.356  -1.006 -11.121  1.00  0.00     0.094 A 
ATOM     10  C   UNL     1      20.600  -3.486 -11.581  1.00  0.00     0.134 A 
ATOM     11  C   UNL     1      20.670  -1.219 -10.697  1.00  0.00     0.123 A 
ATOM     12  C   UNL     1      21.282  -2.453 -10.926  1.00  0.00     0.093 A 
BRANCH   3  13
ATOM     13  C   UNL     1      15.225  -2.373 -12.981  1.00  0.00     0.021 A 
ATOM     14  C   UNL     1      14.810  -1.131 -13.484  1.00  0.00     0.016 A 
ATOM     15  C   UNL     1      13.442  -0.837 -13.573  1.00  0.00     0.047 A 
ATOM     16  C   UNL     1      12.490  -1.757 -13.131  1.00  0.00     0.115 A 
ATOM     17  C   UNL     1      14.265  -3.299 -12.538  1.00  0.00     0.016 A 
ATOM     18  C   UNL     1      12.902  -2.998 -12.612  1.00  0.00     0.047 A 
BRANCH  16  19
ATOM     19  O   UNL     1      11.137  -1.437 -13.183  1.00  0.00    -0.508 OA
ATOM     20  H   UNL     1      10.815  -0.479 -13.111  1.00  0.00     0.293 HD
ENDBRANCH  16  19
ENDBRANCH   3  13
BRANCH  10  21
ATOM     21  O   UNL     1      21.319  -4.650 -11.863  1.00  0.00    -0.507 OA
ATOM     22  H   UNL     1      21.885  -5.154 -11.189  1.00  0.00     0.293 HD
ENDBRANCH  10  21
BRANCH  11  23
ATOM     23  O   UNL     1      21.367  -0.198 -10.049  1.00  0.00    -0.508 OA
ATOM     24  H   UNL     1      22.344  -0.300  -9.797  1.00  0.00     0.293 HD
ENDBRANCH  11  23
ENDBRANCH   1   2
BRANCH   1  25
ATOM     25  C   UNL     1      16.514  -4.851 -15.337  1.00  0.00     0.339 C 
ATOM     26  C   UNL     1      17.925  -5.001 -16.007  1.00  0.00     0.214 C 
ATOM     27  O   UNL     1      15.588  -5.778 -15.873  1.00  0.00    -0.332 OA
ATOM     28  C   UNL     1      18.514  -6.442 -15.825  1.00  0.00     0.180 C 
ATOM     29  C   UNL     1      16.022  -7.149 -15.906  1.00  0.00     0.179 C 
ATOM     30  C   UNL     1      17.411  -7.396 -15.236  1.00  0.00     0.177 C 
BRANCH  26  31
ATOM     31  O   UNL     1      17.758  -4.793 -17.393  1.00  0.00    -0.384 OA
ATOM     32  H   UNL     1      17.305  -3.903 -17.530  1.00  0.00     0.211 HD
ENDBRANCH  26  31
BRANCH  28  33
ATOM     33  O   UNL     1      19.021  -6.946 -17.041  1.00  0.00    -0.387 OA
ATOM     34  H   UNL     1      18.446  -7.700 -17.310  1.00  0.00     0.211 HD
ENDBRANCH  28  33
BRANCH  29  35
ATOM     35  C   UNL     1      15.962  -7.639 -17.374  1.00  0.00     0.191 C 
BRANCH  35  36
ATOM     36  O   UNL     1      15.482  -6.655 -18.263  1.00  0.00    -0.394 OA
ATOM     37  H   UNL     1      15.096  -5.918 -17.714  1.00  0.00     0.210 HD
ENDBRANCH  35  36
ENDBRANCH  29  35
BRANCH  30  38
ATOM     38  O   UNL     1      17.751  -8.759 -15.264  1.00  0.00    -0.387 OA
ATOM     39  H   UNL     1      17.030  -9.191 -15.823  1.00  0.00     0.211 HD
ENDBRANCH  30  38
ENDBRANCH   1  25
TORSDOF 11
ENDMDL
