MODEL 1
REMARK VINA RESULT:    19.187      0.000      0.000
REMARK INTER + INTRA:          37.042
REMARK INTER:                  37.135
REMARK INTRA:                  -0.093
REMARK UNBOUND:                -0.093
REMARK SMILES CCCCCCCCCCCCCCCCCC(=O)[O-]
REMARK SMILES IDX 10 1 11 2 12 3 13 4 14 5 15 6 16 7 17 8 18 9 19 10 20 11
REMARK SMILES IDX 9 12 8 13 7 14 6 15 5 16 4 17 3 18 2 19 1 20
REMARK H PARENT
REMARK Flexibility Score: inf
ROOT
ATOM      1  C   UNL     1      14.480   5.249   7.461  1.00  0.00     0.000 C 
ENDROOT
BRANCH   1   2
ATOM      2  C   UNL     1      14.508   6.577   8.240  1.00  0.00     0.000 C 
BRANCH   2   3
ATOM      3  C   UNL     1      14.098   7.778   7.372  1.00  0.00     0.000 C 
BRANCH   3   4
ATOM      4  C   UNL     1      12.662   8.249   7.651  1.00  0.00     0.000 C 
BRANCH   4   5
ATOM      5  C   UNL     1      11.674   7.077   7.561  1.00  0.00     0.000 C 
BRANCH   5   6
ATOM      6  C   UNL     1      11.303   6.507   8.939  1.00  0.00     0.000 C 
BRANCH   6   7
ATOM      7  C   UNL     1      10.606   5.138   8.845  1.00  0.00     0.006 C 
BRANCH   7   8
ATOM      8  C   UNL     1       9.705   5.032   7.606  1.00  0.00     0.053 C 
BRANCH   8   9
ATOM      9  C   UNL     1       9.995   3.796   6.812  1.00  0.00     0.041 C 
ATOM     10  O   UNL     1      11.058   3.149   7.011  1.00  0.00    -0.550 OA
ATOM     11  O   UNL     1       9.076   3.337   5.876  1.00  0.00    -0.550 OA
ENDBRANCH   8   9
ENDBRANCH   7   8
ENDBRANCH   6   7
ENDBRANCH   5   6
ENDBRANCH   4   5
ENDBRANCH   3   4
ENDBRANCH   2   3
ENDBRANCH   1   2
BRANCH   1  12
ATOM     12  C   UNL     1      15.429   5.257   6.252  1.00  0.00     0.000 C 
BRANCH  12  13
ATOM     13  C   UNL     1      16.028   3.870   5.962  1.00  0.00    -0.000 C 
BRANCH  13  14
ATOM     14  C   UNL     1      17.498   3.750   6.400  1.00  0.00    -0.000 C 
BRANCH  14  15
ATOM     15  C   UNL     1      18.111   5.036   6.991  1.00  0.00    -0.000 C 
BRANCH  15  16
ATOM     16  C   UNL     1      17.883   5.235   8.503  1.00  0.00    -0.000 C 
BRANCH  16  17
ATOM     17  C   UNL     1      17.991   6.691   8.990  1.00  0.00    -0.000 C 
BRANCH  17  18
ATOM     18  C   UNL     1      16.675   7.223   9.578  1.00  0.00    -0.000 C 
BRANCH  18  19
ATOM     19  C   UNL     1      16.914   8.498  10.394  1.00  0.00    -0.003 C 
ATOM     20  C   UNL     1      18.052   9.326   9.802  1.00  0.00     0.004 C 
ENDBRANCH  18  19
ENDBRANCH  17  18
ENDBRANCH  16  17
ENDBRANCH  15  16
ENDBRANCH  14  15
ENDBRANCH  13  14
ENDBRANCH  12  13
ENDBRANCH   1  12
TORSDOF 16
ENDMDL
MODEL 2
REMARK VINA RESULT:    19.841      1.541      2.399
REMARK INTER + INTRA:          38.306
REMARK INTER:                  38.842
REMARK INTRA:                  -0.536
REMARK UNBOUND:                -0.093
REMARK SMILES CCCCCCCCCCCCCCCCCC(=O)[O-]
REMARK SMILES IDX 10 1 11 2 12 3 13 4 14 5 15 6 16 7 17 8 18 9 19 10 20 11
REMARK SMILES IDX 9 12 8 13 7 14 6 15 5 16 4 17 3 18 2 19 1 20
REMARK H PARENT
REMARK Flexibility Score: inf
ROOT
ATOM      1  C   UNL     1      13.409   6.681   8.186  1.00  0.00     0.000 C 
ENDROOT
BRANCH   1   2
ATOM      2  C   UNL     1      12.436   7.736   7.630  1.00  0.00     0.000 C 
BRANCH   2   3
ATOM      3  C   UNL     1      11.042   7.157   7.337  1.00  0.00     0.000 C 
BRANCH   3   4
ATOM      4  C   UNL     1      11.091   5.927   6.418  1.00  0.00     0.000 C 
BRANCH   4   5
ATOM      5  C   UNL     1       9.684   5.351   6.199  1.00  0.00     0.000 C 
BRANCH   5   6
ATOM      6  C   UNL     1       9.636   3.824   6.365  1.00  0.00     0.000 C 
BRANCH   6   7
ATOM      7  C   UNL     1      10.962   3.244   6.889  1.00  0.00     0.006 C 
BRANCH   7   8
ATOM      8  C   UNL     1      11.409   3.913   8.196  1.00  0.00     0.053 C 
BRANCH   8   9
ATOM      9  C   UNL     1      10.478   3.600   9.327  1.00  0.00     0.041 C 
ATOM     10  O   UNL     1      10.467   2.448   9.839  1.00  0.00    -0.550 OA
ATOM     11  O   UNL     1       9.647   4.588   9.840  1.00  0.00    -0.550 OA
ENDBRANCH   8   9
ENDBRANCH   7   8
ENDBRANCH   6   7
ENDBRANCH   5   6
ENDBRANCH   4   5
ENDBRANCH   3   4
ENDBRANCH   2   3
ENDBRANCH   1   2
BRANCH   1  12
ATOM     12  C   UNL     1      14.660   6.514   7.308  1.00  0.00     0.000 C 
BRANCH  12  13
ATOM     13  C   UNL     1      15.112   5.048   7.197  1.00  0.00    -0.000 C 
BRANCH  13  14
ATOM     14  C   UNL     1      16.347   4.870   6.297  1.00  0.00    -0.000 C 
BRANCH  14  15
ATOM     15  C   UNL     1      17.689   4.742   7.046  1.00  0.00    -0.000 C 
BRANCH  15  16
ATOM     16  C   UNL     1      18.125   5.997   7.828  1.00  0.00    -0.000 C 
BRANCH  16  17
ATOM     17  C   UNL     1      18.074   5.859   9.359  1.00  0.00    -0.000 C 
BRANCH  17  18
ATOM     18  C   UNL     1      18.082   7.214  10.082  1.00  0.00    -0.000 C 
BRANCH  18  19
ATOM     19  C   UNL     1      17.188   8.228   9.358  1.00  0.00    -0.003 C 
ATOM     20  C   UNL     1      17.400   9.637   9.904  1.00  0.00     0.004 C 
ENDBRANCH  18  19
ENDBRANCH  17  18
ENDBRANCH  16  17
ENDBRANCH  15  16
ENDBRANCH  14  15
ENDBRANCH  13  14
ENDBRANCH  12  13
ENDBRANCH   1  12
TORSDOF 16
ENDMDL
MODEL 3
REMARK VINA RESULT:    20.267      4.849      8.246
REMARK INTER + INTRA:          39.132
REMARK INTER:                  38.982
REMARK INTRA:                   0.150
REMARK UNBOUND:                -0.093
REMARK SMILES CCCCCCCCCCCCCCCCCC(=O)[O-]
REMARK SMILES IDX 10 1 11 2 12 3 13 4 14 5 15 6 16 7 17 8 18 9 19 10 20 11
REMARK SMILES IDX 9 12 8 13 7 14 6 15 5 16 4 17 3 18 2 19 1 20
REMARK H PARENT
REMARK Flexibility Score: inf
ROOT
ATOM      1  C   UNL     1      10.609   5.428   8.764  1.00  0.00     0.000 C 
ENDROOT
BRANCH   1   2
ATOM      2  C   UNL     1      11.323   6.529   7.960  1.00  0.00     0.000 C 
BRANCH   2   3
ATOM      3  C   UNL     1      12.848   6.338   7.924  1.00  0.00     0.000 C 
BRANCH   3   4
ATOM      4  C   UNL     1      13.592   7.587   7.427  1.00  0.00     0.000 C 
BRANCH   4   5
ATOM      5  C   UNL     1      15.081   7.286   7.205  1.00  0.00     0.000 C 
BRANCH   5   6
ATOM      6  C   UNL     1      15.493   5.904   7.738  1.00  0.00     0.000 C 
BRANCH   6   7
ATOM      7  C   UNL     1      15.608   5.873   9.272  1.00  0.00     0.006 C 
BRANCH   7   8
ATOM      8  C   UNL     1      15.638   7.284   9.878  1.00  0.00     0.053 C 
BRANCH   8   9
ATOM      9  C   UNL     1      17.014   7.874   9.842  1.00  0.00     0.041 C 
ATOM     10  O   UNL     1      17.169   9.105   9.621  1.00  0.00    -0.550 OA
ATOM     11  O   UNL     1      18.123   7.074  10.087  1.00  0.00    -0.550 OA
ENDBRANCH   8   9
ENDBRANCH   7   8
ENDBRANCH   6   7
ENDBRANCH   5   6
ENDBRANCH   4   5
ENDBRANCH   3   4
ENDBRANCH   2   3
ENDBRANCH   1   2
BRANCH   1  12
ATOM     12  C   UNL     1      10.439   4.129   7.960  1.00  0.00     0.000 C 
BRANCH  12  13
ATOM     13  C   UNL     1      10.604   2.871   8.830  1.00  0.00    -0.000 C 
BRANCH  13  14
ATOM     14  C   UNL     1      10.557   1.568   8.011  1.00  0.00    -0.000 C 
BRANCH  14  15
ATOM     15  C   UNL     1      11.726   0.595   8.264  1.00  0.00    -0.000 C 
BRANCH  15  16
ATOM     16  C   UNL     1      11.609  -0.769   7.554  1.00  0.00    -0.000 C 
BRANCH  16  17
ATOM     17  C   UNL     1      12.364  -1.923   8.236  1.00  0.00    -0.000 C 
BRANCH  17  18
ATOM     18  C   UNL     1      11.980  -3.301   7.678  1.00  0.00    -0.000 C 
BRANCH  18  19
ATOM     19  C   UNL     1      11.029  -4.034   8.631  1.00  0.00    -0.003 C 
ATOM     20  C   UNL     1      11.621  -5.366   9.082  1.00  0.00     0.004 C 
ENDBRANCH  18  19
ENDBRANCH  17  18
ENDBRANCH  16  17
ENDBRANCH  15  16
ENDBRANCH  14  15
ENDBRANCH  13  14
ENDBRANCH  12  13
ENDBRANCH   1  12
TORSDOF 16
ENDMDL
MODEL 4
REMARK VINA RESULT:    20.323      4.035      7.880
REMARK INTER + INTRA:          39.240
REMARK INTER:                  39.856
REMARK INTRA:                  -0.616
REMARK UNBOUND:                -0.093
REMARK SMILES CCCCCCCCCCCCCCCCCC(=O)[O-]
REMARK SMILES IDX 10 1 11 2 12 3 13 4 14 5 15 6 16 7 17 8 18 9 19 10 20 11
REMARK SMILES IDX 9 12 8 13 7 14 6 15 5 16 4 17 3 18 2 19 1 20
REMARK H PARENT
REMARK Flexibility Score: inf
ROOT
ATOM      1  C   UNL     1      11.525   5.985   8.231  1.00  0.00     0.000 C 
ENDROOT
BRANCH   1   2
ATOM      2  C   UNL     1      12.255   7.240   7.722  1.00  0.00     0.000 C 
BRANCH   2   3
ATOM      3  C   UNL     1      13.768   7.019   7.561  1.00  0.00     0.000 C 
BRANCH   3   4
ATOM      4  C   UNL     1      14.243   5.696   8.180  1.00  0.00     0.000 C 
BRANCH   4   5
ATOM      5  C   UNL     1      15.621   5.298   7.630  1.00  0.00     0.000 C 
BRANCH   5   6
ATOM      6  C   UNL     1      16.667   6.414   7.785  1.00  0.00     0.000 C 
BRANCH   6   7
ATOM      7  C   UNL     1      17.880   5.974   8.623  1.00  0.00     0.006 C 
BRANCH   7   8
ATOM      8  C   UNL     1      18.125   6.906   9.819  1.00  0.00     0.053 C 
BRANCH   8   9
ATOM      9  C   UNL     1      17.142   8.035   9.853  1.00  0.00     0.041 C 
ATOM     10  O   UNL     1      15.934   7.816  10.135  1.00  0.00    -0.550 OA
ATOM     11  O   UNL     1      17.566   9.336   9.608  1.00  0.00    -0.550 OA
ENDBRANCH   8   9
ENDBRANCH   7   8
ENDBRANCH   6   7
ENDBRANCH   5   6
ENDBRANCH   4   5
ENDBRANCH   3   4
ENDBRANCH   2   3
ENDBRANCH   1   2
BRANCH   1  12
ATOM     12  C   UNL     1      10.644   5.337   7.150  1.00  0.00     0.000 C 
BRANCH  12  13
ATOM     13  C   UNL     1      10.628   3.801   7.244  1.00  0.00    -0.000 C 
BRANCH  13  14
ATOM     14  C   UNL     1      10.949   3.286   8.658  1.00  0.00    -0.000 C 
BRANCH  14  15
ATOM     15  C   UNL     1      10.411   1.877   8.979  1.00  0.00    -0.000 C 
BRANCH  15  16
ATOM     16  C   UNL     1      10.782   0.785   7.955  1.00  0.00    -0.000 C 
BRANCH  16  17
ATOM     17  C   UNL     1      11.720  -0.312   8.487  1.00  0.00    -0.000 C 
BRANCH  17  18
ATOM     18  C   UNL     1      12.408  -1.105   7.366  1.00  0.00    -0.000 C 
BRANCH  18  19
ATOM     19  C   UNL     1      12.158  -2.609   7.525  1.00  0.00    -0.003 C 
ATOM     20  C   UNL     1      11.224  -2.892   8.698  1.00  0.00     0.004 C 
ENDBRANCH  18  19
ENDBRANCH  17  18
ENDBRANCH  16  17
ENDBRANCH  15  16
ENDBRANCH  14  15
ENDBRANCH  13  14
ENDBRANCH  12  13
ENDBRANCH   1  12
TORSDOF 16
ENDMDL
MODEL 5
REMARK VINA RESULT:    20.488      2.983      4.344
REMARK INTER + INTRA:          39.560
REMARK INTER:                  39.128
REMARK INTRA:                   0.431
REMARK UNBOUND:                -0.093
REMARK SMILES CCCCCCCCCCCCCCCCCC(=O)[O-]
REMARK SMILES IDX 10 1 11 2 12 3 13 4 14 5 15 6 16 7 17 8 18 9 19 10 20 11
REMARK SMILES IDX 9 12 8 13 7 14 6 15 5 16 4 17 3 18 2 19 1 20
REMARK H PARENT
REMARK Flexibility Score: inf
ROOT
ATOM      1  C   UNL     1      12.058   6.250   8.355  1.00  0.00     0.000 C 
ENDROOT
BRANCH   1   2
ATOM      2  C   UNL     1      10.539   6.056   8.508  1.00  0.00     0.000 C 
BRANCH   2   3
ATOM      3  C   UNL     1       9.996   4.922   7.623  1.00  0.00     0.000 C 
BRANCH   3   4
ATOM      4  C   UNL     1      10.969   3.739   7.509  1.00  0.00     0.000 C 
BRANCH   4   5
ATOM      5  C   UNL     1      10.696   2.699   8.605  1.00  0.00     0.000 C 
BRANCH   5   6
ATOM      6  C   UNL     1      10.355   1.313   8.035  1.00  0.00     0.000 C 
BRANCH   6   7
ATOM      7  C   UNL     1      11.545   0.338   8.098  1.00  0.00     0.006 C 
BRANCH   7   8
ATOM      8  C   UNL     1      11.189  -1.046   7.539  1.00  0.00     0.053 C 
BRANCH   8   9
ATOM      9  C   UNL     1      12.163  -2.093   7.983  1.00  0.00     0.041 C 
ATOM     10  O   UNL     1      13.403  -1.896   7.865  1.00  0.00    -0.550 OA
ATOM     11  O   UNL     1      11.706  -3.270   8.562  1.00  0.00    -0.550 OA
ENDBRANCH   8   9
ENDBRANCH   7   8
ENDBRANCH   6   7
ENDBRANCH   5   6
ENDBRANCH   4   5
ENDBRANCH   3   4
ENDBRANCH   2   3
ENDBRANCH   1   2
BRANCH   1  12
ATOM     12  C   UNL     1      12.412   7.522   7.568  1.00  0.00     0.000 C 
BRANCH  12  13
ATOM     13  C   UNL     1      13.889   7.558   7.138  1.00  0.00    -0.000 C 
BRANCH  13  14
ATOM     14  C   UNL     1      14.772   6.595   7.951  1.00  0.00    -0.000 C 
BRANCH  14  15
ATOM     15  C   UNL     1      15.719   5.712   7.114  1.00  0.00    -0.000 C 
BRANCH  15  16
ATOM     16  C   UNL     1      17.078   5.401   7.773  1.00  0.00    -0.000 C 
BRANCH  16  17
ATOM     17  C   UNL     1      17.593   6.481   8.739  1.00  0.00    -0.000 C 
BRANCH  17  18
ATOM     18  C   UNL     1      16.508   6.990   9.700  1.00  0.00    -0.000 C 
BRANCH  18  19
ATOM     19  C   UNL     1      16.675   8.490   9.973  1.00  0.00    -0.003 C 
ATOM     20  C   UNL     1      18.125   8.926   9.780  1.00  0.00     0.004 C 
ENDBRANCH  18  19
ENDBRANCH  17  18
ENDBRANCH  16  17
ENDBRANCH  15  16
ENDBRANCH  14  15
ENDBRANCH  13  14
ENDBRANCH  12  13
ENDBRANCH   1  12
TORSDOF 16
ENDMDL
MODEL 6
REMARK VINA RESULT:    21.002      4.064      7.669
REMARK INTER + INTRA:          40.553
REMARK INTER:                  38.191
REMARK INTRA:                   2.361
REMARK UNBOUND:                -0.093
REMARK SMILES CCCCCCCCCCCCCCCCCC(=O)[O-]
REMARK SMILES IDX 10 1 11 2 12 3 13 4 14 5 15 6 16 7 17 8 18 9 19 10 20 11
REMARK SMILES IDX 9 12 8 13 7 14 6 15 5 16 4 17 3 18 2 19 1 20
REMARK H PARENT
REMARK Flexibility Score: inf
ROOT
ATOM      1  C   UNL     1      11.992   5.099   8.079  1.00  0.00     0.000 C 
ENDROOT
BRANCH   1   2
ATOM      2  C   UNL     1      12.027   6.637   8.044  1.00  0.00     0.000 C 
BRANCH   2   3
ATOM      3  C   UNL     1      13.295   7.183   7.366  1.00  0.00     0.000 C 
BRANCH   3   4
ATOM      4  C   UNL     1      14.565   6.428   7.785  1.00  0.00     0.000 C 
BRANCH   4   5
ATOM      5  C   UNL     1      14.901   6.699   9.259  1.00  0.00     0.000 C 
BRANCH   5   6
ATOM      6  C   UNL     1      16.413   6.797   9.515  1.00  0.00     0.000 C 
BRANCH   6   7
ATOM      7  C   UNL     1      17.248   6.288   8.326  1.00  0.00     0.006 C 
BRANCH   7   8
ATOM      8  C   UNL     1      16.377   5.968   7.103  1.00  0.00     0.053 C 
BRANCH   8   9
ATOM      9  C   UNL     1      16.860   4.748   6.381  1.00  0.00     0.041 C 
ATOM     10  O   UNL     1      18.096   4.532   6.258  1.00  0.00    -0.550 OA
ATOM     11  O   UNL     1      15.948   3.831   5.875  1.00  0.00    -0.550 OA
ENDBRANCH   8   9
ENDBRANCH   7   8
ENDBRANCH   6   7
ENDBRANCH   5   6
ENDBRANCH   4   5
ENDBRANCH   3   4
ENDBRANCH   2   3
ENDBRANCH   1   2
BRANCH   1  12
ATOM     12  C   UNL     1      10.594   4.549   8.404  1.00  0.00     0.000 C 
BRANCH  12  13
ATOM     13  C   UNL     1      10.637   3.115   8.959  1.00  0.00    -0.000 C 
BRANCH  13  14
ATOM     14  C   UNL     1      10.597   2.045   7.853  1.00  0.00    -0.000 C 
BRANCH  14  15
ATOM     15  C   UNL     1      10.633   0.587   8.352  1.00  0.00    -0.000 C 
BRANCH  15  16
ATOM     16  C   UNL     1      11.352  -0.408   7.418  1.00  0.00    -0.000 C 
BRANCH  16  17
ATOM     17  C   UNL     1      12.719  -0.901   7.925  1.00  0.00    -0.000 C 
BRANCH  17  18
ATOM     18  C   UNL     1      12.731  -2.404   8.241  1.00  0.00    -0.000 C 
BRANCH  18  19
ATOM     19  C   UNL     1      11.419  -3.067   7.809  1.00  0.00    -0.003 C 
ATOM     20  C   UNL     1      11.184  -4.371   8.566  1.00  0.00     0.004 C 
ENDBRANCH  18  19
ENDBRANCH  17  18
ENDBRANCH  16  17
ENDBRANCH  15  16
ENDBRANCH  14  15
ENDBRANCH  13  14
ENDBRANCH  12  13
ENDBRANCH   1  12
TORSDOF 16
ENDMDL
MODEL 7
REMARK VINA RESULT:    21.131      5.503      8.663
REMARK INTER + INTRA:          40.804
REMARK INTER:                  41.651
REMARK INTRA:                  -0.847
REMARK UNBOUND:                -0.093
REMARK SMILES CCCCCCCCCCCCCCCCCC(=O)[O-]
REMARK SMILES IDX 10 1 11 2 12 3 13 4 14 5 15 6 16 7 17 8 18 9 19 10 20 11
REMARK SMILES IDX 9 12 8 13 7 14 6 15 5 16 4 17 3 18 2 19 1 20
REMARK H PARENT
REMARK Flexibility Score: inf
ROOT
ATOM      1  C   UNL     1      10.577   3.659   9.132  1.00  0.00     0.000 C 
ENDROOT
BRANCH   1   2
ATOM      2  C   UNL     1      10.550   3.865   7.607  1.00  0.00     0.000 C 
BRANCH   2   3
ATOM      3  C   UNL     1      11.437   5.037   7.154  1.00  0.00     0.000 C 
BRANCH   3   4
ATOM      4  C   UNL     1      11.629   6.095   8.251  1.00  0.00     0.000 C 
BRANCH   4   5
ATOM      5  C   UNL     1      12.655   7.153   7.818  1.00  0.00     0.000 C 
BRANCH   5   6
ATOM      6  C   UNL     1      14.007   6.540   7.422  1.00  0.00     0.000 C 
BRANCH   6   7
ATOM      7  C   UNL     1      14.768   5.958   8.627  1.00  0.00     0.006 C 
BRANCH   7   8
ATOM      8  C   UNL     1      16.281   6.203   8.528  1.00  0.00     0.053 C 
BRANCH   8   9
ATOM      9  C   UNL     1      16.747   7.210   9.534  1.00  0.00     0.041 C 
ATOM     10  O   UNL     1      15.976   8.132   9.913  1.00  0.00    -0.550 OA
ATOM     11  O   UNL     1      18.021   7.110  10.081  1.00  0.00    -0.550 OA
ENDBRANCH   8   9
ENDBRANCH   7   8
ENDBRANCH   6   7
ENDBRANCH   5   6
ENDBRANCH   4   5
ENDBRANCH   3   4
ENDBRANCH   2   3
ENDBRANCH   1   2
BRANCH   1  12
ATOM     12  C   UNL     1      10.794   2.188   9.522  1.00  0.00     0.000 C 
BRANCH  12  13
ATOM     13  C   UNL     1      11.068   1.288   8.305  1.00  0.00    -0.000 C 
BRANCH  13  14
ATOM     14  C   UNL     1      11.626  -0.092   8.696  1.00  0.00    -0.000 C 
BRANCH  14  15
ATOM     15  C   UNL     1      12.010  -1.001   7.511  1.00  0.00    -0.000 C 
BRANCH  15  16
ATOM     16  C   UNL     1      12.297  -2.471   7.879  1.00  0.00    -0.000 C 
BRANCH  16  17
ATOM     17  C   UNL     1      11.135  -3.205   8.571  1.00  0.00    -0.000 C 
BRANCH  17  18
ATOM     18  C   UNL     1      11.239  -4.733   8.452  1.00  0.00    -0.000 C 
BRANCH  18  19
ATOM     19  C   UNL     1      12.162  -5.306   9.534  1.00  0.00    -0.003 C 
ATOM     20  C   UNL     1      11.807  -6.756   9.849  1.00  0.00     0.004 C 
ENDBRANCH  18  19
ENDBRANCH  17  18
ENDBRANCH  16  17
ENDBRANCH  15  16
ENDBRANCH  14  15
ENDBRANCH  13  14
ENDBRANCH  12  13
ENDBRANCH   1  12
TORSDOF 16
ENDMDL
