MODEL 1
REMARK VINA RESULT:    -4.280      0.000      0.000
REMARK INTER + INTRA:          -4.280
REMARK INTER:                  -4.280
REMARK INTRA:                   0.000
REMARK UNBOUND:                 0.000
REMARK SMILES CC(C)=C1CC[C@H](C)CC1=O
REMARK SMILES IDX 8 1 7 2 6 3 5 4 4 5 2 6 1 7 3 8 10 9 11 10 9 11
REMARK H PARENT
REMARK Flexibility Score: inf
ROOT
ATOM      1  C   UNL     1      28.889  31.980  24.485  1.00  0.00     0.008 C 
ATOM      2  C   UNL     1      28.306  33.064  23.573  1.00  0.00    -0.006 C 
ATOM      3  C   UNL     1      28.502  34.457  24.193  1.00  0.00     0.008 C 
ATOM      4  C   UNL     1      27.834  35.545  23.342  1.00  0.00     0.039 C 
ATOM      5  C   UNL     1      28.261  35.490  21.881  1.00  0.00    -0.006 C 
ATOM      6  C   UNL     1      28.344  36.622  21.122  1.00  0.00    -0.070 C 
ATOM      7  C   UNL     1      28.821  36.586  19.689  1.00  0.00     0.039 C 
ATOM      8  C   UNL     1      27.995  37.977  21.696  1.00  0.00     0.039 C 
ATOM      9  C   UNL     1      28.468  34.126  21.310  1.00  0.00     0.159 C 
ATOM     10  O   UNL     1      28.230  33.880  20.097  1.00  0.00    -0.295 OA
ATOM     11  C   UNL     1      28.962  33.010  22.185  1.00  0.00     0.084 C 
ENDROOT
TORSDOF 0
ENDMDL
MODEL 2
REMARK VINA RESULT:    -4.040      4.719      7.542
REMARK INTER + INTRA:          -4.040
REMARK INTER:                  -4.040
REMARK INTRA:                   0.000
REMARK UNBOUND:                 0.000
REMARK SMILES CC(C)=C1CC[C@H](C)CC1=O
REMARK SMILES IDX 8 1 7 2 6 3 5 4 4 5 2 6 1 7 3 8 10 9 11 10 9 11
REMARK H PARENT
REMARK Flexibility Score: inf
ROOT
ATOM      1  C   UNL     1      26.861  44.060  21.473  1.00  0.00     0.008 C 
ATOM      2  C   UNL     1      26.603  42.790  20.654  1.00  0.00    -0.006 C 
ATOM      3  C   UNL     1      27.792  42.492  19.727  1.00  0.00     0.008 C 
ATOM      4  C   UNL     1      27.508  41.283  18.827  1.00  0.00     0.039 C 
ATOM      5  C   UNL     1      27.059  40.059  19.615  1.00  0.00    -0.006 C 
ATOM      6  C   UNL     1      27.358  38.795  19.194  1.00  0.00    -0.070 C 
ATOM      7  C   UNL     1      26.968  37.576  19.996  1.00  0.00     0.039 C 
ATOM      8  C   UNL     1      28.131  38.557  17.916  1.00  0.00     0.039 C 
ATOM      9  C   UNL     1      26.186  40.325  20.796  1.00  0.00     0.159 C 
ATOM     10  O   UNL     1      25.298  39.503  21.152  1.00  0.00    -0.295 OA
ATOM     11  C   UNL     1      26.348  41.594  21.583  1.00  0.00     0.084 C 
ENDROOT
TORSDOF 0
ENDMDL
MODEL 3
REMARK VINA RESULT:    -3.917      1.523      2.081
REMARK INTER + INTRA:          -3.917
REMARK INTER:                  -3.917
REMARK INTRA:                   0.000
REMARK UNBOUND:                 0.000
REMARK SMILES CC(C)=C1CC[C@H](C)CC1=O
REMARK SMILES IDX 8 1 7 2 6 3 5 4 4 5 2 6 1 7 3 8 10 9 11 10 9 11
REMARK H PARENT
REMARK Flexibility Score: inf
ROOT
ATOM      1  C   UNL     1      28.465  33.979  23.883  1.00  0.00     0.008 C 
ATOM      2  C   UNL     1      27.959  34.665  22.609  1.00  0.00    -0.006 C 
ATOM      3  C   UNL     1      27.245  35.983  22.950  1.00  0.00     0.008 C 
ATOM      4  C   UNL     1      26.643  36.631  21.697  1.00  0.00     0.039 C 
ATOM      5  C   UNL     1      27.661  36.790  20.575  1.00  0.00    -0.006 C 
ATOM      6  C   UNL     1      27.589  37.832  19.693  1.00  0.00    -0.070 C 
ATOM      7  C   UNL     1      28.624  38.031  18.612  1.00  0.00     0.039 C 
ATOM      8  C   UNL     1      26.483  38.859  19.784  1.00  0.00     0.039 C 
ATOM      9  C   UNL     1      28.657  35.688  20.432  1.00  0.00     0.159 C 
ATOM     10  O   UNL     1      29.120  35.364  19.305  1.00  0.00    -0.295 OA
ATOM     11  C   UNL     1      29.123  34.933  21.644  1.00  0.00     0.084 C 
ENDROOT
TORSDOF 0
ENDMDL
MODEL 4
REMARK VINA RESULT:    -3.893      1.982      3.390
REMARK INTER + INTRA:          -3.893
REMARK INTER:                  -3.893
REMARK INTRA:                   0.000
REMARK UNBOUND:                 0.000
REMARK SMILES CC(C)=C1CC[C@H](C)CC1=O
REMARK SMILES IDX 8 1 7 2 6 3 5 4 4 5 2 6 1 7 3 8 10 9 11 10 9 11
REMARK H PARENT
REMARK Flexibility Score: inf
ROOT
ATOM      1  C   UNL     1      28.781  33.207  21.980  1.00  0.00     0.008 C 
ATOM      2  C   UNL     1      28.898  34.643  21.455  1.00  0.00    -0.006 C 
ATOM      3  C   UNL     1      28.906  34.659  19.919  1.00  0.00     0.008 C 
ATOM      4  C   UNL     1      29.125  36.078  19.377  1.00  0.00     0.039 C 
ATOM      5  C   UNL     1      28.149  37.087  19.968  1.00  0.00    -0.006 C 
ATOM      6  C   UNL     1      27.717  38.163  19.247  1.00  0.00    -0.070 C 
ATOM      7  C   UNL     1      26.705  39.139  19.802  1.00  0.00     0.039 C 
ATOM      8  C   UNL     1      28.206  38.409  17.837  1.00  0.00     0.039 C 
ATOM      9  C   UNL     1      27.791  36.889  21.404  1.00  0.00     0.159 C 
ATOM     10  O   UNL     1      27.532  37.867  22.155  1.00  0.00    -0.295 OA
ATOM     11  C   UNL     1      27.742  35.505  21.984  1.00  0.00     0.084 C 
ENDROOT
TORSDOF 0
ENDMDL
MODEL 5
REMARK VINA RESULT:    -3.887      5.092      7.202
REMARK INTER + INTRA:          -3.887
REMARK INTER:                  -3.887
REMARK INTRA:                   0.000
REMARK UNBOUND:                 0.000
REMARK SMILES CC(C)=C1CC[C@H](C)CC1=O
REMARK SMILES IDX 8 1 7 2 6 3 5 4 4 5 2 6 1 7 3 8 10 9 11 10 9 11
REMARK H PARENT
REMARK Flexibility Score: inf
ROOT
ATOM      1  C   UNL     1      25.988  37.390  20.394  1.00  0.00     0.008 C 
ATOM      2  C   UNL     1      26.634  38.778  20.469  1.00  0.00    -0.006 C 
ATOM      3  C   UNL     1      26.936  39.310  19.059  1.00  0.00     0.008 C 
ATOM      4  C   UNL     1      27.675  40.654  19.117  1.00  0.00     0.039 C 
ATOM      5  C   UNL     1      26.960  41.678  19.989  1.00  0.00    -0.006 C 
ATOM      6  C   UNL     1      27.021  43.013  19.711  1.00  0.00    -0.070 C 
ATOM      7  C   UNL     1      26.270  44.033  20.534  1.00  0.00     0.039 C 
ATOM      8  C   UNL     1      27.818  43.533  18.535  1.00  0.00     0.039 C 
ATOM      9  C   UNL     1      26.295  41.144  21.215  1.00  0.00     0.159 C 
ATOM     10  O   UNL     1      26.209  41.834  22.266  1.00  0.00    -0.295 OA
ATOM     11  C   UNL     1      25.717  39.758  21.216  1.00  0.00     0.084 C 
ENDROOT
TORSDOF 0
ENDMDL
MODEL 6
REMARK VINA RESULT:    -3.813      2.075      5.071
REMARK INTER + INTRA:          -3.813
REMARK INTER:                  -3.813
REMARK INTRA:                   0.000
REMARK UNBOUND:                 0.000
REMARK SMILES CC(C)=C1CC[C@H](C)CC1=O
REMARK SMILES IDX 8 1 7 2 6 3 5 4 4 5 2 6 1 7 3 8 10 9 11 10 9 11
REMARK H PARENT
REMARK Flexibility Score: inf
ROOT
ATOM      1  C   UNL     1      27.638  39.451  18.638  1.00  0.00     0.008 C 
ATOM      2  C   UNL     1      27.508  38.130  19.405  1.00  0.00    -0.006 C 
ATOM      3  C   UNL     1      28.862  37.716  20.003  1.00  0.00     0.008 C 
ATOM      4  C   UNL     1      28.773  36.346  20.688  1.00  0.00     0.039 C 
ATOM      5  C   UNL     1      27.639  36.270  21.701  1.00  0.00    -0.006 C 
ATOM      6  C   UNL     1      27.736  35.492  22.819  1.00  0.00    -0.070 C 
ATOM      7  C   UNL     1      26.641  35.453  23.859  1.00  0.00     0.039 C 
ATOM      8  C   UNL     1      28.968  34.657  23.088  1.00  0.00     0.039 C 
ATOM      9  C   UNL     1      26.388  37.000  21.339  1.00  0.00     0.159 C 
ATOM     10  O   UNL     1      25.256  36.580  21.703  1.00  0.00    -0.295 OA
ATOM     11  C   UNL     1      26.458  38.256  20.520  1.00  0.00     0.084 C 
ENDROOT
TORSDOF 0
ENDMDL
MODEL 7
REMARK VINA RESULT:    -3.804      1.565      4.685
REMARK INTER + INTRA:          -3.804
REMARK INTER:                  -3.804
REMARK INTRA:                   0.000
REMARK UNBOUND:                 0.000
REMARK SMILES CC(C)=C1CC[C@H](C)CC1=O
REMARK SMILES IDX 8 1 7 2 6 3 5 4 4 5 2 6 1 7 3 8 10 9 11 10 9 11
REMARK H PARENT
REMARK Flexibility Score: inf
ROOT
ATOM      1  C   UNL     1      28.805  37.850  18.804  1.00  0.00     0.008 C 
ATOM      2  C   UNL     1      28.299  36.757  19.752  1.00  0.00    -0.006 C 
ATOM      3  C   UNL     1      29.107  35.463  19.565  1.00  0.00     0.008 C 
ATOM      4  C   UNL     1      28.549  34.328  20.433  1.00  0.00     0.039 C 
ATOM      5  C   UNL     1      28.410  34.724  21.897  1.00  0.00    -0.006 C 
ATOM      6  C   UNL     1      28.564  33.809  22.899  1.00  0.00    -0.070 C 
ATOM      7  C   UNL     1      28.484  34.202  24.355  1.00  0.00     0.039 C 
ATOM      8  C   UNL     1      28.859  32.358  22.595  1.00  0.00     0.039 C 
ATOM      9  C   UNL     1      27.986  36.132  22.157  1.00  0.00     0.159 C 
ATOM     10  O   UNL     1      27.283  36.431  23.159  1.00  0.00    -0.295 OA
ATOM     11  C   UNL     1      28.390  37.227  21.211  1.00  0.00     0.084 C 
ENDROOT
TORSDOF 0
ENDMDL
MODEL 8
REMARK VINA RESULT:    -3.718      2.334      3.555
REMARK INTER + INTRA:          -3.718
REMARK INTER:                  -3.718
REMARK INTRA:                   0.000
REMARK UNBOUND:                 0.000
REMARK SMILES CC(C)=C1CC[C@H](C)CC1=O
REMARK SMILES IDX 8 1 7 2 6 3 5 4 4 5 2 6 1 7 3 8 10 9 11 10 9 11
REMARK H PARENT
REMARK Flexibility Score: inf
ROOT
ATOM      1  C   UNL     1      28.840  34.033  21.228  1.00  0.00     0.008 C 
ATOM      2  C   UNL     1      28.095  35.245  20.657  1.00  0.00    -0.006 C 
ATOM      3  C   UNL     1      27.442  36.059  21.785  1.00  0.00     0.008 C 
ATOM      4  C   UNL     1      26.607  37.218  21.224  1.00  0.00     0.039 C 
ATOM      5  C   UNL     1      27.394  38.089  20.253  1.00  0.00    -0.006 C 
ATOM      6  C   UNL     1      27.144  39.427  20.137  1.00  0.00    -0.070 C 
ATOM      7  C   UNL     1      27.956  40.311  19.219  1.00  0.00     0.039 C 
ATOM      8  C   UNL     1      26.063  40.095  20.956  1.00  0.00     0.039 C 
ATOM      9  C   UNL     1      28.359  37.375  19.366  1.00  0.00     0.159 C 
ATOM     10  O   UNL     1      28.606  37.786  18.200  1.00  0.00    -0.295 OA
ATOM     11  C   UNL     1      29.054  36.135  19.853  1.00  0.00     0.084 C 
ENDROOT
TORSDOF 0
ENDMDL
MODEL 9
REMARK VINA RESULT:    -3.667      2.947      6.120
REMARK INTER + INTRA:          -3.667
REMARK INTER:                  -3.667
REMARK INTRA:                   0.000
REMARK UNBOUND:                 0.000
REMARK SMILES CC(C)=C1CC[C@H](C)CC1=O
REMARK SMILES IDX 8 1 7 2 6 3 5 4 4 5 2 6 1 7 3 8 10 9 11 10 9 11
REMARK H PARENT
REMARK Flexibility Score: inf
ROOT
ATOM      1  C   UNL     1      27.483  41.994  19.177  1.00  0.00     0.008 C 
ATOM      2  C   UNL     1      27.415  40.474  19.366  1.00  0.00    -0.006 C 
ATOM      3  C   UNL     1      28.799  39.911  19.725  1.00  0.00     0.008 C 
ATOM      4  C   UNL     1      28.771  38.380  19.819  1.00  0.00     0.039 C 
ATOM      5  C   UNL     1      27.674  37.870  20.745  1.00  0.00    -0.006 C 
ATOM      6  C   UNL     1      27.830  36.721  21.466  1.00  0.00    -0.070 C 
ATOM      7  C   UNL     1      26.773  36.236  22.430  1.00  0.00     0.039 C 
ATOM      8  C   UNL     1      29.092  35.896  21.359  1.00  0.00     0.039 C 
ATOM      9  C   UNL     1      26.392  38.635  20.724  1.00  0.00     0.159 C 
ATOM     10  O   UNL     1      25.285  38.064  20.917  1.00  0.00    -0.295 OA
ATOM     11  C   UNL     1      26.401  40.114  20.462  1.00  0.00     0.084 C 
ENDROOT
TORSDOF 0
ENDMDL
