MODEL 1
REMARK VINA RESULT:    -8.659      0.000      0.000
REMARK INTER + INTRA:          -8.912
REMARK INTER:                  -8.912
REMARK INTRA:                   0.000
REMARK UNBOUND:                 0.000
REMARK SMILES CC1(C)CC[C@@]2(C)CC[C@]3(C)C(=CC[C@H]4[C@@]5(C)CC[C@H](O)C(C)(C)[C@@H]5CC[C@@]43C)[C@H]2C1
REMARK SMILES IDX 1 1 2 2 4 3 5 4 6 5 8 6 9 7 10 8 12 9 13 10 14 11 15 12
REMARK SMILES IDX 28 13 27 14 26 15 25 16 16 17 18 18 19 19 20 20 22 21 23 22
REMARK SMILES IDX 24 23 17 24 29 25 30 26 31 27 11 28 7 29 3 30 21 31
REMARK H PARENT 21 32
REMARK Flexibility Score: inf
ROOT
ATOM      1  C   UNL     1     115.724 115.237 130.146  1.00  0.00     0.011 C 
ATOM      2  C   UNL     1     115.243 116.706 130.238  1.00  0.00    -0.035 C 
ATOM      3  C   UNL     1     113.844 116.812 130.882  1.00  0.00     0.007 C 
ATOM      4  C   UNL     1     112.767 116.131 130.038  1.00  0.00     0.008 C 
ATOM      5  C   UNL     1     112.641 116.711 128.596  1.00  0.00    -0.026 C 
ATOM      6  C   UNL     1     111.815 118.053 128.624  1.00  0.00     0.008 C 
ATOM      7  C   UNL     1     112.561 119.298 128.115  1.00  0.00     0.012 C 
ATOM      8  C   UNL     1     113.211 119.106 126.705  1.00  0.00    -0.006 C 
ATOM      9  C   UNL     1     114.009 117.784 126.694  1.00  0.00    -0.064 C 
ATOM     10  C   UNL     1     114.794 117.502 125.628  1.00  0.00    -0.027 C 
ATOM     11  C   UNL     1     115.190 118.609 124.685  1.00  0.00     0.032 C 
ATOM     12  C   UNL     1     115.457 119.864 125.547  1.00  0.00     0.006 C 
ATOM     13  C   UNL     1     114.142 120.393 126.257  1.00  0.00    -0.020 C 
ATOM     14  C   UNL     1     114.684 121.257 127.459  1.00  0.00     0.008 C 
ATOM     15  C   UNL     1     115.913 122.183 127.152  1.00  0.00     0.005 C 
ATOM     16  C   UNL     1     116.293 122.304 125.649  1.00  0.00     0.003 C 
ATOM     17  C   UNL     1     116.510 120.907 124.972  1.00  0.00    -0.025 C 
ATOM     18  C   UNL     1     116.397 121.082 123.421  1.00  0.00     0.010 C 
ATOM     19  C   UNL     1     116.716 122.507 122.896  1.00  0.00     0.033 C 
ATOM     20  C   UNL     1     117.751 123.298 123.734  1.00  0.00     0.120 C 
ATOM     21  C   UNL     1     117.341 123.428 125.260  1.00  0.00    -0.006 C 
ATOM     22  C   UNL     1     118.585 123.433 126.187  1.00  0.00     0.014 C 
ATOM     23  C   UNL     1     116.671 124.824 125.441  1.00  0.00     0.014 C 
ATOM     24  C   UNL     1     117.923 120.322 125.298  1.00  0.00     0.012 C 
ATOM     25  C   UNL     1     113.280 121.357 125.363  1.00  0.00     0.012 C 
ATOM     26  C   UNL     1     114.055 116.864 127.912  1.00  0.00     0.022 C 
ATOM     27  C   UNL     1     115.203 117.356 128.838  1.00  0.00     0.015 C 
ATOM     28  C   UNL     1     112.028 118.848 125.700  1.00  0.00     0.017 C 
ATOM     29  C   UNL     1     111.831 115.651 127.796  1.00  0.00     0.012 C 
ATOM     30  C   UNL     1     116.246 117.479 131.121  1.00  0.00     0.011 C 
ENDROOT
BRANCH  20  31
ATOM     31  O   UNL     1     119.034 122.746 123.574  1.00  0.00    -0.393 OA
ATOM     32  H   UNL     1     119.608 123.443 123.161  1.00  0.00     0.210 HD
ENDBRANCH  20  31
TORSDOF 1
ENDMDL
MODEL 2
REMARK VINA RESULT:    -7.888      2.486      7.409
REMARK INTER + INTRA:          -8.118
REMARK INTER:                  -8.118
REMARK INTRA:                   0.000
REMARK UNBOUND:                 0.000
REMARK SMILES CC1(C)CC[C@@]2(C)CC[C@]3(C)C(=CC[C@H]4[C@@]5(C)CC[C@H](O)C(C)(C)[C@@H]5CC[C@@]43C)[C@H]2C1
REMARK SMILES IDX 1 1 2 2 4 3 5 4 6 5 8 6 9 7 10 8 12 9 13 10 14 11 15 12
REMARK SMILES IDX 28 13 27 14 26 15 25 16 16 17 18 18 19 19 20 20 22 21 23 22
REMARK SMILES IDX 24 23 17 24 29 25 30 26 31 27 11 28 7 29 3 30 21 31
REMARK H PARENT 21 32
REMARK Flexibility Score: inf
ROOT
ATOM      1  C   UNL     1     115.364 125.802 126.701  1.00  0.00     0.011 C 
ATOM      2  C   UNL     1     116.140 124.619 127.329  1.00  0.00    -0.035 C 
ATOM      3  C   UNL     1     117.647 124.683 127.000  1.00  0.00     0.007 C 
ATOM      4  C   UNL     1     117.918 124.538 125.504  1.00  0.00     0.008 C 
ATOM      5  C   UNL     1     117.383 123.204 124.896  1.00  0.00    -0.026 C 
ATOM      6  C   UNL     1     118.377 122.025 125.222  1.00  0.00     0.008 C 
ATOM      7  C   UNL     1     117.782 120.868 126.042  1.00  0.00     0.012 C 
ATOM      8  C   UNL     1     116.457 120.293 125.444  1.00  0.00    -0.006 C 
ATOM      9  C   UNL     1     115.499 121.461 125.124  1.00  0.00    -0.064 C 
ATOM     10  C   UNL     1     114.226 121.183 124.756  1.00  0.00    -0.027 C 
ATOM     11  C   UNL     1     113.653 119.819 125.041  1.00  0.00     0.032 C 
ATOM     12  C   UNL     1     114.183 119.386 126.427  1.00  0.00     0.006 C 
ATOM     13  C   UNL     1     115.753 119.169 126.428  1.00  0.00    -0.020 C 
ATOM     14  C   UNL     1     116.151 119.293 127.947  1.00  0.00     0.008 C 
ATOM     15  C   UNL     1     115.198 118.588 128.976  1.00  0.00     0.005 C 
ATOM     16  C   UNL     1     114.114 117.665 128.350  1.00  0.00     0.003 C 
ATOM     17  C   UNL     1     113.257 118.400 127.263  1.00  0.00    -0.025 C 
ATOM     18  C   UNL     1     112.561 117.324 126.365  1.00  0.00     0.010 C 
ATOM     19  C   UNL     1     112.346 115.944 127.042  1.00  0.00     0.033 C 
ATOM     20  C   UNL     1     112.132 115.992 128.575  1.00  0.00     0.120 C 
ATOM     21  C   UNL     1     113.310 116.726 129.341  1.00  0.00    -0.006 C 
ATOM     22  C   UNL     1     112.793 117.480 130.595  1.00  0.00     0.014 C 
ATOM     23  C   UNL     1     114.271 115.621 129.877  1.00  0.00     0.014 C 
ATOM     24  C   UNL     1     112.146 119.292 127.910  1.00  0.00     0.012 C 
ATOM     25  C   UNL     1     116.198 117.736 125.961  1.00  0.00     0.012 C 
ATOM     26  C   UNL     1     115.902 122.916 125.357  1.00  0.00     0.022 C 
ATOM     27  C   UNL     1     115.573 123.271 126.835  1.00  0.00     0.015 C 
ATOM     28  C   UNL     1     116.824 119.702 124.032  1.00  0.00     0.017 C 
ATOM     29  C   UNL     1     117.373 123.429 123.357  1.00  0.00     0.012 C 
ATOM     30  C   UNL     1     115.971 124.703 128.862  1.00  0.00     0.011 C 
ENDROOT
BRANCH  20  31
ATOM     31  O   UNL     1     110.876 116.547 128.875  1.00  0.00    -0.393 OA
ATOM     32  H   UNL     1     110.655 116.296 129.810  1.00  0.00     0.210 HD
ENDBRANCH  20  31
TORSDOF 1
ENDMDL
MODEL 3
REMARK VINA RESULT:    -7.780      1.558      2.093
REMARK INTER + INTRA:          -8.007
REMARK INTER:                  -8.007
REMARK INTRA:                   0.000
REMARK UNBOUND:                 0.000
REMARK SMILES CC1(C)CC[C@@]2(C)CC[C@]3(C)C(=CC[C@H]4[C@@]5(C)CC[C@H](O)C(C)(C)[C@@H]5CC[C@@]43C)[C@H]2C1
REMARK SMILES IDX 1 1 2 2 4 3 5 4 6 5 8 6 9 7 10 8 12 9 13 10 14 11 15 12
REMARK SMILES IDX 28 13 27 14 26 15 25 16 16 17 18 18 19 19 20 20 22 21 23 22
REMARK SMILES IDX 24 23 17 24 29 25 30 26 31 27 11 28 7 29 3 30 21 31
REMARK H PARENT 21 32
REMARK Flexibility Score: inf
ROOT
ATOM      1  C   UNL     1     114.377 115.613 129.976  1.00  0.00     0.011 C 
ATOM      2  C   UNL     1     113.568 116.913 129.753  1.00  0.00    -0.035 C 
ATOM      3  C   UNL     1     112.101 116.618 129.372  1.00  0.00     0.007 C 
ATOM      4  C   UNL     1     111.988 115.889 128.034  1.00  0.00     0.008 C 
ATOM      5  C   UNL     1     112.612 116.673 126.838  1.00  0.00    -0.026 C 
ATOM      6  C   UNL     1     111.616 117.792 126.348  1.00  0.00     0.008 C 
ATOM      7  C   UNL     1     112.151 119.232 126.431  1.00  0.00     0.012 C 
ATOM      8  C   UNL     1     113.542 119.425 125.745  1.00  0.00    -0.006 C 
ATOM      9  C   UNL     1     114.501 118.316 126.231  1.00  0.00    -0.064 C 
ATOM     10  C   UNL     1     115.811 118.390 125.896  1.00  0.00    -0.027 C 
ATOM     11  C   UNL     1     116.383 119.701 125.421  1.00  0.00     0.032 C 
ATOM     12  C   UNL     1     115.723 120.815 126.266  1.00  0.00     0.006 C 
ATOM     13  C   UNL     1     114.167 120.933 125.993  1.00  0.00    -0.020 C 
ATOM     14  C   UNL     1     113.613 121.667 127.272  1.00  0.00     0.008 C 
ATOM     15  C   UNL     1     114.471 122.863 127.815  1.00  0.00     0.005 C 
ATOM     16  C   UNL     1     115.634 123.319 126.889  1.00  0.00     0.003 C 
ATOM     17  C   UNL     1     116.581 122.135 126.490  1.00  0.00    -0.025 C 
ATOM     18  C   UNL     1     117.389 122.550 125.216  1.00  0.00     0.010 C 
ATOM     19  C   UNL     1     117.565 124.079 125.019  1.00  0.00     0.033 C 
ATOM     20  C   UNL     1     117.619 124.907 126.328  1.00  0.00     0.120 C 
ATOM     21  C   UNL     1     116.353 124.683 127.254  1.00  0.00    -0.006 C 
ATOM     22  C   UNL     1     116.722 124.780 128.758  1.00  0.00     0.014 C 
ATOM     23  C   UNL     1     115.368 125.860 126.981  1.00  0.00     0.014 C 
ATOM     24  C   UNL     1     117.599 121.803 127.631  1.00  0.00     0.012 C 
ATOM     25  C   UNL     1     113.804 121.841 124.761  1.00  0.00     0.012 C 
ATOM     26  C   UNL     1     114.044 117.227 127.200  1.00  0.00     0.022 C 
ATOM     27  C   UNL     1     114.212 117.775 128.646  1.00  0.00     0.015 C 
ATOM     28  C   UNL     1     113.335 119.110 124.218  1.00  0.00     0.017 C 
ATOM     29  C   UNL     1     112.774 115.626 125.700  1.00  0.00     0.012 C 
ATOM     30  C   UNL     1     113.577 117.709 131.076  1.00  0.00     0.011 C 
ENDROOT
BRANCH  20  31
ATOM     31  O   UNL     1     118.826 124.664 127.008  1.00  0.00    -0.393 OA
ATOM     32  H   UNL     1     118.625 124.672 127.980  1.00  0.00     0.210 HD
ENDBRANCH  20  31
TORSDOF 1
ENDMDL
MODEL 4
REMARK VINA RESULT:    -7.392      2.315      3.198
REMARK INTER + INTRA:          -7.608
REMARK INTER:                  -7.608
REMARK INTRA:                   0.000
REMARK UNBOUND:                 0.000
REMARK SMILES CC1(C)CC[C@@]2(C)CC[C@]3(C)C(=CC[C@H]4[C@@]5(C)CC[C@H](O)C(C)(C)[C@@H]5CC[C@@]43C)[C@H]2C1
REMARK SMILES IDX 1 1 2 2 4 3 5 4 6 5 8 6 9 7 10 8 12 9 13 10 14 11 15 12
REMARK SMILES IDX 28 13 27 14 26 15 25 16 16 17 18 18 19 19 20 20 22 21 23 22
REMARK SMILES IDX 24 23 17 24 29 25 30 26 31 27 11 28 7 29 3 30 21 31
REMARK H PARENT 21 32
REMARK Flexibility Score: inf
ROOT
ATOM      1  C   UNL     1     114.267 115.261 130.405  1.00  0.00     0.011 C 
ATOM      2  C   UNL     1     114.830 116.679 130.146  1.00  0.00    -0.035 C 
ATOM      3  C   UNL     1     113.857 117.779 130.622  1.00  0.00     0.007 C 
ATOM      4  C   UNL     1     112.544 117.764 129.842  1.00  0.00     0.008 C 
ATOM      5  C   UNL     1     112.725 117.962 128.305  1.00  0.00    -0.026 C 
ATOM      6  C   UNL     1     112.938 119.489 127.978  1.00  0.00     0.008 C 
ATOM      7  C   UNL     1     114.271 119.837 127.293  1.00  0.00     0.012 C 
ATOM      8  C   UNL     1     114.564 118.977 126.021  1.00  0.00    -0.006 C 
ATOM      9  C   UNL     1     114.343 117.486 126.357  1.00  0.00    -0.064 C 
ATOM     10  C   UNL     1     114.706 116.549 125.449  1.00  0.00    -0.027 C 
ATOM     11  C   UNL     1     115.654 116.920 124.338  1.00  0.00     0.032 C 
ATOM     12  C   UNL     1     116.706 117.877 124.943  1.00  0.00     0.006 C 
ATOM     13  C   UNL     1     116.070 119.254 125.403  1.00  0.00    -0.020 C 
ATOM     14  C   UNL     1     117.109 119.820 126.445  1.00  0.00     0.008 C 
ATOM     15  C   UNL     1     118.624 119.671 126.068  1.00  0.00     0.005 C 
ATOM     16  C   UNL     1     118.903 119.194 124.614  1.00  0.00     0.003 C 
ATOM     17  C   UNL     1     118.144 117.867 124.264  1.00  0.00    -0.025 C 
ATOM     18  C   UNL     1     118.072 117.731 122.707  1.00  0.00     0.010 C 
ATOM     19  C   UNL     1     119.188 118.478 121.930  1.00  0.00     0.033 C 
ATOM     20  C   UNL     1     120.539 118.601 122.678  1.00  0.00     0.120 C 
ATOM     21  C   UNL     1     120.398 119.289 124.100  1.00  0.00    -0.006 C 
ATOM     22  C   UNL     1     121.419 118.712 125.116  1.00  0.00     0.014 C 
ATOM     23  C   UNL     1     120.776 120.791 123.925  1.00  0.00     0.014 C 
ATOM     24  C   UNL     1     118.884 116.613 124.833  1.00  0.00     0.012 C 
ATOM     25  C   UNL     1     115.960 120.320 124.253  1.00  0.00     0.012 C 
ATOM     26  C   UNL     1     113.871 117.037 127.738  1.00  0.00     0.022 C 
ATOM     27  C   UNL     1     115.125 116.884 128.644  1.00  0.00     0.015 C 
ATOM     28  C   UNL     1     113.426 119.309 124.986  1.00  0.00     0.017 C 
ATOM     29  C   UNL     1     111.380 117.506 127.671  1.00  0.00     0.012 C 
ATOM     30  C   UNL     1     116.148 116.817 130.939  1.00  0.00     0.011 C 
ENDROOT
BRANCH  20  31
ATOM     31  O   UNL     1     121.170 117.346 122.755  1.00  0.00    -0.393 OA
ATOM     32  H   UNL     1     122.041 117.423 122.284  1.00  0.00     0.210 HD
ENDBRANCH  20  31
TORSDOF 1
ENDMDL
MODEL 5
REMARK VINA RESULT:    -7.124      2.704      4.839
REMARK INTER + INTRA:          -7.332
REMARK INTER:                  -7.332
REMARK INTRA:                   0.000
REMARK UNBOUND:                 0.000
REMARK SMILES CC1(C)CC[C@@]2(C)CC[C@]3(C)C(=CC[C@H]4[C@@]5(C)CC[C@H](O)C(C)(C)[C@@H]5CC[C@@]43C)[C@H]2C1
REMARK SMILES IDX 1 1 2 2 4 3 5 4 6 5 8 6 9 7 10 8 12 9 13 10 14 11 15 12
REMARK SMILES IDX 28 13 27 14 26 15 25 16 16 17 18 18 19 19 20 20 22 21 23 22
REMARK SMILES IDX 24 23 17 24 29 25 30 26 31 27 11 28 7 29 3 30 21 31
REMARK H PARENT 21 32
REMARK Flexibility Score: inf
ROOT
ATOM      1  C   UNL     1     115.629 114.044 124.568  1.00  0.00     0.011 C 
ATOM      2  C   UNL     1     116.700 115.161 124.561  1.00  0.00    -0.035 C 
ATOM      3  C   UNL     1     118.082 114.633 125.005  1.00  0.00     0.007 C 
ATOM      4  C   UNL     1     118.076 114.149 126.454  1.00  0.00     0.008 C 
ATOM      5  C   UNL     1     117.665 115.249 127.481  1.00  0.00    -0.026 C 
ATOM      6  C   UNL     1     118.887 116.200 127.772  1.00  0.00     0.008 C 
ATOM      7  C   UNL     1     118.667 117.682 127.423  1.00  0.00     0.012 C 
ATOM      8  C   UNL     1     117.367 118.286 128.047  1.00  0.00    -0.006 C 
ATOM      9  C   UNL     1     116.183 117.338 127.760  1.00  0.00    -0.064 C 
ATOM     10  C   UNL     1     114.928 117.747 128.061  1.00  0.00    -0.027 C 
ATOM     11  C   UNL     1     114.659 119.213 128.285  1.00  0.00     0.032 C 
ATOM     12  C   UNL     1     115.515 119.991 127.260  1.00  0.00     0.006 C 
ATOM     13  C   UNL     1     117.069 119.823 127.524  1.00  0.00    -0.020 C 
ATOM     14  C   UNL     1     117.729 120.181 126.139  1.00  0.00     0.008 C 
ATOM     15  C   UNL     1     117.127 121.415 125.380  1.00  0.00     0.005 C 
ATOM     16  C   UNL     1     116.113 122.266 126.195  1.00  0.00     0.003 C 
ATOM     17  C   UNL     1     114.949 121.402 126.791  1.00  0.00    -0.025 C 
ATOM     18  C   UNL     1     114.283 122.200 127.960  1.00  0.00     0.010 C 
ATOM     19  C   UNL     1     114.440 123.742 127.875  1.00  0.00     0.033 C 
ATOM     20  C   UNL     1     114.524 124.314 126.438  1.00  0.00     0.120 C 
ATOM     21  C   UNL     1     115.688 123.664 125.581  1.00  0.00    -0.006 C 
ATOM     22  C   UNL     1     115.306 123.566 124.080  1.00  0.00     0.014 C 
ATOM     23  C   UNL     1     116.907 124.633 125.647  1.00  0.00     0.014 C 
ATOM     24  C   UNL     1     113.853 121.095 125.719  1.00  0.00     0.012 C 
ATOM     25  C   UNL     1     117.649 120.839 128.575  1.00  0.00     0.012 C 
ATOM     26  C   UNL     1     116.372 116.021 127.009  1.00  0.00     0.022 C 
ATOM     27  C   UNL     1     116.284 116.323 125.487  1.00  0.00     0.015 C 
ATOM     28  C   UNL     1     117.546 118.212 129.609  1.00  0.00     0.017 C 
ATOM     29  C   UNL     1     117.317 114.481 128.788  1.00  0.00     0.012 C 
ATOM     30  C   UNL     1     116.822 115.690 123.115  1.00  0.00     0.011 C 
ENDROOT
BRANCH  20  31
ATOM     31  O   UNL     1     113.275 124.216 125.800  1.00  0.00    -0.393 OA
ATOM     32  H   UNL     1     112.595 124.592 126.418  1.00  0.00     0.210 HD
ENDBRANCH  20  31
TORSDOF 1
ENDMDL
MODEL 6
REMARK VINA RESULT:    -7.057      2.484      4.316
REMARK INTER + INTRA:          -7.263
REMARK INTER:                  -7.263
REMARK INTRA:                   0.000
REMARK UNBOUND:                 0.000
REMARK SMILES CC1(C)CC[C@@]2(C)CC[C@]3(C)C(=CC[C@H]4[C@@]5(C)CC[C@H](O)C(C)(C)[C@@H]5CC[C@@]43C)[C@H]2C1
REMARK SMILES IDX 1 1 2 2 4 3 5 4 6 5 8 6 9 7 10 8 12 9 13 10 14 11 15 12
REMARK SMILES IDX 28 13 27 14 26 15 25 16 16 17 18 18 19 19 20 20 22 21 23 22
REMARK SMILES IDX 24 23 17 24 29 25 30 26 31 27 11 28 7 29 3 30 21 31
REMARK H PARENT 21 32
REMARK Flexibility Score: inf
ROOT
ATOM      1  C   UNL     1     112.372 116.698 127.170  1.00  0.00     0.011 C 
ATOM      2  C   UNL     1     112.910 118.087 127.588  1.00  0.00    -0.035 C 
ATOM      3  C   UNL     1     111.863 119.200 127.363  1.00  0.00     0.007 C 
ATOM      4  C   UNL     1     111.518 119.376 125.885  1.00  0.00     0.008 C 
ATOM      5  C   UNL     1     112.747 119.730 124.992  1.00  0.00    -0.026 C 
ATOM      6  C   UNL     1     113.090 121.263 125.127  1.00  0.00     0.008 C 
ATOM      7  C   UNL     1     114.496 121.580 125.663  1.00  0.00     0.012 C 
ATOM      8  C   UNL     1     115.641 120.848 124.889  1.00  0.00    -0.006 C 
ATOM      9  C   UNL     1     115.285 119.352 124.759  1.00  0.00    -0.064 C 
ATOM     10  C   UNL     1     116.216 118.497 124.273  1.00  0.00    -0.027 C 
ATOM     11  C   UNL     1     117.664 118.914 124.245  1.00  0.00     0.032 C 
ATOM     12  C   UNL     1     117.930 119.711 125.542  1.00  0.00     0.006 C 
ATOM     13  C   UNL     1     117.121 121.074 125.586  1.00  0.00    -0.020 C 
ATOM     14  C   UNL     1     117.072 121.435 127.118  1.00  0.00     0.008 C 
ATOM     15  C   UNL     1     118.397 121.210 127.929  1.00  0.00     0.005 C 
ATOM     16  C   UNL     1     119.651 120.880 127.071  1.00  0.00     0.003 C 
ATOM     17  C   UNL     1     119.415 119.665 126.109  1.00  0.00    -0.025 C 
ATOM     18  C   UNL     1     120.493 119.710 124.976  1.00  0.00     0.010 C 
ATOM     19  C   UNL     1     121.805 120.450 125.347  1.00  0.00     0.033 C 
ATOM     20  C   UNL     1     122.196 120.381 126.844  1.00  0.00     0.120 C 
ATOM     21  C   UNL     1     121.055 120.914 127.806  1.00  0.00    -0.006 C 
ATOM     22  C   UNL     1     121.042 120.148 129.156  1.00  0.00     0.014 C 
ATOM     23  C   UNL     1     121.401 122.392 128.160  1.00  0.00     0.014 C 
ATOM     24  C   UNL     1     119.550 118.300 126.861  1.00  0.00     0.012 C 
ATOM     25  C   UNL     1     117.845 122.268 124.864  1.00  0.00     0.012 C 
ATOM     26  C   UNL     1     113.974 118.788 125.303  1.00  0.00     0.022 C 
ATOM     27  C   UNL     1     114.192 118.436 126.802  1.00  0.00     0.015 C 
ATOM     28  C   UNL     1     115.592 121.383 123.410  1.00  0.00     0.017 C 
ATOM     29  C   UNL     1     112.287 119.456 123.532  1.00  0.00     0.012 C 
ATOM     30  C   UNL     1     113.246 118.032 129.095  1.00  0.00     0.011 C 
ENDROOT
BRANCH  20  31
ATOM     31  O   UNL     1     122.611 119.081 127.180  1.00  0.00    -0.393 OA
ATOM     32  H   UNL     1     121.803 118.503 127.185  1.00  0.00     0.210 HD
ENDBRANCH  20  31
TORSDOF 1
ENDMDL
MODEL 7
REMARK VINA RESULT:    -6.991      2.773      4.933
REMARK INTER + INTRA:          -7.196
REMARK INTER:                  -7.196
REMARK INTRA:                   0.000
REMARK UNBOUND:                 0.000
REMARK SMILES CC1(C)CC[C@@]2(C)CC[C@]3(C)C(=CC[C@H]4[C@@]5(C)CC[C@H](O)C(C)(C)[C@@H]5CC[C@@]43C)[C@H]2C1
REMARK SMILES IDX 1 1 2 2 4 3 5 4 6 5 8 6 9 7 10 8 12 9 13 10 14 11 15 12
REMARK SMILES IDX 28 13 27 14 26 15 25 16 16 17 18 18 19 19 20 20 22 21 23 22
REMARK SMILES IDX 24 23 17 24 29 25 30 26 31 27 11 28 7 29 3 30 21 31
REMARK H PARENT 21 32
REMARK Flexibility Score: inf
ROOT
ATOM      1  C   UNL     1     112.415 115.269 125.475  1.00  0.00     0.011 C 
ATOM      2  C   UNL     1     113.125 116.121 124.395  1.00  0.00    -0.035 C 
ATOM      3  C   UNL     1     113.642 115.253 123.227  1.00  0.00     0.007 C 
ATOM      4  C   UNL     1     114.720 114.267 123.675  1.00  0.00     0.008 C 
ATOM      5  C   UNL     1     115.969 114.950 124.312  1.00  0.00    -0.026 C 
ATOM      6  C   UNL     1     116.911 115.516 123.182  1.00  0.00     0.008 C 
ATOM      7  C   UNL     1     117.151 117.035 123.222  1.00  0.00     0.012 C 
ATOM      8  C   UNL     1     117.625 117.558 124.617  1.00  0.00    -0.006 C 
ATOM      9  C   UNL     1     116.697 116.988 125.711  1.00  0.00    -0.064 C 
ATOM     10  C   UNL     1     116.820 117.448 126.979  1.00  0.00    -0.027 C 
ATOM     11  C   UNL     1     117.545 118.745 127.231  1.00  0.00     0.032 C 
ATOM     12  C   UNL     1     117.167 119.705 126.079  1.00  0.00     0.006 C 
ATOM     13  C   UNL     1     117.714 119.205 124.678  1.00  0.00    -0.020 C 
ATOM     14  C   UNL     1     116.802 119.947 123.630  1.00  0.00     0.008 C 
ATOM     15  C   UNL     1     116.486 121.455 123.927  1.00  0.00     0.005 C 
ATOM     16  C   UNL     1     117.299 122.087 125.092  1.00  0.00     0.003 C 
ATOM     17  C   UNL     1     117.187 121.259 126.418  1.00  0.00    -0.025 C 
ATOM     18  C   UNL     1     118.376 121.654 127.355  1.00  0.00     0.010 C 
ATOM     19  C   UNL     1     118.964 123.068 127.108  1.00  0.00     0.033 C 
ATOM     20  C   UNL     1     117.952 124.118 126.584  1.00  0.00     0.120 C 
ATOM     21  C   UNL     1     117.220 123.661 125.254  1.00  0.00    -0.006 C 
ATOM     22  C   UNL     1     115.765 124.197 125.191  1.00  0.00     0.014 C 
ATOM     23  C   UNL     1     117.971 124.328 124.062  1.00  0.00     0.014 C 
ATOM     24  C   UNL     1     115.849 121.555 127.171  1.00  0.00     0.012 C 
ATOM     25  C   UNL     1     119.194 119.645 124.379  1.00  0.00     0.012 C 
ATOM     26  C   UNL     1     115.549 116.038 125.375  1.00  0.00     0.022 C 
ATOM     27  C   UNL     1     114.309 116.900 125.006  1.00  0.00     0.015 C 
ATOM     28  C   UNL     1     119.015 116.875 124.900  1.00  0.00     0.017 C 
ATOM     29  C   UNL     1     116.723 113.814 125.059  1.00  0.00     0.012 C 
ATOM     30  C   UNL     1     112.097 117.128 123.836  1.00  0.00     0.011 C 
ENDROOT
BRANCH  20  31
ATOM     31  O   UNL     1     117.043 124.466 127.599  1.00  0.00    -0.393 OA
ATOM     32  H   UNL     1     116.955 125.455 127.593  1.00  0.00     0.210 HD
ENDBRANCH  20  31
TORSDOF 1
ENDMDL
MODEL 8
REMARK VINA RESULT:    -6.876      2.764      4.931
REMARK INTER + INTRA:          -7.076
REMARK INTER:                  -7.076
REMARK INTRA:                   0.000
REMARK UNBOUND:                 0.000
REMARK SMILES CC1(C)CC[C@@]2(C)CC[C@]3(C)C(=CC[C@H]4[C@@]5(C)CC[C@H](O)C(C)(C)[C@@H]5CC[C@@]43C)[C@H]2C1
REMARK SMILES IDX 1 1 2 2 4 3 5 4 6 5 8 6 9 7 10 8 12 9 13 10 14 11 15 12
REMARK SMILES IDX 28 13 27 14 26 15 25 16 16 17 18 18 19 19 20 20 22 21 23 22
REMARK SMILES IDX 24 23 17 24 29 25 30 26 31 27 11 28 7 29 3 30 21 31
REMARK H PARENT 21 32
REMARK Flexibility Score: inf
ROOT
ATOM      1  C   UNL     1     112.041 116.379 123.728  1.00  0.00     0.011 C 
ATOM      2  C   UNL     1     113.165 116.090 124.753  1.00  0.00    -0.035 C 
ATOM      3  C   UNL     1     112.613 115.969 126.190  1.00  0.00     0.007 C 
ATOM      4  C   UNL     1     112.000 117.278 126.686  1.00  0.00     0.008 C 
ATOM      5  C   UNL     1     113.000 118.476 126.689  1.00  0.00    -0.026 C 
ATOM      6  C   UNL     1     113.933 118.397 127.957  1.00  0.00     0.008 C 
ATOM      7  C   UNL     1     115.438 118.280 127.661  1.00  0.00     0.012 C 
ATOM      8  C   UNL     1     115.970 119.374 126.679  1.00  0.00    -0.006 C 
ATOM      9  C   UNL     1     115.040 119.443 125.449  1.00  0.00    -0.064 C 
ATOM     10  C   UNL     1     115.409 120.204 124.391  1.00  0.00    -0.027 C 
ATOM     11  C   UNL     1     116.846 120.636 124.252  1.00  0.00     0.032 C 
ATOM     12  C   UNL     1     117.721 119.446 124.707  1.00  0.00     0.006 C 
ATOM     13  C   UNL     1     117.546 119.128 126.250  1.00  0.00    -0.020 C 
ATOM     14  C   UNL     1     118.033 117.635 126.385  1.00  0.00     0.008 C 
ATOM     15  C   UNL     1     119.324 117.249 125.582  1.00  0.00     0.005 C 
ATOM     16  C   UNL     1     120.088 118.442 124.941  1.00  0.00     0.003 C 
ATOM     17  C   UNL     1     119.162 119.333 124.044  1.00  0.00    -0.025 C 
ATOM     18  C   UNL     1     119.846 120.727 123.852  1.00  0.00     0.010 C 
ATOM     19  C   UNL     1     121.390 120.728 124.003  1.00  0.00     0.033 C 
ATOM     20  C   UNL     1     122.091 119.410 123.587  1.00  0.00     0.120 C 
ATOM     21  C   UNL     1     121.531 118.143 124.358  1.00  0.00    -0.006 C 
ATOM     22  C   UNL     1     121.565 116.872 123.469  1.00  0.00     0.014 C 
ATOM     23  C   UNL     1     122.503 117.858 125.543  1.00  0.00     0.014 C 
ATOM     24  C   UNL     1     118.942 118.696 122.633  1.00  0.00     0.012 C 
ATOM     25  C   UNL     1     118.468 119.989 127.186  1.00  0.00     0.012 C 
ATOM     26  C   UNL     1     113.798 118.562 125.331  1.00  0.00     0.022 C 
ATOM     27  C   UNL     1     114.235 117.202 124.717  1.00  0.00     0.015 C 
ATOM     28  C   UNL     1     115.759 120.759 127.397  1.00  0.00     0.017 C 
ATOM     29  C   UNL     1     112.114 119.749 126.809  1.00  0.00     0.012 C 
ATOM     30  C   UNL     1     113.823 114.747 124.368  1.00  0.00     0.011 C 
ENDROOT
BRANCH  20  31
ATOM     31  O   UNL     1     122.037 119.249 122.191  1.00  0.00    -0.393 OA
ATOM     32  H   UNL     1     121.964 120.155 121.791  1.00  0.00     0.210 HD
ENDBRANCH  20  31
TORSDOF 1
ENDMDL
MODEL 9
REMARK VINA RESULT:    -6.854      3.291      7.506
REMARK INTER + INTRA:          -7.054
REMARK INTER:                  -7.054
REMARK INTRA:                   0.000
REMARK UNBOUND:                 0.000
REMARK SMILES CC1(C)CC[C@@]2(C)CC[C@]3(C)C(=CC[C@H]4[C@@]5(C)CC[C@H](O)C(C)(C)[C@@H]5CC[C@@]43C)[C@H]2C1
REMARK SMILES IDX 1 1 2 2 4 3 5 4 6 5 8 6 9 7 10 8 12 9 13 10 14 11 15 12
REMARK SMILES IDX 28 13 27 14 26 15 25 16 16 17 18 18 19 19 20 20 22 21 23 22
REMARK SMILES IDX 24 23 17 24 29 25 30 26 31 27 11 28 7 29 3 30 21 31
REMARK H PARENT 21 32
REMARK Flexibility Score: inf
ROOT
ATOM      1  C   UNL     1     119.404 115.378 121.997  1.00  0.00     0.011 C 
ATOM      2  C   UNL     1     118.108 116.220 122.075  1.00  0.00    -0.035 C 
ATOM      3  C   UNL     1     118.146 117.423 121.106  1.00  0.00     0.007 C 
ATOM      4  C   UNL     1     119.247 118.419 121.467  1.00  0.00     0.008 C 
ATOM      5  C   UNL     1     119.113 119.007 122.906  1.00  0.00    -0.026 C 
ATOM      6  C   UNL     1     118.029 120.151 122.924  1.00  0.00     0.008 C 
ATOM      7  C   UNL     1     116.831 119.909 123.858  1.00  0.00     0.012 C 
ATOM      8  C   UNL     1     117.242 119.547 125.323  1.00  0.00    -0.006 C 
ATOM      9  C   UNL     1     118.309 118.432 125.286  1.00  0.00    -0.064 C 
ATOM     10  C   UNL     1     118.683 117.845 126.447  1.00  0.00    -0.027 C 
ATOM     11  C   UNL     1     117.808 117.985 127.665  1.00  0.00     0.032 C 
ATOM     12  C   UNL     1     116.343 117.904 127.180  1.00  0.00     0.006 C 
ATOM     13  C   UNL     1     115.947 119.132 126.259  1.00  0.00    -0.020 C 
ATOM     14  C   UNL     1     114.698 118.611 125.452  1.00  0.00     0.008 C 
ATOM     15  C   UNL     1     113.639 117.786 126.264  1.00  0.00     0.005 C 
ATOM     16  C   UNL     1     113.840 117.784 127.806  1.00  0.00     0.003 C 
ATOM     17  C   UNL     1     115.283 117.333 128.221  1.00  0.00    -0.025 C 
ATOM     18  C   UNL     1     115.556 117.818 129.683  1.00  0.00     0.010 C 
ATOM     19  C   UNL     1     114.288 118.031 130.551  1.00  0.00     0.033 C 
ATOM     20  C   UNL     1     113.094 117.106 130.206  1.00  0.00     0.120 C 
ATOM     21  C   UNL     1     112.658 117.201 128.685  1.00  0.00    -0.006 C 
ATOM     22  C   UNL     1     112.132 115.841 128.155  1.00  0.00     0.014 C 
ATOM     23  C   UNL     1     111.447 118.181 128.613  1.00  0.00     0.014 C 
ATOM     24  C   UNL     1     115.434 115.777 128.183  1.00  0.00     0.012 C 
ATOM     25  C   UNL     1     115.470 120.400 127.058  1.00  0.00     0.012 C 
ATOM     26  C   UNL     1     118.839 117.872 123.967  1.00  0.00     0.022 C 
ATOM     27  C   UNL     1     117.878 116.738 123.511  1.00  0.00     0.015 C 
ATOM     28  C   UNL     1     118.012 120.796 125.892  1.00  0.00     0.017 C 
ATOM     29  C   UNL     1     120.499 119.638 123.223  1.00  0.00     0.012 C 
ATOM     30  C   UNL     1     116.927 115.310 121.675  1.00  0.00     0.011 C 
ENDROOT
BRANCH  20  31
ATOM     31  O   UNL     1     113.372 115.784 130.598  1.00  0.00    -0.393 OA
ATOM     32  H   UNL     1     114.116 115.456 130.027  1.00  0.00     0.210 HD
ENDBRANCH  20  31
TORSDOF 1
ENDMDL
