MODEL 1
REMARK VINA RESULT:    -3.330      0.000      0.000
REMARK INTER + INTRA:          -4.656
REMARK INTER:                  -4.499
REMARK INTRA:                  -0.158
REMARK UNBOUND:                -0.158
REMARK SMILES CCCCCCCC(=O)[O-]
REMARK SMILES IDX 5 1 6 2 7 3 8 4 9 5 10 6 4 7 3 8 2 9 1 10
REMARK H PARENT
REMARK Flexibility Score: inf
ROOT
ATOM      1  C   UNL     1       8.773 -20.804  14.677  1.00  0.00     0.000 C 
ENDROOT
BRANCH   1   2
ATOM      2  C   UNL     1       9.049 -20.746  13.163  1.00  0.00     0.006 C 
BRANCH   2   3
ATOM      3  C   UNL     1       8.646 -19.420  12.497  1.00  0.00     0.053 C 
BRANCH   3   4
ATOM      4  C   UNL     1       8.035 -19.632  11.146  1.00  0.00     0.041 C 
ATOM      5  O   UNL     1       8.570 -20.424  10.326  1.00  0.00    -0.550 OA
ATOM      6  O   UNL     1       6.856 -18.981  10.806  1.00  0.00    -0.550 OA
ENDBRANCH   3   4
ENDBRANCH   2   3
ENDBRANCH   1   2
BRANCH   1   7
ATOM      7  C   UNL     1       7.831 -21.953  15.067  1.00  0.00     0.000 C 
BRANCH   7   8
ATOM      8  C   UNL     1       8.102 -22.423  16.501  1.00  0.00    -0.000 C 
BRANCH   8   9
ATOM      9  C   UNL     1       7.364 -21.544  17.517  1.00  0.00    -0.003 C 
ATOM     10  C   UNL     1       5.890 -21.929  17.609  1.00  0.00     0.004 C 
ENDBRANCH   8   9
ENDBRANCH   7   8
ENDBRANCH   1   7
TORSDOF 6
ENDMDL
MODEL 2
REMARK VINA RESULT:    -3.062      3.094      5.438
REMARK INTER + INTRA:          -4.293
REMARK INTER:                  -4.072
REMARK INTRA:                  -0.221
REMARK UNBOUND:                -0.158
REMARK SMILES CCCCCCCC(=O)[O-]
REMARK SMILES IDX 5 1 6 2 7 3 8 4 9 5 10 6 4 7 3 8 2 9 1 10
REMARK H PARENT
REMARK Flexibility Score: inf
ROOT
ATOM      1  C   UNL     1       9.044 -19.912  14.308  1.00  0.00     0.000 C 
ENDROOT
BRANCH   1   2
ATOM      2  C   UNL     1       8.887 -21.443  14.338  1.00  0.00     0.006 C 
BRANCH   2   3
ATOM      3  C   UNL     1       8.801 -22.042  15.752  1.00  0.00     0.053 C 
BRANCH   3   4
ATOM      4  C   UNL     1       7.404 -22.005  16.293  1.00  0.00     0.041 C 
ATOM      5  O   UNL     1       6.473 -22.592  15.683  1.00  0.00    -0.550 OA
ATOM      6  O   UNL     1       7.140 -21.351  17.490  1.00  0.00    -0.550 OA
ENDBRANCH   3   4
ENDBRANCH   2   3
ENDBRANCH   1   2
BRANCH   1   7
ATOM      7  C   UNL     1       9.105 -19.347  12.880  1.00  0.00     0.000 C 
BRANCH   7   8
ATOM      8  C   UNL     1       8.255 -20.187  11.921  1.00  0.00    -0.000 C 
BRANCH   8   9
ATOM      9  C   UNL     1       7.344 -19.296  11.068  1.00  0.00    -0.003 C 
ATOM     10  C   UNL     1       7.156 -19.878   9.670  1.00  0.00     0.004 C 
ENDBRANCH   8   9
ENDBRANCH   7   8
ENDBRANCH   1   7
TORSDOF 6
ENDMDL
MODEL 3
REMARK VINA RESULT:    -2.788     15.554     17.741
REMARK INTER + INTRA:          -3.923
REMARK INTER:                  -3.492
REMARK INTRA:                  -0.431
REMARK UNBOUND:                -0.158
REMARK SMILES CCCCCCCC(=O)[O-]
REMARK SMILES IDX 5 1 6 2 7 3 8 4 9 5 10 6 4 7 3 8 2 9 1 10
REMARK H PARENT
REMARK Flexibility Score: inf
ROOT
ATOM      1  C   UNL     1     -10.482 -22.006  17.506  1.00  0.00     0.000 C 
ENDROOT
BRANCH   1   2
ATOM      2  C   UNL     1      -9.303 -22.750  18.159  1.00  0.00     0.006 C 
BRANCH   2   3
ATOM      3  C   UNL     1      -8.016 -21.917  18.274  1.00  0.00     0.053 C 
BRANCH   3   4
ATOM      4  C   UNL     1      -6.956 -22.385  17.325  1.00  0.00     0.041 C 
ATOM      5  O   UNL     1      -7.021 -22.084  16.105  1.00  0.00    -0.550 OA
ATOM      6  O   UNL     1      -5.878 -23.125  17.796  1.00  0.00    -0.550 OA
ENDBRANCH   3   4
ENDBRANCH   2   3
ENDBRANCH   1   2
BRANCH   1   7
ATOM      7  C   UNL     1     -10.335 -20.478  17.576  1.00  0.00     0.000 C 
BRANCH   7   8
ATOM      8  C   UNL     1     -11.117 -19.798  16.447  1.00  0.00    -0.000 C 
BRANCH   8   9
ATOM      9  C   UNL     1     -10.914 -20.534  15.117  1.00  0.00    -0.003 C 
ATOM     10  C   UNL     1      -9.549 -20.214  14.514  1.00  0.00     0.004 C 
ENDBRANCH   8   9
ENDBRANCH   7   8
ENDBRANCH   1   7
TORSDOF 6
ENDMDL
MODEL 4
REMARK VINA RESULT:    -2.784      2.887      5.328
REMARK INTER + INTRA:          -3.918
REMARK INTER:                  -3.555
REMARK INTRA:                  -0.363
REMARK UNBOUND:                -0.158
REMARK SMILES CCCCCCCC(=O)[O-]
REMARK SMILES IDX 5 1 6 2 7 3 8 4 9 5 10 6 4 7 3 8 2 9 1 10
REMARK H PARENT
REMARK Flexibility Score: inf
ROOT
ATOM      1  C   UNL     1       8.445 -19.496  12.094  1.00  0.00     0.000 C 
ENDROOT
BRANCH   1   2
ATOM      2  C   UNL     1       9.062 -20.583  12.992  1.00  0.00     0.006 C 
BRANCH   2   3
ATOM      3  C   UNL     1       8.897 -20.326  14.499  1.00  0.00     0.053 C 
BRANCH   3   4
ATOM      4  C   UNL     1       8.042 -21.366  15.157  1.00  0.00     0.041 C 
ATOM      5  O   UNL     1       7.377 -22.174  14.457  1.00  0.00    -0.550 OA
ATOM      6  O   UNL     1       8.007 -21.463  16.542  1.00  0.00    -0.550 OA
ENDBRANCH   3   4
ENDBRANCH   2   3
ENDBRANCH   1   2
BRANCH   1   7
ATOM      7  C   UNL     1       7.235 -20.002  11.292  1.00  0.00     0.000 C 
BRANCH   7   8
ATOM      8  C   UNL     1       7.586 -20.158   9.808  1.00  0.00    -0.000 C 
BRANCH   8   9
ATOM      9  C   UNL     1       7.186 -21.544   9.291  1.00  0.00    -0.003 C 
ATOM     10  C   UNL     1       7.042 -22.540  10.438  1.00  0.00     0.004 C 
ENDBRANCH   8   9
ENDBRANCH   7   8
ENDBRANCH   1   7
TORSDOF 6
ENDMDL
MODEL 5
REMARK VINA RESULT:    -2.748      2.799      5.166
REMARK INTER + INTRA:          -3.870
REMARK INTER:                  -3.437
REMARK INTRA:                  -0.433
REMARK UNBOUND:                -0.158
REMARK SMILES CCCCCCCC(=O)[O-]
REMARK SMILES IDX 5 1 6 2 7 3 8 4 9 5 10 6 4 7 3 8 2 9 1 10
REMARK H PARENT
REMARK Flexibility Score: inf
ROOT
ATOM      1  C   UNL     1       6.534 -22.097  12.699  1.00  0.00     0.000 C 
ENDROOT
BRANCH   1   2
ATOM      2  C   UNL     1       7.152 -23.006  13.778  1.00  0.00     0.006 C 
BRANCH   2   3
ATOM      3  C   UNL     1       8.482 -22.491  14.352  1.00  0.00     0.053 C 
BRANCH   3   4
ATOM      4  C   UNL     1       8.317 -21.189  15.074  1.00  0.00     0.041 C 
ATOM      5  O   UNL     1       7.725 -21.151  16.184  1.00  0.00    -0.550 OA
ATOM      6  O   UNL     1       8.848 -20.024  14.535  1.00  0.00    -0.550 OA
ENDBRANCH   3   4
ENDBRANCH   2   3
ENDBRANCH   1   2
BRANCH   1   7
ATOM      7  C   UNL     1       7.233 -22.229  11.337  1.00  0.00     0.000 C 
BRANCH   7   8
ATOM      8  C   UNL     1       8.122 -21.012  11.055  1.00  0.00    -0.000 C 
BRANCH   8   9
ATOM      9  C   UNL     1       7.299 -19.719  11.053  1.00  0.00    -0.003 C 
ATOM     10  C   UNL     1       6.811 -19.378   9.648  1.00  0.00     0.004 C 
ENDBRANCH   8   9
ENDBRANCH   7   8
ENDBRANCH   1   7
TORSDOF 6
ENDMDL
MODEL 6
REMARK VINA RESULT:    -2.740      2.595      5.153
REMARK INTER + INTRA:          -3.858
REMARK INTER:                  -3.407
REMARK INTRA:                  -0.452
REMARK UNBOUND:                -0.158
REMARK SMILES CCCCCCCC(=O)[O-]
REMARK SMILES IDX 5 1 6 2 7 3 8 4 9 5 10 6 4 7 3 8 2 9 1 10
REMARK H PARENT
REMARK Flexibility Score: inf
ROOT
ATOM      1  C   UNL     1       8.748 -19.910  13.091  1.00  0.00     0.000 C 
ENDROOT
BRANCH   1   2
ATOM      2  C   UNL     1       8.921 -21.359  13.581  1.00  0.00     0.006 C 
BRANCH   2   3
ATOM      3  C   UNL     1       7.627 -22.011  14.096  1.00  0.00     0.053 C 
BRANCH   3   4
ATOM      4  C   UNL     1       6.827 -22.623  12.987  1.00  0.00     0.041 C 
ATOM      5  O   UNL     1       5.571 -22.658  13.057  1.00  0.00    -0.550 OA
ATOM      6  O   UNL     1       7.468 -23.123  11.861  1.00  0.00    -0.550 OA
ENDBRANCH   3   4
ENDBRANCH   2   3
ENDBRANCH   1   2
BRANCH   1   7
ATOM      7  C   UNL     1       8.663 -19.805  11.560  1.00  0.00     0.000 C 
BRANCH   7   8
ATOM      8  C   UNL     1       7.257 -19.383  11.116  1.00  0.00    -0.000 C 
BRANCH   8   9
ATOM      9  C   UNL     1       7.013 -19.745   9.647  1.00  0.00    -0.003 C 
ATOM     10  C   UNL     1       7.901 -20.906   9.210  1.00  0.00     0.004 C 
ENDBRANCH   8   9
ENDBRANCH   7   8
ENDBRANCH   1   7
TORSDOF 6
ENDMDL
MODEL 7
REMARK VINA RESULT:    -2.726     17.897     19.134
REMARK INTER + INTRA:          -3.839
REMARK INTER:                  -3.508
REMARK INTRA:                  -0.331
REMARK UNBOUND:                -0.158
REMARK SMILES CCCCCCCC(=O)[O-]
REMARK SMILES IDX 5 1 6 2 7 3 8 4 9 5 10 6 4 7 3 8 2 9 1 10
REMARK H PARENT
REMARK Flexibility Score: inf
ROOT
ATOM      1  C   UNL     1      -8.994 -21.648  17.910  1.00  0.00     0.000 C 
ENDROOT
BRANCH   1   2
ATOM      2  C   UNL     1      -8.989 -22.045  19.398  1.00  0.00     0.006 C 
BRANCH   2   3
ATOM      3  C   UNL     1     -10.232 -21.587  20.178  1.00  0.00     0.053 C 
BRANCH   3   4
ATOM      4  C   UNL     1     -10.027 -20.253  20.830  1.00  0.00     0.041 C 
ATOM      5  O   UNL     1     -10.065 -19.200  20.142  1.00  0.00    -0.550 OA
ATOM      6  O   UNL     1      -9.829 -20.174  22.203  1.00  0.00    -0.550 OA
ENDBRANCH   3   4
ENDBRANCH   2   3
ENDBRANCH   1   2
BRANCH   1   7
ATOM      7  C   UNL     1     -10.408 -21.597  17.312  1.00  0.00     0.000 C 
BRANCH   7   8
ATOM      8  C   UNL     1     -10.654 -20.263  16.597  1.00  0.00    -0.000 C 
BRANCH   8   9
ATOM      9  C   UNL     1     -10.734 -20.459  15.079  1.00  0.00    -0.003 C 
ATOM     10  C   UNL     1      -9.343 -20.474  14.451  1.00  0.00     0.004 C 
ENDBRANCH   8   9
ENDBRANCH   7   8
ENDBRANCH   1   7
TORSDOF 6
ENDMDL
MODEL 8
REMARK VINA RESULT:    -2.719     18.367     19.817
REMARK INTER + INTRA:          -3.830
REMARK INTER:                  -3.605
REMARK INTRA:                  -0.225
REMARK UNBOUND:                -0.158
REMARK SMILES CCCCCCCC(=O)[O-]
REMARK SMILES IDX 5 1 6 2 7 3 8 4 9 5 10 6 4 7 3 8 2 9 1 10
REMARK H PARENT
REMARK Flexibility Score: inf
ROOT
ATOM      1  C   UNL     1      -9.969 -20.657  18.785  1.00  0.00     0.000 C 
ENDROOT
BRANCH   1   2
ATOM      2  C   UNL     1     -10.158 -19.550  19.839  1.00  0.00     0.006 C 
BRANCH   2   3
ATOM      3  C   UNL     1     -11.003 -19.970  21.052  1.00  0.00     0.053 C 
BRANCH   3   4
ATOM      4  C   UNL     1     -10.203 -20.746  22.053  1.00  0.00     0.041 C 
ATOM      5  O   UNL     1     -10.520 -21.931  22.336  1.00  0.00    -0.550 OA
ATOM      6  O   UNL     1      -9.087 -20.171  22.647  1.00  0.00    -0.550 OA
ENDBRANCH   3   4
ENDBRANCH   2   3
ENDBRANCH   1   2
BRANCH   1   7
ATOM      7  C   UNL     1     -11.118 -20.712  17.766  1.00  0.00     0.000 C 
BRANCH   7   8
ATOM      8  C   UNL     1     -10.861 -19.756  16.596  1.00  0.00    -0.000 C 
BRANCH   8   9
ATOM      9  C   UNL     1     -10.913 -20.499  15.256  1.00  0.00    -0.003 C 
ATOM     10  C   UNL     1      -9.559 -20.463  14.553  1.00  0.00     0.004 C 
ENDBRANCH   8   9
ENDBRANCH   7   8
ENDBRANCH   1   7
TORSDOF 6
ENDMDL
MODEL 9
REMARK VINA RESULT:    -2.579     17.867     18.510
REMARK INTER + INTRA:          -3.641
REMARK INTER:                  -3.449
REMARK INTRA:                  -0.192
REMARK UNBOUND:                -0.158
REMARK SMILES CCCCCCCC(=O)[O-]
REMARK SMILES IDX 5 1 6 2 7 3 8 4 9 5 10 6 4 7 3 8 2 9 1 10
REMARK H PARENT
REMARK Flexibility Score: inf
ROOT
ATOM      1  C   UNL     1      -9.120 -21.576  19.208  1.00  0.00     0.000 C 
ENDROOT
BRANCH   1   2
ATOM      2  C   UNL     1     -10.111 -21.637  18.031  1.00  0.00     0.006 C 
BRANCH   2   3
ATOM      3  C   UNL     1      -9.512 -21.220  16.678  1.00  0.00     0.053 C 
BRANCH   3   4
ATOM      4  C   UNL     1     -10.375 -20.228  15.962  1.00  0.00     0.041 C 
ATOM      5  O   UNL     1     -11.023 -19.367  16.612  1.00  0.00    -0.550 OA
ATOM      6  O   UNL     1     -10.436 -20.233  14.574  1.00  0.00    -0.550 OA
ENDBRANCH   3   4
ENDBRANCH   2   3
ENDBRANCH   1   2
BRANCH   1   7
ATOM      7  C   UNL     1      -9.812 -21.693  20.575  1.00  0.00     0.000 C 
BRANCH   7   8
ATOM      8  C   UNL     1      -9.862 -20.334  21.283  1.00  0.00    -0.000 C 
BRANCH   8   9
ATOM      9  C   UNL     1      -9.567 -20.482  22.780  1.00  0.00    -0.003 C 
ATOM     10  C   UNL     1      -8.406 -21.442  23.020  1.00  0.00     0.004 C 
ENDBRANCH   8   9
ENDBRANCH   7   8
ENDBRANCH   1   7
TORSDOF 6
ENDMDL
