MODEL 1
REMARK VINA RESULT:    -4.660      0.000      0.000
REMARK INTER + INTRA:          -6.542
REMARK INTER:                  -6.431
REMARK INTRA:                  -0.111
REMARK UNBOUND:                -0.111
REMARK SMILES CCCCCCCCO
REMARK SMILES IDX 5 1 4 2 3 3 2 4 1 5 6 6 7 7 8 8 9 9
REMARK H PARENT 9 10
REMARK Flexibility Score: inf
ROOT
ATOM      1  C   UNL     1     -32.854  50.919 -51.267  1.00  0.00     0.000 C 
ENDROOT
BRANCH   1   2
ATOM      2  C   UNL     1     -34.144  51.007 -52.097  1.00  0.00    -0.000 C 
BRANCH   2   3
ATOM      3  C   UNL     1     -34.617  49.636 -52.603  1.00  0.00    -0.000 C 
BRANCH   3   4
ATOM      4  C   UNL     1     -36.142  49.470 -52.522  1.00  0.00    -0.003 C 
ATOM      5  C   UNL     1     -36.523  48.017 -52.255  1.00  0.00     0.004 C 
ENDBRANCH   3   4
ENDBRANCH   2   3
ENDBRANCH   1   2
BRANCH   1   6
ATOM      6  C   UNL     1     -32.412  52.308 -50.791  1.00  0.00     0.002 C 
BRANCH   6   7
ATOM      7  C   UNL     1     -31.603  53.030 -51.875  1.00  0.00     0.028 C 
BRANCH   7   8
ATOM      8  C   UNL     1     -31.008  54.335 -51.342  1.00  0.00     0.156 C 
BRANCH   8   9
ATOM      9  O   UNL     1     -31.903  54.951 -50.457  1.00  0.00    -0.396 OA
ATOM     10  H   UNL     1     -32.213  55.784 -50.900  1.00  0.00     0.210 HD
ENDBRANCH   8   9
ENDBRANCH   7   8
ENDBRANCH   6   7
ENDBRANCH   1   6
TORSDOF 7
ENDMDL
MODEL 2
REMARK VINA RESULT:    -4.349      3.489      5.902
REMARK INTER + INTRA:          -6.112
REMARK INTER:                  -5.915
REMARK INTRA:                  -0.196
REMARK UNBOUND:                -0.111
REMARK SMILES CCCCCCCCO
REMARK SMILES IDX 5 1 4 2 3 3 2 4 1 5 6 6 7 7 8 8 9 9
REMARK H PARENT 9 10
REMARK Flexibility Score: inf
ROOT
ATOM      1  C   UNL     1     -35.186  50.421 -52.136  1.00  0.00     0.000 C 
ENDROOT
BRANCH   1   2
ATOM      2  C   UNL     1     -33.887  51.013 -52.701  1.00  0.00    -0.000 C 
BRANCH   2   3
ATOM      3  C   UNL     1     -33.042  51.720 -51.630  1.00  0.00    -0.000 C 
BRANCH   3   4
ATOM      4  C   UNL     1     -32.411  50.737 -50.632  1.00  0.00    -0.003 C 
ATOM      5  C   UNL     1     -32.505  51.269 -49.204  1.00  0.00     0.004 C 
ENDBRANCH   3   4
ENDBRANCH   2   3
ENDBRANCH   1   2
BRANCH   1   6
ATOM      6  C   UNL     1     -35.555  49.119 -52.857  1.00  0.00     0.002 C 
BRANCH   6   7
ATOM      7  C   UNL     1     -36.722  48.413 -52.157  1.00  0.00     0.028 C 
BRANCH   7   8
ATOM      8  C   UNL     1     -38.066  48.868 -52.729  1.00  0.00     0.156 C 
BRANCH   8   9
ATOM      9  O   UNL     1     -39.053  48.832 -51.735  1.00  0.00    -0.396 OA
ATOM     10  H   UNL     1     -38.965  47.955 -51.278  1.00  0.00     0.210 HD
ENDBRANCH   8   9
ENDBRANCH   7   8
ENDBRANCH   6   7
ENDBRANCH   1   6
TORSDOF 7
ENDMDL
MODEL 3
REMARK VINA RESULT:    -4.327      0.965      1.092
REMARK INTER + INTRA:          -6.082
REMARK INTER:                  -5.954
REMARK INTRA:                  -0.127
REMARK UNBOUND:                -0.111
REMARK SMILES CCCCCCCCO
REMARK SMILES IDX 5 1 4 2 3 3 2 4 1 5 6 6 7 7 8 8 9 9
REMARK H PARENT 9 10
REMARK Flexibility Score: inf
ROOT
ATOM      1  C   UNL     1     -32.960  51.884 -52.022  1.00  0.00     0.000 C 
ENDROOT
BRANCH   1   2
ATOM      2  C   UNL     1     -33.795  50.923 -52.881  1.00  0.00    -0.000 C 
BRANCH   2   3
ATOM      3  C   UNL     1     -35.043  50.406 -52.149  1.00  0.00    -0.000 C 
BRANCH   3   4
ATOM      4  C   UNL     1     -35.418  48.974 -52.558  1.00  0.00    -0.003 C 
ATOM      5  C   UNL     1     -36.901  48.704 -52.319  1.00  0.00     0.004 C 
ENDBRANCH   3   4
ENDBRANCH   2   3
ENDBRANCH   1   2
BRANCH   1   6
ATOM      6  C   UNL     1     -31.654  52.261 -52.732  1.00  0.00     0.002 C 
BRANCH   6   7
ATOM      7  C   UNL     1     -31.013  53.495 -52.087  1.00  0.00     0.028 C 
BRANCH   7   8
ATOM      8  C   UNL     1     -31.637  53.793 -50.722  1.00  0.00     0.156 C 
BRANCH   8   9
ATOM      9  O   UNL     1     -31.973  55.151 -50.628  1.00  0.00    -0.396 OA
ATOM     10  H   UNL     1     -32.063  55.355 -49.661  1.00  0.00     0.210 HD
ENDBRANCH   8   9
ENDBRANCH   7   8
ENDBRANCH   6   7
ENDBRANCH   1   6
TORSDOF 7
ENDMDL
MODEL 4
REMARK VINA RESULT:    -4.313      1.186      2.166
REMARK INTER + INTRA:          -6.063
REMARK INTER:                  -5.884
REMARK INTRA:                  -0.179
REMARK UNBOUND:                -0.111
REMARK SMILES CCCCCCCCO
REMARK SMILES IDX 5 1 4 2 3 3 2 4 1 5 6 6 7 7 8 8 9 9
REMARK H PARENT 9 10
REMARK Flexibility Score: inf
ROOT
ATOM      1  C   UNL     1     -34.166  49.750 -52.477  1.00  0.00     0.000 C 
ENDROOT
BRANCH   1   2
ATOM      2  C   UNL     1     -35.504  49.392 -53.142  1.00  0.00    -0.000 C 
BRANCH   2   3
ATOM      3  C   UNL     1     -36.394  48.515 -52.248  1.00  0.00    -0.000 C 
BRANCH   3   4
ATOM      4  C   UNL     1     -37.881  48.883 -52.351  1.00  0.00    -0.003 C 
ATOM      5  C   UNL     1     -38.233  49.359 -53.759  1.00  0.00     0.004 C 
ENDBRANCH   3   4
ENDBRANCH   2   3
ENDBRANCH   1   2
BRANCH   1   6
ATOM      6  C   UNL     1     -34.150  51.216 -52.031  1.00  0.00     0.002 C 
BRANCH   6   7
ATOM      7  C   UNL     1     -33.058  51.462 -50.983  1.00  0.00     0.028 C 
BRANCH   7   8
ATOM      8  C   UNL     1     -32.226  52.698 -51.331  1.00  0.00     0.156 C 
BRANCH   8   9
ATOM      9  O   UNL     1     -32.312  53.646 -50.302  1.00  0.00    -0.396 OA
ATOM     10  H   UNL     1     -31.394  53.999 -50.163  1.00  0.00     0.210 HD
ENDBRANCH   8   9
ENDBRANCH   7   8
ENDBRANCH   6   7
ENDBRANCH   1   6
TORSDOF 7
ENDMDL
MODEL 5
REMARK VINA RESULT:    -4.259     12.539     15.001
REMARK INTER + INTRA:          -5.988
REMARK INTER:                  -5.602
REMARK INTRA:                  -0.386
REMARK UNBOUND:                -0.111
REMARK SMILES CCCCCCCCO
REMARK SMILES IDX 5 1 4 2 3 3 2 4 1 5 6 6 7 7 8 8 9 9
REMARK H PARENT 9 10
REMARK Flexibility Score: inf
ROOT
ATOM      1  C   UNL     1     -41.249  38.405 -51.662  1.00  0.00     0.000 C 
ENDROOT
BRANCH   1   2
ATOM      2  C   UNL     1     -41.729  37.333 -50.672  1.00  0.00    -0.000 C 
BRANCH   2   3
ATOM      3  C   UNL     1     -43.253  37.344 -50.479  1.00  0.00    -0.000 C 
BRANCH   3   4
ATOM      4  C   UNL     1     -44.002  37.866 -51.714  1.00  0.00    -0.003 C 
ATOM      5  C   UNL     1     -44.856  39.082 -51.366  1.00  0.00     0.004 C 
ENDBRANCH   3   4
ENDBRANCH   2   3
ENDBRANCH   1   2
BRANCH   1   6
ATOM      6  C   UNL     1     -40.418  39.478 -50.949  1.00  0.00     0.002 C 
BRANCH   6   7
ATOM      7  C   UNL     1     -41.321  40.523 -50.284  1.00  0.00     0.028 C 
BRANCH   7   8
ATOM      8  C   UNL     1     -41.042  41.924 -50.832  1.00  0.00     0.156 C 
BRANCH   8   9
ATOM      9  O   UNL     1     -41.467  42.896 -49.916  1.00  0.00    -0.396 OA
ATOM     10  H   UNL     1     -41.595  43.736 -50.432  1.00  0.00     0.210 HD
ENDBRANCH   8   9
ENDBRANCH   7   8
ENDBRANCH   6   7
ENDBRANCH   1   6
TORSDOF 7
ENDMDL
MODEL 6
REMARK VINA RESULT:    -4.075     11.722     14.026
REMARK INTER + INTRA:          -5.735
REMARK INTER:                  -5.375
REMARK INTRA:                  -0.360
REMARK UNBOUND:                -0.111
REMARK SMILES CCCCCCCCO
REMARK SMILES IDX 5 1 4 2 3 3 2 4 1 5 6 6 7 7 8 8 9 9
REMARK H PARENT 9 10
REMARK Flexibility Score: inf
ROOT
ATOM      1  C   UNL     1     -40.746  39.908 -49.645  1.00  0.00     0.000 C 
ENDROOT
BRANCH   1   2
ATOM      2  C   UNL     1     -40.901  39.159 -50.977  1.00  0.00    -0.000 C 
BRANCH   2   3
ATOM      3  C   UNL     1     -41.261  37.678 -50.786  1.00  0.00    -0.000 C 
BRANCH   3   4
ATOM      4  C   UNL     1     -42.598  37.484 -50.054  1.00  0.00    -0.003 C 
ATOM      5  C   UNL     1     -43.778  37.755 -50.985  1.00  0.00     0.004 C 
ENDBRANCH   3   4
ENDBRANCH   2   3
ENDBRANCH   1   2
BRANCH   1   6
ATOM      6  C   UNL     1     -40.997  41.409 -49.828  1.00  0.00     0.002 C 
BRANCH   6   7
ATOM      7  C   UNL     1     -41.635  41.699 -51.191  1.00  0.00     0.028 C 
BRANCH   7   8
ATOM      8  C   UNL     1     -41.264  43.098 -51.689  1.00  0.00     0.156 C 
BRANCH   8   9
ATOM      9  O   UNL     1     -39.874  43.277 -51.639  1.00  0.00    -0.396 OA
ATOM     10  H   UNL     1     -39.502  42.484 -51.171  1.00  0.00     0.210 HD
ENDBRANCH   8   9
ENDBRANCH   7   8
ENDBRANCH   6   7
ENDBRANCH   1   6
TORSDOF 7
ENDMDL
MODEL 7
REMARK VINA RESULT:    -4.056      2.868      5.744
REMARK INTER + INTRA:          -5.708
REMARK INTER:                  -5.505
REMARK INTRA:                  -0.203
REMARK UNBOUND:                -0.111
REMARK SMILES CCCCCCCCO
REMARK SMILES IDX 5 1 4 2 3 3 2 4 1 5 6 6 7 7 8 8 9 9
REMARK H PARENT 9 10
REMARK Flexibility Score: inf
ROOT
ATOM      1  C   UNL     1     -33.161  51.075 -51.052  1.00  0.00     0.000 C 
ENDROOT
BRANCH   1   2
ATOM      2  C   UNL     1     -32.334  52.364 -51.170  1.00  0.00    -0.000 C 
BRANCH   2   3
ATOM      3  C   UNL     1     -31.568  52.457 -52.498  1.00  0.00    -0.000 C 
BRANCH   3   4
ATOM      4  C   UNL     1     -30.566  53.622 -52.523  1.00  0.00    -0.003 C 
ATOM      5  C   UNL     1     -30.750  54.530 -51.310  1.00  0.00     0.004 C 
ENDBRANCH   3   4
ENDBRANCH   2   3
ENDBRANCH   1   2
BRANCH   1   6
ATOM      6  C   UNL     1     -34.384  51.121 -51.976  1.00  0.00     0.002 C 
BRANCH   6   7
ATOM      7  C   UNL     1     -34.506  49.831 -52.794  1.00  0.00     0.028 C 
BRANCH   7   8
ATOM      8  C   UNL     1     -35.806  49.091 -52.469  1.00  0.00     0.156 C 
BRANCH   8   9
ATOM      9  O   UNL     1     -35.608  47.706 -52.548  1.00  0.00    -0.396 OA
ATOM     10  H   UNL     1     -35.291  47.516 -53.469  1.00  0.00     0.210 HD
ENDBRANCH   8   9
ENDBRANCH   7   8
ENDBRANCH   6   7
ENDBRANCH   1   6
TORSDOF 7
ENDMDL
MODEL 8
REMARK VINA RESULT:    -4.056      3.198      5.774
REMARK INTER + INTRA:          -5.708
REMARK INTER:                  -5.508
REMARK INTRA:                  -0.200
REMARK UNBOUND:                -0.111
REMARK SMILES CCCCCCCCO
REMARK SMILES IDX 5 1 4 2 3 3 2 4 1 5 6 6 7 7 8 8 9 9
REMARK H PARENT 9 10
REMARK Flexibility Score: inf
ROOT
ATOM      1  C   UNL     1     -35.005  50.249 -52.147  1.00  0.00     0.000 C 
ENDROOT
BRANCH   1   2
ATOM      2  C   UNL     1     -33.795  50.838 -52.889  1.00  0.00    -0.000 C 
BRANCH   2   3
ATOM      3  C   UNL     1     -32.556  50.969 -51.991  1.00  0.00    -0.000 C 
BRANCH   3   4
ATOM      4  C   UNL     1     -32.798  51.877 -50.776  1.00  0.00    -0.003 C 
ATOM      5  C   UNL     1     -32.509  51.138 -49.471  1.00  0.00     0.004 C 
ENDBRANCH   3   4
ENDBRANCH   2   3
ENDBRANCH   1   2
BRANCH   1   6
ATOM      6  C   UNL     1     -35.670  49.143 -52.974  1.00  0.00     0.002 C 
BRANCH   6   7
ATOM      7  C   UNL     1     -36.942  48.631 -52.288  1.00  0.00     0.028 C 
BRANCH   7   8
ATOM      8  C   UNL     1     -38.168  48.825 -53.183  1.00  0.00     0.156 C 
BRANCH   8   9
ATOM      9  O   UNL     1     -37.981  49.927 -54.029  1.00  0.00    -0.396 OA
ATOM     10  H   UNL     1     -38.023  49.582 -54.959  1.00  0.00     0.210 HD
ENDBRANCH   8   9
ENDBRANCH   7   8
ENDBRANCH   6   7
ENDBRANCH   1   6
TORSDOF 7
ENDMDL
MODEL 9
REMARK VINA RESULT:    -3.986     13.997     15.796
REMARK INTER + INTRA:          -5.612
REMARK INTER:                  -5.176
REMARK INTRA:                  -0.436
REMARK UNBOUND:                -0.111
REMARK SMILES CCCCCCCCO
REMARK SMILES IDX 5 1 4 2 3 3 2 4 1 5 6 6 7 7 8 8 9 9
REMARK H PARENT 9 10
REMARK Flexibility Score: inf
ROOT
ATOM      1  C   UNL     1     -41.233  38.290 -51.419  1.00  0.00     0.000 C 
ENDROOT
BRANCH   1   2
ATOM      2  C   UNL     1     -40.280  39.332 -50.815  1.00  0.00    -0.000 C 
BRANCH   2   3
ATOM      3  C   UNL     1     -40.815  40.766 -50.936  1.00  0.00    -0.000 C 
BRANCH   3   4
ATOM      4  C   UNL     1     -41.408  41.290 -49.619  1.00  0.00    -0.003 C 
ATOM      5  C   UNL     1     -40.783  40.586 -48.417  1.00  0.00     0.004 C 
ENDBRANCH   3   4
ENDBRANCH   2   3
ENDBRANCH   1   2
BRANCH   1   6
ATOM      6  C   UNL     1     -42.198  37.747 -50.358  1.00  0.00     0.002 C 
BRANCH   6   7
ATOM      7  C   UNL     1     -43.627  37.659 -50.906  1.00  0.00     0.028 C 
BRANCH   7   8
ATOM      8  C   UNL     1     -44.146  39.038 -51.318  1.00  0.00     0.156 C 
BRANCH   8   9
ATOM      9  O   UNL     1     -45.480  39.194 -50.915  1.00  0.00    -0.396 OA
ATOM     10  H   UNL     1     -45.907  39.803 -51.573  1.00  0.00     0.210 HD
ENDBRANCH   8   9
ENDBRANCH   7   8
ENDBRANCH   6   7
ENDBRANCH   1   6
TORSDOF 7
ENDMDL
