MODEL 1
REMARK VINA RESULT:    -3.744      0.000      0.000
REMARK INTER + INTRA:         -14.518
REMARK INTER:                  -9.872
REMARK INTRA:                  -4.646
REMARK UNBOUND:                -4.646
REMARK SMILES CCCCCCCCCCCCCCCCCCCCCCCCCCCCCC(=O)[O-]
REMARK SMILES IDX 16 1 17 2 18 3 19 4 20 5 21 6 22 7 23 8 24 9 25 10 26 11
REMARK SMILES IDX 27 12 28 13 29 14 30 15 31 16 32 17 15 18 14 19 13 20 12 21
REMARK SMILES IDX 11 22 10 23 9 24 8 25 7 26 6 27 5 28 4 29 3 30 2 31 1 32
REMARK H PARENT
REMARK Flexibility Score: inf
ROOT
ATOM      1  C   UNL     1       1.289  44.961   9.377  1.00  0.00     0.000 C 
ENDROOT
BRANCH   1   2
ATOM      2  C   UNL     1      -0.053  45.153  10.108  1.00  0.00     0.000 C 
BRANCH   2   3
ATOM      3  C   UNL     1      -0.483  46.621  10.310  1.00  0.00     0.000 C 
BRANCH   3   4
ATOM      4  C   UNL     1       0.244  47.646   9.421  1.00  0.00     0.000 C 
BRANCH   4   5
ATOM      5  C   UNL     1      -0.299  47.679   7.985  1.00  0.00     0.000 C 
BRANCH   5   6
ATOM      6  C   UNL     1      -0.526  49.123   7.515  1.00  0.00     0.000 C 
BRANCH   6   7
ATOM      7  C   UNL     1       0.343  50.134   8.282  1.00  0.00     0.000 C 
BRANCH   7   8
ATOM      8  C   UNL     1       1.054  51.125   7.343  1.00  0.00     0.000 C 
BRANCH   8   9
ATOM      9  C   UNL     1       2.388  50.580   6.809  1.00  0.00     0.000 C 
BRANCH   9  10
ATOM     10  C   UNL     1       3.040  49.574   7.770  1.00  0.00     0.000 C 
BRANCH  10  11
ATOM     11  C   UNL     1       3.320  48.242   7.062  1.00  0.00     0.000 C 
BRANCH  11  12
ATOM     12  C   UNL     1       3.478  47.103   8.079  1.00  0.00     0.000 C 
BRANCH  12  13
ATOM     13  C   UNL     1       4.139  47.561   9.392  1.00  0.00     0.006 C 
BRANCH  13  14
ATOM     14  C   UNL     1       5.500  46.907   9.676  1.00  0.00     0.053 C 
BRANCH  14  15
ATOM     15  C   UNL     1       6.643  47.787   9.271  1.00  0.00     0.041 C 
ATOM     16  O   UNL     1       6.425  48.877   8.680  1.00  0.00    -0.550 OA
ATOM     17  O   UNL     1       7.949  47.410   9.561  1.00  0.00    -0.550 OA
ENDBRANCH  14  15
ENDBRANCH  13  14
ENDBRANCH  12  13
ENDBRANCH  11  12
ENDBRANCH  10  11
ENDBRANCH   9  10
ENDBRANCH   8   9
ENDBRANCH   7   8
ENDBRANCH   6   7
ENDBRANCH   5   6
ENDBRANCH   4   5
ENDBRANCH   3   4
ENDBRANCH   2   3
ENDBRANCH   1   2
BRANCH   1  18
ATOM     18  C   UNL     1       1.305  43.712   8.483  1.00  0.00     0.000 C 
BRANCH  18  19
ATOM     19  C   UNL     1       2.579  42.891   8.716  1.00  0.00     0.000 C 
BRANCH  19  20
ATOM     20  C   UNL     1       3.691  43.758   9.322  1.00  0.00     0.000 C 
BRANCH  20  21
ATOM     21  C   UNL     1       4.167  43.249  10.694  1.00  0.00     0.000 C 
BRANCH  21  22
ATOM     22  C   UNL     1       4.046  44.296  11.822  1.00  0.00     0.000 C 
BRANCH  22  23
ATOM     23  C   UNL     1       2.858  44.009  12.757  1.00  0.00     0.000 C 
BRANCH  23  24
ATOM     24  C   UNL     1       1.938  42.894  12.229  1.00  0.00    -0.000 C 
BRANCH  24  25
ATOM     25  C   UNL     1       0.490  42.955  12.749  1.00  0.00    -0.000 C 
BRANCH  25  26
ATOM     26  C   UNL     1       0.079  41.685  13.515  1.00  0.00    -0.000 C 
BRANCH  26  27
ATOM     27  C   UNL     1       1.238  40.691  13.690  1.00  0.00    -0.000 C 
BRANCH  27  28
ATOM     28  C   UNL     1       0.872  39.239  13.316  1.00  0.00    -0.000 C 
BRANCH  28  29
ATOM     29  C   UNL     1       2.100  38.432  12.866  1.00  0.00    -0.000 C 
BRANCH  29  30
ATOM     30  C   UNL     1       3.169  39.345  12.254  1.00  0.00    -0.000 C 
BRANCH  30  31
ATOM     31  C   UNL     1       4.491  39.236  13.022  1.00  0.00    -0.003 C 
ATOM     32  C   UNL     1       5.031  40.616  13.389  1.00  0.00     0.004 C 
ENDBRANCH  30  31
ENDBRANCH  29  30
ENDBRANCH  28  29
ENDBRANCH  27  28
ENDBRANCH  26  27
ENDBRANCH  25  26
ENDBRANCH  24  25
ENDBRANCH  23  24
ENDBRANCH  22  23
ENDBRANCH  21  22
ENDBRANCH  20  21
ENDBRANCH  19  20
ENDBRANCH  18  19
ENDBRANCH   1  18
TORSDOF 28
ENDMDL
MODEL 2
REMARK VINA RESULT:    -3.463      1.177      2.476
REMARK INTER + INTRA:         -13.779
REMARK INTER:                  -9.754
REMARK INTRA:                  -4.025
REMARK UNBOUND:                -4.646
REMARK SMILES CCCCCCCCCCCCCCCCCCCCCCCCCCCCCC(=O)[O-]
REMARK SMILES IDX 16 1 17 2 18 3 19 4 20 5 21 6 22 7 23 8 24 9 25 10 26 11
REMARK SMILES IDX 27 12 28 13 29 14 30 15 31 16 32 17 15 18 14 19 13 20 12 21
REMARK SMILES IDX 11 22 10 23 9 24 8 25 7 26 6 27 5 28 4 29 3 30 2 31 1 32
REMARK H PARENT
REMARK Flexibility Score: inf
ROOT
ATOM      1  C   UNL     1       3.252  42.932   9.052  1.00  0.00     0.000 C 
ENDROOT
BRANCH   1   2
ATOM      2  C   UNL     1       1.803  42.909   8.535  1.00  0.00     0.000 C 
BRANCH   2   3
ATOM      3  C   UNL     1       1.198  44.294   8.221  1.00  0.00     0.000 C 
BRANCH   3   4
ATOM      4  C   UNL     1       0.217  44.328   7.036  1.00  0.00     0.000 C 
BRANCH   4   5
ATOM      5  C   UNL     1      -0.788  45.485   7.127  1.00  0.00     0.000 C 
BRANCH   5   6
ATOM      6  C   UNL     1      -0.985  45.929   8.583  1.00  0.00     0.000 C 
BRANCH   6   7
ATOM      7  C   UNL     1      -0.835  47.449   8.761  1.00  0.00     0.000 C 
BRANCH   7   8
ATOM      8  C   UNL     1       0.164  47.813   9.874  1.00  0.00     0.000 C 
BRANCH   8   9
ATOM      9  C   UNL     1       1.173  48.885   9.434  1.00  0.00     0.000 C 
BRANCH   9  10
ATOM     10  C   UNL     1       1.375  48.915   7.911  1.00  0.00     0.000 C 
BRANCH  10  11
ATOM     11  C   UNL     1       2.290  47.771   7.457  1.00  0.00     0.000 C 
BRANCH  11  12
ATOM     12  C   UNL     1       3.769  48.148   7.633  1.00  0.00     0.000 C 
BRANCH  12  13
ATOM     13  C   UNL     1       4.572  47.079   8.395  1.00  0.00     0.006 C 
BRANCH  13  14
ATOM     14  C   UNL     1       5.334  47.612   9.619  1.00  0.00     0.053 C 
BRANCH  14  15
ATOM     15  C   UNL     1       6.681  48.153   9.251  1.00  0.00     0.041 C 
ATOM     16  O   UNL     1       7.725  47.525   9.569  1.00  0.00    -0.550 OA
ATOM     17  O   UNL     1       6.783  49.344   8.541  1.00  0.00    -0.550 OA
ENDBRANCH  14  15
ENDBRANCH  13  14
ENDBRANCH  12  13
ENDBRANCH  11  12
ENDBRANCH  10  11
ENDBRANCH   9  10
ENDBRANCH   8   9
ENDBRANCH   7   8
ENDBRANCH   6   7
ENDBRANCH   5   6
ENDBRANCH   4   5
ENDBRANCH   3   4
ENDBRANCH   2   3
ENDBRANCH   1   2
BRANCH   1  18
ATOM     18  C   UNL     1       3.690  44.323   9.535  1.00  0.00     0.000 C 
BRANCH  18  19
ATOM     19  C   UNL     1       4.321  44.243  10.929  1.00  0.00     0.000 C 
BRANCH  19  20
ATOM     20  C   UNL     1       3.285  44.536  12.022  1.00  0.00     0.000 C 
BRANCH  20  21
ATOM     21  C   UNL     1       2.009  45.200  11.476  1.00  0.00     0.000 C 
BRANCH  21  22
ATOM     22  C   UNL     1       0.752  44.311  11.583  1.00  0.00     0.000 C 
BRANCH  22  23
ATOM     23  C   UNL     1       0.977  43.091  12.494  1.00  0.00     0.000 C 
BRANCH  23  24
ATOM     24  C   UNL     1      -0.323  42.579  13.139  1.00  0.00    -0.000 C 
BRANCH  24  25
ATOM     25  C   UNL     1      -0.117  41.630  14.334  1.00  0.00    -0.000 C 
BRANCH  25  26
ATOM     26  C   UNL     1      -0.687  40.223  14.082  1.00  0.00    -0.000 C 
BRANCH  26  27
ATOM     27  C   UNL     1       0.209  39.371  13.168  1.00  0.00    -0.000 C 
BRANCH  27  28
ATOM     28  C   UNL     1       1.640  39.175  13.710  1.00  0.00    -0.000 C 
BRANCH  28  29
ATOM     29  C   UNL     1       2.692  39.213  12.589  1.00  0.00    -0.000 C 
BRANCH  29  30
ATOM     30  C   UNL     1       3.052  40.656  12.216  1.00  0.00    -0.000 C 
BRANCH  30  31
ATOM     31  C   UNL     1       4.458  41.017  12.706  1.00  0.00    -0.003 C 
ATOM     32  C   UNL     1       5.122  39.831  13.401  1.00  0.00     0.004 C 
ENDBRANCH  30  31
ENDBRANCH  29  30
ENDBRANCH  28  29
ENDBRANCH  27  28
ENDBRANCH  26  27
ENDBRANCH  25  26
ENDBRANCH  24  25
ENDBRANCH  23  24
ENDBRANCH  22  23
ENDBRANCH  21  22
ENDBRANCH  20  21
ENDBRANCH  19  20
ENDBRANCH  18  19
ENDBRANCH   1  18
TORSDOF 28
ENDMDL
MODEL 3
REMARK VINA RESULT:    -3.356      2.456      8.353
REMARK INTER + INTRA:         -13.495
REMARK INTER:                  -9.778
REMARK INTRA:                  -3.718
REMARK UNBOUND:                -4.646
REMARK SMILES CCCCCCCCCCCCCCCCCCCCCCCCCCCCCC(=O)[O-]
REMARK SMILES IDX 16 1 17 2 18 3 19 4 20 5 21 6 22 7 23 8 24 9 25 10 26 11
REMARK SMILES IDX 27 12 28 13 29 14 30 15 31 16 32 17 15 18 14 19 13 20 12 21
REMARK SMILES IDX 11 22 10 23 9 24 8 25 7 26 6 27 5 28 4 29 3 30 2 31 1 32
REMARK H PARENT
REMARK Flexibility Score: inf
ROOT
ATOM      1  C   UNL     1       2.550  43.613   8.656  1.00  0.00     0.000 C 
ENDROOT
BRANCH   1   2
ATOM      2  C   UNL     1       2.700  42.709   9.893  1.00  0.00     0.000 C 
BRANCH   2   3
ATOM      3  C   UNL     1       3.946  42.988  10.761  1.00  0.00     0.000 C 
BRANCH   3   4
ATOM      4  C   UNL     1       3.672  43.727  12.083  1.00  0.00     0.000 C 
BRANCH   4   5
ATOM      5  C   UNL     1       2.230  44.244  12.188  1.00  0.00     0.000 C 
BRANCH   5   6
ATOM      6  C   UNL     1       1.246  43.087  12.411  1.00  0.00     0.000 C 
BRANCH   6   7
ATOM      7  C   UNL     1      -0.167  43.576  12.766  1.00  0.00     0.000 C 
BRANCH   7   8
ATOM      8  C   UNL     1      -1.121  42.417  13.106  1.00  0.00     0.000 C 
BRANCH   8   9
ATOM      9  C   UNL     1      -1.091  42.046  14.597  1.00  0.00     0.000 C 
BRANCH   9  10
ATOM     10  C   UNL     1      -0.792  40.558  14.829  1.00  0.00     0.000 C 
BRANCH  10  11
ATOM     11  C   UNL     1       0.654  40.222  14.441  1.00  0.00     0.000 C 
BRANCH  11  12
ATOM     12  C   UNL     1       0.692  39.192  13.303  1.00  0.00     0.000 C 
BRANCH  12  13
ATOM     13  C   UNL     1       2.125  38.829  12.872  1.00  0.00     0.006 C 
BRANCH  13  14
ATOM     14  C   UNL     1       3.019  40.041  12.565  1.00  0.00     0.053 C 
BRANCH  14  15
ATOM     15  C   UNL     1       4.439  39.813  12.984  1.00  0.00     0.041 C 
ATOM     16  O   UNL     1       4.944  38.662  12.912  1.00  0.00    -0.550 OA
ATOM     17  O   UNL     1       5.210  40.877  13.438  1.00  0.00    -0.550 OA
ENDBRANCH  14  15
ENDBRANCH  13  14
ENDBRANCH  12  13
ENDBRANCH  11  12
ENDBRANCH  10  11
ENDBRANCH   9  10
ENDBRANCH   8   9
ENDBRANCH   7   8
ENDBRANCH   6   7
ENDBRANCH   5   6
ENDBRANCH   4   5
ENDBRANCH   3   4
ENDBRANCH   2   3
ENDBRANCH   1   2
BRANCH   1  18
ATOM     18  C   UNL     1       1.085  43.950   8.340  1.00  0.00     0.000 C 
BRANCH  18  19
ATOM     19  C   UNL     1       0.471  44.809   9.451  1.00  0.00     0.000 C 
BRANCH  19  20
ATOM     20  C   UNL     1      -0.438  45.899   8.868  1.00  0.00     0.000 C 
BRANCH  20  21
ATOM     21  C   UNL     1      -0.248  46.090   7.353  1.00  0.00     0.000 C 
BRANCH  21  22
ATOM     22  C   UNL     1      -0.878  47.388   6.806  1.00  0.00     0.000 C 
BRANCH  22  23
ATOM     23  C   UNL     1      -1.056  48.455   7.901  1.00  0.00     0.000 C 
BRANCH  23  24
ATOM     24  C   UNL     1      -0.214  49.718   7.646  1.00  0.00    -0.000 C 
BRANCH  24  25
ATOM     25  C   UNL     1       1.193  49.690   8.270  1.00  0.00    -0.000 C 
BRANCH  25  26
ATOM     26  C   UNL     1       2.303  49.475   7.225  1.00  0.00    -0.000 C 
BRANCH  26  27
ATOM     27  C   UNL     1       3.240  48.309   7.580  1.00  0.00    -0.000 C 
BRANCH  27  28
ATOM     28  C   UNL     1       2.860  47.584   8.887  1.00  0.00    -0.000 C 
BRANCH  28  29
ATOM     29  C   UNL     1       3.856  46.466   9.237  1.00  0.00    -0.000 C 
BRANCH  29  30
ATOM     30  C   UNL     1       4.972  46.985  10.152  1.00  0.00    -0.000 C 
BRANCH  30  31
ATOM     31  C   UNL     1       6.294  47.116   9.388  1.00  0.00    -0.003 C 
ATOM     32  C   UNL     1       6.777  48.563   9.364  1.00  0.00     0.004 C 
ENDBRANCH  30  31
ENDBRANCH  29  30
ENDBRANCH  28  29
ENDBRANCH  27  28
ENDBRANCH  26  27
ENDBRANCH  25  26
ENDBRANCH  24  25
ENDBRANCH  23  24
ENDBRANCH  22  23
ENDBRANCH  21  22
ENDBRANCH  20  21
ENDBRANCH  19  20
ENDBRANCH  18  19
ENDBRANCH   1  18
TORSDOF 28
ENDMDL
MODEL 4
REMARK VINA RESULT:    -3.338      3.518      8.841
REMARK INTER + INTRA:         -13.448
REMARK INTER:                  -9.993
REMARK INTRA:                  -3.455
REMARK UNBOUND:                -4.646
REMARK SMILES CCCCCCCCCCCCCCCCCCCCCCCCCCCCCC(=O)[O-]
REMARK SMILES IDX 16 1 17 2 18 3 19 4 20 5 21 6 22 7 23 8 24 9 25 10 26 11
REMARK SMILES IDX 27 12 28 13 29 14 30 15 31 16 32 17 15 18 14 19 13 20 12 21
REMARK SMILES IDX 11 22 10 23 9 24 8 25 7 26 6 27 5 28 4 29 3 30 2 31 1 32
REMARK H PARENT
REMARK Flexibility Score: inf
ROOT
ATOM      1  C   UNL     1       4.545  47.376   8.511  1.00  0.00     0.000 C 
ENDROOT
BRANCH   1   2
ATOM      2  C   UNL     1       4.874  46.992   9.965  1.00  0.00     0.000 C 
BRANCH   2   3
ATOM      3  C   UNL     1       3.888  45.999  10.618  1.00  0.00     0.000 C 
BRANCH   3   4
ATOM      4  C   UNL     1       4.488  44.632  10.995  1.00  0.00     0.000 C 
BRANCH   4   5
ATOM      5  C   UNL     1       4.205  44.239  12.452  1.00  0.00     0.000 C 
BRANCH   5   6
ATOM      6  C   UNL     1       3.177  43.101  12.524  1.00  0.00     0.000 C 
BRANCH   6   7
ATOM      7  C   UNL     1       3.677  41.812  11.852  1.00  0.00     0.000 C 
BRANCH   7   8
ATOM      8  C   UNL     1       4.594  40.989  12.774  1.00  0.00     0.000 C 
BRANCH   8   9
ATOM      9  C   UNL     1       3.995  39.621  13.134  1.00  0.00     0.000 C 
BRANCH   9  10
ATOM     10  C   UNL     1       2.560  39.451  12.612  1.00  0.00     0.000 C 
BRANCH  10  11
ATOM     11  C   UNL     1       1.546  39.533  13.761  1.00  0.00     0.000 C 
BRANCH  11  12
ATOM     12  C   UNL     1       0.108  39.558  13.223  1.00  0.00     0.000 C 
BRANCH  12  13
ATOM     13  C   UNL     1      -0.836  40.418  14.083  1.00  0.00     0.006 C 
BRANCH  13  14
ATOM     14  C   UNL     1      -0.118  41.398  15.024  1.00  0.00     0.053 C 
BRANCH  14  15
ATOM     15  C   UNL     1      -0.663  41.341  16.418  1.00  0.00     0.041 C 
ATOM     16  O   UNL     1      -1.105  40.258  16.882  1.00  0.00    -0.550 OA
ATOM     17  O   UNL     1      -0.668  42.484  17.211  1.00  0.00    -0.550 OA
ENDBRANCH  14  15
ENDBRANCH  13  14
ENDBRANCH  12  13
ENDBRANCH  11  12
ENDBRANCH  10  11
ENDBRANCH   9  10
ENDBRANCH   8   9
ENDBRANCH   7   8
ENDBRANCH   6   7
ENDBRANCH   5   6
ENDBRANCH   4   5
ENDBRANCH   3   4
ENDBRANCH   2   3
ENDBRANCH   1   2
BRANCH   1  18
ATOM     18  C   UNL     1       3.245  48.185   8.389  1.00  0.00     0.000 C 
BRANCH  18  19
ATOM     19  C   UNL     1       3.083  48.745   6.971  1.00  0.00     0.000 C 
BRANCH  19  20
ATOM     20  C   UNL     1       2.509  50.167   7.001  1.00  0.00     0.000 C 
BRANCH  20  21
ATOM     21  C   UNL     1       1.409  50.347   8.063  1.00  0.00     0.000 C 
BRANCH  21  22
ATOM     22  C   UNL     1       0.107  50.965   7.510  1.00  0.00     0.000 C 
BRANCH  22  23
ATOM     23  C   UNL     1      -1.108  50.043   7.715  1.00  0.00     0.000 C 
BRANCH  23  24
ATOM     24  C   UNL     1      -1.064  48.792   6.820  1.00  0.00    -0.000 C 
BRANCH  24  25
ATOM     25  C   UNL     1      -0.940  47.460   7.584  1.00  0.00    -0.000 C 
BRANCH  25  26
ATOM     26  C   UNL     1      -0.510  46.293   6.677  1.00  0.00    -0.000 C 
BRANCH  26  27
ATOM     27  C   UNL     1      -0.146  45.025   7.467  1.00  0.00    -0.000 C 
BRANCH  27  28
ATOM     28  C   UNL     1       1.045  45.215   8.430  1.00  0.00    -0.000 C 
BRANCH  28  29
ATOM     29  C   UNL     1       1.271  43.980   9.317  1.00  0.00    -0.000 C 
BRANCH  29  30
ATOM     30  C   UNL     1       0.658  44.177  10.708  1.00  0.00    -0.000 C 
BRANCH  30  31
ATOM     31  C   UNL     1       0.053  45.577  10.850  1.00  0.00    -0.003 C 
ATOM     32  C   UNL     1      -1.086  45.586  11.866  1.00  0.00     0.004 C 
ENDBRANCH  30  31
ENDBRANCH  29  30
ENDBRANCH  28  29
ENDBRANCH  27  28
ENDBRANCH  26  27
ENDBRANCH  25  26
ENDBRANCH  24  25
ENDBRANCH  23  24
ENDBRANCH  22  23
ENDBRANCH  21  22
ENDBRANCH  20  21
ENDBRANCH  19  20
ENDBRANCH  18  19
ENDBRANCH   1  18
TORSDOF 28
ENDMDL
MODEL 5
REMARK VINA RESULT:    -3.183      1.958      8.247
REMARK INTER + INTRA:         -13.040
REMARK INTER:                  -9.280
REMARK INTRA:                  -3.760
REMARK UNBOUND:                -4.646
REMARK SMILES CCCCCCCCCCCCCCCCCCCCCCCCCCCCCC(=O)[O-]
REMARK SMILES IDX 16 1 17 2 18 3 19 4 20 5 21 6 22 7 23 8 24 9 25 10 26 11
REMARK SMILES IDX 27 12 28 13 29 14 30 15 31 16 32 17 15 18 14 19 13 20 12 21
REMARK SMILES IDX 11 22 10 23 9 24 8 25 7 26 6 27 5 28 4 29 3 30 2 31 1 32
REMARK H PARENT
REMARK Flexibility Score: inf
ROOT
ATOM      1  C   UNL     1      -1.044  45.579  11.513  1.00  0.00     0.000 C 
ENDROOT
BRANCH   1   2
ATOM      2  C   UNL     1      -0.999  44.160  12.108  1.00  0.00     0.000 C 
BRANCH   2   3
ATOM      3  C   UNL     1       0.404  43.519  12.167  1.00  0.00     0.000 C 
BRANCH   3   4
ATOM      4  C   UNL     1       0.622  42.525  13.322  1.00  0.00     0.000 C 
BRANCH   4   5
ATOM      5  C   UNL     1      -0.653  41.754  13.692  1.00  0.00     0.000 C 
BRANCH   5   6
ATOM      6  C   UNL     1      -0.347  40.269  13.936  1.00  0.00     0.000 C 
BRANCH   6   7
ATOM      7  C   UNL     1       1.158  39.964  13.890  1.00  0.00     0.000 C 
BRANCH   7   8
ATOM      8  C   UNL     1       1.490  38.793  12.947  1.00  0.00     0.000 C 
BRANCH   8   9
ATOM      9  C   UNL     1       2.990  38.703  12.622  1.00  0.00     0.000 C 
BRANCH   9  10
ATOM     10  C   UNL     1       3.852  39.524  13.593  1.00  0.00     0.000 C 
BRANCH  10  11
ATOM     11  C   UNL     1       4.882  40.369  12.830  1.00  0.00     0.000 C 
BRANCH  11  12
ATOM     12  C   UNL     1       4.389  41.813  12.660  1.00  0.00     0.000 C 
BRANCH  12  13
ATOM     13  C   UNL     1       3.485  41.995  11.427  1.00  0.00     0.006 C 
BRANCH  13  14
ATOM     14  C   UNL     1       3.728  43.300  10.652  1.00  0.00     0.053 C 
BRANCH  14  15
ATOM     15  C   UNL     1       3.303  43.191   9.220  1.00  0.00     0.041 C 
ATOM     16  O   UNL     1       4.161  43.018   8.315  1.00  0.00    -0.550 OA
ATOM     17  O   UNL     1       1.955  43.265   8.886  1.00  0.00    -0.550 OA
ENDBRANCH  14  15
ENDBRANCH  13  14
ENDBRANCH  12  13
ENDBRANCH  11  12
ENDBRANCH  10  11
ENDBRANCH   9  10
ENDBRANCH   8   9
ENDBRANCH   7   8
ENDBRANCH   6   7
ENDBRANCH   5   6
ENDBRANCH   4   5
ENDBRANCH   3   4
ENDBRANCH   2   3
ENDBRANCH   1   2
BRANCH   1  18
ATOM     18  C   UNL     1       0.003  45.794  10.409  1.00  0.00     0.000 C 
BRANCH  18  19
ATOM     19  C   UNL     1      -0.603  45.538   9.025  1.00  0.00     0.000 C 
BRANCH  19  20
ATOM     20  C   UNL     1      -0.855  46.855   8.280  1.00  0.00     0.000 C 
BRANCH  20  21
ATOM     21  C   UNL     1      -1.121  48.038   9.228  1.00  0.00     0.000 C 
BRANCH  21  22
ATOM     22  C   UNL     1      -1.069  49.415   8.533  1.00  0.00     0.000 C 
BRANCH  22  23
ATOM     23  C   UNL     1       0.014  49.476   7.441  1.00  0.00     0.000 C 
BRANCH  23  24
ATOM     24  C   UNL     1       1.368  49.979   7.971  1.00  0.00    -0.000 C 
BRANCH  24  25
ATOM     25  C   UNL     1       2.598  49.389   7.256  1.00  0.00    -0.000 C 
BRANCH  25  26
ATOM     26  C   UNL     1       2.915  47.952   7.708  1.00  0.00    -0.000 C 
BRANCH  26  27
ATOM     27  C   UNL     1       2.519  47.684   9.169  1.00  0.00    -0.000 C 
BRANCH  27  28
ATOM     28  C   UNL     1       3.554  46.844   9.947  1.00  0.00    -0.000 C 
BRANCH  28  29
ATOM     29  C   UNL     1       4.836  46.610   9.131  1.00  0.00    -0.000 C 
BRANCH  29  30
ATOM     30  C   UNL     1       6.087  46.885   9.974  1.00  0.00    -0.000 C 
BRANCH  30  31
ATOM     31  C   UNL     1       7.057  47.813   9.235  1.00  0.00    -0.003 C 
ATOM     32  C   UNL     1       6.307  48.909   8.483  1.00  0.00     0.004 C 
ENDBRANCH  30  31
ENDBRANCH  29  30
ENDBRANCH  28  29
ENDBRANCH  27  28
ENDBRANCH  26  27
ENDBRANCH  25  26
ENDBRANCH  24  25
ENDBRANCH  23  24
ENDBRANCH  22  23
ENDBRANCH  21  22
ENDBRANCH  20  21
ENDBRANCH  19  20
ENDBRANCH  18  19
ENDBRANCH   1  18
TORSDOF 28
ENDMDL
MODEL 6
REMARK VINA RESULT:    -2.967      1.038      3.888
REMARK INTER + INTRA:         -12.471
REMARK INTER:                  -8.857
REMARK INTRA:                  -3.613
REMARK UNBOUND:                -4.646
REMARK SMILES CCCCCCCCCCCCCCCCCCCCCCCCCCCCCC(=O)[O-]
REMARK SMILES IDX 16 1 17 2 18 3 19 4 20 5 21 6 22 7 23 8 24 9 25 10 26 11
REMARK SMILES IDX 27 12 28 13 29 14 30 15 31 16 32 17 15 18 14 19 13 20 12 21
REMARK SMILES IDX 11 22 10 23 9 24 8 25 7 26 6 27 5 28 4 29 3 30 2 31 1 32
REMARK H PARENT
REMARK Flexibility Score: inf
ROOT
ATOM      1  C   UNL     1       0.639  44.042  12.134  1.00  0.00     0.000 C 
ENDROOT
BRANCH   1   2
ATOM      2  C   UNL     1      -0.605  44.830  11.686  1.00  0.00     0.000 C 
BRANCH   2   3
ATOM      3  C   UNL     1      -0.346  45.902  10.605  1.00  0.00     0.000 C 
BRANCH   3   4
ATOM      4  C   UNL     1       0.068  45.356   9.227  1.00  0.00     0.000 C 
BRANCH   4   5
ATOM      5  C   UNL     1      -0.962  45.663   8.131  1.00  0.00     0.000 C 
BRANCH   5   6
ATOM      6  C   UNL     1      -0.400  46.667   7.114  1.00  0.00     0.000 C 
BRANCH   6   7
ATOM      7  C   UNL     1      -0.920  48.094   7.346  1.00  0.00     0.000 C 
BRANCH   7   8
ATOM      8  C   UNL     1      -0.045  48.883   8.337  1.00  0.00     0.000 C 
BRANCH   8   9
ATOM      9  C   UNL     1       1.041  49.713   7.633  1.00  0.00     0.000 C 
BRANCH   9  10
ATOM     10  C   UNL     1       2.404  49.005   7.616  1.00  0.00     0.000 C 
BRANCH  10  11
ATOM     11  C   UNL     1       2.605  48.172   8.888  1.00  0.00     0.000 C 
BRANCH  11  12
ATOM     12  C   UNL     1       3.028  46.737   8.542  1.00  0.00     0.000 C 
BRANCH  12  13
ATOM     13  C   UNL     1       4.549  46.521   8.643  1.00  0.00     0.006 C 
BRANCH  13  14
ATOM     14  C   UNL     1       5.240  47.380   9.715  1.00  0.00     0.053 C 
BRANCH  14  15
ATOM     15  C   UNL     1       6.495  48.017   9.202  1.00  0.00     0.041 C 
ATOM     16  O   UNL     1       6.433  48.956   8.366  1.00  0.00    -0.550 OA
ATOM     17  O   UNL     1       7.734  47.584   9.662  1.00  0.00    -0.550 OA
ENDBRANCH  14  15
ENDBRANCH  13  14
ENDBRANCH  12  13
ENDBRANCH  11  12
ENDBRANCH  10  11
ENDBRANCH   9  10
ENDBRANCH   8   9
ENDBRANCH   7   8
ENDBRANCH   6   7
ENDBRANCH   5   6
ENDBRANCH   4   5
ENDBRANCH   3   4
ENDBRANCH   2   3
ENDBRANCH   1   2
BRANCH   1  18
ATOM     18  C   UNL     1       0.318  42.586  12.508  1.00  0.00     0.000 C 
BRANCH  18  19
ATOM     19  C   UNL     1      -0.651  42.529  13.695  1.00  0.00     0.000 C 
BRANCH  19  20
ATOM     20  C   UNL     1      -0.608  41.155  14.376  1.00  0.00     0.000 C 
BRANCH  20  21
ATOM     21  C   UNL     1       0.628  40.328  13.982  1.00  0.00     0.000 C 
BRANCH  21  22
ATOM     22  C   UNL     1       0.288  38.993  13.286  1.00  0.00     0.000 C 
BRANCH  22  23
ATOM     23  C   UNL     1       1.548  38.180  12.938  1.00  0.00     0.000 C 
BRANCH  23  24
ATOM     24  C   UNL     1       2.658  39.041  12.310  1.00  0.00    -0.000 C 
BRANCH  24  25
ATOM     25  C   UNL     1       4.073  38.756  12.847  1.00  0.00    -0.000 C 
BRANCH  25  26
ATOM     26  C   UNL     1       4.709  39.981  13.527  1.00  0.00    -0.000 C 
BRANCH  26  27
ATOM     27  C   UNL     1       4.940  41.151  12.556  1.00  0.00    -0.000 C 
BRANCH  27  28
ATOM     28  C   UNL     1       3.756  42.138  12.482  1.00  0.00    -0.000 C 
BRANCH  28  29
ATOM     29  C   UNL     1       4.228  43.599  12.404  1.00  0.00    -0.000 C 
BRANCH  29  30
ATOM     30  C   UNL     1       3.951  44.198  11.020  1.00  0.00    -0.000 C 
BRANCH  30  31
ATOM     31  C   UNL     1       4.007  43.120   9.932  1.00  0.00    -0.003 C 
ATOM     32  C   UNL     1       2.700  43.063   9.145  1.00  0.00     0.004 C 
ENDBRANCH  30  31
ENDBRANCH  29  30
ENDBRANCH  28  29
ENDBRANCH  27  28
ENDBRANCH  26  27
ENDBRANCH  25  26
ENDBRANCH  24  25
ENDBRANCH  23  24
ENDBRANCH  22  23
ENDBRANCH  21  22
ENDBRANCH  20  21
ENDBRANCH  19  20
ENDBRANCH  18  19
ENDBRANCH   1  18
TORSDOF 28
ENDMDL
MODEL 7
REMARK VINA RESULT:    -2.959      2.768      8.285
REMARK INTER + INTRA:         -12.450
REMARK INTER:                  -8.762
REMARK INTRA:                  -3.687
REMARK UNBOUND:                -4.646
REMARK SMILES CCCCCCCCCCCCCCCCCCCCCCCCCCCCCC(=O)[O-]
REMARK SMILES IDX 16 1 17 2 18 3 19 4 20 5 21 6 22 7 23 8 24 9 25 10 26 11
REMARK SMILES IDX 27 12 28 13 29 14 30 15 31 16 32 17 15 18 14 19 13 20 12 21
REMARK SMILES IDX 11 22 10 23 9 24 8 25 7 26 6 27 5 28 4 29 3 30 2 31 1 32
REMARK H PARENT
REMARK Flexibility Score: inf
ROOT
ATOM      1  C   UNL     1       0.114  45.656   9.426  1.00  0.00     0.000 C 
ENDROOT
BRANCH   1   2
ATOM      2  C   UNL     1       1.121  44.928   8.517  1.00  0.00     0.000 C 
BRANCH   2   3
ATOM      3  C   UNL     1       1.221  43.404   8.739  1.00  0.00     0.000 C 
BRANCH   3   4
ATOM      4  C   UNL     1       2.646  42.825   8.680  1.00  0.00     0.000 C 
BRANCH   4   5
ATOM      5  C   UNL     1       3.624  43.553   9.614  1.00  0.00     0.000 C 
BRANCH   5   6
ATOM      6  C   UNL     1       3.964  42.687  10.835  1.00  0.00     0.000 C 
BRANCH   6   7
ATOM      7  C   UNL     1       3.619  43.381  12.163  1.00  0.00     0.000 C 
BRANCH   7   8
ATOM      8  C   UNL     1       2.384  44.292  12.044  1.00  0.00     0.000 C 
BRANCH   8   9
ATOM      9  C   UNL     1       1.065  43.505  12.075  1.00  0.00     0.000 C 
BRANCH   9  10
ATOM     10  C   UNL     1       0.797  42.857  13.442  1.00  0.00     0.000 C 
BRANCH  10  11
ATOM     11  C   UNL     1      -0.177  41.679  13.308  1.00  0.00     0.000 C 
BRANCH  11  12
ATOM     12  C   UNL     1       0.200  40.543  14.270  1.00  0.00     0.000 C 
BRANCH  12  13
ATOM     13  C   UNL     1       1.067  39.459  13.603  1.00  0.00     0.006 C 
BRANCH  13  14
ATOM     14  C   UNL     1       2.316  40.000  12.888  1.00  0.00     0.053 C 
BRANCH  14  15
ATOM     15  C   UNL     1       3.373  38.950  12.732  1.00  0.00     0.041 C 
ATOM     16  O   UNL     1       4.536  39.152  13.168  1.00  0.00    -0.550 OA
ATOM     17  O   UNL     1       3.067  37.740  12.119  1.00  0.00    -0.550 OA
ENDBRANCH  14  15
ENDBRANCH  13  14
ENDBRANCH  12  13
ENDBRANCH  11  12
ENDBRANCH  10  11
ENDBRANCH   9  10
ENDBRANCH   8   9
ENDBRANCH   7   8
ENDBRANCH   6   7
ENDBRANCH   5   6
ENDBRANCH   4   5
ENDBRANCH   3   4
ENDBRANCH   2   3
ENDBRANCH   1   2
BRANCH   1  18
ATOM     18  C   UNL     1      -1.096  46.202   8.655  1.00  0.00     0.000 C 
BRANCH  18  19
ATOM     19  C   UNL     1      -0.704  46.583   7.223  1.00  0.00     0.000 C 
BRANCH  19  20
ATOM     20  C   UNL     1      -1.073  48.041   6.918  1.00  0.00     0.000 C 
BRANCH  20  21
ATOM     21  C   UNL     1      -0.542  49.026   7.974  1.00  0.00     0.000 C 
BRANCH  21  22
ATOM     22  C   UNL     1       0.052  50.319   7.375  1.00  0.00     0.000 C 
BRANCH  22  23
ATOM     23  C   UNL     1       1.304  50.791   8.136  1.00  0.00     0.000 C 
BRANCH  23  24
ATOM     24  C   UNL     1       2.614  50.323   7.477  1.00  0.00    -0.000 C 
BRANCH  24  25
ATOM     25  C   UNL     1       2.558  48.909   6.869  1.00  0.00    -0.000 C 
BRANCH  25  26
ATOM     26  C   UNL     1       3.280  47.861   7.734  1.00  0.00    -0.000 C 
BRANCH  26  27
ATOM     27  C   UNL     1       2.863  47.916   9.213  1.00  0.00    -0.000 C 
BRANCH  27  28
ATOM     28  C   UNL     1       3.645  46.937  10.113  1.00  0.00    -0.000 C 
BRANCH  28  29
ATOM     29  C   UNL     1       4.961  46.480   9.462  1.00  0.00    -0.000 C 
BRANCH  29  30
ATOM     30  C   UNL     1       6.139  47.346   9.925  1.00  0.00    -0.000 C 
BRANCH  30  31
ATOM     31  C   UNL     1       6.852  47.990   8.732  1.00  0.00    -0.003 C 
ATOM     32  C   UNL     1       6.613  49.497   8.694  1.00  0.00     0.004 C 
ENDBRANCH  30  31
ENDBRANCH  29  30
ENDBRANCH  28  29
ENDBRANCH  27  28
ENDBRANCH  26  27
ENDBRANCH  25  26
ENDBRANCH  24  25
ENDBRANCH  23  24
ENDBRANCH  22  23
ENDBRANCH  21  22
ENDBRANCH  20  21
ENDBRANCH  19  20
ENDBRANCH  18  19
ENDBRANCH   1  18
TORSDOF 28
ENDMDL
MODEL 8
REMARK VINA RESULT:    -2.930      3.705      8.803
REMARK INTER + INTRA:         -12.371
REMARK INTER:                  -8.966
REMARK INTRA:                  -3.405
REMARK UNBOUND:                -4.646
REMARK SMILES CCCCCCCCCCCCCCCCCCCCCCCCCCCCCC(=O)[O-]
REMARK SMILES IDX 16 1 17 2 18 3 19 4 20 5 21 6 22 7 23 8 24 9 25 10 26 11
REMARK SMILES IDX 27 12 28 13 29 14 30 15 31 16 32 17 15 18 14 19 13 20 12 21
REMARK SMILES IDX 11 22 10 23 9 24 8 25 7 26 6 27 5 28 4 29 3 30 2 31 1 32
REMARK H PARENT
REMARK Flexibility Score: inf
ROOT
ATOM      1  C   UNL     1       3.316  43.422   8.602  1.00  0.00     0.000 C 
ENDROOT
BRANCH   1   2
ATOM      2  C   UNL     1       4.179  43.312   9.872  1.00  0.00     0.000 C 
BRANCH   2   3
ATOM      3  C   UNL     1       3.464  42.707  11.099  1.00  0.00     0.000 C 
BRANCH   3   4
ATOM      4  C   UNL     1       3.313  43.653  12.303  1.00  0.00     0.000 C 
BRANCH   4   5
ATOM      5  C   UNL     1       1.881  44.184  12.467  1.00  0.00     0.000 C 
BRANCH   5   6
ATOM      6  C   UNL     1       0.853  43.153  11.980  1.00  0.00     0.000 C 
BRANCH   6   7
ATOM      7  C   UNL     1      -0.405  43.113  12.862  1.00  0.00     0.000 C 
BRANCH   7   8
ATOM      8  C   UNL     1      -0.282  42.095  14.010  1.00  0.00     0.000 C 
BRANCH   8   9
ATOM      9  C   UNL     1      -0.163  40.648  13.506  1.00  0.00     0.000 C 
BRANCH   9  10
ATOM     10  C   UNL     1       1.107  39.950  14.016  1.00  0.00     0.000 C 
BRANCH  10  11
ATOM     11  C   UNL     1       2.333  40.380  13.200  1.00  0.00     0.000 C 
BRANCH  11  12
ATOM     12  C   UNL     1       2.842  39.225  12.324  1.00  0.00     0.000 C 
BRANCH  12  13
ATOM     13  C   UNL     1       2.314  37.852  12.781  1.00  0.00     0.006 C 
BRANCH  13  14
ATOM     14  C   UNL     1       2.044  36.866  11.634  1.00  0.00     0.053 C 
BRANCH  14  15
ATOM     15  C   UNL     1       0.627  36.380  11.632  1.00  0.00     0.041 C 
ATOM     16  O   UNL     1       0.314  35.339  10.998  1.00  0.00    -0.550 OA
ATOM     17  O   UNL     1      -0.346  37.071  12.346  1.00  0.00    -0.550 OA
ENDBRANCH  14  15
ENDBRANCH  13  14
ENDBRANCH  12  13
ENDBRANCH  11  12
ENDBRANCH  10  11
ENDBRANCH   9  10
ENDBRANCH   8   9
ENDBRANCH   7   8
ENDBRANCH   6   7
ENDBRANCH   5   6
ENDBRANCH   4   5
ENDBRANCH   3   4
ENDBRANCH   2   3
ENDBRANCH   1   2
BRANCH   1  18
ATOM     18  C   UNL     1       1.838  43.091   8.857  1.00  0.00     0.000 C 
BRANCH  18  19
ATOM     19  C   UNL     1       0.950  44.309   8.573  1.00  0.00     0.000 C 
BRANCH  19  20
ATOM     20  C   UNL     1       0.304  44.209   7.185  1.00  0.00     0.000 C 
BRANCH  20  21
ATOM     21  C   UNL     1      -0.496  45.467   6.804  1.00  0.00     0.000 C 
BRANCH  21  22
ATOM     22  C   UNL     1      -0.790  46.401   7.997  1.00  0.00     0.000 C 
BRANCH  22  23
ATOM     23  C   UNL     1      -1.005  47.860   7.554  1.00  0.00     0.000 C 
BRANCH  23  24
ATOM     24  C   UNL     1      -0.083  48.849   8.289  1.00  0.00    -0.000 C 
BRANCH  24  25
ATOM     25  C   UNL     1       1.311  49.019   7.657  1.00  0.00    -0.000 C 
BRANCH  25  26
ATOM     26  C   UNL     1       2.338  48.011   8.202  1.00  0.00    -0.000 C 
BRANCH  26  27
ATOM     27  C   UNL     1       2.083  47.633   9.671  1.00  0.00    -0.000 C 
BRANCH  27  28
ATOM     28  C   UNL     1       3.099  46.618  10.234  1.00  0.00    -0.000 C 
BRANCH  28  29
ATOM     29  C   UNL     1       4.514  47.213  10.334  1.00  0.00    -0.000 C 
BRANCH  29  30
ATOM     30  C   UNL     1       5.253  47.111   8.995  1.00  0.00    -0.000 C 
BRANCH  30  31
ATOM     31  C   UNL     1       6.448  48.070   8.951  1.00  0.00    -0.003 C 
ATOM     32  C   UNL     1       7.671  47.459   9.628  1.00  0.00     0.004 C 
ENDBRANCH  30  31
ENDBRANCH  29  30
ENDBRANCH  28  29
ENDBRANCH  27  28
ENDBRANCH  26  27
ENDBRANCH  25  26
ENDBRANCH  24  25
ENDBRANCH  23  24
ENDBRANCH  22  23
ENDBRANCH  21  22
ENDBRANCH  20  21
ENDBRANCH  19  20
ENDBRANCH  18  19
ENDBRANCH   1  18
TORSDOF 28
ENDMDL
MODEL 9
REMARK VINA RESULT:    -2.908      2.579      8.630
REMARK INTER + INTRA:         -12.314
REMARK INTER:                 -10.058
REMARK INTRA:                  -2.256
REMARK UNBOUND:                -4.646
REMARK SMILES CCCCCCCCCCCCCCCCCCCCCCCCCCCCCC(=O)[O-]
REMARK SMILES IDX 16 1 17 2 18 3 19 4 20 5 21 6 22 7 23 8 24 9 25 10 26 11
REMARK SMILES IDX 27 12 28 13 29 14 30 15 31 16 32 17 15 18 14 19 13 20 12 21
REMARK SMILES IDX 11 22 10 23 9 24 8 25 7 26 6 27 5 28 4 29 3 30 2 31 1 32
REMARK H PARENT
REMARK Flexibility Score: inf
ROOT
ATOM      1  C   UNL     1       2.777  44.996   9.137  1.00  0.00     0.000 C 
ENDROOT
BRANCH   1   2
ATOM      2  C   UNL     1       4.115  44.568   9.769  1.00  0.00     0.000 C 
BRANCH   2   3
ATOM      3  C   UNL     1       4.365  45.101  11.195  1.00  0.00     0.000 C 
BRANCH   3   4
ATOM      4  C   UNL     1       3.696  44.296  12.323  1.00  0.00     0.000 C 
BRANCH   4   5
ATOM      5  C   UNL     1       3.601  42.796  12.007  1.00  0.00     0.000 C 
BRANCH   5   6
ATOM      6  C   UNL     1       2.165  42.402  11.634  1.00  0.00     0.000 C 
BRANCH   6   7
ATOM      7  C   UNL     1       1.116  43.097  12.517  1.00  0.00     0.000 C 
BRANCH   7   8
ATOM      8  C   UNL     1       0.684  42.225  13.709  1.00  0.00     0.000 C 
BRANCH   8   9
ATOM      9  C   UNL     1      -0.773  41.749  13.595  1.00  0.00     0.000 C 
BRANCH   9  10
ATOM     10  C   UNL     1      -0.889  40.219  13.531  1.00  0.00     0.000 C 
BRANCH  10  11
ATOM     11  C   UNL     1       0.438  39.552  13.916  1.00  0.00     0.000 C 
BRANCH  11  12
ATOM     12  C   UNL     1       0.861  38.521  12.860  1.00  0.00     0.000 C 
BRANCH  12  13
ATOM     13  C   UNL     1       2.389  38.376  12.743  1.00  0.00     0.006 C 
BRANCH  13  14
ATOM     14  C   UNL     1       3.163  39.694  12.908  1.00  0.00     0.053 C 
BRANCH  14  15
ATOM     15  C   UNL     1       4.641  39.470  13.008  1.00  0.00     0.041 C 
ATOM     16  O   UNL     1       5.357  40.253  13.685  1.00  0.00    -0.550 OA
ATOM     17  O   UNL     1       5.225  38.383  12.366  1.00  0.00    -0.550 OA
ENDBRANCH  14  15
ENDBRANCH  13  14
ENDBRANCH  12  13
ENDBRANCH  11  12
ENDBRANCH  10  11
ENDBRANCH   9  10
ENDBRANCH   8   9
ENDBRANCH   7   8
ENDBRANCH   6   7
ENDBRANCH   5   6
ENDBRANCH   4   5
ENDBRANCH   3   4
ENDBRANCH   2   3
ENDBRANCH   1   2
BRANCH   1  18
ATOM     18  C   UNL     1       2.166  46.229   9.819  1.00  0.00     0.000 C 
BRANCH  18  19
ATOM     19  C   UNL     1       0.861  45.865  10.538  1.00  0.00     0.000 C 
BRANCH  19  20
ATOM     20  C   UNL     1      -0.083  45.092   9.608  1.00  0.00     0.000 C 
BRANCH  20  21
ATOM     21  C   UNL     1       0.554  44.760   8.248  1.00  0.00     0.000 C 
BRANCH  21  22
ATOM     22  C   UNL     1      -0.468  44.634   7.097  1.00  0.00     0.000 C 
BRANCH  22  23
ATOM     23  C   UNL     1      -1.125  45.983   6.753  1.00  0.00     0.000 C 
BRANCH  23  24
ATOM     24  C   UNL     1      -0.141  47.163   6.831  1.00  0.00    -0.000 C 
BRANCH  24  25
ATOM     25  C   UNL     1      -0.612  48.335   7.712  1.00  0.00    -0.000 C 
BRANCH  25  26
ATOM     26  C   UNL     1       0.548  49.037   8.439  1.00  0.00    -0.000 C 
BRANCH  26  27
ATOM     27  C   UNL     1       1.157  50.188   7.621  1.00  0.00    -0.000 C 
BRANCH  27  28
ATOM     28  C   UNL     1       2.594  49.908   7.133  1.00  0.00    -0.000 C 
BRANCH  28  29
ATOM     29  C   UNL     1       3.105  48.535   7.601  1.00  0.00    -0.000 C 
BRANCH  29  30
ATOM     30  C   UNL     1       4.636  48.470   7.561  1.00  0.00    -0.000 C 
BRANCH  30  31
ATOM     31  C   UNL     1       5.190  47.766   8.804  1.00  0.00    -0.003 C 
ATOM     32  C   UNL     1       6.623  48.206   9.094  1.00  0.00     0.004 C 
ENDBRANCH  30  31
ENDBRANCH  29  30
ENDBRANCH  28  29
ENDBRANCH  27  28
ENDBRANCH  26  27
ENDBRANCH  25  26
ENDBRANCH  24  25
ENDBRANCH  23  24
ENDBRANCH  22  23
ENDBRANCH  21  22
ENDBRANCH  20  21
ENDBRANCH  19  20
ENDBRANCH  18  19
ENDBRANCH   1  18
TORSDOF 28
ENDMDL
