MODEL 1
REMARK VINA RESULT:     0.709      0.000      0.000
REMARK INTER + INTRA:           8.413
REMARK INTER:                   1.082
REMARK INTRA:                   7.332
REMARK UNBOUND:                 7.332
REMARK SMILES CC1=CCC[C@H](C)C(=O)C[C@@H](C(C)C)C(=O)C1
REMARK SMILES IDX 8 1 9 2 6 3 7 4 5 5 4 6 3 7 2 8 1 9 10 11 11 12 15 13 16 14
REMARK SMILES IDX 17 15 12 17 13 18 14 19
REMARK H PARENT
REMARK Flexibility Score: 70.00
ROOT
ATOM      1  C   UNL     1      -9.457 -21.963  21.621  1.00  0.00     0.136 C 
ATOM      2  O   UNL     1      -8.243 -21.817  21.630  1.00  0.00    -0.299 OA
ENDROOT
BRANCH   1   3
ATOM      3  C   UNL     1     -10.240 -21.782  20.331  1.00  0.00     0.053 C 
ATOM      4  C   UNL     1      -9.334 -21.428  19.140  1.00  0.00     0.016 C 
BRANCH   3   5
ATOM      5  C   UNL     1     -11.120 -23.012  20.027  1.00  0.00     0.015 C 
BRANCH   5   6
ATOM      6  C   UNL     1     -10.384 -24.357  20.183  1.00  0.00     0.028 C 
BRANCH   6   7
ATOM      7  C   UNL     1      -8.948 -24.135  20.580  1.00  0.00    -0.028 C 
ATOM      8  C   UNL     1      -8.395 -24.562  21.741  1.00  0.00    -0.070 CG0
ATOM      9  C   UNL     1      -6.922 -24.316  21.954  1.00  0.00     0.039 C 
ATOM     10  G   UNL     1      -9.194 -25.254  22.836  1.00  0.00     0.000 G0
ENDBRANCH   6   7
ENDBRANCH   5   6
ENDBRANCH   3   5
ENDBRANCH   1   3
BRANCH   1  11
ATOM     11  C   UNL     1     -10.158 -22.331  22.908  1.00  0.00     0.087 C 
BRANCH  11  12
ATOM     12  C   UNL     1      -9.165 -22.809  23.999  1.00  0.00     0.066 C 
BRANCH  12  13
ATOM     13  C   UNL     1      -8.990 -24.321  23.967  1.00  0.00     0.140 C 
ATOM     14  O   UNL     1      -8.711 -24.925  24.993  1.00  0.00    -0.299 OA
BRANCH  13  15
ATOM     15  C   UNL     1      -9.086 -25.083  22.667  1.00  0.00     0.106 CG0
ATOM     16  G   UNL     1      -8.307 -24.417  21.543  1.00  0.00     0.000 G0
ENDBRANCH  13  15
ENDBRANCH  12  13
BRANCH  12  17
ATOM     17  C   UNL     1      -9.554 -22.280  25.414  1.00  0.00    -0.006 C 
ATOM     18  C   UNL     1     -10.333 -23.293  26.274  1.00  0.00     0.008 C 
ATOM     19  C   UNL     1      -8.326 -21.769  26.181  1.00  0.00     0.008 C 
ENDBRANCH  12  17
ENDBRANCH  11  12
ENDBRANCH   1  11
TORSDOF 1
ENDMDL
