MODEL 1
REMARK VINA RESULT:    -3.174      0.000      0.000
REMARK INTER + INTRA:          -3.584
REMARK INTER:                  -3.545
REMARK INTRA:                  -0.038
REMARK UNBOUND:                -0.038
REMARK SMILES CCCC(=O)[O-]
REMARK SMILES IDX 3 1 4 2 5 3 6 4 2 5 1 6
REMARK H PARENT
REMARK Flexibility Score: inf
ROOT
ATOM      1  C   UNL     1       6.551  23.859  -7.527  1.00  0.00     0.052 C 
ENDROOT
BRANCH   1   2
ATOM      2  C   UNL     1       6.887  24.200  -6.107  1.00  0.00     0.041 C 
ATOM      3  O   UNL     1       6.565  25.321  -5.632  1.00  0.00    -0.550 OA
ATOM      4  O   UNL     1       7.584  23.292  -5.320  1.00  0.00    -0.550 OA
ENDBRANCH   1   2
BRANCH   1   5
ATOM      5  C   UNL     1       7.580  24.437  -8.508  1.00  0.00     0.003 C 
ATOM      6  C   UNL     1       8.625  23.404  -8.930  1.00  0.00     0.004 C 
ENDBRANCH   1   5
TORSDOF 2
ENDMDL
MODEL 2
REMARK VINA RESULT:    -3.119      3.659      4.709
REMARK INTER + INTRA:          -3.522
REMARK INTER:                  -3.458
REMARK INTRA:                  -0.064
REMARK UNBOUND:                -0.038
REMARK SMILES CCCC(=O)[O-]
REMARK SMILES IDX 3 1 4 2 5 3 6 4 2 5 1 6
REMARK H PARENT
REMARK Flexibility Score: inf
ROOT
ATOM      1  C   UNL     1      11.036  23.239 -10.140  1.00  0.00     0.052 C 
ENDROOT
BRANCH   1   2
ATOM      2  C   UNL     1       9.967  22.835  -9.172  1.00  0.00     0.041 C 
ATOM      3  O   UNL     1       9.982  21.688  -8.653  1.00  0.00    -0.550 OA
ATOM      4  O   UNL     1       8.936  23.715  -8.869  1.00  0.00    -0.550 OA
ENDBRANCH   1   2
BRANCH   1   5
ATOM      5  C   UNL     1      11.767  24.508  -9.682  1.00  0.00     0.003 C 
ATOM      6  C   UNL     1      12.695  24.247  -8.496  1.00  0.00     0.004 C 
ENDBRANCH   1   5
TORSDOF 2
ENDMDL
MODEL 3
REMARK VINA RESULT:    -3.109      4.183      5.082
REMARK INTER + INTRA:          -3.511
REMARK INTER:                  -3.457
REMARK INTRA:                  -0.054
REMARK UNBOUND:                -0.038
REMARK SMILES CCCC(=O)[O-]
REMARK SMILES IDX 3 1 4 2 5 3 6 4 2 5 1 6
REMARK H PARENT
REMARK Flexibility Score: inf
ROOT
ATOM      1  C   UNL     1      10.256  21.906  -7.887  1.00  0.00     0.052 C 
ENDROOT
BRANCH   1   2
ATOM      2  C   UNL     1       9.932  22.266  -9.305  1.00  0.00     0.041 C 
ATOM      3  O   UNL     1       8.757  22.137  -9.739  1.00  0.00    -0.550 OA
ATOM      4  O   UNL     1      10.936  22.713 -10.154  1.00  0.00    -0.550 OA
ENDBRANCH   1   2
BRANCH   1   5
ATOM      5  C   UNL     1      10.319  20.386  -7.688  1.00  0.00     0.003 C 
ATOM      6  C   UNL     1      11.641  19.792  -8.174  1.00  0.00     0.004 C 
ENDBRANCH   1   5
TORSDOF 2
ENDMDL
MODEL 4
REMARK VINA RESULT:    -3.078      3.788      4.727
REMARK INTER + INTRA:          -3.476
REMARK INTER:                  -3.460
REMARK INTRA:                  -0.016
REMARK UNBOUND:                -0.038
REMARK SMILES CCCC(=O)[O-]
REMARK SMILES IDX 3 1 4 2 5 3 6 4 2 5 1 6
REMARK H PARENT
REMARK Flexibility Score: inf
ROOT
ATOM      1  C   UNL     1       9.113  22.548  -9.635  1.00  0.00     0.052 C 
ENDROOT
BRANCH   1   2
ATOM      2  C   UNL     1      10.604  22.639  -9.754  1.00  0.00     0.041 C 
ATOM      3  O   UNL     1      11.342  21.905  -9.045  1.00  0.00    -0.550 OA
ATOM      4  O   UNL     1      11.177  23.557 -10.624  1.00  0.00    -0.550 OA
ENDBRANCH   1   2
BRANCH   1   5
ATOM      5  C   UNL     1       8.606  23.208  -8.346  1.00  0.00     0.003 C 
ATOM      6  C   UNL     1       7.650  24.368  -8.625  1.00  0.00     0.004 C 
ENDBRANCH   1   5
TORSDOF 2
ENDMDL
MODEL 5
REMARK VINA RESULT:    -3.076      4.658      5.345
REMARK INTER + INTRA:          -3.475
REMARK INTER:                  -3.452
REMARK INTRA:                  -0.023
REMARK UNBOUND:                -0.038
REMARK SMILES CCCC(=O)[O-]
REMARK SMILES IDX 3 1 4 2 5 3 6 4 2 5 1 6
REMARK H PARENT
REMARK Flexibility Score: inf
ROOT
ATOM      1  C   UNL     1      11.268  23.108  -8.589  1.00  0.00     0.052 C 
ENDROOT
BRANCH   1   2
ATOM      2  C   UNL     1      12.202  24.214  -8.976  1.00  0.00     0.041 C 
ATOM      3  O   UNL     1      13.154  24.534  -8.216  1.00  0.00    -0.550 OA
ATOM      4  O   UNL     1      12.001  24.912 -10.160  1.00  0.00    -0.550 OA
ENDBRANCH   1   2
BRANCH   1   5
ATOM      5  C   UNL     1      10.458  22.604  -9.791  1.00  0.00     0.003 C 
ATOM      6  C   UNL     1       8.983  22.393  -9.449  1.00  0.00     0.004 C 
ENDBRANCH   1   5
TORSDOF 2
ENDMDL
MODEL 6
REMARK VINA RESULT:    -3.070      3.770      4.536
REMARK INTER + INTRA:          -3.467
REMARK INTER:                  -3.450
REMARK INTRA:                  -0.018
REMARK UNBOUND:                -0.038
REMARK SMILES CCCC(=O)[O-]
REMARK SMILES IDX 3 1 4 2 5 3 6 4 2 5 1 6
REMARK H PARENT
REMARK Flexibility Score: inf
ROOT
ATOM      1  C   UNL     1       9.064  22.530  -9.630  1.00  0.00     0.052 C 
ENDROOT
BRANCH   1   2
ATOM      2  C   UNL     1      10.558  22.619  -9.711  1.00  0.00     0.041 C 
ATOM      3  O   UNL     1      11.103  23.411 -10.523  1.00  0.00    -0.550 OA
ATOM      4  O   UNL     1      11.346  21.800  -8.912  1.00  0.00    -0.550 OA
ENDBRANCH   1   2
BRANCH   1   5
ATOM      5  C   UNL     1       8.526  23.184  -8.350  1.00  0.00     0.003 C 
ATOM      6  C   UNL     1       7.599  24.363  -8.646  1.00  0.00     0.004 C 
ENDBRANCH   1   5
TORSDOF 2
ENDMDL
MODEL 7
REMARK VINA RESULT:    -3.062      4.314      4.883
REMARK INTER + INTRA:          -3.459
REMARK INTER:                  -3.447
REMARK INTRA:                  -0.011
REMARK UNBOUND:                -0.038
REMARK SMILES CCCC(=O)[O-]
REMARK SMILES IDX 3 1 4 2 5 3 6 4 2 5 1 6
REMARK H PARENT
REMARK Flexibility Score: inf
ROOT
ATOM      1  C   UNL     1       9.837  21.805  -7.982  1.00  0.00     0.052 C 
ENDROOT
BRANCH   1   2
ATOM      2  C   UNL     1      10.643  20.546  -7.878  1.00  0.00     0.041 C 
ATOM      3  O   UNL     1      10.117  19.492  -7.435  1.00  0.00    -0.550 OA
ATOM      4  O   UNL     1      11.984  20.549  -8.239  1.00  0.00    -0.550 OA
ENDBRANCH   1   2
BRANCH   1   5
ATOM      5  C   UNL     1       9.683  22.261  -9.439  1.00  0.00     0.003 C 
ATOM      6  C   UNL     1       8.218  22.412  -9.848  1.00  0.00     0.004 C 
ENDBRANCH   1   5
TORSDOF 2
ENDMDL
MODEL 8
REMARK VINA RESULT:    -3.044      1.911      2.411
REMARK INTER + INTRA:          -3.439
REMARK INTER:                  -3.374
REMARK INTRA:                  -0.065
REMARK UNBOUND:                -0.038
REMARK SMILES CCCC(=O)[O-]
REMARK SMILES IDX 3 1 4 2 5 3 6 4 2 5 1 6
REMARK H PARENT
REMARK Flexibility Score: inf
ROOT
ATOM      1  C   UNL     1       8.486  23.117  -8.279  1.00  0.00     0.052 C 
ENDROOT
BRANCH   1   2
ATOM      2  C   UNL     1       7.374  24.099  -8.065  1.00  0.00     0.041 C 
ATOM      3  O   UNL     1       7.429  25.242  -8.590  1.00  0.00    -0.550 OA
ATOM      4  O   UNL     1       6.295  23.761  -7.259  1.00  0.00    -0.550 OA
ENDBRANCH   1   2
BRANCH   1   5
ATOM      5  C   UNL     1       8.607  22.710  -9.754  1.00  0.00     0.003 C 
ATOM      6  C   UNL     1       7.289  22.187 -10.323  1.00  0.00     0.004 C 
ENDBRANCH   1   5
TORSDOF 2
ENDMDL
MODEL 9
REMARK VINA RESULT:    -3.027      3.637      4.481
REMARK INTER + INTRA:          -3.420
REMARK INTER:                  -3.355
REMARK INTRA:                  -0.064
REMARK UNBOUND:                -0.038
REMARK SMILES CCCC(=O)[O-]
REMARK SMILES IDX 3 1 4 2 5 3 6 4 2 5 1 6
REMARK H PARENT
REMARK Flexibility Score: inf
ROOT
ATOM      1  C   UNL     1       9.839  22.706  -9.360  1.00  0.00     0.052 C 
ENDROOT
BRANCH   1   2
ATOM      2  C   UNL     1      10.339  21.915  -8.189  1.00  0.00     0.041 C 
ATOM      3  O   UNL     1      11.125  20.947  -8.368  1.00  0.00    -0.550 OA
ATOM      4  O   UNL     1       9.910  22.228  -6.906  1.00  0.00    -0.550 OA
ENDBRANCH   1   2
BRANCH   1   5
ATOM      5  C   UNL     1      10.993  23.249 -10.213  1.00  0.00     0.003 C 
ATOM      6  C   UNL     1      11.755  24.373  -9.512  1.00  0.00     0.004 C 
ENDBRANCH   1   5
TORSDOF 2
ENDMDL
