MODEL 1
REMARK VINA RESULT:    -3.420      0.000      0.000
REMARK INTER + INTRA:          -5.604
REMARK INTER:                  -5.219
REMARK INTRA:                  -0.385
REMARK UNBOUND:                -0.385
REMARK SMILES CCCCCCCCCCC(=O)[O-]
REMARK SMILES IDX 7 1 8 2 9 3 10 4 11 5 12 6 13 7 6 8 5 9 4 10 3 11 2 12 1 13
REMARK H PARENT
REMARK Flexibility Score: inf
ROOT
ATOM      1  C   UNL     1      36.421 106.054 263.165  1.00  0.00     0.000 C 
ENDROOT
BRANCH   1   2
ATOM      2  C   UNL     1      35.012 106.065 263.781  1.00  0.00     0.000 C 
BRANCH   2   3
ATOM      3  C   UNL     1      34.993 106.645 265.204  1.00  0.00     0.006 C 
BRANCH   3   4
ATOM      4  C   UNL     1      34.878 105.558 266.282  1.00  0.00     0.053 C 
BRANCH   4   5
ATOM      5  C   UNL     1      35.014 106.159 267.646  1.00  0.00     0.041 C 
ATOM      6  O   UNL     1      35.094 105.417 268.660  1.00  0.00    -0.550 OA
ATOM      7  O   UNL     1      35.103 107.537 267.792  1.00  0.00    -0.550 OA
ENDBRANCH   4   5
ENDBRANCH   3   4
ENDBRANCH   2   3
ENDBRANCH   1   2
BRANCH   1   8
ATOM      8  C   UNL     1      36.395 106.110 261.629  1.00  0.00     0.000 C 
BRANCH   8   9
ATOM      9  C   UNL     1      36.401 104.716 260.986  1.00  0.00    -0.000 C 
BRANCH   9  10
ATOM     10  C   UNL     1      37.283 104.696 259.729  1.00  0.00    -0.000 C 
BRANCH  10  11
ATOM     11  C   UNL     1      37.277 106.036 258.978  1.00  0.00    -0.000 C 
BRANCH  11  12
ATOM     12  C   UNL     1      36.183 106.106 257.902  1.00  0.00    -0.003 C 
ATOM     13  C   UNL     1      35.483 107.462 257.920  1.00  0.00     0.004 C 
ENDBRANCH  11  12
ENDBRANCH  10  11
ENDBRANCH   9  10
ENDBRANCH   8   9
ENDBRANCH   1   8
TORSDOF 9
ENDMDL
MODEL 2
REMARK VINA RESULT:    -3.298      1.209      2.234
REMARK INTER + INTRA:          -5.419
REMARK INTER:                  -5.074
REMARK INTRA:                  -0.345
REMARK UNBOUND:                -0.385
REMARK SMILES CCCCCCCCCCC(=O)[O-]
REMARK SMILES IDX 7 1 8 2 9 3 10 4 11 5 12 6 13 7 6 8 5 9 4 10 3 11 2 12 1 13
REMARK H PARENT
REMARK Flexibility Score: inf
ROOT
ATOM      1  C   UNL     1      35.652 104.343 264.516  1.00  0.00     0.000 C 
ENDROOT
BRANCH   1   2
ATOM      2  C   UNL     1      34.889 104.240 265.848  1.00  0.00     0.000 C 
BRANCH   2   3
ATOM      3  C   UNL     1      34.875 105.566 266.625  1.00  0.00     0.006 C 
BRANCH   3   4
ATOM      4  C   UNL     1      34.885 105.358 268.145  1.00  0.00     0.053 C 
BRANCH   4   5
ATOM      5  C   UNL     1      35.006 106.673 268.851  1.00  0.00     0.041 C 
ATOM      6  O   UNL     1      34.886 107.749 268.209  1.00  0.00    -0.550 OA
ATOM      7  O   UNL     1      35.204 106.709 270.225  1.00  0.00    -0.550 OA
ENDBRANCH   4   5
ENDBRANCH   3   4
ENDBRANCH   2   3
ENDBRANCH   1   2
BRANCH   1   8
ATOM      8  C   UNL     1      34.984 105.311 263.526  1.00  0.00     0.000 C 
BRANCH   8   9
ATOM      9  C   UNL     1      36.003 106.101 262.692  1.00  0.00    -0.000 C 
BRANCH   9  10
ATOM     10  C   UNL     1      36.304 105.382 261.369  1.00  0.00    -0.000 C 
BRANCH  10  11
ATOM     11  C   UNL     1      37.793 105.427 260.994  1.00  0.00    -0.000 C 
BRANCH  11  12
ATOM     12  C   UNL     1      38.017 105.641 259.490  1.00  0.00    -0.003 C 
ATOM     13  C   UNL     1      36.689 105.750 258.747  1.00  0.00     0.004 C 
ENDBRANCH  11  12
ENDBRANCH  10  11
ENDBRANCH   9  10
ENDBRANCH   8   9
ENDBRANCH   1   8
TORSDOF 9
ENDMDL
MODEL 3
REMARK VINA RESULT:    -3.227      3.899      7.786
REMARK INTER + INTRA:          -5.309
REMARK INTER:                  -5.098
REMARK INTRA:                  -0.212
REMARK UNBOUND:                -0.385
REMARK SMILES CCCCCCCCCCC(=O)[O-]
REMARK SMILES IDX 7 1 8 2 9 3 10 4 11 5 12 6 13 7 6 8 5 9 4 10 3 11 2 12 1 13
REMARK H PARENT
REMARK Flexibility Score: inf
ROOT
ATOM      1  C   UNL     1      35.710 105.456 263.711  1.00  0.00     0.000 C 
ENDROOT
BRANCH   1   2
ATOM      2  C   UNL     1      36.479 105.987 262.488  1.00  0.00     0.000 C 
BRANCH   2   3
ATOM      3  C   UNL     1      36.177 105.189 261.210  1.00  0.00     0.006 C 
BRANCH   3   4
ATOM      4  C   UNL     1      36.738 105.862 259.949  1.00  0.00     0.053 C 
BRANCH   4   5
ATOM      5  C   UNL     1      38.101 105.329 259.636  1.00  0.00     0.041 C 
ATOM      6  O   UNL     1      39.014 105.373 260.502  1.00  0.00    -0.550 OA
ATOM      7  O   UNL     1      38.350 104.740 258.403  1.00  0.00    -0.550 OA
ENDBRANCH   4   5
ENDBRANCH   3   4
ENDBRANCH   2   3
ENDBRANCH   1   2
BRANCH   1   8
ATOM      8  C   UNL     1      34.875 106.546 264.402  1.00  0.00     0.000 C 
BRANCH   8   9
ATOM      9  C   UNL     1      34.894 106.424 265.933  1.00  0.00    -0.000 C 
BRANCH   9  10
ATOM     10  C   UNL     1      35.030 107.804 266.591  1.00  0.00    -0.000 C 
BRANCH  10  11
ATOM     11  C   UNL     1      34.927 107.745 268.123  1.00  0.00    -0.000 C 
BRANCH  11  12
ATOM     12  C   UNL     1      34.882 106.305 268.656  1.00  0.00    -0.003 C 
ATOM     13  C   UNL     1      35.710 106.165 269.931  1.00  0.00     0.004 C 
ENDBRANCH  11  12
ENDBRANCH  10  11
ENDBRANCH   9  10
ENDBRANCH   8   9
ENDBRANCH   1   8
TORSDOF 9
ENDMDL
MODEL 4
REMARK VINA RESULT:    -3.072      1.563      2.716
REMARK INTER + INTRA:          -5.073
REMARK INTER:                  -4.651
REMARK INTRA:                  -0.422
REMARK UNBOUND:                -0.385
REMARK SMILES CCCCCCCCCCC(=O)[O-]
REMARK SMILES IDX 7 1 8 2 9 3 10 4 11 5 12 6 13 7 6 8 5 9 4 10 3 11 2 12 1 13
REMARK H PARENT
REMARK Flexibility Score: inf
ROOT
ATOM      1  C   UNL     1      35.987 104.247 265.382  1.00  0.00     0.000 C 
ENDROOT
BRANCH   1   2
ATOM      2  C   UNL     1      35.286 103.484 266.518  1.00  0.00     0.000 C 
BRANCH   2   3
ATOM      3  C   UNL     1      34.875 104.402 267.681  1.00  0.00     0.006 C 
BRANCH   3   4
ATOM      4  C   UNL     1      34.882 105.887 267.290  1.00  0.00     0.053 C 
BRANCH   4   5
ATOM      5  C   UNL     1      35.090 106.743 268.500  1.00  0.00     0.041 C 
ATOM      6  O   UNL     1      35.399 106.219 269.602  1.00  0.00    -0.550 OA
ATOM      7  O   UNL     1      34.990 108.125 268.399  1.00  0.00    -0.550 OA
ENDBRANCH   4   5
ENDBRANCH   3   4
ENDBRANCH   2   3
ENDBRANCH   1   2
BRANCH   1   8
ATOM      8  C   UNL     1      35.234 104.141 264.046  1.00  0.00     0.000 C 
BRANCH   8   9
ATOM      9  C   UNL     1      35.062 105.501 263.354  1.00  0.00    -0.000 C 
BRANCH   9  10
ATOM     10  C   UNL     1      36.347 105.910 262.620  1.00  0.00    -0.000 C 
BRANCH  10  11
ATOM     11  C   UNL     1      36.364 105.453 261.154  1.00  0.00    -0.000 C 
BRANCH  11  12
ATOM     12  C   UNL     1      37.633 105.899 260.411  1.00  0.00    -0.003 C 
ATOM     13  C   UNL     1      37.894 105.017 259.193  1.00  0.00     0.004 C 
ENDBRANCH  11  12
ENDBRANCH  10  11
ENDBRANCH   9  10
ENDBRANCH   8   9
ENDBRANCH   1   8
TORSDOF 9
ENDMDL
MODEL 5
REMARK VINA RESULT:    -3.021      1.409      2.574
REMARK INTER + INTRA:          -4.995
REMARK INTER:                  -5.040
REMARK INTRA:                   0.045
REMARK UNBOUND:                -0.385
REMARK SMILES CCCCCCCCCCC(=O)[O-]
REMARK SMILES IDX 7 1 8 2 9 3 10 4 11 5 12 6 13 7 6 8 5 9 4 10 3 11 2 12 1 13
REMARK H PARENT
REMARK Flexibility Score: inf
ROOT
ATOM      1  C   UNL     1      35.077 107.043 264.928  1.00  0.00     0.000 C 
ENDROOT
BRANCH   1   2
ATOM      2  C   UNL     1      34.875 106.635 266.397  1.00  0.00     0.000 C 
BRANCH   2   3
ATOM      3  C   UNL     1      35.323 107.728 267.381  1.00  0.00     0.006 C 
BRANCH   3   4
ATOM      4  C   UNL     1      34.878 107.442 268.822  1.00  0.00     0.053 C 
BRANCH   4   5
ATOM      5  C   UNL     1      35.450 106.143 269.296  1.00  0.00     0.041 C 
ATOM      6  O   UNL     1      36.385 106.133 270.140  1.00  0.00    -0.550 OA
ATOM      7  O   UNL     1      34.918 104.942 268.844  1.00  0.00    -0.550 OA
ENDBRANCH   4   5
ENDBRANCH   3   4
ENDBRANCH   2   3
ENDBRANCH   1   2
BRANCH   1   8
ATOM      8  C   UNL     1      35.003 105.846 263.967  1.00  0.00     0.000 C 
BRANCH   8   9
ATOM      9  C   UNL     1      35.521 106.183 262.561  1.00  0.00    -0.000 C 
BRANCH   9  10
ATOM     10  C   UNL     1      37.041 105.983 262.474  1.00  0.00    -0.000 C 
BRANCH  10  11
ATOM     11  C   UNL     1      37.576 106.115 261.040  1.00  0.00    -0.000 C 
BRANCH  11  12
ATOM     12  C   UNL     1      37.174 104.930 260.149  1.00  0.00    -0.003 C 
ATOM     13  C   UNL     1      37.167 105.330 258.676  1.00  0.00     0.004 C 
ENDBRANCH  11  12
ENDBRANCH  10  11
ENDBRANCH   9  10
ENDBRANCH   8   9
ENDBRANCH   1   8
TORSDOF 9
ENDMDL
MODEL 6
REMARK VINA RESULT:    -2.358      3.471      7.011
REMARK INTER + INTRA:          -3.983
REMARK INTER:                  -3.753
REMARK INTRA:                  -0.230
REMARK UNBOUND:                -0.385
REMARK SMILES CCCCCCCCCCC(=O)[O-]
REMARK SMILES IDX 7 1 8 2 9 3 10 4 11 5 12 6 13 7 6 8 5 9 4 10 3 11 2 12 1 13
REMARK H PARENT
REMARK Flexibility Score: inf
ROOT
ATOM      1  C   UNL     1      35.967 104.476 264.347  1.00  0.00     0.000 C 
ENDROOT
BRANCH   1   2
ATOM      2  C   UNL     1      35.208 105.650 263.704  1.00  0.00     0.000 C 
BRANCH   2   3
ATOM      3  C   UNL     1      35.980 106.284 262.537  1.00  0.00     0.006 C 
BRANCH   3   4
ATOM      4  C   UNL     1      36.331 105.269 261.441  1.00  0.00     0.053 C 
BRANCH   4   5
ATOM      5  C   UNL     1      37.694 105.547 260.889  1.00  0.00     0.041 C 
ATOM      6  O   UNL     1      38.587 106.042 261.626  1.00  0.00    -0.550 OA
ATOM      7  O   UNL     1      37.993 105.216 259.573  1.00  0.00    -0.550 OA
ENDBRANCH   4   5
ENDBRANCH   3   4
ENDBRANCH   2   3
ENDBRANCH   1   2
BRANCH   1   8
ATOM      8  C   UNL     1      35.059 103.588 265.212  1.00  0.00     0.000 C 
BRANCH   8   9
ATOM      9  C   UNL     1      35.079 103.987 266.694  1.00  0.00    -0.000 C 
BRANCH   9  10
ATOM     10  C   UNL     1      34.875 105.500 266.858  1.00  0.00    -0.000 C 
BRANCH  10  11
ATOM     11  C   UNL     1      35.158 105.987 268.287  1.00  0.00    -0.000 C 
BRANCH  11  12
ATOM     12  C   UNL     1      34.934 107.497 268.453  1.00  0.00    -0.003 C 
ATOM     13  C   UNL     1      35.040 108.218 267.111  1.00  0.00     0.004 C 
ENDBRANCH  11  12
ENDBRANCH  10  11
ENDBRANCH   9  10
ENDBRANCH   8   9
ENDBRANCH   1   8
TORSDOF 9
ENDMDL
MODEL 7
REMARK VINA RESULT:    -2.257      3.940      7.566
REMARK INTER + INTRA:          -3.830
REMARK INTER:                  -3.517
REMARK INTRA:                  -0.313
REMARK UNBOUND:                -0.385
REMARK SMILES CCCCCCCCCCC(=O)[O-]
REMARK SMILES IDX 7 1 8 2 9 3 10 4 11 5 12 6 13 7 6 8 5 9 4 10 3 11 2 12 1 13
REMARK H PARENT
REMARK Flexibility Score: inf
ROOT
ATOM      1  C   UNL     1      36.318 105.738 263.723  1.00  0.00     0.000 C 
ENDROOT
BRANCH   1   2
ATOM      2  C   UNL     1      36.215 106.248 262.276  1.00  0.00     0.000 C 
BRANCH   2   3
ATOM      3  C   UNL     1      37.339 105.707 261.378  1.00  0.00     0.006 C 
BRANCH   3   4
ATOM      4  C   UNL     1      36.804 104.886 260.196  1.00  0.00     0.053 C 
BRANCH   4   5
ATOM      5  C   UNL     1      36.886 105.680 258.930  1.00  0.00     0.041 C 
ATOM      6  O   UNL     1      37.693 105.345 258.023  1.00  0.00    -0.550 OA
ATOM      7  O   UNL     1      36.036 106.760 258.731  1.00  0.00    -0.550 OA
ENDBRANCH   4   5
ENDBRANCH   3   4
ENDBRANCH   2   3
ENDBRANCH   1   2
BRANCH   1   8
ATOM      8  C   UNL     1      34.948 105.387 264.325  1.00  0.00     0.000 C 
BRANCH   8   9
ATOM      9  C   UNL     1      35.034 104.276 265.383  1.00  0.00    -0.000 C 
BRANCH   9  10
ATOM     10  C   UNL     1      34.887 104.854 266.798  1.00  0.00    -0.000 C 
BRANCH  10  11
ATOM     11  C   UNL     1      34.875 106.390 266.813  1.00  0.00    -0.000 C 
BRANCH  11  12
ATOM     12  C   UNL     1      35.033 106.967 268.228  1.00  0.00    -0.003 C 
ATOM     13  C   UNL     1      35.064 105.856 269.274  1.00  0.00     0.004 C 
ENDBRANCH  11  12
ENDBRANCH  10  11
ENDBRANCH   9  10
ENDBRANCH   8   9
ENDBRANCH   1   8
TORSDOF 9
ENDMDL
MODEL 8
REMARK VINA RESULT:    -1.457      4.144      7.109
REMARK INTER + INTRA:          -2.609
REMARK INTER:                  -3.223
REMARK INTRA:                   0.614
REMARK UNBOUND:                -0.385
REMARK SMILES CCCCCCCCCCC(=O)[O-]
REMARK SMILES IDX 7 1 8 2 9 3 10 4 11 5 12 6 13 7 6 8 5 9 4 10 3 11 2 12 1 13
REMARK H PARENT
REMARK Flexibility Score: inf
ROOT
ATOM      1  C   UNL     1      38.203 106.128 262.004  1.00  0.00     0.000 C 
ENDROOT
BRANCH   1   2
ATOM      2  C   UNL     1      38.588 105.046 260.981  1.00  0.00     0.000 C 
BRANCH   2   3
ATOM      3  C   UNL     1      37.793 105.163 259.671  1.00  0.00     0.006 C 
BRANCH   3   4
ATOM      4  C   UNL     1      37.132 106.538 259.502  1.00  0.00     0.053 C 
BRANCH   4   5
ATOM      5  C   UNL     1      36.113 106.497 258.407  1.00  0.00     0.041 C 
ATOM      6  O   UNL     1      35.797 105.399 257.876  1.00  0.00    -0.550 OA
ATOM      7  O   UNL     1      35.477 107.664 258.005  1.00  0.00    -0.550 OA
ENDBRANCH   4   5
ENDBRANCH   3   4
ENDBRANCH   2   3
ENDBRANCH   1   2
BRANCH   1   8
ATOM      8  C   UNL     1      36.683 106.317 262.121  1.00  0.00     0.000 C 
BRANCH   8   9
ATOM      9  C   UNL     1      36.039 105.333 263.110  1.00  0.00    -0.000 C 
BRANCH   9  10
ATOM     10  C   UNL     1      34.875 105.994 263.862  1.00  0.00    -0.000 C 
BRANCH  10  11
ATOM     11  C   UNL     1      35.047 105.939 265.388  1.00  0.00    -0.000 C 
BRANCH  11  12
ATOM     12  C   UNL     1      34.944 107.324 266.045  1.00  0.00    -0.003 C 
ATOM     13  C   UNL     1      34.939 107.210 267.567  1.00  0.00     0.004 C 
ENDBRANCH  11  12
ENDBRANCH  10  11
ENDBRANCH   9  10
ENDBRANCH   8   9
ENDBRANCH   1   8
TORSDOF 9
ENDMDL
