MODEL 1
REMARK VINA RESULT:    -4.816      0.000      0.000
REMARK INTER + INTRA:          -5.114
REMARK INTER:                  -5.097
REMARK INTRA:                  -0.017
REMARK UNBOUND:                -0.017
REMARK SMILES O=C([O-])c1cccnc1
REMARK SMILES IDX 4 1 5 2 9 3 6 4 8 5 7 6 2 7 1 8 3 9
REMARK H PARENT
REMARK Flexibility Score: inf
ROOT
ATOM      1  C   UNL     1      30.860  52.695  10.106  1.00  0.00     0.016 A 
ATOM      2  C   UNL     1      32.178  52.214  10.165  1.00  0.00     0.013 A 
ATOM      3  C   UNL     1      30.152  52.555   8.899  1.00  0.00     0.120 A 
ATOM      4  C   UNL     1      32.757  51.613   9.046  1.00  0.00     0.021 A 
ATOM      5  N   UNL     1      30.739  51.966   7.823  1.00  0.00    -0.264 NA
ATOM      6  C   UNL     1      32.013  51.497   7.871  1.00  0.00     0.111 A 
ENDROOT
BRANCH   1   7
ATOM      7  C   UNL     1      30.228  53.334  11.280  1.00  0.00     0.073 C 
ATOM      8  O   UNL     1      29.875  54.543  11.238  1.00  0.00    -0.545 OA
ATOM      9  O   UNL     1      30.013  52.609  12.447  1.00  0.00    -0.545 OA
ENDBRANCH   1   7
TORSDOF 1
ENDMDL
MODEL 2
REMARK VINA RESULT:    -4.573     17.781     18.590
REMARK INTER + INTRA:          -4.858
REMARK INTER:                  -4.835
REMARK INTRA:                  -0.023
REMARK UNBOUND:                -0.017
REMARK SMILES O=C([O-])c1cccnc1
REMARK SMILES IDX 4 1 5 2 9 3 6 4 8 5 7 6 2 7 1 8 3 9
REMARK H PARENT
REMARK Flexibility Score: inf
ROOT
ATOM      1  C   UNL     1      44.840  59.868   0.405  1.00  0.00     0.016 A 
ATOM      2  C   UNL     1      45.168  58.787   1.241  1.00  0.00     0.013 A 
ATOM      3  C   UNL     1      45.879  60.518  -0.283  1.00  0.00     0.120 A 
ATOM      4  C   UNL     1      46.496  58.380   1.373  1.00  0.00     0.021 A 
ATOM      5  N   UNL     1      47.165  60.101  -0.136  1.00  0.00    -0.264 NA
ATOM      6  C   UNL     1      47.492  59.057   0.669  1.00  0.00     0.111 A 
ENDROOT
BRANCH   1   7
ATOM      7  C   UNL     1      43.439  60.314   0.250  1.00  0.00     0.073 C 
ATOM      8  O   UNL     1      43.179  61.450  -0.230  1.00  0.00    -0.545 OA
ATOM      9  O   UNL     1      42.389  59.486   0.630  1.00  0.00    -0.545 OA
ENDBRANCH   1   7
TORSDOF 1
ENDMDL
MODEL 3
REMARK VINA RESULT:    -4.537     19.069     19.923
REMARK INTER + INTRA:          -4.820
REMARK INTER:                  -4.802
REMARK INTRA:                  -0.018
REMARK UNBOUND:                -0.017
REMARK SMILES O=C([O-])c1cccnc1
REMARK SMILES IDX 4 1 5 2 9 3 6 4 8 5 7 6 2 7 1 8 3 9
REMARK H PARENT
REMARK Flexibility Score: inf
ROOT
ATOM      1  C   UNL     1      46.269  60.526  -0.127  1.00  0.00     0.016 A 
ATOM      2  C   UNL     1      47.317  59.657   0.220  1.00  0.00     0.013 A 
ATOM      3  C   UNL     1      44.984  60.257   0.377  1.00  0.00     0.120 A 
ATOM      4  C   UNL     1      47.073  58.559   1.046  1.00  0.00     0.021 A 
ATOM      5  N   UNL     1      44.774  59.180   1.180  1.00  0.00    -0.264 NA
ATOM      6  C   UNL     1      45.781  58.334   1.521  1.00  0.00     0.111 A 
ENDROOT
BRANCH   1   7
ATOM      7  C   UNL     1      46.506  61.696  -1.000  1.00  0.00     0.073 C 
ATOM      8  O   UNL     1      47.329  62.588  -0.664  1.00  0.00    -0.545 OA
ATOM      9  O   UNL     1      45.824  61.826  -2.205  1.00  0.00    -0.545 OA
ENDBRANCH   1   7
TORSDOF 1
ENDMDL
MODEL 4
REMARK VINA RESULT:    -4.456      3.153      4.063
REMARK INTER + INTRA:          -4.734
REMARK INTER:                  -4.711
REMARK INTRA:                  -0.023
REMARK UNBOUND:                -0.017
REMARK SMILES O=C([O-])c1cccnc1
REMARK SMILES IDX 4 1 5 2 9 3 6 4 8 5 7 6 2 7 1 8 3 9
REMARK H PARENT
REMARK Flexibility Score: inf
ROOT
ATOM      1  C   UNL     1      31.285  52.004   8.657  1.00  0.00     0.016 A 
ATOM      2  C   UNL     1      30.095  52.727   8.846  1.00  0.00     0.013 A 
ATOM      3  C   UNL     1      32.234  51.998   9.695  1.00  0.00     0.120 A 
ATOM      4  C   UNL     1      29.875  53.416  10.040  1.00  0.00     0.021 A 
ATOM      5  N   UNL     1      31.994  52.678  10.848  1.00  0.00    -0.264 NA
ATOM      6  C   UNL     1      30.847  53.380  11.039  1.00  0.00     0.111 A 
ENDROOT
BRANCH   1   7
ATOM      7  C   UNL     1      31.537  51.266   7.401  1.00  0.00     0.073 C 
ATOM      8  O   UNL     1      30.587  50.980   6.625  1.00  0.00    -0.545 OA
ATOM      9  O   UNL     1      32.827  50.878   7.058  1.00  0.00    -0.545 OA
ENDBRANCH   1   7
TORSDOF 1
ENDMDL
MODEL 5
REMARK VINA RESULT:    -4.408     18.327     19.165
REMARK INTER + INTRA:          -4.683
REMARK INTER:                  -4.664
REMARK INTRA:                  -0.018
REMARK UNBOUND:                -0.017
REMARK SMILES O=C([O-])c1cccnc1
REMARK SMILES IDX 4 1 5 2 9 3 6 4 8 5 7 6 2 7 1 8 3 9
REMARK H PARENT
REMARK Flexibility Score: inf
ROOT
ATOM      1  C   UNL     1      45.786  59.526   0.253  1.00  0.00     0.016 A 
ATOM      2  C   UNL     1      44.613  58.957   0.776  1.00  0.00     0.013 A 
ATOM      3  C   UNL     1      45.687  60.756  -0.422  1.00  0.00     0.120 A 
ATOM      4  C   UNL     1      43.388  59.609   0.624  1.00  0.00     0.021 A 
ATOM      5  N   UNL     1      44.481  61.370  -0.557  1.00  0.00    -0.264 NA
ATOM      6  C   UNL     1      43.342  60.827  -0.053  1.00  0.00     0.111 A 
ENDROOT
BRANCH   1   7
ATOM      7  C   UNL     1      47.093  58.853   0.404  1.00  0.00     0.073 C 
ATOM      8  O   UNL     1      47.518  58.529   1.546  1.00  0.00    -0.545 OA
ATOM      9  O   UNL     1      47.872  58.566  -0.711  1.00  0.00    -0.545 OA
ENDBRANCH   1   7
TORSDOF 1
ENDMDL
MODEL 6
REMARK VINA RESULT:    -4.376     19.178     20.053
REMARK INTER + INTRA:          -4.649
REMARK INTER:                  -4.632
REMARK INTRA:                  -0.017
REMARK UNBOUND:                -0.017
REMARK SMILES O=C([O-])c1cccnc1
REMARK SMILES IDX 4 1 5 2 9 3 6 4 8 5 7 6 2 7 1 8 3 9
REMARK H PARENT
REMARK Flexibility Score: inf
ROOT
ATOM      1  C   UNL     1      46.211  60.590  -0.294  1.00  0.00     0.016 A 
ATOM      2  C   UNL     1      44.987  60.334   0.346  1.00  0.00     0.013 A 
ATOM      3  C   UNL     1      47.281  59.706  -0.067  1.00  0.00     0.120 A 
ATOM      4  C   UNL     1      44.852  59.224   1.182  1.00  0.00     0.021 A 
ATOM      5  N   UNL     1      47.122  58.633   0.753  1.00  0.00    -0.264 NA
ATOM      6  C   UNL     1      45.942  58.377   1.376  1.00  0.00     0.111 A 
ENDROOT
BRANCH   1   7
ATOM      7  C   UNL     1      46.376  61.759  -1.185  1.00  0.00     0.073 C 
ATOM      8  O   UNL     1      47.123  62.717  -0.851  1.00  0.00    -0.545 OA
ATOM      9  O   UNL     1      45.710  61.816  -2.403  1.00  0.00    -0.545 OA
ENDBRANCH   1   7
TORSDOF 1
ENDMDL
MODEL 7
REMARK VINA RESULT:    -4.354     17.604     18.415
REMARK INTER + INTRA:          -4.625
REMARK INTER:                  -4.606
REMARK INTRA:                  -0.019
REMARK UNBOUND:                -0.017
REMARK SMILES O=C([O-])c1cccnc1
REMARK SMILES IDX 4 1 5 2 9 3 6 4 8 5 7 6 2 7 1 8 3 9
REMARK H PARENT
REMARK Flexibility Score: inf
ROOT
ATOM      1  C   UNL     1      44.521  59.956   0.365  1.00  0.00     0.016 A 
ATOM      2  C   UNL     1      45.549  60.658  -0.286  1.00  0.00     0.013 A 
ATOM      3  C   UNL     1      44.864  58.823   1.125  1.00  0.00     0.120 A 
ATOM      4  C   UNL     1      46.873  60.231  -0.170  1.00  0.00     0.021 A 
ATOM      5  N   UNL     1      46.162  58.429   1.221  1.00  0.00    -0.264 NA
ATOM      6  C   UNL     1      47.162  59.102   0.595  1.00  0.00     0.111 A 
ENDROOT
BRANCH   1   7
ATOM      7  C   UNL     1      43.112  60.391   0.256  1.00  0.00     0.073 C 
ATOM      8  O   UNL     1      42.803  61.602   0.418  1.00  0.00    -0.545 OA
ATOM      9  O   UNL     1      42.110  59.472  -0.028  1.00  0.00    -0.545 OA
ENDBRANCH   1   7
TORSDOF 1
ENDMDL
MODEL 8
REMARK VINA RESULT:    -4.113      3.449      4.207
REMARK INTER + INTRA:          -4.371
REMARK INTER:                  -4.347
REMARK INTRA:                  -0.024
REMARK UNBOUND:                -0.017
REMARK SMILES O=C([O-])c1cccnc1
REMARK SMILES IDX 4 1 5 2 9 3 6 4 8 5 7 6 2 7 1 8 3 9
REMARK H PARENT
REMARK Flexibility Score: inf
ROOT
ATOM      1  C   UNL     1      31.862  51.725   7.657  1.00  0.00     0.016 A 
ATOM      2  C   UNL     1      32.894  51.633   8.606  1.00  0.00     0.013 A 
ATOM      3  C   UNL     1      30.590  52.138   8.092  1.00  0.00     0.120 A 
ATOM      4  C   UNL     1      32.647  51.949   9.943  1.00  0.00     0.021 A 
ATOM      5  N   UNL     1      30.377  52.439   9.401  1.00  0.00    -0.264 NA
ATOM      6  C   UNL     1      31.369  52.353  10.325  1.00  0.00     0.111 A 
ENDROOT
BRANCH   1   7
ATOM      7  C   UNL     1      32.102  51.397   6.235  1.00  0.00     0.073 C 
ATOM      8  O   UNL     1      31.152  51.410   5.407  1.00  0.00    -0.545 OA
ATOM      9  O   UNL     1      33.378  51.072   5.792  1.00  0.00    -0.545 OA
ENDBRANCH   1   7
TORSDOF 1
ENDMDL
MODEL 9
REMARK VINA RESULT:    -4.037     18.659     19.501
REMARK INTER + INTRA:          -4.290
REMARK INTER:                  -4.272
REMARK INTRA:                  -0.019
REMARK UNBOUND:                -0.017
REMARK SMILES O=C([O-])c1cccnc1
REMARK SMILES IDX 4 1 5 2 9 3 6 4 8 5 7 6 2 7 1 8 3 9
REMARK H PARENT
REMARK Flexibility Score: inf
ROOT
ATOM      1  C   UNL     1      45.645  60.466  -0.203  1.00  0.00     0.016 A 
ATOM      2  C   UNL     1      44.548  61.257  -0.584  1.00  0.00     0.013 A 
ATOM      3  C   UNL     1      45.405  59.325   0.584  1.00  0.00     0.120 A 
ATOM      4  C   UNL     1      43.258  60.905  -0.185  1.00  0.00     0.021 A 
ATOM      5  N   UNL     1      44.137  59.005   0.959  1.00  0.00    -0.264 NA
ATOM      6  C   UNL     1      43.071  59.764   0.595  1.00  0.00     0.111 A 
ENDROOT
BRANCH   1   7
ATOM      7  C   UNL     1      47.020  60.820  -0.616  1.00  0.00     0.073 C 
ATOM      8  O   UNL     1      47.481  61.970  -0.384  1.00  0.00    -0.545 OA
ATOM      9  O   UNL     1      47.824  59.889  -1.264  1.00  0.00    -0.545 OA
ENDBRANCH   1   7
TORSDOF 1
ENDMDL
