MODEL 1
REMARK VINA RESULT:    -4.884      0.000      0.000
REMARK INTER + INTRA:         -14.147
REMARK INTER:                 -11.166
REMARK INTRA:                  -2.981
REMARK UNBOUND:                -2.981
REMARK SMILES CCCCCCCCCCCCCCCCCCCCCCCC(=O)[O-]
REMARK SMILES IDX 13 1 14 2 15 3 16 4 17 5 18 6 19 7 20 8 21 9 22 10 23 11
REMARK SMILES IDX 24 12 25 13 26 14 12 15 11 16 10 17 9 18 8 19 7 20 6 21 5 22
REMARK SMILES IDX 4 23 3 24 2 25 1 26
REMARK H PARENT
REMARK Flexibility Score: inf
ROOT
ATOM      1  C   UNL     1      50.437  50.768  21.219  1.00  0.00     0.000 C 
ENDROOT
BRANCH   1   2
ATOM      2  C   UNL     1      49.087  51.291  21.752  1.00  0.00     0.000 C 
BRANCH   2   3
ATOM      3  C   UNL     1      49.165  52.612  22.538  1.00  0.00     0.000 C 
BRANCH   3   4
ATOM      4  C   UNL     1      49.964  52.483  23.842  1.00  0.00     0.000 C 
BRANCH   4   5
ATOM      5  C   UNL     1      50.296  53.866  24.420  1.00  0.00     0.000 C 
BRANCH   5   6
ATOM      6  C   UNL     1      51.795  54.038  24.717  1.00  0.00     0.000 C 
BRANCH   6   7
ATOM      7  C   UNL     1      52.632  52.849  24.222  1.00  0.00     0.000 C 
BRANCH   7   8
ATOM      8  C   UNL     1      53.597  53.282  23.106  1.00  0.00     0.000 C 
BRANCH   8   9
ATOM      9  C   UNL     1      53.346  52.514  21.790  1.00  0.00     0.000 C 
BRANCH   9  10
ATOM     10  C   UNL     1      52.531  53.313  20.758  1.00  0.00     0.006 C 
BRANCH  10  11
ATOM     11  C   UNL     1      51.897  54.578  21.346  1.00  0.00     0.053 C 
BRANCH  11  12
ATOM     12  C   UNL     1      52.392  55.794  20.629  1.00  0.00     0.041 C 
ATOM     13  O   UNL     1      52.382  55.837  19.371  1.00  0.00    -0.550 OA
ATOM     14  O   UNL     1      52.832  56.898  21.351  1.00  0.00    -0.550 OA
ENDBRANCH  11  12
ENDBRANCH  10  11
ENDBRANCH   9  10
ENDBRANCH   8   9
ENDBRANCH   7   8
ENDBRANCH   6   7
ENDBRANCH   5   6
ENDBRANCH   4   5
ENDBRANCH   3   4
ENDBRANCH   2   3
ENDBRANCH   1   2
BRANCH   1  15
ATOM     15  C   UNL     1      51.009  49.553  21.971  1.00  0.00     0.000 C 
BRANCH  15  16
ATOM     16  C   UNL     1      49.951  48.823  22.814  1.00  0.00     0.000 C 
BRANCH  16  17
ATOM     17  C   UNL     1      50.608  47.813  23.765  1.00  0.00     0.000 C 
BRANCH  17  18
ATOM     18  C   UNL     1      49.634  47.272  24.825  1.00  0.00    -0.000 C 
BRANCH  18  19
ATOM     19  C   UNL     1      48.149  47.499  24.470  1.00  0.00    -0.000 C 
BRANCH  19  20
ATOM     20  C   UNL     1      47.524  48.642  25.291  1.00  0.00    -0.000 C 
BRANCH  20  21
ATOM     21  C   UNL     1      47.101  49.833  24.418  1.00  0.00    -0.000 C 
BRANCH  21  22
ATOM     22  C   UNL     1      46.245  50.854  25.186  1.00  0.00    -0.000 C 
BRANCH  22  23
ATOM     23  C   UNL     1      46.384  52.280  24.630  1.00  0.00    -0.000 C 
BRANCH  23  24
ATOM     24  C   UNL     1      46.116  53.358  25.692  1.00  0.00    -0.000 C 
BRANCH  24  25
ATOM     25  C   UNL     1      46.742  52.970  27.037  1.00  0.00    -0.003 C 
ATOM     26  C   UNL     1      48.247  53.223  27.039  1.00  0.00     0.004 C 
ENDBRANCH  24  25
ENDBRANCH  23  24
ENDBRANCH  22  23
ENDBRANCH  21  22
ENDBRANCH  20  21
ENDBRANCH  19  20
ENDBRANCH  18  19
ENDBRANCH  17  18
ENDBRANCH  16  17
ENDBRANCH  15  16
ENDBRANCH   1  15
TORSDOF 22
ENDMDL
MODEL 2
REMARK VINA RESULT:    -4.765      2.719      6.820
REMARK INTER + INTRA:         -13.875
REMARK INTER:                 -10.497
REMARK INTRA:                  -3.378
REMARK UNBOUND:                -2.981
REMARK SMILES CCCCCCCCCCCCCCCCCCCCCCCC(=O)[O-]
REMARK SMILES IDX 13 1 14 2 15 3 16 4 17 5 18 6 19 7 20 8 21 9 22 10 23 11
REMARK SMILES IDX 24 12 25 13 26 14 12 15 11 16 10 17 9 18 8 19 7 20 6 21 5 22
REMARK SMILES IDX 4 23 3 24 2 25 1 26
REMARK H PARENT
REMARK Flexibility Score: inf
ROOT
ATOM      1  C   UNL     1      49.682  53.560  25.160  1.00  0.00     0.000 C 
ENDROOT
BRANCH   1   2
ATOM      2  C   UNL     1      48.827  52.673  26.088  1.00  0.00     0.000 C 
BRANCH   2   3
ATOM      3  C   UNL     1      47.669  53.398  26.796  1.00  0.00     0.000 C 
BRANCH   3   4
ATOM      4  C   UNL     1      46.498  53.713  25.855  1.00  0.00     0.000 C 
BRANCH   4   5
ATOM      5  C   UNL     1      45.884  52.421  25.295  1.00  0.00     0.000 C 
BRANCH   5   6
ATOM      6  C   UNL     1      46.012  52.321  23.766  1.00  0.00     0.000 C 
BRANCH   6   7
ATOM      7  C   UNL     1      46.698  51.022  23.318  1.00  0.00     0.000 C 
BRANCH   7   8
ATOM      8  C   UNL     1      46.919  50.075  24.508  1.00  0.00     0.000 C 
BRANCH   8   9
ATOM      9  C   UNL     1      48.305  49.397  24.463  1.00  0.00     0.000 C 
BRANCH   9  10
ATOM     10  C   UNL     1      48.237  47.865  24.344  1.00  0.00     0.006 C 
BRANCH  10  11
ATOM     11  C   UNL     1      49.541  47.175  24.760  1.00  0.00     0.053 C 
BRANCH  11  12
ATOM     12  C   UNL     1      50.668  47.608  23.877  1.00  0.00     0.041 C 
ATOM     13  O   UNL     1      51.856  47.323  24.179  1.00  0.00    -0.550 OA
ATOM     14  O   UNL     1      50.403  48.296  22.698  1.00  0.00    -0.550 OA
ENDBRANCH  11  12
ENDBRANCH  10  11
ENDBRANCH   9  10
ENDBRANCH   8   9
ENDBRANCH   7   8
ENDBRANCH   6   7
ENDBRANCH   5   6
ENDBRANCH   4   5
ENDBRANCH   3   4
ENDBRANCH   2   3
ENDBRANCH   1   2
BRANCH   1  15
ATOM     15  C   UNL     1      49.590  53.216  23.662  1.00  0.00     0.000 C 
BRANCH  15  16
ATOM     16  C   UNL     1      50.297  51.898  23.310  1.00  0.00     0.000 C 
BRANCH  16  17
ATOM     17  C   UNL     1      50.277  51.651  21.796  1.00  0.00     0.000 C 
BRANCH  17  18
ATOM     18  C   UNL     1      51.561  50.977  21.284  1.00  0.00    -0.000 C 
BRANCH  18  19
ATOM     19  C   UNL     1      52.647  51.980  20.838  1.00  0.00    -0.000 C 
BRANCH  19  20
ATOM     20  C   UNL     1      52.044  53.243  20.198  1.00  0.00    -0.000 C 
BRANCH  20  21
ATOM     21  C   UNL     1      52.718  54.534  20.689  1.00  0.00    -0.000 C 
BRANCH  21  22
ATOM     22  C   UNL     1      52.160  55.016  22.039  1.00  0.00    -0.000 C 
BRANCH  22  23
ATOM     23  C   UNL     1      53.241  55.113  23.126  1.00  0.00    -0.000 C 
BRANCH  23  24
ATOM     24  C   UNL     1      52.831  54.416  24.432  1.00  0.00    -0.000 C 
BRANCH  24  25
ATOM     25  C   UNL     1      53.471  53.027  24.538  1.00  0.00    -0.003 C 
ATOM     26  C   UNL     1      54.551  52.834  23.478  1.00  0.00     0.004 C 
ENDBRANCH  24  25
ENDBRANCH  23  24
ENDBRANCH  22  23
ENDBRANCH  21  22
ENDBRANCH  20  21
ENDBRANCH  19  20
ENDBRANCH  18  19
ENDBRANCH  17  18
ENDBRANCH  16  17
ENDBRANCH  15  16
ENDBRANCH   1  15
TORSDOF 22
ENDMDL
MODEL 3
REMARK VINA RESULT:    -4.698      1.735      5.316
REMARK INTER + INTRA:         -13.722
REMARK INTER:                 -10.908
REMARK INTRA:                  -2.815
REMARK UNBOUND:                -2.981
REMARK SMILES CCCCCCCCCCCCCCCCCCCCCCCC(=O)[O-]
REMARK SMILES IDX 13 1 14 2 15 3 16 4 17 5 18 6 19 7 20 8 21 9 22 10 23 11
REMARK SMILES IDX 24 12 25 13 26 14 12 15 11 16 10 17 9 18 8 19 7 20 6 21 5 22
REMARK SMILES IDX 4 23 3 24 2 25 1 26
REMARK H PARENT
REMARK Flexibility Score: inf
ROOT
ATOM      1  C   UNL     1      47.982  49.073  24.822  1.00  0.00     0.000 C 
ENDROOT
BRANCH   1   2
ATOM      2  C   UNL     1      46.627  49.187  25.550  1.00  0.00     0.000 C 
BRANCH   2   3
ATOM      3  C   UNL     1      45.973  50.579  25.494  1.00  0.00     0.000 C 
BRANCH   3   4
ATOM      4  C   UNL     1      46.003  51.196  24.089  1.00  0.00     0.000 C 
BRANCH   4   5
ATOM      5  C   UNL     1      46.757  52.534  24.095  1.00  0.00     0.000 C 
BRANCH   5   6
ATOM      6  C   UNL     1      47.053  53.038  25.517  1.00  0.00     0.000 C 
BRANCH   6   7
ATOM      7  C   UNL     1      48.544  52.951  25.873  1.00  0.00     0.000 C 
BRANCH   7   8
ATOM      8  C   UNL     1      49.369  52.448  24.677  1.00  0.00     0.000 C 
BRANCH   8   9
ATOM      9  C   UNL     1      50.193  53.578  24.023  1.00  0.00     0.000 C 
BRANCH   9  10
ATOM     10  C   UNL     1      51.396  54.030  24.867  1.00  0.00     0.006 C 
BRANCH  10  11
ATOM     11  C   UNL     1      52.636  54.343  24.021  1.00  0.00     0.053 C 
BRANCH  11  12
ATOM     12  C   UNL     1      53.644  53.244  24.144  1.00  0.00     0.041 C 
ATOM     13  O   UNL     1      54.690  53.262  23.445  1.00  0.00    -0.550 OA
ATOM     14  O   UNL     1      53.446  52.216  25.059  1.00  0.00    -0.550 OA
ENDBRANCH  11  12
ENDBRANCH  10  11
ENDBRANCH   9  10
ENDBRANCH   8   9
ENDBRANCH   7   8
ENDBRANCH   6   7
ENDBRANCH   5   6
ENDBRANCH   4   5
ENDBRANCH   3   4
ENDBRANCH   2   3
ENDBRANCH   1   2
BRANCH   1  15
ATOM     15  C   UNL     1      48.416  47.638  24.471  1.00  0.00     0.000 C 
BRANCH  15  16
ATOM     16  C   UNL     1      49.934  47.432  24.586  1.00  0.00     0.000 C 
BRANCH  16  17
ATOM     17  C   UNL     1      50.648  47.879  23.303  1.00  0.00     0.000 C 
BRANCH  17  18
ATOM     18  C   UNL     1      50.545  49.394  23.060  1.00  0.00    -0.000 C 
BRANCH  18  19
ATOM     19  C   UNL     1      49.785  49.760  21.768  1.00  0.00    -0.000 C 
BRANCH  19  20
ATOM     20  C   UNL     1      50.476  50.893  20.988  1.00  0.00    -0.000 C 
BRANCH  20  21
ATOM     21  C   UNL     1      51.903  51.168  21.485  1.00  0.00    -0.000 C 
BRANCH  21  22
ATOM     22  C   UNL     1      52.588  52.310  20.714  1.00  0.00    -0.000 C 
BRANCH  22  23
ATOM     23  C   UNL     1      51.842  53.646  20.850  1.00  0.00    -0.000 C 
BRANCH  23  24
ATOM     24  C   UNL     1      52.613  54.819  20.226  1.00  0.00    -0.000 C 
BRANCH  24  25
ATOM     25  C   UNL     1      52.095  56.161  20.758  1.00  0.00    -0.003 C 
ATOM     26  C   UNL     1      53.195  56.929  21.485  1.00  0.00     0.004 C 
ENDBRANCH  24  25
ENDBRANCH  23  24
ENDBRANCH  22  23
ENDBRANCH  21  22
ENDBRANCH  20  21
ENDBRANCH  19  20
ENDBRANCH  18  19
ENDBRANCH  17  18
ENDBRANCH  16  17
ENDBRANCH  15  16
ENDBRANCH   1  15
TORSDOF 22
ENDMDL
MODEL 4
REMARK VINA RESULT:    -4.587      2.996      6.952
REMARK INTER + INTRA:         -13.468
REMARK INTER:                 -11.103
REMARK INTRA:                  -2.366
REMARK UNBOUND:                -2.981
REMARK SMILES CCCCCCCCCCCCCCCCCCCCCCCC(=O)[O-]
REMARK SMILES IDX 13 1 14 2 15 3 16 4 17 5 18 6 19 7 20 8 21 9 22 10 23 11
REMARK SMILES IDX 24 12 25 13 26 14 12 15 11 16 10 17 9 18 8 19 7 20 6 21 5 22
REMARK SMILES IDX 4 23 3 24 2 25 1 26
REMARK H PARENT
REMARK Flexibility Score: inf
ROOT
ATOM      1  C   UNL     1      48.871  53.259  26.735  1.00  0.00     0.000 C 
ENDROOT
BRANCH   1   2
ATOM      2  C   UNL     1      47.415  53.003  27.175  1.00  0.00     0.000 C 
BRANCH   2   3
ATOM      3  C   UNL     1      46.541  52.272  26.140  1.00  0.00     0.000 C 
BRANCH   3   4
ATOM      4  C   UNL     1      45.951  53.217  25.085  1.00  0.00     0.000 C 
BRANCH   4   5
ATOM      5  C   UNL     1      45.917  52.544  23.705  1.00  0.00     0.000 C 
BRANCH   5   6
ATOM      6  C   UNL     1      46.090  51.018  23.789  1.00  0.00     0.000 C 
BRANCH   6   7
ATOM      7  C   UNL     1      47.517  50.568  23.441  1.00  0.00     0.000 C 
BRANCH   7   8
ATOM      8  C   UNL     1      48.143  51.491  22.382  1.00  0.00     0.000 C 
BRANCH   8   9
ATOM      9  C   UNL     1      49.525  50.986  21.916  1.00  0.00     0.000 C 
BRANCH   9  10
ATOM     10  C   UNL     1      50.282  50.184  22.988  1.00  0.00     0.006 C 
BRANCH  10  11
ATOM     11  C   UNL     1      50.559  48.736  22.567  1.00  0.00     0.053 C 
BRANCH  11  12
ATOM     12  C   UNL     1      50.518  47.828  23.755  1.00  0.00     0.041 C 
ATOM     13  O   UNL     1      51.564  47.249  24.148  1.00  0.00    -0.550 OA
ATOM     14  O   UNL     1      49.329  47.650  24.454  1.00  0.00    -0.550 OA
ENDBRANCH  11  12
ENDBRANCH  10  11
ENDBRANCH   9  10
ENDBRANCH   8   9
ENDBRANCH   7   8
ENDBRANCH   6   7
ENDBRANCH   5   6
ENDBRANCH   4   5
ENDBRANCH   3   4
ENDBRANCH   2   3
ENDBRANCH   1   2
BRANCH   1  15
ATOM     15  C   UNL     1      49.101  53.267  25.212  1.00  0.00     0.000 C 
BRANCH  15  16
ATOM     16  C   UNL     1      50.583  53.127  24.834  1.00  0.00     0.000 C 
BRANCH  16  17
ATOM     17  C   UNL     1      51.314  54.469  24.971  1.00  0.00     0.000 C 
BRANCH  17  18
ATOM     18  C   UNL     1      52.640  54.509  24.192  1.00  0.00    -0.000 C 
BRANCH  18  19
ATOM     19  C   UNL     1      53.562  53.307  24.484  1.00  0.00    -0.000 C 
BRANCH  19  20
ATOM     20  C   UNL     1      54.008  52.589  23.196  1.00  0.00    -0.000 C 
BRANCH  20  21
ATOM     21  C   UNL     1      52.827  52.224  22.284  1.00  0.00    -0.000 C 
BRANCH  21  22
ATOM     22  C   UNL     1      53.155  52.404  20.792  1.00  0.00    -0.000 C 
BRANCH  22  23
ATOM     23  C   UNL     1      52.331  53.522  20.135  1.00  0.00    -0.000 C 
BRANCH  23  24
ATOM     24  C   UNL     1      51.936  54.626  21.128  1.00  0.00    -0.000 C 
BRANCH  24  25
ATOM     25  C   UNL     1      52.211  56.016  20.541  1.00  0.00    -0.003 C 
ATOM     26  C   UNL     1      53.109  56.836  21.463  1.00  0.00     0.004 C 
ENDBRANCH  24  25
ENDBRANCH  23  24
ENDBRANCH  22  23
ENDBRANCH  21  22
ENDBRANCH  20  21
ENDBRANCH  19  20
ENDBRANCH  18  19
ENDBRANCH  17  18
ENDBRANCH  16  17
ENDBRANCH  15  16
ENDBRANCH   1  15
TORSDOF 22
ENDMDL
MODEL 5
REMARK VINA RESULT:    -4.501      1.768      4.748
REMARK INTER + INTRA:         -13.272
REMARK INTER:                  -9.813
REMARK INTRA:                  -3.459
REMARK UNBOUND:                -2.981
REMARK SMILES CCCCCCCCCCCCCCCCCCCCCCCC(=O)[O-]
REMARK SMILES IDX 13 1 14 2 15 3 16 4 17 5 18 6 19 7 20 8 21 9 22 10 23 11
REMARK SMILES IDX 24 12 25 13 26 14 12 15 11 16 10 17 9 18 8 19 7 20 6 21 5 22
REMARK SMILES IDX 4 23 3 24 2 25 1 26
REMARK H PARENT
REMARK Flexibility Score: inf
ROOT
ATOM      1  C   UNL     1      49.777  53.579  25.073  1.00  0.00     0.000 C 
ENDROOT
BRANCH   1   2
ATOM      2  C   UNL     1      49.545  53.254  23.582  1.00  0.00     0.000 C 
BRANCH   2   3
ATOM      3  C   UNL     1      50.047  51.871  23.132  1.00  0.00     0.000 C 
BRANCH   3   4
ATOM      4  C   UNL     1      49.371  51.382  21.844  1.00  0.00     0.000 C 
BRANCH   4   5
ATOM      5  C   UNL     1      50.418  50.990  20.791  1.00  0.00     0.000 C 
BRANCH   5   6
ATOM      6  C   UNL     1      51.840  50.919  21.372  1.00  0.00     0.000 C 
BRANCH   6   7
ATOM      7  C   UNL     1      52.746  52.043  20.847  1.00  0.00     0.000 C 
BRANCH   7   8
ATOM      8  C   UNL     1      51.924  53.290  20.486  1.00  0.00     0.000 C 
BRANCH   8   9
ATOM      9  C   UNL     1      52.543  54.582  21.062  1.00  0.00     0.000 C 
BRANCH   9  10
ATOM     10  C   UNL     1      52.212  54.815  22.546  1.00  0.00     0.006 C 
BRANCH  10  11
ATOM     11  C   UNL     1      53.444  54.733  23.454  1.00  0.00     0.053 C 
BRANCH  11  12
ATOM     12  C   UNL     1      53.676  53.323  23.896  1.00  0.00     0.041 C 
ATOM     13  O   UNL     1      53.034  52.849  24.869  1.00  0.00    -0.550 OA
ATOM     14  O   UNL     1      54.576  52.517  23.208  1.00  0.00    -0.550 OA
ENDBRANCH  11  12
ENDBRANCH  10  11
ENDBRANCH   9  10
ENDBRANCH   8   9
ENDBRANCH   7   8
ENDBRANCH   6   7
ENDBRANCH   5   6
ENDBRANCH   4   5
ENDBRANCH   3   4
ENDBRANCH   2   3
ENDBRANCH   1   2
BRANCH   1  15
ATOM     15  C   UNL     1      49.136  52.590  26.064  1.00  0.00     0.000 C 
BRANCH  15  16
ATOM     16  C   UNL     1      48.023  53.230  26.907  1.00  0.00     0.000 C 
BRANCH  16  17
ATOM     17  C   UNL     1      47.022  53.979  26.017  1.00  0.00     0.000 C 
BRANCH  17  18
ATOM     18  C   UNL     1      45.892  53.074  25.497  1.00  0.00    -0.000 C 
BRANCH  18  19
ATOM     19  C   UNL     1      46.024  52.721  24.000  1.00  0.00    -0.000 C 
BRANCH  19  20
ATOM     20  C   UNL     1      46.277  51.219  23.777  1.00  0.00    -0.000 C 
BRANCH  20  21
ATOM     21  C   UNL     1      46.183  50.405  25.077  1.00  0.00    -0.000 C 
BRANCH  21  22
ATOM     22  C   UNL     1      46.983  49.092  25.010  1.00  0.00    -0.000 C 
BRANCH  22  23
ATOM     23  C   UNL     1      48.405  49.292  24.465  1.00  0.00    -0.000 C 
BRANCH  23  24
ATOM     24  C   UNL     1      49.220  47.990  24.446  1.00  0.00    -0.000 C 
BRANCH  24  25
ATOM     25  C   UNL     1      50.255  48.006  23.316  1.00  0.00    -0.003 C 
ATOM     26  C   UNL     1      51.516  47.242  23.710  1.00  0.00     0.004 C 
ENDBRANCH  24  25
ENDBRANCH  23  24
ENDBRANCH  22  23
ENDBRANCH  21  22
ENDBRANCH  20  21
ENDBRANCH  19  20
ENDBRANCH  18  19
ENDBRANCH  17  18
ENDBRANCH  16  17
ENDBRANCH  15  16
ENDBRANCH   1  15
TORSDOF 22
ENDMDL
MODEL 6
REMARK VINA RESULT:    -4.487      0.948      4.343
REMARK INTER + INTRA:         -13.239
REMARK INTER:                 -11.126
REMARK INTRA:                  -2.114
REMARK UNBOUND:                -2.981
REMARK SMILES CCCCCCCCCCCCCCCCCCCCCCCC(=O)[O-]
REMARK SMILES IDX 13 1 14 2 15 3 16 4 17 5 18 6 19 7 20 8 21 9 22 10 23 11
REMARK SMILES IDX 24 12 25 13 26 14 12 15 11 16 10 17 9 18 8 19 7 20 6 21 5 22
REMARK SMILES IDX 4 23 3 24 2 25 1 26
REMARK H PARENT
REMARK Flexibility Score: inf
ROOT
ATOM      1  C   UNL     1      47.369  53.590  26.480  1.00  0.00     0.000 C 
ENDROOT
BRANCH   1   2
ATOM      2  C   UNL     1      48.651  52.882  25.994  1.00  0.00     0.000 C 
BRANCH   2   3
ATOM      3  C   UNL     1      49.445  53.640  24.916  1.00  0.00     0.000 C 
BRANCH   3   4
ATOM      4  C   UNL     1      50.910  53.193  24.829  1.00  0.00     0.000 C 
BRANCH   4   5
ATOM      5  C   UNL     1      51.859  54.379  25.053  1.00  0.00     0.000 C 
BRANCH   5   6
ATOM      6  C   UNL     1      53.039  54.385  24.067  1.00  0.00     0.000 C 
BRANCH   6   7
ATOM      7  C   UNL     1      53.689  53.001  23.919  1.00  0.00     0.000 C 
BRANCH   7   8
ATOM      8  C   UNL     1      53.977  52.682  22.443  1.00  0.00     0.000 C 
BRANCH   8   9
ATOM      9  C   UNL     1      52.717  52.193  21.697  1.00  0.00     0.000 C 
BRANCH   9  10
ATOM     10  C   UNL     1      52.151  53.223  20.704  1.00  0.00     0.006 C 
BRANCH  10  11
ATOM     11  C   UNL     1      51.743  54.539  21.376  1.00  0.00     0.053 C 
BRANCH  11  12
ATOM     12  C   UNL     1      52.317  55.705  20.636  1.00  0.00     0.041 C 
ATOM     13  O   UNL     1      52.768  56.697  21.265  1.00  0.00    -0.550 OA
ATOM     14  O   UNL     1      52.390  55.681  19.247  1.00  0.00    -0.550 OA
ENDBRANCH  11  12
ENDBRANCH  10  11
ENDBRANCH   9  10
ENDBRANCH   8   9
ENDBRANCH   7   8
ENDBRANCH   6   7
ENDBRANCH   5   6
ENDBRANCH   4   5
ENDBRANCH   3   4
ENDBRANCH   2   3
ENDBRANCH   1   2
BRANCH   1  15
ATOM     15  C   UNL     1      46.051  52.900  26.084  1.00  0.00     0.000 C 
BRANCH  15  16
ATOM     16  C   UNL     1      46.275  51.582  25.326  1.00  0.00     0.000 C 
BRANCH  16  17
ATOM     17  C   UNL     1      46.186  51.798  23.810  1.00  0.00     0.000 C 
BRANCH  17  18
ATOM     18  C   UNL     1      47.197  50.945  23.025  1.00  0.00    -0.000 C 
BRANCH  18  19
ATOM     19  C   UNL     1      48.495  51.701  22.668  1.00  0.00    -0.000 C 
BRANCH  19  20
ATOM     20  C   UNL     1      49.280  51.007  21.540  1.00  0.00    -0.000 C 
BRANCH  20  21
ATOM     21  C   UNL     1      49.658  49.559  21.886  1.00  0.00    -0.000 C 
BRANCH  21  22
ATOM     22  C   UNL     1      50.488  49.458  23.178  1.00  0.00    -0.000 C 
BRANCH  22  23
ATOM     23  C   UNL     1      51.041  48.044  23.416  1.00  0.00    -0.000 C 
BRANCH  23  24
ATOM     24  C   UNL     1      50.127  47.195  24.312  1.00  0.00    -0.000 C 
BRANCH  24  25
ATOM     25  C   UNL     1      48.787  47.899  24.554  1.00  0.00    -0.003 C 
ATOM     26  C   UNL     1      47.701  46.900  24.946  1.00  0.00     0.004 C 
ENDBRANCH  24  25
ENDBRANCH  23  24
ENDBRANCH  22  23
ENDBRANCH  21  22
ENDBRANCH  20  21
ENDBRANCH  19  20
ENDBRANCH  18  19
ENDBRANCH  17  18
ENDBRANCH  16  17
ENDBRANCH  15  16
ENDBRANCH   1  15
TORSDOF 22
ENDMDL
MODEL 7
REMARK VINA RESULT:    -4.456      1.933      6.526
REMARK INTER + INTRA:         -13.168
REMARK INTER:                  -9.870
REMARK INTRA:                  -3.298
REMARK UNBOUND:                -2.981
REMARK SMILES CCCCCCCCCCCCCCCCCCCCCCCC(=O)[O-]
REMARK SMILES IDX 13 1 14 2 15 3 16 4 17 5 18 6 19 7 20 8 21 9 22 10 23 11
REMARK SMILES IDX 24 12 25 13 26 14 12 15 11 16 10 17 9 18 8 19 7 20 6 21 5 22
REMARK SMILES IDX 4 23 3 24 2 25 1 26
REMARK H PARENT
REMARK Flexibility Score: inf
ROOT
ATOM      1  C   UNL     1      49.131  53.094  26.253  1.00  0.00     0.000 C 
ENDROOT
BRANCH   1   2
ATOM      2  C   UNL     1      47.740  53.256  26.901  1.00  0.00     0.000 C 
BRANCH   2   3
ATOM      3  C   UNL     1      46.577  53.435  25.908  1.00  0.00     0.000 C 
BRANCH   3   4
ATOM      4  C   UNL     1      45.944  52.102  25.486  1.00  0.00     0.000 C 
BRANCH   4   5
ATOM      5  C   UNL     1      45.903  51.977  23.956  1.00  0.00     0.000 C 
BRANCH   5   6
ATOM      6  C   UNL     1      46.706  50.771  23.441  1.00  0.00     0.000 C 
BRANCH   6   7
ATOM      7  C   UNL     1      47.616  50.166  24.520  1.00  0.00     0.000 C 
BRANCH   7   8
ATOM      8  C   UNL     1      48.072  48.751  24.128  1.00  0.00     0.000 C 
BRANCH   8   9
ATOM      9  C   UNL     1      49.610  48.628  24.082  1.00  0.00     0.000 C 
BRANCH   9  10
ATOM     10  C   UNL     1      50.300  49.798  23.361  1.00  0.00     0.006 C 
BRANCH  10  11
ATOM     11  C   UNL     1      50.549  49.521  21.874  1.00  0.00     0.053 C 
BRANCH  11  12
ATOM     12  C   UNL     1      50.035  50.650  21.038  1.00  0.00     0.041 C 
ATOM     13  O   UNL     1      50.282  50.690  19.805  1.00  0.00    -0.550 OA
ATOM     14  O   UNL     1      49.250  51.642  21.615  1.00  0.00    -0.550 OA
ENDBRANCH  11  12
ENDBRANCH  10  11
ENDBRANCH   9  10
ENDBRANCH   8   9
ENDBRANCH   7   8
ENDBRANCH   6   7
ENDBRANCH   5   6
ENDBRANCH   4   5
ENDBRANCH   3   4
ENDBRANCH   2   3
ENDBRANCH   1   2
BRANCH   1  15
ATOM     15  C   UNL     1      49.162  53.253  24.722  1.00  0.00     0.000 C 
BRANCH  15  16
ATOM     16  C   UNL     1      50.587  53.400  24.168  1.00  0.00     0.000 C 
BRANCH  16  17
ATOM     17  C   UNL     1      51.368  54.473  24.937  1.00  0.00     0.000 C 
BRANCH  17  18
ATOM     18  C   UNL     1      52.835  54.580  24.489  1.00  0.00    -0.000 C 
BRANCH  18  19
ATOM     19  C   UNL     1      53.558  53.218  24.419  1.00  0.00    -0.000 C 
BRANCH  19  20
ATOM     20  C   UNL     1      54.078  52.908  23.003  1.00  0.00    -0.000 C 
BRANCH  20  21
ATOM     21  C   UNL     1      53.018  52.231  22.120  1.00  0.00    -0.000 C 
BRANCH  21  22
ATOM     22  C   UNL     1      53.217  52.530  20.624  1.00  0.00    -0.000 C 
BRANCH  22  23
ATOM     23  C   UNL     1      52.140  53.470  20.060  1.00  0.00    -0.000 C 
BRANCH  23  24
ATOM     24  C   UNL     1      51.869  54.674  20.974  1.00  0.00    -0.000 C 
BRANCH  24  25
ATOM     25  C   UNL     1      52.517  55.945  20.415  1.00  0.00    -0.003 C 
ATOM     26  C   UNL     1      53.011  56.854  21.537  1.00  0.00     0.004 C 
ENDBRANCH  24  25
ENDBRANCH  23  24
ENDBRANCH  22  23
ENDBRANCH  21  22
ENDBRANCH  20  21
ENDBRANCH  19  20
ENDBRANCH  18  19
ENDBRANCH  17  18
ENDBRANCH  16  17
ENDBRANCH  15  16
ENDBRANCH   1  15
TORSDOF 22
ENDMDL
MODEL 8
REMARK VINA RESULT:    -4.434      3.036      7.018
REMARK INTER + INTRA:         -13.118
REMARK INTER:                 -10.979
REMARK INTRA:                  -2.139
REMARK UNBOUND:                -2.981
REMARK SMILES CCCCCCCCCCCCCCCCCCCCCCCC(=O)[O-]
REMARK SMILES IDX 13 1 14 2 15 3 16 4 17 5 18 6 19 7 20 8 21 9 22 10 23 11
REMARK SMILES IDX 24 12 25 13 26 14 12 15 11 16 10 17 9 18 8 19 7 20 6 21 5 22
REMARK SMILES IDX 4 23 3 24 2 25 1 26
REMARK H PARENT
REMARK Flexibility Score: inf
ROOT
ATOM      1  C   UNL     1      50.076  53.735  25.280  1.00  0.00     0.000 C 
ENDROOT
BRANCH   1   2
ATOM      2  C   UNL     1      48.929  52.771  25.648  1.00  0.00     0.000 C 
BRANCH   2   3
ATOM      3  C   UNL     1      47.971  53.285  26.737  1.00  0.00     0.000 C 
BRANCH   3   4
ATOM      4  C   UNL     1      46.590  53.665  26.185  1.00  0.00     0.000 C 
BRANCH   4   5
ATOM      5  C   UNL     1      45.875  52.435  25.606  1.00  0.00     0.000 C 
BRANCH   5   6
ATOM      6  C   UNL     1      45.995  52.349  24.075  1.00  0.00     0.000 C 
BRANCH   6   7
ATOM      7  C   UNL     1      46.471  50.969  23.599  1.00  0.00     0.000 C 
BRANCH   7   8
ATOM      8  C   UNL     1      46.716  50.029  24.791  1.00  0.00     0.000 C 
BRANCH   8   9
ATOM      9  C   UNL     1      47.814  48.986  24.492  1.00  0.00     0.000 C 
BRANCH   9  10
ATOM     10  C   UNL     1      49.138  49.606  24.013  1.00  0.00     0.006 C 
BRANCH  10  11
ATOM     11  C   UNL     1      49.986  48.636  23.182  1.00  0.00     0.053 C 
BRANCH  11  12
ATOM     12  C   UNL     1      50.508  47.528  24.042  1.00  0.00     0.041 C 
ATOM     13  O   UNL     1      51.690  47.120  23.903  1.00  0.00    -0.550 OA
ATOM     14  O   UNL     1      49.698  46.970  25.025  1.00  0.00    -0.550 OA
ENDBRANCH  11  12
ENDBRANCH  10  11
ENDBRANCH   9  10
ENDBRANCH   8   9
ENDBRANCH   7   8
ENDBRANCH   6   7
ENDBRANCH   5   6
ENDBRANCH   4   5
ENDBRANCH   3   4
ENDBRANCH   2   3
ENDBRANCH   1   2
BRANCH   1  15
ATOM     15  C   UNL     1      51.007  53.244  24.156  1.00  0.00     0.000 C 
BRANCH  15  16
ATOM     16  C   UNL     1      52.402  52.854  24.667  1.00  0.00     0.000 C 
BRANCH  16  17
ATOM     17  C   UNL     1      53.496  53.640  23.932  1.00  0.00     0.000 C 
BRANCH  17  18
ATOM     18  C   UNL     1      53.016  55.017  23.443  1.00  0.00    -0.000 C 
BRANCH  18  19
ATOM     19  C   UNL     1      53.126  55.201  21.915  1.00  0.00    -0.000 C 
BRANCH  19  20
ATOM     20  C   UNL     1      51.921  54.599  21.168  1.00  0.00    -0.000 C 
BRANCH  20  21
ATOM     21  C   UNL     1      52.323  53.460  20.219  1.00  0.00    -0.000 C 
BRANCH  21  22
ATOM     22  C   UNL     1      52.928  52.257  20.962  1.00  0.00    -0.000 C 
BRANCH  22  23
ATOM     23  C   UNL     1      51.867  51.224  21.376  1.00  0.00    -0.000 C 
BRANCH  23  24
ATOM     24  C   UNL     1      50.597  51.304  20.516  1.00  0.00    -0.000 C 
BRANCH  24  25
ATOM     25  C   UNL     1      49.340  51.309  21.392  1.00  0.00    -0.003 C 
ATOM     26  C   UNL     1      49.015  52.718  21.882  1.00  0.00     0.004 C 
ENDBRANCH  24  25
ENDBRANCH  23  24
ENDBRANCH  22  23
ENDBRANCH  21  22
ENDBRANCH  20  21
ENDBRANCH  19  20
ENDBRANCH  18  19
ENDBRANCH  17  18
ENDBRANCH  16  17
ENDBRANCH  15  16
ENDBRANCH   1  15
TORSDOF 22
ENDMDL
MODEL 9
REMARK VINA RESULT:    -4.409      0.827      3.929
REMARK INTER + INTRA:         -13.060
REMARK INTER:                 -10.103
REMARK INTRA:                  -2.957
REMARK UNBOUND:                -2.981
REMARK SMILES CCCCCCCCCCCCCCCCCCCCCCCC(=O)[O-]
REMARK SMILES IDX 13 1 14 2 15 3 16 4 17 5 18 6 19 7 20 8 21 9 22 10 23 11
REMARK SMILES IDX 24 12 25 13 26 14 12 15 11 16 10 17 9 18 8 19 7 20 6 21 5 22
REMARK SMILES IDX 4 23 3 24 2 25 1 26
REMARK H PARENT
REMARK Flexibility Score: inf
ROOT
ATOM      1  C   UNL     1      48.139  53.214  26.030  1.00  0.00     0.000 C 
ENDROOT
BRANCH   1   2
ATOM      2  C   UNL     1      48.684  52.365  24.863  1.00  0.00     0.000 C 
BRANCH   2   3
ATOM      3  C   UNL     1      49.991  52.883  24.236  1.00  0.00     0.000 C 
BRANCH   3   4
ATOM      4  C   UNL     1      50.478  54.193  24.871  1.00  0.00     0.000 C 
BRANCH   4   5
ATOM      5  C   UNL     1      52.001  54.333  24.737  1.00  0.00     0.000 C 
BRANCH   5   6
ATOM      6  C   UNL     1      52.690  52.995  24.419  1.00  0.00     0.000 C 
BRANCH   6   7
ATOM      7  C   UNL     1      54.071  53.185  23.774  1.00  0.00     0.000 C 
BRANCH   7   8
ATOM      8  C   UNL     1      54.135  52.506  22.396  1.00  0.00     0.000 C 
BRANCH   8   9
ATOM      9  C   UNL     1      52.731  52.171  21.849  1.00  0.00     0.000 C 
BRANCH   9  10
ATOM     10  C   UNL     1      52.266  53.115  20.727  1.00  0.00     0.006 C 
BRANCH  10  11
ATOM     11  C   UNL     1      51.607  54.394  21.257  1.00  0.00     0.053 C 
BRANCH  11  12
ATOM     12  C   UNL     1      52.329  55.603  20.752  1.00  0.00     0.041 C 
ATOM     13  O   UNL     1      52.393  55.834  19.517  1.00  0.00    -0.550 OA
ATOM     14  O   UNL     1      52.902  56.497  21.649  1.00  0.00    -0.550 OA
ENDBRANCH  11  12
ENDBRANCH  10  11
ENDBRANCH   9  10
ENDBRANCH   8   9
ENDBRANCH   7   8
ENDBRANCH   6   7
ENDBRANCH   5   6
ENDBRANCH   4   5
ENDBRANCH   3   4
ENDBRANCH   2   3
ENDBRANCH   1   2
BRANCH   1  15
ATOM     15  C   UNL     1      46.648  53.002  26.351  1.00  0.00     0.000 C 
BRANCH  15  16
ATOM     16  C   UNL     1      45.997  51.927  25.468  1.00  0.00     0.000 C 
BRANCH  16  17
ATOM     17  C   UNL     1      45.882  50.594  26.219  1.00  0.00     0.000 C 
BRANCH  17  18
ATOM     18  C   UNL     1      46.585  49.436  25.491  1.00  0.00    -0.000 C 
BRANCH  18  19
ATOM     19  C   UNL     1      46.620  48.126  26.306  1.00  0.00    -0.000 C 
BRANCH  19  20
ATOM     20  C   UNL     1      47.486  47.045  25.633  1.00  0.00    -0.000 C 
BRANCH  20  21
ATOM     21  C   UNL     1      48.336  47.601  24.481  1.00  0.00    -0.000 C 
BRANCH  21  22
ATOM     22  C   UNL     1      49.803  47.146  24.556  1.00  0.00    -0.000 C 
BRANCH  22  23
ATOM     23  C   UNL     1      50.730  47.988  23.665  1.00  0.00    -0.000 C 
BRANCH  23  24
ATOM     24  C   UNL     1      50.141  49.368  23.337  1.00  0.00    -0.000 C 
BRANCH  24  25
ATOM     25  C   UNL     1      50.047  49.579  21.821  1.00  0.00    -0.003 C 
ATOM     26  C   UNL     1      49.423  50.932  21.490  1.00  0.00     0.004 C 
ENDBRANCH  24  25
ENDBRANCH  23  24
ENDBRANCH  22  23
ENDBRANCH  21  22
ENDBRANCH  20  21
ENDBRANCH  19  20
ENDBRANCH  18  19
ENDBRANCH  17  18
ENDBRANCH  16  17
ENDBRANCH  15  16
ENDBRANCH   1  15
TORSDOF 22
ENDMDL
