MODEL 1
REMARK VINA RESULT:    -3.785      0.000      0.000
REMARK INTER + INTRA:          -6.098
REMARK INTER:                  -5.555
REMARK INTRA:                  -0.543
REMARK UNBOUND:                -0.543
REMARK SMILES O=C([O-])CCCCCCCC(=O)[O-]
REMARK SMILES IDX 7 1 6 2 5 3 4 4 2 5 1 6 3 7 8 8 9 9 10 10 11 11 12 12 13 13
REMARK H PARENT
REMARK Flexibility Score: inf
ROOT
ATOM      1  C   UNL     1      28.632  13.289 -17.269  1.00  0.00     0.000 C 
ENDROOT
BRANCH   1   2
ATOM      2  C   UNL     1      28.696  12.281 -16.107  1.00  0.00     0.000 C 
BRANCH   2   3
ATOM      3  C   UNL     1      28.534  12.894 -14.705  1.00  0.00     0.006 C 
BRANCH   3   4
ATOM      4  C   UNL     1      29.713  13.790 -14.304  1.00  0.00     0.053 C 
BRANCH   4   5
ATOM      5  C   UNL     1      29.276  15.217 -14.208  1.00  0.00     0.041 C 
ATOM      6  O   UNL     1      29.768  16.083 -14.980  1.00  0.00    -0.550 OA
ATOM      7  O   UNL     1      28.364  15.602 -13.234  1.00  0.00    -0.550 OA
ENDBRANCH   4   5
ENDBRANCH   3   4
ENDBRANCH   2   3
ENDBRANCH   1   2
BRANCH   1   8
ATOM      8  C   UNL     1      29.838  13.191 -18.215  1.00  0.00     0.000 C 
BRANCH   8   9
ATOM      9  C   UNL     1      30.754  12.024 -17.821  1.00  0.00     0.006 C 
BRANCH   9  10
ATOM     10  C   UNL     1      30.789  10.925 -18.890  1.00  0.00     0.053 C 
BRANCH  10  11
ATOM     11  C   UNL     1      30.663   9.560 -18.288  1.00  0.00     0.041 C 
ATOM     12  O   UNL     1      30.524   9.426 -17.044  1.00  0.00    -0.550 OA
ATOM     13  O   UNL     1      30.667   8.436 -19.105  1.00  0.00    -0.550 OA
ENDBRANCH  10  11
ENDBRANCH   9  10
ENDBRANCH   8   9
ENDBRANCH   1   8
TORSDOF 8
ENDMDL
MODEL 2
REMARK VINA RESULT:    -3.652      2.871      4.426
REMARK INTER + INTRA:          -5.903
REMARK INTER:                  -5.465
REMARK INTRA:                  -0.438
REMARK UNBOUND:                -0.543
REMARK SMILES O=C([O-])CCCCCCCC(=O)[O-]
REMARK SMILES IDX 7 1 6 2 5 3 4 4 2 5 1 6 3 7 8 8 9 9 10 10 11 11 12 12 13 13
REMARK H PARENT
REMARK Flexibility Score: inf
ROOT
ATOM      1  C   UNL     1      28.253  12.999 -14.024  1.00  0.00     0.000 C 
ENDROOT
BRANCH   1   2
ATOM      2  C   UNL     1      28.757  14.082 -13.054  1.00  0.00     0.000 C 
BRANCH   2   3
ATOM      3  C   UNL     1      27.657  14.966 -12.437  1.00  0.00     0.006 C 
BRANCH   3   4
ATOM      4  C   UNL     1      26.303  14.253 -12.339  1.00  0.00     0.053 C 
BRANCH   4   5
ATOM      5  C   UNL     1      26.122  13.661 -10.978  1.00  0.00     0.041 C 
ATOM      6  O   UNL     1      25.528  14.313 -10.078  1.00  0.00    -0.550 OA
ATOM      7  O   UNL     1      26.652  12.411 -10.686  1.00  0.00    -0.550 OA
ENDBRANCH   4   5
ENDBRANCH   3   4
ENDBRANCH   2   3
ENDBRANCH   1   2
BRANCH   1   8
ATOM      8  C   UNL     1      29.382  12.116 -14.576  1.00  0.00     0.000 C 
BRANCH   8   9
ATOM      9  C   UNL     1      29.152  11.792 -16.059  1.00  0.00     0.006 C 
BRANCH   9  10
ATOM     10  C   UNL     1      28.619  12.999 -16.842  1.00  0.00     0.053 C 
BRANCH  10  11
ATOM     11  C   UNL     1      29.730  13.823 -17.416  1.00  0.00     0.041 C 
ATOM     12  O   UNL     1      30.807  13.276 -17.771  1.00  0.00    -0.550 OA
ATOM     13  O   UNL     1      29.562  15.191 -17.591  1.00  0.00    -0.550 OA
ENDBRANCH  10  11
ENDBRANCH   9  10
ENDBRANCH   8   9
ENDBRANCH   1   8
TORSDOF 8
ENDMDL
MODEL 3
REMARK VINA RESULT:    -3.593      0.922      5.998
REMARK INTER + INTRA:          -5.817
REMARK INTER:                  -5.215
REMARK INTRA:                  -0.601
REMARK UNBOUND:                -0.543
REMARK SMILES O=C([O-])CCCCCCCC(=O)[O-]
REMARK SMILES IDX 7 1 6 2 5 3 4 4 2 5 1 6 3 7 8 8 9 9 10 10 11 11 12 12 13 13
REMARK H PARENT
REMARK Flexibility Score: inf
ROOT
ATOM      1  C   UNL     1      29.134  13.684 -16.784  1.00  0.00     0.000 C 
ENDROOT
BRANCH   1   2
ATOM      2  C   UNL     1      29.729  13.203 -18.119  1.00  0.00     0.000 C 
BRANCH   2   3
ATOM      3  C   UNL     1      30.907  12.220 -17.991  1.00  0.00     0.006 C 
BRANCH   3   4
ATOM      4  C   UNL     1      30.720  10.949 -18.829  1.00  0.00     0.053 C 
BRANCH   4   5
ATOM      5  C   UNL     1      30.501   9.766 -17.942  1.00  0.00     0.041 C 
ATOM      6  O   UNL     1      30.599   9.885 -16.692  1.00  0.00    -0.550 OA
ATOM      7  O   UNL     1      30.238   8.519 -18.496  1.00  0.00    -0.550 OA
ENDBRANCH   4   5
ENDBRANCH   3   4
ENDBRANCH   2   3
ENDBRANCH   1   2
BRANCH   1   8
ATOM      8  C   UNL     1      28.377  12.579 -16.032  1.00  0.00     0.000 C 
BRANCH   8   9
ATOM      9  C   UNL     1      29.003  12.324 -14.653  1.00  0.00     0.006 C 
BRANCH   9  10
ATOM     10  C   UNL     1      29.467  13.620 -13.976  1.00  0.00     0.053 C 
BRANCH  10  11
ATOM     11  C   UNL     1      28.354  14.284 -13.225  1.00  0.00     0.041 C 
ATOM     12  O   UNL     1      27.523  13.591 -12.580  1.00  0.00    -0.550 OA
ATOM     13  O   UNL     1      28.254  15.669 -13.208  1.00  0.00    -0.550 OA
ENDBRANCH  10  11
ENDBRANCH   9  10
ENDBRANCH   8   9
ENDBRANCH   1   8
TORSDOF 8
ENDMDL
MODEL 4
REMARK VINA RESULT:    -3.593      2.801      6.324
REMARK INTER + INTRA:          -5.816
REMARK INTER:                  -5.341
REMARK INTRA:                  -0.475
REMARK UNBOUND:                -0.543
REMARK SMILES O=C([O-])CCCCCCCC(=O)[O-]
REMARK SMILES IDX 7 1 6 2 5 3 4 4 2 5 1 6 3 7 8 8 9 9 10 10 11 11 12 12 13 13
REMARK H PARENT
REMARK Flexibility Score: inf
ROOT
ATOM      1  C   UNL     1      29.228  15.501 -14.288  1.00  0.00     0.000 C 
ENDROOT
BRANCH   1   2
ATOM      2  C   UNL     1      30.345  15.976 -15.235  1.00  0.00     0.000 C 
BRANCH   2   3
ATOM      3  C   UNL     1      30.702  14.993 -16.365  1.00  0.00     0.006 C 
BRANCH   3   4
ATOM      4  C   UNL     1      29.626  14.921 -17.456  1.00  0.00     0.053 C 
BRANCH   4   5
ATOM      5  C   UNL     1      29.185  13.507 -17.662  1.00  0.00     0.041 C 
ATOM      6  O   UNL     1      29.781  12.772 -18.493  1.00  0.00    -0.550 OA
ATOM      7  O   UNL     1      28.084  13.014 -16.973  1.00  0.00    -0.550 OA
ENDBRANCH   4   5
ENDBRANCH   3   4
ENDBRANCH   2   3
ENDBRANCH   1   2
BRANCH   1   8
ATOM      8  C   UNL     1      29.357  14.019 -13.905  1.00  0.00     0.000 C 
BRANCH   8   9
ATOM      9  C   UNL     1      28.106  13.534 -13.159  1.00  0.00     0.006 C 
BRANCH   9  10
ATOM     10  C   UNL     1      27.701  14.483 -12.023  1.00  0.00     0.053 C 
BRANCH  10  11
ATOM     11  C   UNL     1      26.239  14.384 -11.712  1.00  0.00     0.041 C 
ATOM     12  O   UNL     1      25.391  14.924 -12.471  1.00  0.00    -0.550 OA
ATOM     13  O   UNL     1      25.811  13.668 -10.602  1.00  0.00    -0.550 OA
ENDBRANCH  10  11
ENDBRANCH   9  10
ENDBRANCH   8   9
ENDBRANCH   1   8
TORSDOF 8
ENDMDL
MODEL 5
REMARK VINA RESULT:    -3.592      3.210      5.722
REMARK INTER + INTRA:          -5.815
REMARK INTER:                  -5.198
REMARK INTRA:                  -0.617
REMARK UNBOUND:                -0.543
REMARK SMILES O=C([O-])CCCCCCCC(=O)[O-]
REMARK SMILES IDX 7 1 6 2 5 3 4 4 2 5 1 6 3 7 8 8 9 9 10 10 11 11 12 12 13 13
REMARK H PARENT
REMARK Flexibility Score: inf
ROOT
ATOM      1  C   UNL     1      28.985  11.723 -15.546  1.00  0.00     0.000 C 
ENDROOT
BRANCH   1   2
ATOM      2  C   UNL     1      28.484  12.874 -16.437  1.00  0.00     0.000 C 
BRANCH   2   3
ATOM      3  C   UNL     1      29.367  13.182 -17.660  1.00  0.00     0.006 C 
BRANCH   3   4
ATOM      4  C   UNL     1      30.763  13.690 -17.276  1.00  0.00     0.053 C 
BRANCH   4   5
ATOM      5  C   UNL     1      30.659  14.962 -16.497  1.00  0.00     0.041 C 
ATOM      6  O   UNL     1      31.120  15.027 -15.326  1.00  0.00    -0.550 OA
ATOM      7  O   UNL     1      30.009  16.062 -17.042  1.00  0.00    -0.550 OA
ENDBRANCH   4   5
ENDBRANCH   3   4
ENDBRANCH   2   3
ENDBRANCH   1   2
BRANCH   1   8
ATOM      8  C   UNL     1      29.304  12.171 -14.111  1.00  0.00     0.000 C 
BRANCH   8   9
ATOM      9  C   UNL     1      28.392  13.329 -13.681  1.00  0.00     0.006 C 
BRANCH   9  10
ATOM     10  C   UNL     1      28.094  13.306 -12.177  1.00  0.00     0.053 C 
BRANCH  10  11
ATOM     11  C   UNL     1      27.361  14.536 -11.737  1.00  0.00     0.041 C 
ATOM     12  O   UNL     1      27.742  15.673 -12.120  1.00  0.00    -0.550 OA
ATOM     13  O   UNL     1      26.235  14.424 -10.931  1.00  0.00    -0.550 OA
ENDBRANCH  10  11
ENDBRANCH   9  10
ENDBRANCH   8   9
ENDBRANCH   1   8
TORSDOF 8
ENDMDL
MODEL 6
REMARK VINA RESULT:    -3.586      3.619      4.645
REMARK INTER + INTRA:          -5.806
REMARK INTER:                  -5.171
REMARK INTRA:                  -0.635
REMARK UNBOUND:                -0.543
REMARK SMILES O=C([O-])CCCCCCCC(=O)[O-]
REMARK SMILES IDX 7 1 6 2 5 3 4 4 2 5 1 6 3 7 8 8 9 9 10 10 11 11 12 12 13 13
REMARK H PARENT
REMARK Flexibility Score: inf
ROOT
ATOM      1  C   UNL     1      29.531  12.152 -16.237  1.00  0.00     0.000 C 
ENDROOT
BRANCH   1   2
ATOM      2  C   UNL     1      29.162  11.822 -14.780  1.00  0.00     0.000 C 
BRANCH   2   3
ATOM      3  C   UNL     1      29.472  12.936 -13.763  1.00  0.00     0.006 C 
BRANCH   3   4
ATOM      4  C   UNL     1      28.209  13.548 -13.143  1.00  0.00     0.053 C 
BRANCH   4   5
ATOM      5  C   UNL     1      28.136  13.230 -11.684  1.00  0.00     0.041 C 
ATOM      6  O   UNL     1      29.103  12.664 -11.110  1.00  0.00    -0.550 OA
ATOM      7  O   UNL     1      26.979  13.511 -10.968  1.00  0.00    -0.550 OA
ENDBRANCH   4   5
ENDBRANCH   3   4
ENDBRANCH   2   3
ENDBRANCH   1   2
BRANCH   1   8
ATOM      8  C   UNL     1      28.507  13.069 -16.922  1.00  0.00     0.000 C 
BRANCH   8   9
ATOM      9  C   UNL     1      29.208  14.214 -17.669  1.00  0.00     0.006 C 
BRANCH   9  10
ATOM     10  C   UNL     1      30.341  14.838 -16.845  1.00  0.00     0.053 C 
BRANCH  10  11
ATOM     11  C   UNL     1      29.956  16.176 -16.295  1.00  0.00     0.041 C 
ATOM     12  O   UNL     1      29.816  17.162 -17.065  1.00  0.00    -0.550 OA
ATOM     13  O   UNL     1      29.718  16.327 -14.934  1.00  0.00    -0.550 OA
ENDBRANCH  10  11
ENDBRANCH   9  10
ENDBRANCH   8   9
ENDBRANCH   1   8
TORSDOF 8
ENDMDL
MODEL 7
REMARK VINA RESULT:    -3.552      2.906      4.264
REMARK INTER + INTRA:          -5.756
REMARK INTER:                  -5.379
REMARK INTRA:                  -0.378
REMARK UNBOUND:                -0.543
REMARK SMILES O=C([O-])CCCCCCCC(=O)[O-]
REMARK SMILES IDX 7 1 6 2 5 3 4 4 2 5 1 6 3 7 8 8 9 9 10 10 11 11 12 12 13 13
REMARK H PARENT
REMARK Flexibility Score: inf
ROOT
ATOM      1  C   UNL     1      30.087  12.750 -13.430  1.00  0.00     0.000 C 
ENDROOT
BRANCH   1   2
ATOM      2  C   UNL     1      28.924  12.328 -12.514  1.00  0.00     0.000 C 
BRANCH   2   3
ATOM      3  C   UNL     1      28.023  13.481 -12.034  1.00  0.00     0.006 C 
BRANCH   3   4
ATOM      4  C   UNL     1      26.826  12.997 -11.206  1.00  0.00     0.053 C 
BRANCH   4   5
ATOM      5  C   UNL     1      25.776  14.060 -11.137  1.00  0.00     0.041 C 
ATOM      6  O   UNL     1      25.430  14.677 -12.179  1.00  0.00    -0.550 OA
ATOM      7  O   UNL     1      25.214  14.404  -9.914  1.00  0.00    -0.550 OA
ENDBRANCH   4   5
ENDBRANCH   3   4
ENDBRANCH   2   3
ENDBRANCH   1   2
BRANCH   1   8
ATOM      8  C   UNL     1      29.614  13.397 -14.741  1.00  0.00     0.000 C 
BRANCH   8   9
ATOM      9  C   UNL     1      28.818  12.396 -15.591  1.00  0.00     0.006 C 
BRANCH   9  10
ATOM     10  C   UNL     1      28.278  13.029 -16.880  1.00  0.00     0.053 C 
BRANCH  10  11
ATOM     11  C   UNL     1      29.376  13.620 -17.711  1.00  0.00     0.041 C 
ATOM     12  O   UNL     1      29.391  14.855 -17.957  1.00  0.00    -0.550 OA
ATOM     13  O   UNL     1      30.401  12.812 -18.185  1.00  0.00    -0.550 OA
ENDBRANCH  10  11
ENDBRANCH   9  10
ENDBRANCH   8   9
ENDBRANCH   1   8
TORSDOF 8
ENDMDL
MODEL 8
REMARK VINA RESULT:    -3.532      2.801      6.470
REMARK INTER + INTRA:          -5.727
REMARK INTER:                  -5.277
REMARK INTRA:                  -0.450
REMARK UNBOUND:                -0.543
REMARK SMILES O=C([O-])CCCCCCCC(=O)[O-]
REMARK SMILES IDX 7 1 6 2 5 3 4 4 2 5 1 6 3 7 8 8 9 9 10 10 11 11 12 12 13 13
REMARK H PARENT
REMARK Flexibility Score: inf
ROOT
ATOM      1  C   UNL     1      29.954  13.229 -13.960  1.00  0.00     0.000 C 
ENDROOT
BRANCH   1   2
ATOM      2  C   UNL     1      30.278  12.027 -14.866  1.00  0.00     0.000 C 
BRANCH   2   3
ATOM      3  C   UNL     1      29.162  11.639 -15.854  1.00  0.00     0.006 C 
BRANCH   3   4
ATOM      4  C   UNL     1      28.399  12.852 -16.400  1.00  0.00     0.053 C 
BRANCH   4   5
ATOM      5  C   UNL     1      29.187  13.522 -17.480  1.00  0.00     0.041 C 
ATOM      6  O   UNL     1      29.623  12.854 -18.454  1.00  0.00    -0.550 OA
ATOM      7  O   UNL     1      29.486  14.876 -17.386  1.00  0.00    -0.550 OA
ENDBRANCH   4   5
ENDBRANCH   3   4
ENDBRANCH   2   3
ENDBRANCH   1   2
BRANCH   1   8
ATOM      8  C   UNL     1      29.242  12.826 -12.660  1.00  0.00     0.000 C 
BRANCH   8   9
ATOM      9  C   UNL     1      27.773  13.274 -12.676  1.00  0.00     0.006 C 
BRANCH   9  10
ATOM     10  C   UNL     1      27.157  13.297 -11.272  1.00  0.00     0.053 C 
BRANCH  10  11
ATOM     11  C   UNL     1      25.954  14.186 -11.208  1.00  0.00     0.041 C 
ATOM     12  O   UNL     1      25.550  14.782 -12.241  1.00  0.00    -0.550 OA
ATOM     13  O   UNL     1      25.258  14.330 -10.014  1.00  0.00    -0.550 OA
ENDBRANCH  10  11
ENDBRANCH   9  10
ENDBRANCH   8   9
ENDBRANCH   1   8
TORSDOF 8
ENDMDL
MODEL 9
REMARK VINA RESULT:    -3.529     19.191     20.412
REMARK INTER + INTRA:          -5.723
REMARK INTER:                  -4.955
REMARK INTRA:                  -0.767
REMARK UNBOUND:                -0.543
REMARK SMILES O=C([O-])CCCCCCCC(=O)[O-]
REMARK SMILES IDX 7 1 6 2 5 3 4 4 2 5 1 6 3 7 8 8 9 9 10 10 11 11 12 12 13 13
REMARK H PARENT
REMARK Flexibility Score: inf
ROOT
ATOM      1  C   UNL     1      15.613  -0.079 -11.686  1.00  0.00     0.000 C 
ENDROOT
BRANCH   1   2
ATOM      2  C   UNL     1      14.222  -0.162 -12.339  1.00  0.00     0.000 C 
BRANCH   2   3
ATOM      3  C   UNL     1      13.989  -1.404 -13.218  1.00  0.00     0.006 C 
BRANCH   3   4
ATOM      4  C   UNL     1      13.467  -1.056 -14.618  1.00  0.00     0.053 C 
BRANCH   4   5
ATOM      5  C   UNL     1      11.983  -0.881 -14.594  1.00  0.00     0.041 C 
ATOM      6  O   UNL     1      11.428  -0.068 -15.379  1.00  0.00    -0.550 OA
ATOM      7  O   UNL     1      11.215  -1.577 -13.669  1.00  0.00    -0.550 OA
ENDBRANCH   4   5
ENDBRANCH   3   4
ENDBRANCH   2   3
ENDBRANCH   1   2
BRANCH   1   8
ATOM      8  C   UNL     1      16.417  -1.381 -11.819  1.00  0.00     0.000 C 
BRANCH   8   9
ATOM      9  C   UNL     1      17.724  -1.145 -12.589  1.00  0.00     0.006 C 
BRANCH   9  10
ATOM     10  C   UNL     1      17.655  -1.676 -14.027  1.00  0.00     0.053 C 
BRANCH  10  11
ATOM     11  C   UNL     1      17.211  -0.618 -14.989  1.00  0.00     0.041 C 
ATOM     12  O   UNL     1      16.652  -0.939 -16.071  1.00  0.00    -0.550 OA
ATOM     13  O   UNL     1      17.385   0.724 -14.676  1.00  0.00    -0.550 OA
ENDBRANCH  10  11
ENDBRANCH   9  10
ENDBRANCH   8   9
ENDBRANCH   1   8
TORSDOF 8
ENDMDL
