MODEL 1
REMARK VINA RESULT:     7.899      0.000      0.000
REMARK INTER + INTRA:           9.421
REMARK INTER:                   8.591
REMARK INTRA:                   0.830
REMARK UNBOUND:                 0.830
REMARK SMILES CC(=O)[C@H]1CC[C@H]2[C@H]3CC=C4C[C@H](O)CC[C@@]4(C)[C@H]3CC[C@@]12C
REMARK SMILES IDX 4 1 5 2 6 3 7 4 22 5 21 6 20 7 19 8 8 9 9 10 10 11 11 12
REMARK SMILES IDX 17 13 16 14 15 15 13 16 12 17 18 18 23 19 2 20 1 21 3 22
REMARK SMILES IDX 14 23
REMARK H PARENT 14 24
REMARK Flexibility Score: inf
ROOT
ATOM      1  C   UNL     1      23.357  23.087  26.757  1.00  0.00     0.062 C 
ATOM      2  C   UNL     1      23.196  23.090  25.243  1.00  0.00     0.012 C 
ATOM      3  C   UNL     1      24.602  22.875  24.717  1.00  0.00     0.005 C 
ATOM      4  C   UNL     1      25.549  23.544  25.735  1.00  0.00    -0.001 C 
ATOM      5  C   UNL     1      24.711  23.806  27.033  1.00  0.00    -0.020 C 
ATOM      6  C   UNL     1      24.526  25.327  27.289  1.00  0.00     0.008 C 
ATOM      7  C   UNL     1      25.840  26.130  27.287  1.00  0.00     0.005 C 
ATOM      8  C   UNL     1      26.956  25.590  26.339  1.00  0.00     0.003 C 
ATOM      9  C   UNL     1      26.343  24.775  25.176  1.00  0.00     0.000 C 
ATOM     10  C   UNL     1      25.576  25.695  24.188  1.00  0.00     0.031 C 
ATOM     11  C   UNL     1      26.158  27.082  24.029  1.00  0.00    -0.027 C 
ATOM     12  C   UNL     1      27.155  27.591  24.789  1.00  0.00    -0.065 C 
ATOM     13  C   UNL     1      27.910  26.721  25.795  1.00  0.00    -0.008 C 
ATOM     14  C   UNL     1      28.461  27.584  26.982  1.00  0.00     0.014 C 
ATOM     15  C   UNL     1      29.107  28.907  26.544  1.00  0.00     0.033 C 
ATOM     16  C   UNL     1      28.125  29.730  25.699  1.00  0.00     0.118 C 
ATOM     17  C   UNL     1      27.702  28.961  24.440  1.00  0.00     0.063 C 
ATOM     18  C   UNL     1      29.125  26.085  25.062  1.00  0.00     0.016 C 
ATOM     19  C   UNL     1      25.382  23.165  28.274  1.00  0.00     0.012 C 
ENDROOT
BRANCH   1  20
ATOM     20  C   UNL     1      22.148  23.642  27.490  1.00  0.00     0.133 C 
ATOM     21  C   UNL     1      21.946  25.122  27.626  1.00  0.00     0.088 C 
ATOM     22  O   UNL     1      21.318  22.888  27.975  1.00  0.00    -0.300 OA
ENDBRANCH   1  20
BRANCH  16  23
ATOM     23  O   UNL     1      28.686  30.972  25.356  1.00  0.00    -0.393 OA
ATOM     24  H   UNL     1      28.791  31.497  26.192  1.00  0.00     0.210 HD
ENDBRANCH  16  23
TORSDOF 2
ENDMDL
MODEL 2
REMARK VINA RESULT:    10.055      1.463      6.803
REMARK INTER + INTRA:          11.767
REMARK INTER:                  11.018
REMARK INTRA:                   0.749
REMARK UNBOUND:                 0.830
REMARK SMILES CC(=O)[C@H]1CC[C@H]2[C@H]3CC=C4C[C@H](O)CC[C@@]4(C)[C@H]3CC[C@@]12C
REMARK SMILES IDX 4 1 5 2 6 3 7 4 22 5 21 6 20 7 19 8 8 9 9 10 10 11 11 12
REMARK SMILES IDX 17 13 16 14 15 15 13 16 12 17 18 18 23 19 2 20 1 21 3 22
REMARK SMILES IDX 14 23
REMARK H PARENT 14 24
REMARK Flexibility Score: inf
ROOT
ATOM      1  C   UNL     1      28.592  30.139  24.782  1.00  0.00     0.062 C 
ATOM      2  C   UNL     1      28.520  30.412  26.277  1.00  0.00     0.012 C 
ATOM      3  C   UNL     1      29.125  29.175  26.913  1.00  0.00     0.005 C 
ATOM      4  C   UNL     1      28.774  27.998  25.979  1.00  0.00    -0.001 C 
ATOM      5  C   UNL     1      28.299  28.618  24.621  1.00  0.00    -0.020 C 
ATOM      6  C   UNL     1      26.794  28.333  24.365  1.00  0.00     0.008 C 
ATOM      7  C   UNL     1      26.405  26.847  24.480  1.00  0.00     0.005 C 
ATOM      8  C   UNL     1      27.232  26.014  25.510  1.00  0.00     0.003 C 
ATOM      9  C   UNL     1      27.818  26.928  26.612  1.00  0.00     0.000 C 
ATOM     10  C   UNL     1      26.700  27.471  27.544  1.00  0.00     0.031 C 
ATOM     11  C   UNL     1      25.539  26.527  27.761  1.00  0.00    -0.027 C 
ATOM     12  C   UNL     1      25.351  25.368  27.088  1.00  0.00    -0.065 C 
ATOM     13  C   UNL     1      26.418  24.820  26.138  1.00  0.00    -0.008 C 
ATOM     14  C   UNL     1      25.769  23.950  25.007  1.00  0.00     0.014 C 
ATOM     15  C   UNL     1      24.684  22.985  25.507  1.00  0.00     0.033 C 
ATOM     16  C   UNL     1      23.599  23.750  26.278  1.00  0.00     0.118 C 
ATOM     17  C   UNL     1      24.194  24.477  27.492  1.00  0.00     0.063 C 
ATOM     18  C   UNL     1      27.367  23.903  26.960  1.00  0.00     0.016 C 
ATOM     19  C   UNL     1      29.125  28.065  23.432  1.00  0.00     0.012 C 
ENDROOT
BRANCH   1  20
ATOM     20  C   UNL     1      27.721  31.073  23.959  1.00  0.00     0.133 C 
ATOM     21  C   UNL     1      28.196  32.449  23.598  1.00  0.00     0.088 C 
ATOM     22  O   UNL     1      26.618  30.711  23.573  1.00  0.00    -0.300 OA
ENDBRANCH   1  20
BRANCH  16  23
ATOM     23  O   UNL     1      22.568  22.883  26.676  1.00  0.00    -0.393 OA
ATOM     24  H   UNL     1      22.749  22.607  27.612  1.00  0.00     0.210 HD
ENDBRANCH  16  23
TORSDOF 2
ENDMDL
