MODEL 1
REMARK VINA RESULT:    38.316      0.000      0.000
REMARK INTER + INTRA:          52.108
REMARK INTER:                  51.756
REMARK INTRA:                   0.352
REMARK UNBOUND:                 0.352
REMARK SMILES O=c1c(-c2ccc(O)cc2)coc2c([C@H]3O[C@H](CO)[C@H](O)[C@H](O)[C@@H]3O)c(O)ccc12
REMARK SMILES IDX 3 1 11 2 12 3 13 4 30 5 2 6 1 7 29 8 28 9 26 10 14 11 4 12
REMARK SMILES IDX 5 13 6 14 7 15 10 16 9 17 8 18 15 20 24 21 16 22 22 23 17 24
REMARK SMILES IDX 20 25 25 26 23 28 18 30 19 31 21 33 27 35
REMARK H PARENT 8 19 25 27 23 29 19 32 21 34 27 36
REMARK Flexibility Score: inf
ROOT
ATOM      1  C   UNL     1     -23.507  13.498   5.918  1.00  0.00     0.065 A 
ATOM      2  C   UNL     1     -22.425  12.618   5.815  1.00  0.00     0.208 A 
ATOM      3  O   UNL     1     -22.615  11.305   5.804  1.00  0.00    -0.463 OA
ATOM      4  C   UNL     1     -23.807  10.727   5.888  1.00  0.00     0.147 A 
ATOM      5  C   UNL     1     -24.957  11.551   5.998  1.00  0.00     0.066 A 
ATOM      6  C   UNL     1     -24.796  12.949   6.001  1.00  0.00     0.200 A 
ATOM      7  O   UNL     1     -25.804  13.707   6.058  1.00  0.00    -0.288 OA
ATOM      8  C   UNL     1     -26.225  10.968   6.104  1.00  0.00     0.020 A 
ATOM      9  C   UNL     1     -26.358   9.587   6.124  1.00  0.00     0.047 A 
ATOM     10  C   UNL     1     -25.242   8.754   6.021  1.00  0.00     0.125 A 
ATOM     11  C   UNL     1     -23.935   9.305   5.873  1.00  0.00     0.069 A 
ENDROOT
BRANCH   1  12
ATOM     12  C   UNL     1     -23.269  14.964   5.944  1.00  0.00    -0.011 A 
ATOM     13  C   UNL     1     -24.353  15.860   5.928  1.00  0.00     0.013 A 
ATOM     14  C   UNL     1     -24.130  17.240   5.926  1.00  0.00     0.047 A 
ATOM     15  C   UNL     1     -22.822  17.743   5.937  1.00  0.00     0.115 A 
ATOM     16  C   UNL     1     -21.959  15.476   5.946  1.00  0.00     0.013 A 
ATOM     17  C   UNL     1     -21.740  16.858   5.946  1.00  0.00     0.047 A 
BRANCH  15  18
ATOM     18  O   UNL     1     -22.591  19.116   5.948  1.00  0.00    -0.508 OA
ATOM     19  H   UNL     1     -21.728  19.505   6.307  1.00  0.00     0.293 HD
ENDBRANCH  15  18
ENDBRANCH   1  12
BRANCH  11  20
ATOM     20  C   UNL     1     -22.757   8.322   5.683  1.00  0.00     0.188 C 
ATOM     21  C   UNL     1     -21.276   8.829   5.659  1.00  0.00     0.179 C 
ATOM     22  O   UNL     1     -23.009   7.443   4.594  1.00  0.00    -0.362 OA
ATOM     23  C   UNL     1     -20.835   9.327   4.253  1.00  0.00     0.177 C 
ATOM     24  C   UNL     1     -22.815   8.090   3.349  1.00  0.00     0.176 C 
ATOM     25  C   UNL     1     -21.318   8.393   3.132  1.00  0.00     0.177 C 
BRANCH  21  26
ATOM     26  O   UNL     1     -20.405   7.815   6.108  1.00  0.00    -0.387 OA
ATOM     27  H   UNL     1     -20.164   7.246   5.333  1.00  0.00     0.211 HD
ENDBRANCH  21  26
BRANCH  23  28
ATOM     28  O   UNL     1     -19.437   9.457   4.190  1.00  0.00    -0.387 OA
ATOM     29  H   UNL     1     -19.178  10.089   4.912  1.00  0.00     0.211 HD
ENDBRANCH  23  28
BRANCH  24  30
ATOM     30  C   UNL     1     -23.393   7.217   2.227  1.00  0.00     0.191 C 
BRANCH  30  31
ATOM     31  O   UNL     1     -24.674   7.662   1.863  1.00  0.00    -0.394 OA
ATOM     32  H   UNL     1     -25.121   6.915   1.380  1.00  0.00     0.210 HD
ENDBRANCH  30  31
ENDBRANCH  24  30
BRANCH  25  33
ATOM     33  O   UNL     1     -20.564   7.205   3.133  1.00  0.00    -0.388 OA
ATOM     34  H   UNL     1     -21.199   6.450   3.027  1.00  0.00     0.211 HD
ENDBRANCH  25  33
ENDBRANCH  11  20
BRANCH  10  35
ATOM     35  O   UNL     1     -25.483   7.376   6.077  1.00  0.00    -0.507 OA
ATOM     36  H   UNL     1     -25.302   6.732   5.319  1.00  0.00     0.293 HD
ENDBRANCH  10  35
TORSDOF 9
ENDMDL
MODEL 2
REMARK VINA RESULT:    40.357      1.048      1.547
REMARK INTER + INTRA:          54.865
REMARK INTER:                  53.777
REMARK INTRA:                   1.088
REMARK UNBOUND:                 0.352
REMARK SMILES O=c1c(-c2ccc(O)cc2)coc2c([C@H]3O[C@H](CO)[C@H](O)[C@H](O)[C@@H]3O)c(O)ccc12
REMARK SMILES IDX 3 1 11 2 12 3 13 4 30 5 2 6 1 7 29 8 28 9 26 10 14 11 4 12
REMARK SMILES IDX 5 13 6 14 7 15 10 16 9 17 8 18 15 20 24 21 16 22 22 23 17 24
REMARK SMILES IDX 20 25 25 26 23 28 18 30 19 31 21 33 27 35
REMARK H PARENT 8 19 25 27 23 29 19 32 21 34 27 36
REMARK Flexibility Score: inf
ROOT
ATOM      1  C   UNL     1     -23.684  12.814   5.686  1.00  0.00     0.065 A 
ATOM      2  C   UNL     1     -22.669  11.892   5.413  1.00  0.00     0.208 A 
ATOM      3  O   UNL     1     -22.924  10.590   5.379  1.00  0.00    -0.463 OA
ATOM      4  C   UNL     1     -24.124  10.064   5.593  1.00  0.00     0.147 A 
ATOM      5  C   UNL     1     -25.208  10.932   5.879  1.00  0.00     0.066 A 
ATOM      6  C   UNL     1     -24.978  12.321   5.912  1.00  0.00     0.200 A 
ATOM      7  O   UNL     1     -25.932  13.120   6.125  1.00  0.00    -0.288 OA
ATOM      8  C   UNL     1     -26.480  10.403   6.124  1.00  0.00     0.020 A 
ATOM      9  C   UNL     1     -26.678   9.030   6.111  1.00  0.00     0.047 A 
ATOM     10  C   UNL     1     -25.628   8.153   5.836  1.00  0.00     0.125 A 
ATOM     11  C   UNL     1     -24.323   8.651   5.542  1.00  0.00     0.069 A 
ENDROOT
BRANCH   1  12
ATOM     12  C   UNL     1     -23.372  14.265   5.734  1.00  0.00    -0.011 A 
ATOM     13  C   UNL     1     -22.042  14.710   5.626  1.00  0.00     0.013 A 
ATOM     14  C   UNL     1     -21.744  16.074   5.697  1.00  0.00     0.047 A 
ATOM     15  C   UNL     1     -22.770  17.011   5.882  1.00  0.00     0.115 A 
ATOM     16  C   UNL     1     -24.394  15.211   5.930  1.00  0.00     0.013 A 
ATOM     17  C   UNL     1     -24.093  16.575   5.999  1.00  0.00     0.047 A 
BRANCH  15  18
ATOM     18  O   UNL     1     -22.484  18.373   5.943  1.00  0.00    -0.508 OA
ATOM     19  H   UNL     1     -22.121  18.873   5.141  1.00  0.00     0.293 HD
ENDBRANCH  15  18
ENDBRANCH   1  12
BRANCH  11  20
ATOM     20  C   UNL     1     -23.230   7.624   5.168  1.00  0.00     0.188 C 
ATOM     21  C   UNL     1     -21.895   7.531   5.981  1.00  0.00     0.179 C 
ATOM     22  O   UNL     1     -22.971   7.655   3.771  1.00  0.00    -0.362 OA
ATOM     23  C   UNL     1     -20.827   8.555   5.500  1.00  0.00     0.177 C 
ATOM     24  C   UNL     1     -22.191   8.782   3.413  1.00  0.00     0.176 C 
ATOM     25  C   UNL     1     -20.759   8.639   3.967  1.00  0.00     0.177 C 
BRANCH  21  26
ATOM     26  O   UNL     1     -21.374   6.223   5.918  1.00  0.00    -0.387 OA
ATOM     27  H   UNL     1     -20.682   6.129   6.621  1.00  0.00     0.211 HD
ENDBRANCH  21  26
BRANCH  23  28
ATOM     28  O   UNL     1     -19.561   8.227   6.013  1.00  0.00    -0.387 OA
ATOM     29  H   UNL     1     -19.597   7.268   6.269  1.00  0.00     0.211 HD
ENDBRANCH  23  28
BRANCH  24  30
ATOM     30  C   UNL     1     -22.204   8.944   1.887  1.00  0.00     0.191 C 
BRANCH  30  31
ATOM     31  O   UNL     1     -21.242   9.884   1.480  1.00  0.00    -0.394 OA
ATOM     32  H   UNL     1     -20.632  10.037   2.250  1.00  0.00     0.210 HD
ENDBRANCH  30  31
ENDBRANCH  24  30
BRANCH  25  33
ATOM     33  O   UNL     1     -20.135   7.490   3.447  1.00  0.00    -0.388 OA
ATOM     34  H   UNL     1     -20.550   6.703   3.887  1.00  0.00     0.211 HD
ENDBRANCH  25  33
ENDBRANCH  11  20
BRANCH  10  35
ATOM     35  O   UNL     1     -25.928   6.786   5.872  1.00  0.00    -0.507 OA
ATOM     36  H   UNL     1     -26.831   6.392   5.646  1.00  0.00     0.293 HD
ENDBRANCH  10  35
TORSDOF 9
ENDMDL
