MODEL 1
REMARK VINA RESULT:    -5.131      0.000      0.000
REMARK INTER + INTRA:          -8.819
REMARK INTER:                  -7.530
REMARK INTRA:                  -1.289
REMARK UNBOUND:                -1.289
REMARK SMILES Cc1cc2c(C(C)C)c(O)c(O)c(C=O)c2c(O)c1-c1c(C)cc2c(C(C)C)c(O)c(O)c(C=O)c2c1O
REMARK SMILES IDX 1 1 2 2 3 3 4 4 16 5 13 6 11 7 9 8 5 9 17 10 19 11 20 12
REMARK SMILES IDX 37 13 21 14 36 15 23 16 22 17 24 18 33 19 25 20 31 21 29 22
REMARK SMILES IDX 38 23 34 25 35 26 26 27 27 28 28 29 32 30 30 32 18 34 6 36
REMARK SMILES IDX 7 37 8 38 14 39 15 40 10 41 12 43
REMARK H PARENT 38 24 32 31 30 33 18 35 10 42 12 44
REMARK Flexibility Score: inf
ROOT
ATOM      1  C   UNL     1     171.313 163.634 155.134  1.00  0.00     0.045 C 
ATOM      2  C   UNL     1     172.019 164.411 154.049  1.00  0.00    -0.039 A 
ATOM      3  C   UNL     1     172.806 165.509 154.400  1.00  0.00     0.013 A 
ATOM      4  C   UNL     1     173.479 166.287 153.432  1.00  0.00    -0.006 A 
ATOM      5  C   UNL     1     173.416 165.883 152.063  1.00  0.00     0.039 A 
ATOM      6  C   UNL     1     174.111 166.652 151.085  1.00  0.00     0.072 A 
ATOM      7  C   UNL     1     174.991 167.672 151.491  1.00  0.00     0.169 A 
ATOM      8  C   UNL     1     175.123 167.997 152.852  1.00  0.00     0.162 A 
ATOM      9  C   UNL     1     174.252 167.429 153.807  1.00  0.00     0.008 A 
ATOM     10  C   UNL     1     172.698 164.697 151.724  1.00  0.00     0.132 A 
ATOM     11  C   UNL     1     171.970 163.996 152.709  1.00  0.00     0.031 A 
ENDROOT
BRANCH  11  12
ATOM     12  C   UNL     1     171.178 162.794 152.335  1.00  0.00     0.031 A 
ATOM     13  C   UNL     1     171.745 161.507 152.440  1.00  0.00     0.132 A 
ATOM     14  C   UNL     1     169.849 162.945 151.912  1.00  0.00    -0.039 A 
ATOM     15  C   UNL     1     170.996 160.353 152.055  1.00  0.00     0.039 A 
ATOM     16  C   UNL     1     169.088 161.814 151.610  1.00  0.00     0.013 A 
ATOM     17  C   UNL     1     169.211 164.312 151.827  1.00  0.00     0.045 C 
ATOM     18  C   UNL     1     169.639 160.513 151.642  1.00  0.00    -0.006 A 
ATOM     19  C   UNL     1     171.547 159.038 152.115  1.00  0.00     0.072 A 
ATOM     20  C   UNL     1     168.849 159.369 151.313  1.00  0.00     0.008 A 
ATOM     21  C   UNL     1     170.711 157.920 151.949  1.00  0.00     0.169 A 
ATOM     22  C   UNL     1     169.351 158.088 151.635  1.00  0.00     0.162 A 
BRANCH  13  23
ATOM     23  O   UNL     1     173.035 161.369 152.965  1.00  0.00    -0.507 OA
ATOM     24  H   UNL     1     173.231 161.131 153.930  1.00  0.00     0.293 HD
ENDBRANCH  13  23
BRANCH  19  25
ATOM     25  C   UNL     1     173.003 158.798 152.263  1.00  0.00     0.264 C 
ATOM     26  O   UNL     1     173.707 158.435 151.284  1.00  0.00    -0.298 OA
ENDBRANCH  19  25
BRANCH  20  27
ATOM     27  C   UNL     1     167.454 159.501 150.675  1.00  0.00     0.017 C 
ATOM     28  C   UNL     1     166.353 159.210 151.699  1.00  0.00     0.012 C 
ATOM     29  C   UNL     1     167.270 158.655 149.400  1.00  0.00     0.012 C 
ENDBRANCH  20  27
BRANCH  21  30
ATOM     30  O   UNL     1     171.270 156.639 152.053  1.00  0.00    -0.504 OA
ATOM     31  H   UNL     1     171.973 156.381 152.730  1.00  0.00     0.293 HD
ENDBRANCH  21  30
BRANCH  22  32
ATOM     32  O   UNL     1     168.479 156.997 151.645  1.00  0.00    -0.504 OA
ATOM     33  H   UNL     1     168.377 156.345 150.880  1.00  0.00     0.293 HD
ENDBRANCH  22  32
ENDBRANCH  11  12
BRANCH  10  34
ATOM     34  O   UNL     1     172.746 164.190 150.421  1.00  0.00    -0.507 OA
ATOM     35  H   UNL     1     172.014 164.322 149.735  1.00  0.00     0.293 HD
ENDBRANCH  10  34
BRANCH   9  36
ATOM     36  C   UNL     1     174.192 168.017 155.229  1.00  0.00     0.017 C 
ATOM     37  C   UNL     1     175.392 167.555 156.063  1.00  0.00     0.012 C 
ATOM     38  C   UNL     1     174.046 169.550 155.263  1.00  0.00     0.012 C 
ENDBRANCH   9  36
BRANCH   6  39
ATOM     39  C   UNL     1     173.874 166.478 149.631  1.00  0.00     0.264 C 
ATOM     40  O   UNL     1     174.686 165.842 148.909  1.00  0.00    -0.298 OA
ENDBRANCH   6  39
BRANCH   8  41
ATOM     41  O   UNL     1     176.122 168.875 153.278  1.00  0.00    -0.504 OA
ATOM     42  H   UNL     1     176.263 169.800 152.896  1.00  0.00     0.293 HD
ENDBRANCH   8  41
BRANCH   7  43
ATOM     43  O   UNL     1     175.691 168.388 150.512  1.00  0.00    -0.504 OA
ATOM     44  H   UNL     1     175.277 168.727 149.655  1.00  0.00     0.293 HD
ENDBRANCH   7  43
TORSDOF 11
ENDMDL
MODEL 2
REMARK VINA RESULT:    -4.829      2.598      8.956
REMARK INTER + INTRA:          -8.377
REMARK INTER:                  -7.016
REMARK INTRA:                  -1.361
REMARK UNBOUND:                -1.289
REMARK SMILES Cc1cc2c(C(C)C)c(O)c(O)c(C=O)c2c(O)c1-c1c(C)cc2c(C(C)C)c(O)c(O)c(C=O)c2c1O
REMARK SMILES IDX 1 1 2 2 3 3 4 4 16 5 13 6 11 7 9 8 5 9 17 10 19 11 20 12
REMARK SMILES IDX 37 13 21 14 36 15 23 16 22 17 24 18 33 19 25 20 31 21 29 22
REMARK SMILES IDX 38 23 34 25 35 26 26 27 27 28 28 29 32 30 30 32 18 34 6 36
REMARK SMILES IDX 7 37 8 38 14 39 15 40 10 41 12 43
REMARK H PARENT 38 24 32 31 30 33 18 35 10 42 12 44
REMARK Flexibility Score: inf
ROOT
ATOM      1  C   UNL     1     169.772 162.543 154.995  1.00  0.00     0.045 C 
ATOM      2  C   UNL     1     170.426 161.225 154.656  1.00  0.00    -0.039 A 
ATOM      3  C   UNL     1     169.859 160.041 155.131  1.00  0.00     0.013 A 
ATOM      4  C   UNL     1     170.431 158.778 154.863  1.00  0.00    -0.006 A 
ATOM      5  C   UNL     1     171.576 158.710 154.010  1.00  0.00     0.039 A 
ATOM      6  C   UNL     1     172.144 157.436 153.720  1.00  0.00     0.072 A 
ATOM      7  C   UNL     1     171.473 156.263 154.112  1.00  0.00     0.169 A 
ATOM      8  C   UNL     1     170.291 156.340 154.867  1.00  0.00     0.162 A 
ATOM      9  C   UNL     1     169.857 157.579 155.388  1.00  0.00     0.008 A 
ATOM     10  C   UNL     1     172.086 159.915 153.440  1.00  0.00     0.132 A 
ATOM     11  C   UNL     1     171.538 161.165 153.800  1.00  0.00     0.031 A 
ENDROOT
BRANCH  11  12
ATOM     12  C   UNL     1     172.114 162.418 153.246  1.00  0.00     0.031 A 
ATOM     13  C   UNL     1     173.056 163.160 153.991  1.00  0.00     0.132 A 
ATOM     14  C   UNL     1     171.743 162.842 151.961  1.00  0.00    -0.039 A 
ATOM     15  C   UNL     1     173.590 164.379 153.473  1.00  0.00     0.039 A 
ATOM     16  C   UNL     1     172.322 163.991 151.419  1.00  0.00     0.013 A 
ATOM     17  C   UNL     1     170.764 162.044 151.133  1.00  0.00     0.045 C 
ATOM     18  C   UNL     1     173.220 164.794 152.158  1.00  0.00    -0.006 A 
ATOM     19  C   UNL     1     174.517 165.173 154.210  1.00  0.00     0.072 A 
ATOM     20  C   UNL     1     173.790 165.976 151.592  1.00  0.00     0.008 A 
ATOM     21  C   UNL     1     175.188 166.234 153.578  1.00  0.00     0.169 A 
ATOM     22  C   UNL     1     174.886 166.577 152.249  1.00  0.00     0.162 A 
BRANCH  13  23
ATOM     23  O   UNL     1     173.493 162.664 155.225  1.00  0.00    -0.507 OA
ATOM     24  H   UNL     1     173.462 163.190 156.089  1.00  0.00     0.293 HD
ENDBRANCH  13  23
BRANCH  19  25
ATOM     25  C   UNL     1     174.745 164.977 155.662  1.00  0.00     0.264 C 
ATOM     26  O   UNL     1     175.859 164.581 156.100  1.00  0.00    -0.298 OA
ENDBRANCH  19  25
BRANCH  20  27
ATOM     27  C   UNL     1     173.277 166.571 150.267  1.00  0.00     0.017 C 
ATOM     28  C   UNL     1     174.339 166.460 149.169  1.00  0.00     0.012 C 
ATOM     29  C   UNL     1     172.752 168.014 150.394  1.00  0.00     0.012 C 
ENDBRANCH  20  27
BRANCH  21  30
ATOM     30  O   UNL     1     176.124 166.973 154.313  1.00  0.00    -0.504 OA
ATOM     31  H   UNL     1     176.859 167.529 153.899  1.00  0.00     0.293 HD
ENDBRANCH  21  30
BRANCH  22  32
ATOM     32  O   UNL     1     175.668 167.507 151.559  1.00  0.00    -0.504 OA
ATOM     33  H   UNL     1     175.704 168.492 151.779  1.00  0.00     0.293 HD
ENDBRANCH  22  32
ENDBRANCH  11  12
BRANCH  10  34
ATOM     34  O   UNL     1     173.105 159.868 152.482  1.00  0.00    -0.507 OA
ATOM     35  H   UNL     1     173.786 160.603 152.344  1.00  0.00     0.293 HD
ENDBRANCH  10  34
BRANCH   9  36
ATOM     36  C   UNL     1     168.754 157.611 156.461  1.00  0.00     0.017 C 
ATOM     37  C   UNL     1     167.396 157.228 155.862  1.00  0.00     0.012 C 
ATOM     38  C   UNL     1     169.073 156.764 157.708  1.00  0.00     0.012 C 
ENDBRANCH   9  36
BRANCH   6  39
ATOM     39  C   UNL     1     173.478 157.293 153.087  1.00  0.00     0.264 C 
ATOM     40  O   UNL     1     173.595 156.995 151.869  1.00  0.00    -0.298 OA
ENDBRANCH   6  39
BRANCH   8  41
ATOM     41  O   UNL     1     169.524 155.196 155.103  1.00  0.00    -0.504 OA
ATOM     42  H   UNL     1     168.724 155.168 155.719  1.00  0.00     0.293 HD
ENDBRANCH   8  41
BRANCH   7  43
ATOM     43  O   UNL     1     172.033 155.023 153.781  1.00  0.00    -0.504 OA
ATOM     44  H   UNL     1     171.966 154.599 152.866  1.00  0.00     0.293 HD
ENDBRANCH   7  43
TORSDOF 11
ENDMDL
MODEL 3
REMARK VINA RESULT:    -4.828      2.337      3.301
REMARK INTER + INTRA:          -8.374
REMARK INTER:                  -7.138
REMARK INTRA:                  -1.236
REMARK UNBOUND:                -1.289
REMARK SMILES Cc1cc2c(C(C)C)c(O)c(O)c(C=O)c2c(O)c1-c1c(C)cc2c(C(C)C)c(O)c(O)c(C=O)c2c1O
REMARK SMILES IDX 1 1 2 2 3 3 4 4 16 5 13 6 11 7 9 8 5 9 17 10 19 11 20 12
REMARK SMILES IDX 37 13 21 14 36 15 23 16 22 17 24 18 33 19 25 20 31 21 29 22
REMARK SMILES IDX 38 23 34 25 35 26 26 27 27 28 28 29 32 30 30 32 18 34 6 36
REMARK SMILES IDX 7 37 8 38 14 39 15 40 10 41 12 43
REMARK H PARENT 38 24 32 31 30 33 18 35 10 42 12 44
REMARK Flexibility Score: inf
ROOT
ATOM      1  C   UNL     1     169.679 164.247 153.553  1.00  0.00     0.045 C 
ATOM      2  C   UNL     1     170.990 164.987 153.659  1.00  0.00    -0.039 A 
ATOM      3  C   UNL     1     170.999 166.286 154.171  1.00  0.00     0.013 A 
ATOM      4  C   UNL     1     172.189 167.038 154.281  1.00  0.00    -0.006 A 
ATOM      5  C   UNL     1     173.428 166.417 153.934  1.00  0.00     0.039 A 
ATOM      6  C   UNL     1     174.634 167.165 154.062  1.00  0.00     0.072 A 
ATOM      7  C   UNL     1     174.616 168.420 154.698  1.00  0.00     0.169 A 
ATOM      8  C   UNL     1     173.402 168.982 155.128  1.00  0.00     0.162 A 
ATOM      9  C   UNL     1     172.174 168.380 154.775  1.00  0.00     0.008 A 
ATOM     10  C   UNL     1     173.424 165.053 153.512  1.00  0.00     0.132 A 
ATOM     11  C   UNL     1     172.206 164.363 153.336  1.00  0.00     0.031 A 
ENDROOT
BRANCH  11  12
ATOM     12  C   UNL     1     172.209 162.961 152.841  1.00  0.00     0.031 A 
ATOM     13  C   UNL     1     172.379 161.889 153.742  1.00  0.00     0.132 A 
ATOM     14  C   UNL     1     172.004 162.707 151.476  1.00  0.00    -0.039 A 
ATOM     15  C   UNL     1     172.410 160.542 153.267  1.00  0.00     0.039 A 
ATOM     16  C   UNL     1     171.955 161.389 151.020  1.00  0.00     0.013 A 
ATOM     17  C   UNL     1     171.783 163.839 150.501  1.00  0.00     0.045 C 
ATOM     18  C   UNL     1     172.184 160.292 151.879  1.00  0.00    -0.006 A 
ATOM     19  C   UNL     1     172.615 159.434 154.142  1.00  0.00     0.072 A 
ATOM     20  C   UNL     1     172.147 158.950 151.390  1.00  0.00     0.008 A 
ATOM     21  C   UNL     1     172.410 158.125 153.674  1.00  0.00     0.169 A 
ATOM     22  C   UNL     1     172.094 157.892 152.324  1.00  0.00     0.162 A 
BRANCH  13  23
ATOM     23  O   UNL     1     172.475 162.157 155.112  1.00  0.00    -0.507 OA
ATOM     24  H   UNL     1     172.098 161.556 155.835  1.00  0.00     0.293 HD
ENDBRANCH  13  23
BRANCH  19  25
ATOM     25  C   UNL     1     173.123 159.604 155.524  1.00  0.00     0.264 C 
ATOM     26  O   UNL     1     172.374 159.425 156.521  1.00  0.00    -0.298 OA
ENDBRANCH  19  25
BRANCH  20  27
ATOM     27  C   UNL     1     172.106 158.636 149.882  1.00  0.00     0.017 C 
ATOM     28  C   UNL     1     173.396 159.090 149.193  1.00  0.00     0.012 C 
ATOM     29  C   UNL     1     170.862 159.193 149.164  1.00  0.00     0.012 C 
ENDBRANCH  20  27
BRANCH  21  30
ATOM     30  O   UNL     1     172.578 157.056 154.565  1.00  0.00    -0.504 OA
ATOM     31  H   UNL     1     173.477 156.714 154.876  1.00  0.00     0.293 HD
ENDBRANCH  21  30
BRANCH  22  32
ATOM     32  O   UNL     1     171.715 156.619 151.892  1.00  0.00    -0.504 OA
ATOM     33  H   UNL     1     171.459 156.396 150.940  1.00  0.00     0.293 HD
ENDBRANCH  22  32
ENDBRANCH  11  12
BRANCH  10  34
ATOM     34  O   UNL     1     174.629 164.370 153.315  1.00  0.00    -0.507 OA
ATOM     35  H   UNL     1     174.706 163.362 153.263  1.00  0.00     0.293 HD
ENDBRANCH  10  34
BRANCH   9  36
ATOM     36  C   UNL     1     170.860 169.155 154.973  1.00  0.00     0.017 C 
ATOM     37  C   UNL     1     170.508 169.265 156.461  1.00  0.00     0.012 C 
ATOM     38  C   UNL     1     170.843 170.537 154.292  1.00  0.00     0.012 C 
ENDBRANCH   9  36
BRANCH   6  39
ATOM     39  C   UNL     1     175.914 166.707 153.467  1.00  0.00     0.264 C 
ATOM     40  O   UNL     1     176.125 166.793 152.228  1.00  0.00    -0.298 OA
ENDBRANCH   6  39
BRANCH   8  41
ATOM     41  O   UNL     1     173.394 170.133 155.918  1.00  0.00    -0.504 OA
ATOM     42  H   UNL     1     172.751 170.292 156.681  1.00  0.00     0.293 HD
ENDBRANCH   8  41
BRANCH   7  43
ATOM     43  O   UNL     1     175.821 169.118 154.847  1.00  0.00    -0.504 OA
ATOM     44  H   UNL     1     176.674 168.705 155.196  1.00  0.00     0.293 HD
ENDBRANCH   7  43
TORSDOF 11
ENDMDL
MODEL 4
REMARK VINA RESULT:    -4.780      2.402      3.639
REMARK INTER + INTRA:          -8.305
REMARK INTER:                  -6.899
REMARK INTRA:                  -1.406
REMARK UNBOUND:                -1.289
REMARK SMILES Cc1cc2c(C(C)C)c(O)c(O)c(C=O)c2c(O)c1-c1c(C)cc2c(C(C)C)c(O)c(O)c(C=O)c2c1O
REMARK SMILES IDX 1 1 2 2 3 3 4 4 16 5 13 6 11 7 9 8 5 9 17 10 19 11 20 12
REMARK SMILES IDX 37 13 21 14 36 15 23 16 22 17 24 18 33 19 25 20 31 21 29 22
REMARK SMILES IDX 38 23 34 25 35 26 26 27 27 28 28 29 32 30 30 32 18 34 6 36
REMARK SMILES IDX 7 37 8 38 14 39 15 40 10 41 12 43
REMARK H PARENT 38 24 32 31 30 33 18 35 10 42 12 44
REMARK Flexibility Score: inf
ROOT
ATOM      1  C   UNL     1     170.553 162.781 150.496  1.00  0.00     0.045 C 
ATOM      2  C   UNL     1     171.645 163.455 151.291  1.00  0.00    -0.039 A 
ATOM      3  C   UNL     1     172.113 164.705 150.882  1.00  0.00     0.013 A 
ATOM      4  C   UNL     1     173.144 165.380 151.572  1.00  0.00    -0.006 A 
ATOM      5  C   UNL     1     173.661 164.800 152.770  1.00  0.00     0.039 A 
ATOM      6  C   UNL     1     174.687 165.488 153.482  1.00  0.00     0.072 A 
ATOM      7  C   UNL     1     175.041 166.798 153.110  1.00  0.00     0.169 A 
ATOM      8  C   UNL     1     174.452 167.401 151.985  1.00  0.00     0.162 A 
ATOM      9  C   UNL     1     173.634 166.644 151.118  1.00  0.00     0.008 A 
ATOM     10  C   UNL     1     173.104 163.573 153.242  1.00  0.00     0.132 A 
ATOM     11  C   UNL     1     172.135 162.889 152.479  1.00  0.00     0.031 A 
ENDROOT
BRANCH  11  12
ATOM     12  C   UNL     1     171.602 161.582 152.950  1.00  0.00     0.031 A 
ATOM     13  C   UNL     1     172.166 160.375 152.487  1.00  0.00     0.132 A 
ATOM     14  C   UNL     1     170.558 161.558 153.888  1.00  0.00    -0.039 A 
ATOM     15  C   UNL     1     171.638 159.119 152.916  1.00  0.00     0.039 A 
ATOM     16  C   UNL     1     170.093 160.333 154.369  1.00  0.00     0.013 A 
ATOM     17  C   UNL     1     169.965 162.839 154.423  1.00  0.00     0.045 C 
ATOM     18  C   UNL     1     170.588 159.102 153.883  1.00  0.00    -0.006 A 
ATOM     19  C   UNL     1     172.159 157.878 152.444  1.00  0.00     0.072 A 
ATOM     20  C   UNL     1     170.086 157.858 154.376  1.00  0.00     0.008 A 
ATOM     21  C   UNL     1     171.770 156.675 153.060  1.00  0.00     0.169 A 
ATOM     22  C   UNL     1     170.802 156.678 154.079  1.00  0.00     0.162 A 
BRANCH  13  23
ATOM     23  O   UNL     1     173.275 160.422 151.636  1.00  0.00    -0.507 OA
ATOM     24  H   UNL     1     173.837 161.250 151.482  1.00  0.00     0.293 HD
ENDBRANCH  13  23
BRANCH  19  25
ATOM     25  C   UNL     1     173.044 157.793 151.257  1.00  0.00     0.264 C 
ATOM     26  O   UNL     1     174.297 157.756 151.379  1.00  0.00    -0.298 OA
ENDBRANCH  19  25
BRANCH  20  27
ATOM     27  C   UNL     1     168.829 157.783 155.262  1.00  0.00     0.017 C 
ATOM     28  C   UNL     1     169.203 157.536 156.726  1.00  0.00     0.012 C 
ATOM     29  C   UNL     1     167.782 156.764 154.772  1.00  0.00     0.012 C 
ENDBRANCH  20  27
BRANCH  21  30
ATOM     30  O   UNL     1     172.327 155.473 152.604  1.00  0.00    -0.504 OA
ATOM     31  H   UNL     1     172.599 155.303 151.645  1.00  0.00     0.293 HD
ENDBRANCH  21  30
BRANCH  22  32
ATOM     32  O   UNL     1     170.541 155.519 154.815  1.00  0.00    -0.504 OA
ATOM     33  H   UNL     1     171.178 154.737 154.886  1.00  0.00     0.293 HD
ENDBRANCH  22  32
ENDBRANCH  11  12
BRANCH  10  34
ATOM     34  O   UNL     1     173.478 163.060 154.489  1.00  0.00    -0.507 OA
ATOM     35  H   UNL     1     174.082 163.544 155.141  1.00  0.00     0.293 HD
ENDBRANCH  10  34
BRANCH   9  36
ATOM     36  C   UNL     1     173.254 167.213 149.739  1.00  0.00     0.017 C 
ATOM     37  C   UNL     1     172.164 168.282 149.869  1.00  0.00     0.012 C 
ATOM     38  C   UNL     1     174.455 167.735 148.928  1.00  0.00     0.012 C 
ENDBRANCH   9  36
BRANCH   6  39
ATOM     39  C   UNL     1     175.471 164.837 154.560  1.00  0.00     0.264 C 
ATOM     40  O   UNL     1     175.263 165.107 155.773  1.00  0.00    -0.298 OA
ENDBRANCH   6  39
BRANCH   8  41
ATOM     41  O   UNL     1     174.659 168.755 151.717  1.00  0.00    -0.504 OA
ATOM     42  H   UNL     1     175.449 169.286 152.057  1.00  0.00     0.293 HD
ENDBRANCH   8  41
BRANCH   7  43
ATOM     43  O   UNL     1     176.025 167.466 153.849  1.00  0.00    -0.504 OA
ATOM     44  H   UNL     1     176.394 168.375 153.607  1.00  0.00     0.293 HD
ENDBRANCH   7  43
TORSDOF 11
ENDMDL
MODEL 5
REMARK VINA RESULT:    -4.747      2.400      8.394
REMARK INTER + INTRA:          -8.256
REMARK INTER:                  -7.255
REMARK INTRA:                  -1.001
REMARK UNBOUND:                -1.289
REMARK SMILES Cc1cc2c(C(C)C)c(O)c(O)c(C=O)c2c(O)c1-c1c(C)cc2c(C(C)C)c(O)c(O)c(C=O)c2c1O
REMARK SMILES IDX 1 1 2 2 3 3 4 4 16 5 13 6 11 7 9 8 5 9 17 10 19 11 20 12
REMARK SMILES IDX 37 13 21 14 36 15 23 16 22 17 24 18 33 19 25 20 31 21 29 22
REMARK SMILES IDX 38 23 34 25 35 26 26 27 27 28 28 29 32 30 30 32 18 34 6 36
REMARK SMILES IDX 7 37 8 38 14 39 15 40 10 41 12 43
REMARK H PARENT 38 24 32 31 30 33 18 35 10 42 12 44
REMARK Flexibility Score: inf
ROOT
ATOM      1  C   UNL     1     170.647 163.098 155.225  1.00  0.00     0.045 C 
ATOM      2  C   UNL     1     171.068 161.862 154.466  1.00  0.00    -0.039 A 
ATOM      3  C   UNL     1     170.836 160.606 155.029  1.00  0.00     0.013 A 
ATOM      4  C   UNL     1     171.221 159.413 154.379  1.00  0.00    -0.006 A 
ATOM      5  C   UNL     1     171.788 159.497 153.070  1.00  0.00     0.039 A 
ATOM      6  C   UNL     1     172.158 158.294 152.401  1.00  0.00     0.072 A 
ATOM      7  C   UNL     1     171.794 157.049 152.945  1.00  0.00     0.169 A 
ATOM      8  C   UNL     1     171.146 156.979 154.189  1.00  0.00     0.162 A 
ATOM      9  C   UNL     1     171.007 158.137 154.986  1.00  0.00     0.008 A 
ATOM     10  C   UNL     1     171.923 160.778 152.455  1.00  0.00     0.132 A 
ATOM     11  C   UNL     1     171.606 161.952 153.172  1.00  0.00     0.031 A 
ENDROOT
BRANCH  11  12
ATOM     12  C   UNL     1     171.805 163.285 152.544  1.00  0.00     0.031 A 
ATOM     13  C   UNL     1     173.016 163.985 152.729  1.00  0.00     0.132 A 
ATOM     14  C   UNL     1     170.795 163.828 151.736  1.00  0.00    -0.039 A 
ATOM     15  C   UNL     1     173.199 165.278 152.150  1.00  0.00     0.039 A 
ATOM     16  C   UNL     1     171.002 165.055 151.104  1.00  0.00     0.013 A 
ATOM     17  C   UNL     1     169.505 163.078 151.496  1.00  0.00     0.045 C 
ATOM     18  C   UNL     1     172.174 165.815 151.315  1.00  0.00    -0.006 A 
ATOM     19  C   UNL     1     174.395 166.031 152.342  1.00  0.00     0.072 A 
ATOM     20  C   UNL     1     172.360 167.078 150.673  1.00  0.00     0.008 A 
ATOM     21  C   UNL     1     174.627 167.186 151.575  1.00  0.00     0.169 A 
ATOM     22  C   UNL     1     173.648 167.656 150.683  1.00  0.00     0.162 A 
BRANCH  13  23
ATOM     23  O   UNL     1     174.051 163.380 153.450  1.00  0.00    -0.507 OA
ATOM     24  H   UNL     1     174.089 162.391 153.664  1.00  0.00     0.293 HD
ENDBRANCH  13  23
BRANCH  19  25
ATOM     25  C   UNL     1     175.383 165.688 153.394  1.00  0.00     0.264 C 
ATOM     26  O   UNL     1     175.177 165.978 154.602  1.00  0.00    -0.298 OA
ENDBRANCH  19  25
BRANCH  20  27
ATOM     27  C   UNL     1     171.213 167.788 149.929  1.00  0.00     0.017 C 
ATOM     28  C   UNL     1     170.219 168.405 150.917  1.00  0.00     0.012 C 
ATOM     29  C   UNL     1     170.497 166.899 148.895  1.00  0.00     0.012 C 
ENDBRANCH  20  27
BRANCH  21  30
ATOM     30  O   UNL     1     175.829 167.884 151.755  1.00  0.00    -0.504 OA
ATOM     31  H   UNL     1     176.316 168.373 151.017  1.00  0.00     0.293 HD
ENDBRANCH  21  30
BRANCH  22  32
ATOM     32  O   UNL     1     173.938 168.692 149.791  1.00  0.00    -0.504 OA
ATOM     33  H   UNL     1     174.585 169.444 149.986  1.00  0.00     0.293 HD
ENDBRANCH  22  32
ENDBRANCH  11  12
BRANCH  10  34
ATOM     34  O   UNL     1     172.328 160.883 151.121  1.00  0.00    -0.507 OA
ATOM     35  H   UNL     1     173.168 161.361 150.820  1.00  0.00     0.293 HD
ENDBRANCH  10  34
BRANCH   9  36
ATOM     36  C   UNL     1     170.587 158.001 156.461  1.00  0.00     0.017 C 
ATOM     37  C   UNL     1     169.090 157.697 156.578  1.00  0.00     0.012 C 
ATOM     38  C   UNL     1     171.427 156.985 157.257  1.00  0.00     0.012 C 
ENDBRANCH   9  36
BRANCH   6  39
ATOM     39  C   UNL     1     173.001 158.299 151.180  1.00  0.00     0.264 C 
ATOM     40  O   UNL     1     174.249 158.142 151.247  1.00  0.00    -0.298 OA
ENDBRANCH   6  39
BRANCH   8  41
ATOM     41  O   UNL     1     170.621 155.769 154.648  1.00  0.00    -0.504 OA
ATOM     42  H   UNL     1     170.776 154.878 154.199  1.00  0.00     0.293 HD
ENDBRANCH   8  41
BRANCH   7  43
ATOM     43  O   UNL     1     172.136 155.883 152.248  1.00  0.00    -0.504 OA
ATOM     44  H   UNL     1     171.754 155.630 151.348  1.00  0.00     0.293 HD
ENDBRANCH   7  43
TORSDOF 11
ENDMDL
MODEL 6
REMARK VINA RESULT:    -4.710      2.034      2.341
REMARK INTER + INTRA:          -8.201
REMARK INTER:                  -6.952
REMARK INTRA:                  -1.249
REMARK UNBOUND:                -1.289
REMARK SMILES Cc1cc2c(C(C)C)c(O)c(O)c(C=O)c2c(O)c1-c1c(C)cc2c(C(C)C)c(O)c(O)c(C=O)c2c1O
REMARK SMILES IDX 1 1 2 2 3 3 4 4 16 5 13 6 11 7 9 8 5 9 17 10 19 11 20 12
REMARK SMILES IDX 37 13 21 14 36 15 23 16 22 17 24 18 33 19 25 20 31 21 29 22
REMARK SMILES IDX 38 23 34 25 35 26 26 27 27 28 28 29 32 30 30 32 18 34 6 36
REMARK SMILES IDX 7 37 8 38 14 39 15 40 10 41 12 43
REMARK H PARENT 38 24 32 31 30 33 18 35 10 42 12 44
REMARK Flexibility Score: inf
ROOT
ATOM      1  C   UNL     1     172.648 162.834 156.504  1.00  0.00     0.045 C 
ATOM      2  C   UNL     1     172.848 163.501 155.165  1.00  0.00    -0.039 A 
ATOM      3  C   UNL     1     173.655 164.636 155.083  1.00  0.00     0.013 A 
ATOM      4  C   UNL     1     173.869 165.316 153.864  1.00  0.00    -0.006 A 
ATOM      5  C   UNL     1     173.307 164.773 152.668  1.00  0.00     0.039 A 
ATOM      6  C   UNL     1     173.538 165.444 151.432  1.00  0.00     0.072 A 
ATOM      7  C   UNL     1     174.457 166.508 151.372  1.00  0.00     0.169 A 
ATOM      8  C   UNL     1     175.083 166.973 152.541  1.00  0.00     0.162 A 
ATOM      9  C   UNL     1     174.671 166.498 153.806  1.00  0.00     0.008 A 
ATOM     10  C   UNL     1     172.572 163.552 152.742  1.00  0.00     0.132 A 
ATOM     11  C   UNL     1     172.310 162.950 153.991  1.00  0.00     0.031 A 
ENDROOT
BRANCH  11  12
ATOM     12  C   UNL     1     171.493 161.709 154.063  1.00  0.00     0.031 A 
ATOM     13  C   UNL     1     172.109 160.444 153.949  1.00  0.00     0.132 A 
ATOM     14  C   UNL     1     170.110 161.801 154.281  1.00  0.00    -0.039 A 
ATOM     15  C   UNL     1     171.324 159.252 153.990  1.00  0.00     0.039 A 
ATOM     16  C   UNL     1     169.352 160.635 154.400  1.00  0.00     0.013 A 
ATOM     17  C   UNL     1     169.438 163.144 154.441  1.00  0.00     0.045 C 
ATOM     18  C   UNL     1     169.920 159.354 154.229  1.00  0.00    -0.006 A 
ATOM     19  C   UNL     1     171.905 157.957 153.845  1.00  0.00     0.072 A 
ATOM     20  C   UNL     1     169.124 158.172 154.338  1.00  0.00     0.008 A 
ATOM     21  C   UNL     1     171.140 156.810 154.118  1.00  0.00     0.169 A 
ATOM     22  C   UNL     1     169.778 156.926 154.447  1.00  0.00     0.162 A 
BRANCH  13  23
ATOM     23  O   UNL     1     173.502 160.370 153.839  1.00  0.00    -0.507 OA
ATOM     24  H   UNL     1     174.116 160.094 154.595  1.00  0.00     0.293 HD
ENDBRANCH  13  23
BRANCH  19  25
ATOM     25  C   UNL     1     173.281 157.763 153.327  1.00  0.00     0.264 C 
ATOM     26  O   UNL     1     173.508 157.013 152.341  1.00  0.00    -0.298 OA
ENDBRANCH  19  25
BRANCH  20  27
ATOM     27  C   UNL     1     167.586 158.232 154.395  1.00  0.00     0.017 C 
ATOM     28  C   UNL     1     167.073 157.831 155.781  1.00  0.00     0.012 C 
ATOM     29  C   UNL     1     166.889 157.423 153.285  1.00  0.00     0.012 C 
ENDBRANCH  20  27
BRANCH  21  30
ATOM     30  O   UNL     1     171.746 155.552 154.007  1.00  0.00    -0.504 OA
ATOM     31  H   UNL     1     172.729 155.412 153.817  1.00  0.00     0.293 HD
ENDBRANCH  21  30
BRANCH  22  32
ATOM     32  O   UNL     1     169.057 155.814 154.893  1.00  0.00    -0.504 OA
ATOM     33  H   UNL     1     168.227 155.458 154.441  1.00  0.00     0.293 HD
ENDBRANCH  22  32
ENDBRANCH  11  12
BRANCH  10  34
ATOM     34  O   UNL     1     172.143 162.914 151.573  1.00  0.00    -0.507 OA
ATOM     35  H   UNL     1     172.259 163.298 150.644  1.00  0.00     0.293 HD
ENDBRANCH  10  34
BRANCH   9  36
ATOM     36  C   UNL     1     175.131 167.229 155.081  1.00  0.00     0.017 C 
ATOM     37  C   UNL     1     173.936 167.819 155.836  1.00  0.00     0.012 C 
ATOM     38  C   UNL     1     176.009 166.368 156.009  1.00  0.00     0.012 C 
ENDBRANCH   9  36
BRANCH   6  39
ATOM     39  C   UNL     1     172.772 165.119 150.204  1.00  0.00     0.264 C 
ATOM     40  O   UNL     1     173.311 164.514 149.239  1.00  0.00    -0.298 OA
ENDBRANCH   6  39
BRANCH   8  41
ATOM     41  O   UNL     1     176.125 167.899 152.467  1.00  0.00    -0.504 OA
ATOM     42  H   UNL     1     176.741 167.996 151.672  1.00  0.00     0.293 HD
ENDBRANCH   8  41
BRANCH   7  43
ATOM     43  O   UNL     1     174.694 167.125 150.138  1.00  0.00    -0.504 OA
ATOM     44  H   UNL     1     174.398 166.745 149.250  1.00  0.00     0.293 HD
ENDBRANCH   7  43
TORSDOF 11
ENDMDL
MODEL 7
REMARK VINA RESULT:    -4.619      1.329      9.191
REMARK INTER + INTRA:          -8.069
REMARK INTER:                  -6.632
REMARK INTRA:                  -1.437
REMARK UNBOUND:                -1.289
REMARK SMILES Cc1cc2c(C(C)C)c(O)c(O)c(C=O)c2c(O)c1-c1c(C)cc2c(C(C)C)c(O)c(O)c(C=O)c2c1O
REMARK SMILES IDX 1 1 2 2 3 3 4 4 16 5 13 6 11 7 9 8 5 9 17 10 19 11 20 12
REMARK SMILES IDX 37 13 21 14 36 15 23 16 22 17 24 18 33 19 25 20 31 21 29 22
REMARK SMILES IDX 38 23 34 25 35 26 26 27 27 28 28 29 32 30 30 32 18 34 6 36
REMARK SMILES IDX 7 37 8 38 14 39 15 40 10 41 12 43
REMARK H PARENT 38 24 32 31 30 33 18 35 10 42 12 44
REMARK Flexibility Score: inf
ROOT
ATOM      1  C   UNL     1     169.720 163.988 153.346  1.00  0.00     0.045 C 
ATOM      2  C   UNL     1     170.269 162.583 153.270  1.00  0.00    -0.039 A 
ATOM      3  C   UNL     1     169.443 161.554 152.815  1.00  0.00     0.013 A 
ATOM      4  C   UNL     1     169.891 160.216 152.736  1.00  0.00    -0.006 A 
ATOM      5  C   UNL     1     171.254 159.929 153.052  1.00  0.00     0.039 A 
ATOM      6  C   UNL     1     171.716 158.584 152.953  1.00  0.00     0.072 A 
ATOM      7  C   UNL     1     170.893 157.601 152.374  1.00  0.00     0.169 A 
ATOM      8  C   UNL     1     169.584 157.917 151.972  1.00  0.00     0.162 A 
ATOM      9  C   UNL     1     169.020 159.169 152.302  1.00  0.00     0.008 A 
ATOM     10  C   UNL     1     172.122 161.004 153.413  1.00  0.00     0.132 A 
ATOM     11  C   UNL     1     171.615 162.312 153.562  1.00  0.00     0.031 A 
ENDROOT
BRANCH  11  12
ATOM     12  C   UNL     1     172.515 163.414 153.995  1.00  0.00     0.031 A 
ATOM     13  C   UNL     1     173.181 164.207 153.036  1.00  0.00     0.132 A 
ATOM     14  C   UNL     1     172.669 163.686 155.362  1.00  0.00    -0.039 A 
ATOM     15  C   UNL     1     174.067 165.248 153.448  1.00  0.00     0.039 A 
ATOM     16  C   UNL     1     173.473 164.753 155.767  1.00  0.00     0.013 A 
ATOM     17  C   UNL     1     171.937 162.873 156.403  1.00  0.00     0.045 C 
ATOM     18  C   UNL     1     174.206 165.529 154.841  1.00  0.00    -0.006 A 
ATOM     19  C   UNL     1     174.785 166.048 152.510  1.00  0.00     0.072 A 
ATOM     20  C   UNL     1     175.037 166.607 155.276  1.00  0.00     0.008 A 
ATOM     21  C   UNL     1     175.462 167.201 152.945  1.00  0.00     0.169 A 
ATOM     22  C   UNL     1     175.513 167.523 154.312  1.00  0.00     0.162 A 
BRANCH  13  23
ATOM     23  O   UNL     1     172.931 163.989 151.677  1.00  0.00    -0.507 OA
ATOM     24  H   UNL     1     173.511 164.348 150.929  1.00  0.00     0.293 HD
ENDBRANCH  13  23
BRANCH  19  25
ATOM     25  C   UNL     1     174.919 165.663 151.084  1.00  0.00     0.264 C 
ATOM     26  O   UNL     1     174.364 166.332 150.173  1.00  0.00    -0.298 OA
ENDBRANCH  19  25
BRANCH  20  27
ATOM     27  C   UNL     1     175.375 166.823 156.763  1.00  0.00     0.017 C 
ATOM     28  C   UNL     1     176.113 165.611 157.339  1.00  0.00     0.012 C 
ATOM     29  C   UNL     1     174.158 167.202 157.629  1.00  0.00     0.012 C 
ENDBRANCH  20  27
BRANCH  21  30
ATOM     30  O   UNL     1     176.125 167.991 151.997  1.00  0.00    -0.504 OA
ATOM     31  H   UNL     1     175.814 168.907 151.705  1.00  0.00     0.293 HD
ENDBRANCH  21  30
BRANCH  22  32
ATOM     32  O   UNL     1     176.026 168.752 154.734  1.00  0.00    -0.504 OA
ATOM     33  H   UNL     1     176.905 169.139 154.418  1.00  0.00     0.293 HD
ENDBRANCH  22  32
ENDBRANCH  11  12
BRANCH  10  34
ATOM     34  O   UNL     1     173.493 160.780 153.577  1.00  0.00    -0.507 OA
ATOM     35  H   UNL     1     174.213 161.394 153.218  1.00  0.00     0.293 HD
ENDBRANCH  10  34
BRANCH   9  36
ATOM     36  C   UNL     1     167.505 159.389 152.140  1.00  0.00     0.017 C 
ATOM     37  C   UNL     1     167.121 159.491 150.660  1.00  0.00     0.012 C 
ATOM     38  C   UNL     1     166.642 158.342 152.871  1.00  0.00     0.012 C 
ENDBRANCH   9  36
BRANCH   6  39
ATOM     39  C   UNL     1     173.015 158.153 153.525  1.00  0.00     0.264 C 
ATOM     40  O   UNL     1     174.031 158.001 152.797  1.00  0.00    -0.298 OA
ENDBRANCH   6  39
BRANCH   8  41
ATOM     41  O   UNL     1     168.829 157.003 151.234  1.00  0.00    -0.504 OA
ATOM     42  H   UNL     1     169.036 156.016 151.173  1.00  0.00     0.293 HD
ENDBRANCH   8  41
BRANCH   7  43
ATOM     43  O   UNL     1     171.385 156.296 152.253  1.00  0.00    -0.504 OA
ATOM     44  H   UNL     1     171.696 155.735 153.034  1.00  0.00     0.293 HD
ENDBRANCH   7  43
TORSDOF 11
ENDMDL
MODEL 8
REMARK VINA RESULT:    -4.540      2.064      2.956
REMARK INTER + INTRA:          -7.952
REMARK INTER:                  -6.866
REMARK INTRA:                  -1.086
REMARK UNBOUND:                -1.289
REMARK SMILES Cc1cc2c(C(C)C)c(O)c(O)c(C=O)c2c(O)c1-c1c(C)cc2c(C(C)C)c(O)c(O)c(C=O)c2c1O
REMARK SMILES IDX 1 1 2 2 3 3 4 4 16 5 13 6 11 7 9 8 5 9 17 10 19 11 20 12
REMARK SMILES IDX 37 13 21 14 36 15 23 16 22 17 24 18 33 19 25 20 31 21 29 22
REMARK SMILES IDX 38 23 34 25 35 26 26 27 27 28 28 29 32 30 30 32 18 34 6 36
REMARK SMILES IDX 7 37 8 38 14 39 15 40 10 41 12 43
REMARK H PARENT 38 24 32 31 30 33 18 35 10 42 12 44
REMARK Flexibility Score: inf
ROOT
ATOM      1  C   UNL     1     171.211 162.260 156.815  1.00  0.00     0.045 C 
ATOM      2  C   UNL     1     172.084 163.342 156.226  1.00  0.00    -0.039 A 
ATOM      3  C   UNL     1     172.663 164.287 157.075  1.00  0.00     0.013 A 
ATOM      4  C   UNL     1     173.476 165.333 156.587  1.00  0.00    -0.006 A 
ATOM      5  C   UNL     1     173.778 165.372 155.191  1.00  0.00     0.039 A 
ATOM      6  C   UNL     1     174.615 166.415 154.696  1.00  0.00     0.072 A 
ATOM      7  C   UNL     1     175.278 167.268 155.596  1.00  0.00     0.169 A 
ATOM      8  C   UNL     1     175.052 167.158 156.978  1.00  0.00     0.162 A 
ATOM      9  C   UNL     1     174.032 166.312 157.467  1.00  0.00     0.008 A 
ATOM     10  C   UNL     1     173.270 164.341 154.344  1.00  0.00     0.132 A 
ATOM     11  C   UNL     1     172.393 163.362 154.857  1.00  0.00     0.031 A 
ENDROOT
BRANCH  11  12
ATOM     12  C   UNL     1     171.823 162.326 153.955  1.00  0.00     0.031 A 
ATOM     13  C   UNL     1     172.413 161.047 153.878  1.00  0.00     0.132 A 
ATOM     14  C   UNL     1     170.673 162.617 153.206  1.00  0.00    -0.039 A 
ATOM     15  C   UNL     1     171.885 160.059 152.992  1.00  0.00     0.039 A 
ATOM     16  C   UNL     1     170.108 161.628 152.399  1.00  0.00     0.013 A 
ATOM     17  C   UNL     1     170.005 163.968 153.302  1.00  0.00     0.045 C 
ATOM     18  C   UNL     1     170.704 160.357 152.247  1.00  0.00    -0.006 A 
ATOM     19  C   UNL     1     172.474 158.767 152.861  1.00  0.00     0.072 A 
ATOM     20  C   UNL     1     170.120 159.363 151.402  1.00  0.00     0.008 A 
ATOM     21  C   UNL     1     171.795 157.755 152.159  1.00  0.00     0.169 A 
ATOM     22  C   UNL     1     170.582 158.033 151.505  1.00  0.00     0.162 A 
BRANCH  13  23
ATOM     23  O   UNL     1     173.495 160.743 154.711  1.00  0.00    -0.507 OA
ATOM     24  H   UNL     1     173.977 159.852 154.711  1.00  0.00     0.293 HD
ENDBRANCH  13  23
BRANCH  19  25
ATOM     25  C   UNL     1     173.832 158.462 153.372  1.00  0.00     0.264 C 
ATOM     26  O   UNL     1     174.751 158.086 152.597  1.00  0.00    -0.298 OA
ENDBRANCH  19  25
BRANCH  20  27
ATOM     27  C   UNL     1     168.971 159.696 150.432  1.00  0.00     0.017 C 
ATOM     28  C   UNL     1     169.412 160.733 149.394  1.00  0.00     0.012 C 
ATOM     29  C   UNL     1     167.668 160.126 151.134  1.00  0.00     0.012 C 
ENDBRANCH  20  27
BRANCH  21  30
ATOM     30  O   UNL     1     172.377 156.483 152.080  1.00  0.00    -0.504 OA
ATOM     31  H   UNL     1     173.061 156.214 151.387  1.00  0.00     0.293 HD
ENDBRANCH  21  30
BRANCH  22  32
ATOM     32  O   UNL     1     169.815 157.000 150.960  1.00  0.00    -0.504 OA
ATOM     33  H   UNL     1     169.016 156.585 151.418  1.00  0.00     0.293 HD
ENDBRANCH  22  32
ENDBRANCH  11  12
BRANCH  10  34
ATOM     34  O   UNL     1     173.673 164.263 153.006  1.00  0.00    -0.507 OA
ATOM     35  H   UNL     1     174.403 163.647 152.671  1.00  0.00     0.293 HD
ENDBRANCH  10  34
BRANCH   9  36
ATOM     36  C   UNL     1     173.583 166.431 158.935  1.00  0.00     0.017 C 
ATOM     37  C   UNL     1     172.083 166.731 159.026  1.00  0.00     0.012 C 
ATOM     38  C   UNL     1     173.963 165.215 159.802  1.00  0.00     0.012 C 
ENDBRANCH   9  36
BRANCH   6  39
ATOM     39  C   UNL     1     174.749 166.696 153.245  1.00  0.00     0.264 C 
ATOM     40  O   UNL     1     175.855 166.575 152.655  1.00  0.00    -0.298 OA
ENDBRANCH   6  39
BRANCH   8  41
ATOM     41  O   UNL     1     175.838 167.872 157.885  1.00  0.00    -0.504 OA
ATOM     42  H   UNL     1     176.039 167.564 158.826  1.00  0.00     0.293 HD
ENDBRANCH   8  41
BRANCH   7  43
ATOM     43  O   UNL     1     176.125 168.260 155.085  1.00  0.00    -0.504 OA
ATOM     44  H   UNL     1     176.608 168.939 155.655  1.00  0.00     0.293 HD
ENDBRANCH   7  43
TORSDOF 11
ENDMDL
MODEL 9
REMARK VINA RESULT:    -4.440      3.753      5.598
REMARK INTER + INTRA:          -7.805
REMARK INTER:                  -6.606
REMARK INTRA:                  -1.200
REMARK UNBOUND:                -1.289
REMARK SMILES Cc1cc2c(C(C)C)c(O)c(O)c(C=O)c2c(O)c1-c1c(C)cc2c(C(C)C)c(O)c(O)c(C=O)c2c1O
REMARK SMILES IDX 1 1 2 2 3 3 4 4 16 5 13 6 11 7 9 8 5 9 17 10 19 11 20 12
REMARK SMILES IDX 37 13 21 14 36 15 23 16 22 17 24 18 33 19 25 20 31 21 29 22
REMARK SMILES IDX 38 23 34 25 35 26 26 27 27 28 28 29 32 30 30 32 18 34 6 36
REMARK SMILES IDX 7 37 8 38 14 39 15 40 10 41 12 43
REMARK H PARENT 38 24 32 31 30 33 18 35 10 42 12 44
REMARK Flexibility Score: inf
ROOT
ATOM      1  C   UNL     1     172.928 160.640 156.145  1.00  0.00     0.045 C 
ATOM      2  C   UNL     1     172.303 161.028 154.827  1.00  0.00    -0.039 A 
ATOM      3  C   UNL     1     172.652 162.246 154.240  1.00  0.00     0.013 A 
ATOM      4  C   UNL     1     172.092 162.675 153.017  1.00  0.00    -0.006 A 
ATOM      5  C   UNL     1     171.205 161.795 152.323  1.00  0.00     0.039 A 
ATOM      6  C   UNL     1     170.653 162.215 151.078  1.00  0.00     0.072 A 
ATOM      7  C   UNL     1     171.125 163.388 150.462  1.00  0.00     0.169 A 
ATOM      8  C   UNL     1     172.074 164.198 151.108  1.00  0.00     0.162 A 
ATOM      9  C   UNL     1     172.434 163.941 152.449  1.00  0.00     0.008 A 
ATOM     10  C   UNL     1     170.936 160.506 152.875  1.00  0.00     0.132 A 
ATOM     11  C   UNL     1     171.449 160.150 154.140  1.00  0.00     0.031 A 
ENDROOT
BRANCH  11  12
ATOM     12  C   UNL     1     171.116 158.827 154.733  1.00  0.00     0.031 A 
ATOM     13  C   UNL     1     171.870 157.684 154.392  1.00  0.00     0.132 A 
ATOM     14  C   UNL     1     170.070 158.729 155.663  1.00  0.00    -0.039 A 
ATOM     15  C   UNL     1     171.535 156.408 154.939  1.00  0.00     0.039 A 
ATOM     16  C   UNL     1     169.791 157.498 156.259  1.00  0.00     0.013 A 
ATOM     17  C   UNL     1     169.275 159.947 156.069  1.00  0.00     0.045 C 
ATOM     18  C   UNL     1     170.481 156.319 155.897  1.00  0.00    -0.006 A 
ATOM     19  C   UNL     1     172.251 155.224 154.592  1.00  0.00     0.072 A 
ATOM     20  C   UNL     1     170.168 155.064 156.506  1.00  0.00     0.008 A 
ATOM     21  C   UNL     1     172.041 154.039 155.319  1.00  0.00     0.169 A 
ATOM     22  C   UNL     1     171.064 153.987 156.328  1.00  0.00     0.162 A 
BRANCH  13  23
ATOM     23  O   UNL     1     172.976 157.823 153.546  1.00  0.00    -0.507 OA
ATOM     24  H   UNL     1     173.428 157.050 153.074  1.00  0.00     0.293 HD
ENDBRANCH  13  23
BRANCH  19  25
ATOM     25  C   UNL     1     173.162 155.166 153.423  1.00  0.00     0.264 C 
ATOM     26  O   UNL     1     172.993 154.319 152.506  1.00  0.00    -0.298 OA
ENDBRANCH  19  25
BRANCH  20  27
ATOM     27  C   UNL     1     168.920 154.878 157.388  1.00  0.00     0.017 C 
ATOM     28  C   UNL     1     169.299 154.825 158.871  1.00  0.00     0.012 C 
ATOM     29  C   UNL     1     168.050 153.671 156.989  1.00  0.00     0.012 C 
ENDBRANCH  20  27
BRANCH  21  30
ATOM     30  O   UNL     1     172.787 152.901 154.984  1.00  0.00    -0.504 OA
ATOM     31  H   UNL     1     173.175 152.728 154.068  1.00  0.00     0.293 HD
ENDBRANCH  21  30
BRANCH  22  32
ATOM     32  O   UNL     1     170.972 152.877 157.172  1.00  0.00    -0.504 OA
ATOM     33  H   UNL     1     171.454 152.796 158.057  1.00  0.00     0.293 HD
ENDBRANCH  22  32
ENDBRANCH  11  12
BRANCH  10  34
ATOM     34  O   UNL     1     170.200 159.565 152.147  1.00  0.00    -0.507 OA
ATOM     35  H   UNL     1     169.546 158.914 152.563  1.00  0.00     0.293 HD
ENDBRANCH  10  34
BRANCH   9  36
ATOM     36  C   UNL     1     173.221 164.999 153.243  1.00  0.00     0.017 C 
ATOM     37  C   UNL     1     172.597 165.224 154.624  1.00  0.00     0.012 C 
ATOM     38  C   UNL     1     174.729 164.700 153.354  1.00  0.00     0.012 C 
ENDBRANCH   9  36
BRANCH   6  39
ATOM     39  C   UNL     1     169.522 161.501 150.436  1.00  0.00     0.264 C 
ATOM     40  O   UNL     1     169.693 160.803 149.401  1.00  0.00    -0.298 OA
ENDBRANCH   6  39
BRANCH   8  41
ATOM     41  O   UNL     1     172.680 165.259 150.432  1.00  0.00    -0.504 OA
ATOM     42  H   UNL     1     172.221 165.814 149.722  1.00  0.00     0.293 HD
ENDBRANCH   8  41
BRANCH   7  43
ATOM     43  O   UNL     1     170.594 163.758 149.220  1.00  0.00    -0.504 OA
ATOM     44  H   UNL     1     169.698 164.211 149.100  1.00  0.00     0.293 HD
ENDBRANCH   7  43
TORSDOF 11
ENDMDL
