MODEL 1
REMARK VINA RESULT:    -5.969      0.000      0.000
REMARK INTER + INTRA:          -5.969
REMARK INTER:                  -5.969
REMARK INTRA:                   0.000
REMARK UNBOUND:                 0.000
REMARK SMILES C=C1CCC[C@]2(C)CC(=O)C(=C(C)C)C[C@@H]12
REMARK SMILES IDX 13 1 12 2 11 3 15 4 16 5 2 6 1 7 3 8 4 9 5 10 6 11 8 12 9 13
REMARK SMILES IDX 10 14 7 15 14 16
REMARK H PARENT
REMARK Flexibility Score: inf
ROOT
ATOM      1  C   UNL     1     -12.009  14.910 -30.092  1.00  0.00     0.039 C 
ATOM      2  C   UNL     1     -13.272  14.860 -30.922  1.00  0.00    -0.070 C 
ATOM      3  C   UNL     1     -14.431  14.338 -30.419  1.00  0.00    -0.006 C 
ATOM      4  C   UNL     1     -14.491  13.766 -29.009  1.00  0.00     0.047 C 
ATOM      5  C   UNL     1     -15.525  12.621 -28.869  1.00  0.00     0.025 C 
ATOM      6  C   UNL     1     -15.658  12.033 -27.465  1.00  0.00    -0.073 C 
ATOM      7  C   UNL     1     -14.953  12.459 -26.399  1.00  0.00     0.008 C 
ATOM      8  C   UNL     1     -16.615  10.875 -27.313  1.00  0.00     0.031 C 
ATOM      9  C   UNL     1     -17.992  11.246 -27.871  1.00  0.00     0.005 C 
ATOM     10  C   UNL     1     -17.895  11.801 -29.303  1.00  0.00     0.008 C 
ATOM     11  C   UNL     1     -16.929  13.019 -29.422  1.00  0.00    -0.018 C 
ATOM     12  C   UNL     1     -16.788  13.376 -30.922  1.00  0.00     0.088 C 
ATOM     13  C   UNL     1     -15.723  14.409 -31.160  1.00  0.00     0.159 C 
ATOM     14  O   UNL     1     -15.955  15.333 -31.985  1.00  0.00    -0.295 OA
ATOM     15  C   UNL     1     -17.528  14.232 -28.659  1.00  0.00     0.012 C 
ATOM     16  C   UNL     1     -13.181  15.377 -32.339  1.00  0.00     0.039 C 
ENDROOT
TORSDOF 0
ENDMDL
MODEL 2
REMARK VINA RESULT:    -5.872      1.236      1.405
REMARK INTER + INTRA:          -5.872
REMARK INTER:                  -5.872
REMARK INTRA:                   0.000
REMARK UNBOUND:                 0.000
REMARK SMILES C=C1CCC[C@]2(C)CC(=O)C(=C(C)C)C[C@@H]12
REMARK SMILES IDX 13 1 12 2 11 3 15 4 16 5 2 6 1 7 3 8 4 9 5 10 6 11 8 12 9 13
REMARK SMILES IDX 10 14 7 15 14 16
REMARK H PARENT
REMARK Flexibility Score: inf
ROOT
ATOM      1  C   UNL     1     -11.021  15.384 -30.528  1.00  0.00     0.039 C 
ATOM      2  C   UNL     1     -12.207  14.953 -31.362  1.00  0.00    -0.070 C 
ATOM      3  C   UNL     1     -13.274  14.312 -30.798  1.00  0.00    -0.006 C 
ATOM      4  C   UNL     1     -13.302  13.987 -29.311  1.00  0.00     0.047 C 
ATOM      5  C   UNL     1     -14.113  12.706 -28.992  1.00  0.00     0.025 C 
ATOM      6  C   UNL     1     -14.209  12.350 -27.508  1.00  0.00    -0.073 C 
ATOM      7  C   UNL     1     -13.654  13.078 -26.520  1.00  0.00     0.008 C 
ATOM      8  C   UNL     1     -14.943  11.073 -27.173  1.00  0.00     0.031 C 
ATOM      9  C   UNL     1     -16.333  11.073 -27.816  1.00  0.00     0.005 C 
ATOM     10  C   UNL     1     -16.263  11.385 -29.321  1.00  0.00     0.008 C 
ATOM     11  C   UNL     1     -15.535  12.727 -29.634  1.00  0.00    -0.018 C 
ATOM     12  C   UNL     1     -15.382  12.845 -31.171  1.00  0.00     0.088 C 
ATOM     13  C   UNL     1     -14.516  14.007 -31.566  1.00  0.00     0.159 C 
ATOM     14  O   UNL     1     -14.870  14.716 -32.546  1.00  0.00    -0.295 OA
ATOM     15  C   UNL     1     -16.388  13.915 -29.110  1.00  0.00     0.012 C 
ATOM     16  C   UNL     1     -12.137  15.229 -32.846  1.00  0.00     0.039 C 
ENDROOT
TORSDOF 0
ENDMDL
MODEL 3
REMARK VINA RESULT:    -5.853     10.744     12.896
REMARK INTER + INTRA:          -5.853
REMARK INTER:                  -5.853
REMARK INTRA:                   0.000
REMARK UNBOUND:                 0.000
REMARK SMILES C=C1CCC[C@]2(C)CC(=O)C(=C(C)C)C[C@@H]12
REMARK SMILES IDX 13 1 12 2 11 3 15 4 16 5 2 6 1 7 3 8 4 9 5 10 6 11 8 12 9 13
REMARK SMILES IDX 10 14 7 15 14 16
REMARK H PARENT
REMARK Flexibility Score: inf
ROOT
ATOM      1  C   UNL     1     -28.718  16.534 -32.415  1.00  0.00     0.039 C 
ATOM      2  C   UNL     1     -29.543  15.349 -31.965  1.00  0.00    -0.070 C 
ATOM      3  C   UNL     1     -29.036  14.421 -31.100  1.00  0.00    -0.006 C 
ATOM      4  C   UNL     1     -27.612  14.531 -30.570  1.00  0.00     0.047 C 
ATOM      5  C   UNL     1     -26.976  13.152 -30.266  1.00  0.00     0.025 C 
ATOM      6  C   UNL     1     -25.559  13.202 -29.694  1.00  0.00    -0.073 C 
ATOM      7  C   UNL     1     -24.885  14.341 -29.447  1.00  0.00     0.008 C 
ATOM      8  C   UNL     1     -24.893  11.870 -29.443  1.00  0.00     0.031 C 
ATOM      9  C   UNL     1     -25.789  10.980 -28.579  1.00  0.00     0.005 C 
ATOM     10  C   UNL     1     -27.212  10.875 -29.155  1.00  0.00     0.008 C 
ATOM     11  C   UNL     1     -27.890  12.263 -29.366  1.00  0.00    -0.018 C 
ATOM     12  C   UNL     1     -29.235  12.035 -30.099  1.00  0.00     0.088 C 
ATOM     13  C   UNL     1     -29.872  13.326 -30.527  1.00  0.00     0.159 C 
ATOM     14  O   UNL     1     -31.116  13.462 -30.380  1.00  0.00    -0.295 OA
ATOM     15  C   UNL     1     -28.162  12.923 -27.986  1.00  0.00     0.012 C 
ATOM     16  C   UNL     1     -30.932  15.221 -32.547  1.00  0.00     0.039 C 
ENDROOT
TORSDOF 0
ENDMDL
MODEL 4
REMARK VINA RESULT:    -5.618      1.781      3.144
REMARK INTER + INTRA:          -5.618
REMARK INTER:                  -5.618
REMARK INTRA:                   0.000
REMARK UNBOUND:                 0.000
REMARK SMILES C=C1CCC[C@]2(C)CC(=O)C(=C(C)C)C[C@@H]12
REMARK SMILES IDX 13 1 12 2 11 3 15 4 16 5 2 6 1 7 3 8 4 9 5 10 6 11 8 12 9 13
REMARK SMILES IDX 10 14 7 15 14 16
REMARK H PARENT
REMARK Flexibility Score: inf
ROOT
ATOM      1  C   UNL     1     -13.123  15.243 -32.380  1.00  0.00     0.039 C 
ATOM      2  C   UNL     1     -12.738  14.768 -30.997  1.00  0.00    -0.070 C 
ATOM      3  C   UNL     1     -13.602  14.034 -30.233  1.00  0.00    -0.006 C 
ATOM      4  C   UNL     1     -14.996  13.685 -30.736  1.00  0.00     0.047 C 
ATOM      5  C   UNL     1     -16.031  13.552 -29.592  1.00  0.00     0.025 C 
ATOM      6  C   UNL     1     -17.443  13.164 -30.033  1.00  0.00    -0.073 C 
ATOM      7  C   UNL     1     -17.796  12.933 -31.312  1.00  0.00     0.008 C 
ATOM      8  C   UNL     1     -18.486  13.086 -28.944  1.00  0.00     0.031 C 
ATOM      9  C   UNL     1     -18.007  12.172 -27.813  1.00  0.00     0.005 C 
ATOM     10  C   UNL     1     -16.605  12.567 -27.317  1.00  0.00     0.008 C 
ATOM     11  C   UNL     1     -15.542  12.602 -28.455  1.00  0.00    -0.018 C 
ATOM     12  C   UNL     1     -14.226  13.170 -27.867  1.00  0.00     0.088 C 
ATOM     13  C   UNL     1     -13.197  13.431 -28.931  1.00  0.00     0.159 C 
ATOM     14  O   UNL     1     -11.999  13.117 -28.699  1.00  0.00    -0.295 OA
ATOM     15  C   UNL     1     -15.291  11.159 -28.976  1.00  0.00     0.012 C 
ATOM     16  C   UNL     1     -11.374  15.174 -30.489  1.00  0.00     0.039 C 
ENDROOT
TORSDOF 0
ENDMDL
MODEL 5
REMARK VINA RESULT:    -5.558      1.728      4.942
REMARK INTER + INTRA:          -5.558
REMARK INTER:                  -5.558
REMARK INTRA:                   0.000
REMARK UNBOUND:                 0.000
REMARK SMILES C=C1CCC[C@]2(C)CC(=O)C(=C(C)C)C[C@@H]12
REMARK SMILES IDX 13 1 12 2 11 3 15 4 16 5 2 6 1 7 3 8 4 9 5 10 6 11 8 12 9 13
REMARK SMILES IDX 10 14 7 15 14 16
REMARK H PARENT
REMARK Flexibility Score: inf
ROOT
ATOM      1  C   UNL     1     -14.421  10.875 -26.006  1.00  0.00     0.039 C 
ATOM      2  C   UNL     1     -15.562  11.636 -26.643  1.00  0.00    -0.070 C 
ATOM      3  C   UNL     1     -15.379  12.363 -27.785  1.00  0.00    -0.006 C 
ATOM      4  C   UNL     1     -14.012  12.454 -28.451  1.00  0.00     0.047 C 
ATOM      5  C   UNL     1     -13.795  13.794 -29.197  1.00  0.00     0.025 C 
ATOM      6  C   UNL     1     -12.454  13.927 -29.919  1.00  0.00    -0.073 C 
ATOM      7  C   UNL     1     -11.510  12.967 -29.939  1.00  0.00     0.008 C 
ATOM      8  C   UNL     1     -12.192  15.247 -30.604  1.00  0.00     0.031 C 
ATOM      9  C   UNL     1     -13.346  15.596 -31.547  1.00  0.00     0.005 C 
ATOM     10  C   UNL     1     -14.707  15.514 -30.835  1.00  0.00     0.008 C 
ATOM     11  C   UNL     1     -14.967  14.128 -30.171  1.00  0.00    -0.018 C 
ATOM     12  C   UNL     1     -16.279  14.225 -29.353  1.00  0.00     0.088 C 
ATOM     13  C   UNL     1     -16.513  13.002 -28.513  1.00  0.00     0.159 C 
ATOM     14  O   UNL     1     -17.679  12.529 -28.451  1.00  0.00    -0.295 OA
ATOM     15  C   UNL     1     -15.128  13.046 -31.274  1.00  0.00     0.012 C 
ATOM     16  C   UNL     1     -16.897  11.585 -25.937  1.00  0.00     0.039 C 
ENDROOT
TORSDOF 0
ENDMDL
MODEL 6
REMARK VINA RESULT:    -5.544      2.111      5.373
REMARK INTER + INTRA:          -5.544
REMARK INTER:                  -5.544
REMARK INTRA:                   0.000
REMARK UNBOUND:                 0.000
REMARK SMILES C=C1CCC[C@]2(C)CC(=O)C(=C(C)C)C[C@@H]12
REMARK SMILES IDX 13 1 12 2 11 3 15 4 16 5 2 6 1 7 3 8 4 9 5 10 6 11 8 12 9 13
REMARK SMILES IDX 10 14 7 15 14 16
REMARK H PARENT
REMARK Flexibility Score: inf
ROOT
ATOM      1  C   UNL     1     -18.818  13.150 -29.000  1.00  0.00     0.039 C 
ATOM      2  C   UNL     1     -17.779  12.189 -28.469  1.00  0.00    -0.070 C 
ATOM      3  C   UNL     1     -16.446  12.485 -28.522  1.00  0.00    -0.006 C 
ATOM      4  C   UNL     1     -15.952  13.787 -29.140  1.00  0.00     0.047 C 
ATOM      5  C   UNL     1     -14.549  13.654 -29.781  1.00  0.00     0.025 C 
ATOM      6  C   UNL     1     -13.984  14.941 -30.383  1.00  0.00    -0.073 C 
ATOM      7  C   UNL     1     -14.624  16.126 -30.366  1.00  0.00     0.008 C 
ATOM      8  C   UNL     1     -12.642  14.826 -31.067  1.00  0.00     0.031 C 
ATOM      9  C   UNL     1     -11.620  14.178 -30.130  1.00  0.00     0.005 C 
ATOM     10  C   UNL     1     -12.144  12.856 -29.542  1.00  0.00     0.008 C 
ATOM     11  C   UNL     1     -13.510  13.013 -28.808  1.00  0.00    -0.018 C 
ATOM     12  C   UNL     1     -14.008  11.601 -28.413  1.00  0.00     0.088 C 
ATOM     13  C   UNL     1     -15.412  11.625 -27.877  1.00  0.00     0.159 C 
ATOM     14  O   UNL     1     -15.685  10.917 -26.872  1.00  0.00    -0.295 OA
ATOM     15  C   UNL     1     -13.316  13.867 -27.525  1.00  0.00     0.012 C 
ATOM     16  C   UNL     1     -18.280  10.875 -27.915  1.00  0.00     0.039 C 
ENDROOT
TORSDOF 0
ENDMDL
MODEL 7
REMARK VINA RESULT:    -5.293      1.395      2.144
REMARK INTER + INTRA:          -5.293
REMARK INTER:                  -5.293
REMARK INTRA:                   0.000
REMARK UNBOUND:                 0.000
REMARK SMILES C=C1CCC[C@]2(C)CC(=O)C(=C(C)C)C[C@@H]12
REMARK SMILES IDX 13 1 12 2 11 3 15 4 16 5 2 6 1 7 3 8 4 9 5 10 6 11 8 12 9 13
REMARK SMILES IDX 10 14 7 15 14 16
REMARK H PARENT
REMARK Flexibility Score: inf
ROOT
ATOM      1  C   UNL     1     -12.566  12.704 -27.438  1.00  0.00     0.039 C 
ATOM      2  C   UNL     1     -13.200  13.452 -28.588  1.00  0.00    -0.070 C 
ATOM      3  C   UNL     1     -14.555  13.454 -28.772  1.00  0.00    -0.006 C 
ATOM      4  C   UNL     1     -15.478  12.685 -27.836  1.00  0.00     0.047 C 
ATOM      5  C   UNL     1     -16.761  12.179 -28.541  1.00  0.00     0.025 C 
ATOM      6  C   UNL     1     -17.746  11.432 -27.641  1.00  0.00    -0.073 C 
ATOM      7  C   UNL     1     -17.553  11.220 -26.325  1.00  0.00     0.008 C 
ATOM      8  C   UNL     1     -18.978  10.876 -28.315  1.00  0.00     0.031 C 
ATOM      9  C   UNL     1     -19.697  11.976 -29.100  1.00  0.00     0.005 C 
ATOM     10  C   UNL     1     -18.739  12.717 -30.049  1.00  0.00     0.008 C 
ATOM     11  C   UNL     1     -17.497  13.313 -29.320  1.00  0.00    -0.018 C 
ATOM     12  C   UNL     1     -16.535  13.881 -30.393  1.00  0.00     0.088 C 
ATOM     13  C   UNL     1     -15.217  14.299 -29.807  1.00  0.00     0.159 C 
ATOM     14  O   UNL     1     -14.698  15.378 -30.202  1.00  0.00    -0.295 OA
ATOM     15  C   UNL     1     -17.950  14.462 -28.377  1.00  0.00     0.012 C 
ATOM     16  C   UNL     1     -12.267  14.160 -29.543  1.00  0.00     0.039 C 
ENDROOT
TORSDOF 0
ENDMDL
MODEL 8
REMARK VINA RESULT:    -5.263      1.542      4.707
REMARK INTER + INTRA:          -5.263
REMARK INTER:                  -5.263
REMARK INTRA:                   0.000
REMARK UNBOUND:                 0.000
REMARK SMILES C=C1CCC[C@]2(C)CC(=O)C(=C(C)C)C[C@@H]12
REMARK SMILES IDX 13 1 12 2 11 3 15 4 16 5 2 6 1 7 3 8 4 9 5 10 6 11 8 12 9 13
REMARK SMILES IDX 10 14 7 15 14 16
REMARK H PARENT
REMARK Flexibility Score: inf
ROOT
ATOM      1  C   UNL     1     -17.822  10.875 -26.798  1.00  0.00     0.039 C 
ATOM      2  C   UNL     1     -18.081  11.594 -28.102  1.00  0.00    -0.070 C 
ATOM      3  C   UNL     1     -17.081  12.259 -28.756  1.00  0.00    -0.006 C 
ATOM      4  C   UNL     1     -15.671  12.320 -28.185  1.00  0.00     0.047 C 
ATOM      5  C   UNL     1     -14.921  13.618 -28.573  1.00  0.00     0.025 C 
ATOM      6  C   UNL     1     -13.485  13.718 -28.060  1.00  0.00    -0.073 C 
ATOM      7  C   UNL     1     -12.876  12.763 -27.331  1.00  0.00     0.008 C 
ATOM      8  C   UNL     1     -12.751  15.000 -28.374  1.00  0.00     0.031 C 
ATOM      9  C   UNL     1     -12.805  15.291 -29.876  1.00  0.00     0.005 C 
ATOM     10  C   UNL     1     -14.246  15.241 -30.413  1.00  0.00     0.008 C 
ATOM     11  C   UNL     1     -14.965  13.893 -30.109  1.00  0.00    -0.018 C 
ATOM     12  C   UNL     1     -16.445  14.027 -30.546  1.00  0.00     0.088 C 
ATOM     13  C   UNL     1     -17.272  12.850 -30.112  1.00  0.00     0.159 C 
ATOM     14  O   UNL     1     -18.114  12.375 -30.920  1.00  0.00    -0.295 OA
ATOM     15  C   UNL     1     -14.292  12.751 -30.919  1.00  0.00     0.012 C 
ATOM     16  C   UNL     1     -19.499  11.575 -28.625  1.00  0.00     0.039 C 
ENDROOT
TORSDOF 0
ENDMDL
MODEL 9
REMARK VINA RESULT:    -4.954      2.310      5.228
REMARK INTER + INTRA:          -4.954
REMARK INTER:                  -4.954
REMARK INTRA:                   0.000
REMARK UNBOUND:                 0.000
REMARK SMILES C=C1CCC[C@]2(C)CC(=O)C(=C(C)C)C[C@@H]12
REMARK SMILES IDX 13 1 12 2 11 3 15 4 16 5 2 6 1 7 3 8 4 9 5 10 6 11 8 12 9 13
REMARK SMILES IDX 10 14 7 15 14 16
REMARK H PARENT
REMARK Flexibility Score: inf
ROOT
ATOM      1  C   UNL     1     -20.397  13.962 -29.941  1.00  0.00     0.039 C 
ATOM      2  C   UNL     1     -19.786  12.731 -29.312  1.00  0.00    -0.070 C 
ATOM      3  C   UNL     1     -18.437  12.626 -29.123  1.00  0.00    -0.006 C 
ATOM      4  C   UNL     1     -17.492  13.739 -29.558  1.00  0.00     0.047 C 
ATOM      5  C   UNL     1     -16.093  13.213 -29.964  1.00  0.00     0.025 C 
ATOM      6  C   UNL     1     -15.087  14.289 -30.374  1.00  0.00    -0.073 C 
ATOM      7  C   UNL     1     -15.357  15.609 -30.382  1.00  0.00     0.008 C 
ATOM      8  C   UNL     1     -13.734  13.800 -30.831  1.00  0.00     0.031 C 
ATOM      9  C   UNL     1     -13.123  12.866 -29.783  1.00  0.00     0.005 C 
ATOM     10  C   UNL     1     -14.097  11.745 -29.384  1.00  0.00     0.008 C 
ATOM     11  C   UNL     1     -15.471  12.280 -28.879  1.00  0.00    -0.018 C 
ATOM     12  C   UNL     1     -16.412  11.067 -28.670  1.00  0.00     0.088 C 
ATOM     13  C   UNL     1     -17.823  11.491 -28.375  1.00  0.00     0.159 C 
ATOM     14  O   UNL     1     -18.462  10.875 -27.480  1.00  0.00    -0.295 OA
ATOM     15  C   UNL     1     -15.275  13.017 -27.526  1.00  0.00     0.012 C 
ATOM     16  C   UNL     1     -20.731  11.611 -28.941  1.00  0.00     0.039 C 
ENDROOT
TORSDOF 0
ENDMDL
