MODEL 1
REMARK VINA RESULT:    -6.125      0.000      0.000
REMARK INTER + INTRA:          -8.805
REMARK INTER:                  -8.273
REMARK INTRA:                  -0.532
REMARK UNBOUND:                -0.532
REMARK SMILES CC(=O)OCC=C(C)CCC=C(C)C
REMARK SMILES IDX 7 1 6 2 8 3 9 4 10 5 11 6 13 7 12 8 14 9 5 10 4 11 2 12 3 13
REMARK SMILES IDX 1 14
REMARK H PARENT
REMARK Flexibility Score: inf
ROOT
ATOM      1  C   UNL     1      28.967   4.821  31.727  1.00  0.00    -0.074 C 
ATOM      2  C   UNL     1      27.877   4.120  31.343  1.00  0.00     0.013 C 
ATOM      3  C   UNL     1      30.365   4.295  31.511  1.00  0.00     0.039 C 
ENDROOT
BRANCH   1   4
ATOM      4  C   UNL     1      28.790   6.195  32.341  1.00  0.00     0.034 C 
BRANCH   4   5
ATOM      5  C   UNL     1      27.320   6.479  32.681  1.00  0.00     0.032 C 
BRANCH   5   6
ATOM      6  C   UNL     1      26.792   7.687  31.944  1.00  0.00    -0.028 C 
ATOM      7  C   UNL     1      26.348  10.065  31.519  1.00  0.00     0.039 C 
ATOM      8  C   UNL     1      26.980   8.967  32.334  1.00  0.00    -0.080 C 
ATOM      9  C   UNL     1      27.814   9.322  33.542  1.00  0.00     0.039 C 
ENDBRANCH   5   6
ENDBRANCH   4   5
ENDBRANCH   1   4
BRANCH   2  10
ATOM     10  C   UNL     1      27.941   2.762  30.700  1.00  0.00     0.260 C 
BRANCH  10  11
ATOM     11  O   UNL     1      27.339   2.811  29.411  1.00  0.00    -0.462 OA
BRANCH  11  12
ATOM     12  C   UNL     1      28.044   2.521  28.239  1.00  0.00     0.302 C 
ATOM     13  O   UNL     1      27.562   1.741  27.373  1.00  0.00    -0.253 OA
ATOM     14  C   UNL     1      29.399   3.105  28.035  1.00  0.00     0.139 C 
ENDBRANCH  11  12
ENDBRANCH  10  11
ENDBRANCH   2  10
TORSDOF 6
ENDMDL
MODEL 2
REMARK VINA RESULT:    -5.986      4.438      7.985
REMARK INTER + INTRA:          -8.617
REMARK INTER:                  -8.293
REMARK INTRA:                  -0.324
REMARK UNBOUND:                -0.532
REMARK SMILES CC(=O)OCC=C(C)CCC=C(C)C
REMARK SMILES IDX 7 1 6 2 8 3 9 4 10 5 11 6 13 7 12 8 14 9 5 10 4 11 2 12 3 13
REMARK SMILES IDX 1 14
REMARK H PARENT
REMARK Flexibility Score: inf
ROOT
ATOM      1  C   UNL     1      27.001   8.682  32.539  1.00  0.00    -0.074 C 
ATOM      2  C   UNL     1      27.704   9.034  33.638  1.00  0.00     0.013 C 
ATOM      3  C   UNL     1      26.442   9.715  31.590  1.00  0.00     0.039 C 
ENDROOT
BRANCH   1   4
ATOM      4  C   UNL     1      26.811   7.214  32.215  1.00  0.00     0.034 C 
BRANCH   4   5
ATOM      5  C   UNL     1      28.075   6.398  32.521  1.00  0.00     0.032 C 
BRANCH   5   6
ATOM      6  C   UNL     1      27.997   5.001  31.951  1.00  0.00    -0.028 C 
ATOM      7  C   UNL     1      28.796   2.958  30.847  1.00  0.00     0.039 C 
ATOM      8  C   UNL     1      29.043   4.328  31.423  1.00  0.00    -0.080 C 
ATOM      9  C   UNL     1      30.440   4.900  31.412  1.00  0.00     0.039 C 
ENDBRANCH   5   6
ENDBRANCH   4   5
ENDBRANCH   1   4
BRANCH   2  10
ATOM     10  C   UNL     1      27.974  10.459  34.036  1.00  0.00     0.260 C 
BRANCH  10  11
ATOM     11  O   UNL     1      28.369  10.510  35.403  1.00  0.00    -0.462 OA
BRANCH  11  12
ATOM     12  C   UNL     1      28.363  11.694  36.145  1.00  0.00     0.302 C 
ATOM     13  O   UNL     1      29.028  11.789  37.213  1.00  0.00    -0.253 OA
ATOM     14  C   UNL     1      27.524  12.840  35.693  1.00  0.00     0.139 C 
ENDBRANCH  11  12
ENDBRANCH  10  11
ENDBRANCH   2  10
TORSDOF 6
ENDMDL
MODEL 3
REMARK VINA RESULT:    -5.875      3.987      6.944
REMARK INTER + INTRA:          -8.468
REMARK INTER:                  -7.904
REMARK INTRA:                  -0.564
REMARK UNBOUND:                -0.532
REMARK SMILES CC(=O)OCC=C(C)CCC=C(C)C
REMARK SMILES IDX 7 1 6 2 8 3 9 4 10 5 11 6 13 7 12 8 14 9 5 10 4 11 2 12 3 13
REMARK SMILES IDX 1 14
REMARK H PARENT
REMARK Flexibility Score: inf
ROOT
ATOM      1  C   UNL     1      27.584   7.224  32.555  1.00  0.00    -0.074 C 
ATOM      2  C   UNL     1      28.882   7.388  32.895  1.00  0.00     0.013 C 
ATOM      3  C   UNL     1      26.539   8.261  32.892  1.00  0.00     0.039 C 
ENDROOT
BRANCH   1   4
ATOM      4  C   UNL     1      27.170   5.998  31.768  1.00  0.00     0.034 C 
BRANCH   4   5
ATOM      5  C   UNL     1      27.984   4.762  32.173  1.00  0.00     0.032 C 
BRANCH   5   6
ATOM      6  C   UNL     1      28.561   4.047  30.974  1.00  0.00    -0.028 C 
ATOM      7  C   UNL     1      30.292   3.296  29.400  1.00  0.00     0.039 C 
ATOM      8  C   UNL     1      29.875   4.011  30.660  1.00  0.00    -0.080 C 
ATOM      9  C   UNL     1      30.926   4.645  31.539  1.00  0.00     0.039 C 
ENDBRANCH   5   6
ENDBRANCH   4   5
ENDBRANCH   1   4
BRANCH   2  10
ATOM     10  C   UNL     1      29.404   8.578  33.651  1.00  0.00     0.260 C 
BRANCH  10  11
ATOM     11  O   UNL     1      30.660   8.260  34.241  1.00  0.00    -0.462 OA
BRANCH  11  12
ATOM     12  C   UNL     1      31.148   8.917  35.374  1.00  0.00     0.302 C 
ATOM     13  O   UNL     1      30.580   9.953  35.814  1.00  0.00    -0.253 OA
ATOM     14  C   UNL     1      32.382   8.411  36.041  1.00  0.00     0.139 C 
ENDBRANCH  11  12
ENDBRANCH  10  11
ENDBRANCH   2  10
TORSDOF 6
ENDMDL
MODEL 4
REMARK VINA RESULT:    -5.795      3.595      5.023
REMARK INTER + INTRA:          -8.360
REMARK INTER:                  -7.790
REMARK INTRA:                  -0.569
REMARK UNBOUND:                -0.532
REMARK SMILES CC(=O)OCC=C(C)CCC=C(C)C
REMARK SMILES IDX 7 1 6 2 8 3 9 4 10 5 11 6 13 7 12 8 14 9 5 10 4 11 2 12 3 13
REMARK SMILES IDX 1 14
REMARK H PARENT
REMARK Flexibility Score: inf
ROOT
ATOM      1  C   UNL     1      29.750   4.939  31.565  1.00  0.00    -0.074 C 
ATOM      2  C   UNL     1      30.406   6.002  32.081  1.00  0.00     0.013 C 
ATOM      3  C   UNL     1      30.475   3.849  30.812  1.00  0.00     0.039 C 
ENDROOT
BRANCH   1   4
ATOM      4  C   UNL     1      28.258   4.804  31.790  1.00  0.00     0.034 C 
BRANCH   4   5
ATOM      5  C   UNL     1      27.740   5.842  32.795  1.00  0.00     0.032 C 
BRANCH   5   6
ATOM      6  C   UNL     1      26.969   6.950  32.116  1.00  0.00    -0.028 C 
ATOM      7  C   UNL     1      26.225   9.248  31.672  1.00  0.00     0.039 C 
ATOM      8  C   UNL     1      27.102   8.264  32.402  1.00  0.00    -0.080 C 
ATOM      9  C   UNL     1      28.109   8.767  33.408  1.00  0.00     0.039 C 
ENDBRANCH   5   6
ENDBRANCH   4   5
ENDBRANCH   1   4
BRANCH   2  10
ATOM     10  C   UNL     1      31.887   6.220  31.940  1.00  0.00     0.260 C 
BRANCH  10  11
ATOM     11  O   UNL     1      32.566   5.646  33.052  1.00  0.00    -0.462 OA
BRANCH  11  12
ATOM     12  C   UNL     1      32.868   6.372  34.207  1.00  0.00     0.302 C 
ATOM     13  O   UNL     1      32.529   7.582  34.315  1.00  0.00    -0.253 OA
ATOM     14  C   UNL     1      33.642   5.722  35.302  1.00  0.00     0.139 C 
ENDBRANCH  11  12
ENDBRANCH  10  11
ENDBRANCH   2  10
TORSDOF 6
ENDMDL
MODEL 5
REMARK VINA RESULT:    -5.732      5.974      9.287
REMARK INTER + INTRA:          -8.274
REMARK INTER:                  -7.915
REMARK INTRA:                  -0.359
REMARK UNBOUND:                -0.532
REMARK SMILES CC(=O)OCC=C(C)CCC=C(C)C
REMARK SMILES IDX 7 1 6 2 8 3 9 4 10 5 11 6 13 7 12 8 14 9 5 10 4 11 2 12 3 13
REMARK SMILES IDX 1 14
REMARK H PARENT
REMARK Flexibility Score: inf
ROOT
ATOM      1  C   UNL     1      28.421  11.595  35.984  1.00  0.00    -0.074 C 
ATOM      2  C   UNL     1      27.555  12.408  35.339  1.00  0.00     0.013 C 
ATOM      3  C   UNL     1      29.133  12.032  37.242  1.00  0.00     0.039 C 
ENDROOT
BRANCH   1   4
ATOM      4  C   UNL     1      28.647  10.188  35.468  1.00  0.00     0.034 C 
BRANCH   4   5
ATOM      5  C   UNL     1      28.014   9.983  34.085  1.00  0.00     0.032 C 
BRANCH   5   6
ATOM      6  C   UNL     1      28.072   8.539  33.646  1.00  0.00    -0.028 C 
ATOM      7  C   UNL     1      27.385   6.506  32.450  1.00  0.00     0.039 C 
ATOM      8  C   UNL     1      27.232   7.975  32.749  1.00  0.00    -0.080 C 
ATOM      9  C   UNL     1      26.169   8.775  32.035  1.00  0.00     0.039 C 
ENDBRANCH   5   6
ENDBRANCH   4   5
ENDBRANCH   1   4
BRANCH   2  10
ATOM     10  C   UNL     1      27.239  13.810  35.780  1.00  0.00     0.260 C 
BRANCH  10  11
ATOM     11  O   UNL     1      26.140  14.314  35.029  1.00  0.00    -0.462 OA
BRANCH  11  12
ATOM     12  C   UNL     1      26.282  14.822  33.734  1.00  0.00     0.302 C 
ATOM     13  O   UNL     1      27.421  15.110  33.276  1.00  0.00    -0.253 OA
ATOM     14  C   UNL     1      25.069  15.067  32.905  1.00  0.00     0.139 C 
ENDBRANCH  11  12
ENDBRANCH  10  11
ENDBRANCH   2  10
TORSDOF 6
ENDMDL
MODEL 6
REMARK VINA RESULT:    -5.662      3.184      6.543
REMARK INTER + INTRA:          -8.181
REMARK INTER:                  -7.806
REMARK INTRA:                  -0.375
REMARK UNBOUND:                -0.532
REMARK SMILES CC(=O)OCC=C(C)CCC=C(C)C
REMARK SMILES IDX 7 1 6 2 8 3 9 4 10 5 11 6 13 7 12 8 14 9 5 10 4 11 2 12 3 13
REMARK SMILES IDX 1 14
REMARK H PARENT
REMARK Flexibility Score: inf
ROOT
ATOM      1  C   UNL     1      28.132   6.387  32.405  1.00  0.00    -0.074 C 
ATOM      2  C   UNL     1      26.954   7.033  32.543  1.00  0.00     0.013 C 
ATOM      3  C   UNL     1      29.451   7.083  32.639  1.00  0.00     0.039 C 
ENDROOT
BRANCH   1   4
ATOM      4  C   UNL     1      28.136   4.911  32.060  1.00  0.00     0.034 C 
BRANCH   4   5
ATOM      5  C   UNL     1      29.502   4.457  31.528  1.00  0.00     0.032 C 
BRANCH   5   6
ATOM      6  C   UNL     1      29.370   3.578  30.306  1.00  0.00    -0.028 C 
ATOM      7  C   UNL     1      30.063   2.476  28.223  1.00  0.00     0.039 C 
ATOM      8  C   UNL     1      30.364   3.336  29.423  1.00  0.00    -0.080 C 
ATOM      9  C   UNL     1      31.757   3.884  29.617  1.00  0.00     0.039 C 
ENDBRANCH   5   6
ENDBRANCH   4   5
ENDBRANCH   1   4
BRANCH   2  10
ATOM     10  C   UNL     1      26.836   8.487  32.908  1.00  0.00     0.260 C 
BRANCH  10  11
ATOM     11  O   UNL     1      25.984   9.149  31.979  1.00  0.00    -0.462 OA
BRANCH  11  12
ATOM     12  C   UNL     1      26.317  10.373  31.392  1.00  0.00     0.302 C 
ATOM     13  O   UNL     1      26.014  10.616  30.192  1.00  0.00    -0.253 OA
ATOM     14  C   UNL     1      27.080  11.382  32.180  1.00  0.00     0.139 C 
ENDBRANCH  11  12
ENDBRANCH  10  11
ENDBRANCH   2  10
TORSDOF 6
ENDMDL
MODEL 7
REMARK VINA RESULT:    -5.481      2.583      6.142
REMARK INTER + INTRA:          -7.936
REMARK INTER:                  -7.289
REMARK INTRA:                  -0.647
REMARK UNBOUND:                -0.532
REMARK SMILES CC(=O)OCC=C(C)CCC=C(C)C
REMARK SMILES IDX 7 1 6 2 8 3 9 4 10 5 11 6 13 7 12 8 14 9 5 10 4 11 2 12 3 13
REMARK SMILES IDX 1 14
REMARK H PARENT
REMARK Flexibility Score: inf
ROOT
ATOM      1  C   UNL     1      29.309   5.522  31.877  1.00  0.00    -0.074 C 
ATOM      2  C   UNL     1      27.992   5.428  32.165  1.00  0.00     0.013 C 
ATOM      3  C   UNL     1      30.125   6.727  32.280  1.00  0.00     0.039 C 
ENDROOT
BRANCH   1   4
ATOM      4  C   UNL     1      30.003   4.369  31.182  1.00  0.00     0.034 C 
BRANCH   4   5
ATOM      5  C   UNL     1      29.003   3.301  30.719  1.00  0.00     0.032 C 
BRANCH   5   6
ATOM      6  C   UNL     1      29.150   2.989  29.248  1.00  0.00    -0.028 C 
ATOM      7  C   UNL     1      28.437   2.346  26.987  1.00  0.00     0.039 C 
ATOM      8  C   UNL     1      28.125   2.683  28.422  1.00  0.00    -0.080 C 
ATOM      9  C   UNL     1      26.690   2.688  28.891  1.00  0.00     0.039 C 
ENDBRANCH   5   6
ENDBRANCH   4   5
ENDBRANCH   1   4
BRANCH   2  10
ATOM     10  C   UNL     1      27.213   6.500  32.875  1.00  0.00     0.260 C 
BRANCH  10  11
ATOM     11  O   UNL     1      26.749   7.461  31.932  1.00  0.00    -0.462 OA
BRANCH  11  12
ATOM     12  C   UNL     1      26.885   8.838  32.130  1.00  0.00     0.302 C 
ATOM     13  O   UNL     1      26.406   9.659  31.302  1.00  0.00    -0.253 OA
ATOM     14  C   UNL     1      27.646   9.338  33.310  1.00  0.00     0.139 C 
ENDBRANCH  11  12
ENDBRANCH  10  11
ENDBRANCH   2  10
TORSDOF 6
ENDMDL
MODEL 8
REMARK VINA RESULT:    -5.353      6.870     10.309
REMARK INTER + INTRA:          -7.763
REMARK INTER:                  -7.268
REMARK INTRA:                  -0.495
REMARK UNBOUND:                -0.532
REMARK SMILES CC(=O)OCC=C(C)CCC=C(C)C
REMARK SMILES IDX 7 1 6 2 8 3 9 4 10 5 11 6 13 7 12 8 14 9 5 10 4 11 2 12 3 13
REMARK SMILES IDX 1 14
REMARK H PARENT
REMARK Flexibility Score: inf
ROOT
ATOM      1  C   UNL     1      28.409  11.660  36.093  1.00  0.00    -0.074 C 
ATOM      2  C   UNL     1      29.083  12.083  37.185  1.00  0.00     0.013 C 
ATOM      3  C   UNL     1      27.410  12.544  35.385  1.00  0.00     0.039 C 
ENDROOT
BRANCH   1   4
ATOM      4  C   UNL     1      28.697  10.285  35.526  1.00  0.00     0.034 C 
BRANCH   4   5
ATOM      5  C   UNL     1      28.019  10.078  34.165  1.00  0.00     0.032 C 
BRANCH   5   6
ATOM      6  C   UNL     1      28.116   8.645  33.697  1.00  0.00    -0.028 C 
ATOM      7  C   UNL     1      27.477   6.614  32.472  1.00  0.00     0.039 C 
ATOM      8  C   UNL     1      27.282   8.071  32.802  1.00  0.00    -0.080 C 
ATOM      9  C   UNL     1      26.183   8.849  32.119  1.00  0.00     0.039 C 
ENDBRANCH   5   6
ENDBRANCH   4   5
ENDBRANCH   1   4
BRANCH   2  10
ATOM     10  C   UNL     1      28.893  13.437  37.811  1.00  0.00     0.260 C 
BRANCH  10  11
ATOM     11  O   UNL     1      29.893  14.331  37.336  1.00  0.00    -0.462 OA
BRANCH  11  12
ATOM     12  C   UNL     1      29.594  15.613  36.863  1.00  0.00     0.302 C 
ATOM     13  O   UNL     1      29.677  16.616  37.623  1.00  0.00    -0.253 OA
ATOM     14  C   UNL     1      29.128  15.786  35.458  1.00  0.00     0.139 C 
ENDBRANCH  11  12
ENDBRANCH  10  11
ENDBRANCH   2  10
TORSDOF 6
ENDMDL
MODEL 9
REMARK VINA RESULT:    -5.316      1.327      2.094
REMARK INTER + INTRA:          -7.713
REMARK INTER:                  -7.183
REMARK INTRA:                  -0.530
REMARK UNBOUND:                -0.532
REMARK SMILES CC(=O)OCC=C(C)CCC=C(C)C
REMARK SMILES IDX 7 1 6 2 8 3 9 4 10 5 11 6 13 7 12 8 14 9 5 10 4 11 2 12 3 13
REMARK SMILES IDX 1 14
REMARK H PARENT
REMARK Flexibility Score: inf
ROOT
ATOM      1  C   UNL     1      29.016   3.686  30.668  1.00  0.00    -0.074 C 
ATOM      2  C   UNL     1      29.872   3.468  29.645  1.00  0.00     0.013 C 
ATOM      3  C   UNL     1      27.881   2.737  30.968  1.00  0.00     0.039 C 
ENDROOT
BRANCH   1   4
ATOM      4  C   UNL     1      29.226   4.883  31.572  1.00  0.00     0.034 C 
BRANCH   4   5
ATOM      5  C   UNL     1      28.037   5.095  32.519  1.00  0.00     0.032 C 
BRANCH   5   6
ATOM      6  C   UNL     1      27.185   6.271  32.102  1.00  0.00    -0.028 C 
ATOM      7  C   UNL     1      26.475   8.618  31.967  1.00  0.00     0.039 C 
ATOM      8  C   UNL     1      27.448   7.559  32.414  1.00  0.00    -0.080 C 
ATOM      9  C   UNL     1      28.689   7.960  33.175  1.00  0.00     0.039 C 
ENDBRANCH   5   6
ENDBRANCH   4   5
ENDBRANCH   1   4
BRANCH   2  10
ATOM     10  C   UNL     1      29.771   2.299  28.706  1.00  0.00     0.260 C 
BRANCH  10  11
ATOM     11  O   UNL     1      28.994   2.662  27.569  1.00  0.00    -0.462 OA
BRANCH  11  12
ATOM     12  C   UNL     1      28.070   1.794  26.979  1.00  0.00     0.302 C 
ATOM     13  O   UNL     1      28.227   1.395  25.793  1.00  0.00    -0.253 OA
ATOM     14  C   UNL     1      26.863   1.376  27.746  1.00  0.00     0.139 C 
ENDBRANCH  11  12
ENDBRANCH  10  11
ENDBRANCH   2  10
TORSDOF 6
ENDMDL
