MODEL 1
REMARK VINA RESULT:    -4.278      0.000      0.000
REMARK INTER + INTRA:          -6.903
REMARK INTER:                  -6.529
REMARK INTRA:                  -0.375
REMARK UNBOUND:                -0.375
REMARK SMILES O=C([O-])CCCCCCCCC(=O)[O-]
REMARK SMILES IDX 7 1 6 2 5 3 4 4 2 5 1 6 3 7 8 8 9 9 10 10 11 11 12 12 13 13
REMARK SMILES IDX 14 14
REMARK H PARENT
REMARK Flexibility Score: inf
ROOT
ATOM      1  C   UNL     1      99.614 -69.410   5.014  1.00  0.00     0.000 C 
ENDROOT
BRANCH   1   2
ATOM      2  C   UNL     1      99.011 -68.154   4.358  1.00  0.00     0.000 C 
BRANCH   2   3
ATOM      3  C   UNL     1      98.434 -68.363   2.944  1.00  0.00     0.006 C 
BRANCH   3   4
ATOM      4  C   UNL     1      99.434 -68.069   1.811  1.00  0.00     0.053 C 
BRANCH   4   5
ATOM      5  C   UNL     1      99.068 -68.749   0.527  1.00  0.00     0.041 C 
ATOM      6  O   UNL     1      99.110 -68.116  -0.561  1.00  0.00    -0.550 OA
ATOM      7  O   UNL     1      98.643 -70.072   0.534  1.00  0.00    -0.550 OA
ENDBRANCH   4   5
ENDBRANCH   3   4
ENDBRANCH   2   3
ENDBRANCH   1   2
BRANCH   1   8
ATOM      8  C   UNL     1     100.647 -69.142   6.127  1.00  0.00     0.000 C 
BRANCH   8   9
ATOM      9  C   UNL     1     100.899 -67.656   6.440  1.00  0.00     0.000 C 
BRANCH   9  10
ATOM     10  C   UNL     1     101.128 -67.392   7.938  1.00  0.00     0.006 C 
BRANCH  10  11
ATOM     11  C   UNL     1     100.916 -68.653   8.786  1.00  0.00     0.053 C 
BRANCH  11  12
ATOM     12  C   UNL     1     100.502 -68.319  10.186  1.00  0.00     0.041 C 
ATOM     13  O   UNL     1     100.535 -69.201  11.085  1.00  0.00    -0.550 OA
ATOM     14  O   UNL     1     100.051 -67.041  10.492  1.00  0.00    -0.550 OA
ENDBRANCH  11  12
ENDBRANCH  10  11
ENDBRANCH   9  10
ENDBRANCH   8   9
ENDBRANCH   1   8
TORSDOF 9
ENDMDL
MODEL 2
REMARK VINA RESULT:    -4.244      0.133      7.934
REMARK INTER + INTRA:          -6.851
REMARK INTER:                  -6.496
REMARK INTRA:                  -0.355
REMARK UNBOUND:                -0.375
REMARK SMILES O=C([O-])CCCCCCCCC(=O)[O-]
REMARK SMILES IDX 7 1 6 2 5 3 4 4 2 5 1 6 3 7 8 8 9 9 10 10 11 11 12 12 13 13
REMARK SMILES IDX 14 14
REMARK H PARENT
REMARK Flexibility Score: inf
ROOT
ATOM      1  C   UNL     1     100.649 -69.224   6.147  1.00  0.00     0.000 C 
ENDROOT
BRANCH   1   2
ATOM      2  C   UNL     1     100.935 -67.759   6.525  1.00  0.00     0.000 C 
BRANCH   2   3
ATOM      3  C   UNL     1     101.163 -67.500   8.027  1.00  0.00     0.006 C 
BRANCH   3   4
ATOM      4  C   UNL     1     100.871 -68.718   8.923  1.00  0.00     0.053 C 
BRANCH   4   5
ATOM      5  C   UNL     1     100.490 -68.330  10.320  1.00  0.00     0.041 C 
ATOM      6  O   UNL     1     100.091 -67.161  10.568  1.00  0.00    -0.550 OA
ATOM      7  O   UNL     1     100.613 -69.247  11.357  1.00  0.00    -0.550 OA
ENDBRANCH   4   5
ENDBRANCH   3   4
ENDBRANCH   2   3
ENDBRANCH   1   2
BRANCH   1   8
ATOM      8  C   UNL     1      99.567 -69.428   5.067  1.00  0.00     0.000 C 
BRANCH   8   9
ATOM      9  C   UNL     1      99.104 -68.143   4.357  1.00  0.00     0.000 C 
BRANCH   9  10
ATOM     10  C   UNL     1      98.490 -68.414   2.973  1.00  0.00     0.006 C 
BRANCH  10  11
ATOM     11  C   UNL     1      99.480 -68.131   1.835  1.00  0.00     0.053 C 
BRANCH  11  12
ATOM     12  C   UNL     1      99.035 -68.746   0.544  1.00  0.00     0.041 C 
ATOM     13  O   UNL     1      98.986 -68.051  -0.505  1.00  0.00    -0.550 OA
ATOM     14  O   UNL     1      98.647 -70.079   0.506  1.00  0.00    -0.550 OA
ENDBRANCH  11  12
ENDBRANCH  10  11
ENDBRANCH   9  10
ENDBRANCH   8   9
ENDBRANCH   1   8
TORSDOF 9
ENDMDL
MODEL 3
REMARK VINA RESULT:    -4.196      0.884      7.714
REMARK INTER + INTRA:          -6.778
REMARK INTER:                  -6.449
REMARK INTRA:                  -0.330
REMARK UNBOUND:                -0.375
REMARK SMILES O=C([O-])CCCCCCCCC(=O)[O-]
REMARK SMILES IDX 7 1 6 2 5 3 4 4 2 5 1 6 3 7 8 8 9 9 10 10 11 11 12 12 13 13
REMARK SMILES IDX 14 14
REMARK H PARENT
REMARK Flexibility Score: inf
ROOT
ATOM      1  C   UNL     1     101.308 -69.820   5.637  1.00  0.00     0.000 C 
ENDROOT
BRANCH   1   2
ATOM      2  C   UNL     1     102.018 -68.920   6.666  1.00  0.00     0.000 C 
BRANCH   2   3
ATOM      3  C   UNL     1     101.108 -68.322   7.756  1.00  0.00     0.006 C 
BRANCH   3   4
ATOM      4  C   UNL     1     101.514 -68.707   9.191  1.00  0.00     0.053 C 
BRANCH   4   5
ATOM      5  C   UNL     1     100.506 -68.276  10.213  1.00  0.00     0.041 C 
ATOM      6  O   UNL     1     100.028 -69.112  11.025  1.00  0.00    -0.550 OA
ATOM      7  O   UNL     1     100.066 -66.959  10.245  1.00  0.00    -0.550 OA
ENDBRANCH   4   5
ENDBRANCH   3   4
ENDBRANCH   2   3
ENDBRANCH   1   2
BRANCH   1   8
ATOM      8  C   UNL     1      99.856 -69.421   5.303  1.00  0.00     0.000 C 
BRANCH   8   9
ATOM      9  C   UNL     1      99.711 -68.240   4.326  1.00  0.00     0.000 C 
BRANCH   9  10
ATOM     10  C   UNL     1      98.525 -68.407   3.361  1.00  0.00     0.006 C 
BRANCH  10  11
ATOM     11  C   UNL     1      98.755 -67.677   2.031  1.00  0.00     0.053 C 
BRANCH  11  12
ATOM     12  C   UNL     1      99.404 -68.564   1.014  1.00  0.00     0.041 C 
ATOM     13  O   UNL     1      98.813 -69.597   0.603  1.00  0.00    -0.550 OA
ATOM     14  O   UNL     1     100.676 -68.266   0.540  1.00  0.00    -0.550 OA
ENDBRANCH  11  12
ENDBRANCH  10  11
ENDBRANCH   9  10
ENDBRANCH   8   9
ENDBRANCH   1   8
TORSDOF 9
ENDMDL
MODEL 4
REMARK VINA RESULT:    -3.903      2.607      6.918
REMARK INTER + INTRA:          -6.331
REMARK INTER:                  -5.476
REMARK INTRA:                  -0.855
REMARK UNBOUND:                -0.375
REMARK SMILES O=C([O-])CCCCCCCCC(=O)[O-]
REMARK SMILES IDX 7 1 6 2 5 3 4 4 2 5 1 6 3 7 8 8 9 9 10 10 11 11 12 12 13 13
REMARK SMILES IDX 14 14
REMARK H PARENT
REMARK Flexibility Score: inf
ROOT
ATOM      1  C   UNL     1      97.640 -66.207   3.862  1.00  0.00     0.000 C 
ENDROOT
BRANCH   1   2
ATOM      2  C   UNL     1      97.503 -67.740   3.925  1.00  0.00     0.000 C 
BRANCH   2   3
ATOM      3  C   UNL     1      98.832 -68.519   3.927  1.00  0.00     0.006 C 
BRANCH   3   4
ATOM      4  C   UNL     1      99.822 -68.065   5.015  1.00  0.00     0.053 C 
BRANCH   4   5
ATOM      5  C   UNL     1     100.564 -69.210   5.636  1.00  0.00     0.041 C 
ATOM      6  O   UNL     1     100.326 -70.392   5.272  1.00  0.00    -0.550 OA
ATOM      7  O   UNL     1     101.490 -68.976   6.645  1.00  0.00    -0.550 OA
ENDBRANCH   4   5
ENDBRANCH   3   4
ENDBRANCH   2   3
ENDBRANCH   1   2
BRANCH   1   8
ATOM      8  C   UNL     1      97.933 -65.628   2.463  1.00  0.00     0.000 C 
BRANCH   8   9
ATOM      9  C   UNL     1      99.413 -65.310   2.185  1.00  0.00     0.000 C 
BRANCH   9  10
ATOM     10  C   UNL     1      99.929 -65.959   0.890  1.00  0.00     0.006 C 
BRANCH  10  11
ATOM     11  C   UNL     1      98.986 -67.054   0.375  1.00  0.00     0.053 C 
BRANCH  11  12
ATOM     12  C   UNL     1      99.689 -68.367   0.219  1.00  0.00     0.041 C 
ATOM     13  O   UNL     1     100.889 -68.402  -0.159  1.00  0.00    -0.550 OA
ATOM     14  O   UNL     1      99.009 -69.553   0.463  1.00  0.00    -0.550 OA
ENDBRANCH  11  12
ENDBRANCH  10  11
ENDBRANCH   9  10
ENDBRANCH   8   9
ENDBRANCH   1   8
TORSDOF 9
ENDMDL
MODEL 5
REMARK VINA RESULT:    -3.847      1.458      2.509
REMARK INTER + INTRA:          -6.245
REMARK INTER:                  -5.824
REMARK INTRA:                  -0.421
REMARK UNBOUND:                -0.375
REMARK SMILES O=C([O-])CCCCCCCCC(=O)[O-]
REMARK SMILES IDX 7 1 6 2 5 3 4 4 2 5 1 6 3 7 8 8 9 9 10 10 11 11 12 12 13 13
REMARK SMILES IDX 14 14
REMARK H PARENT
REMARK Flexibility Score: inf
ROOT
ATOM      1  C   UNL     1      98.262 -67.877   3.024  1.00  0.00     0.000 C 
ENDROOT
BRANCH   1   2
ATOM      2  C   UNL     1      99.289 -67.089   2.190  1.00  0.00     0.000 C 
BRANCH   2   3
ATOM      3  C   UNL     1      98.987 -67.008   0.681  1.00  0.00     0.006 C 
BRANCH   3   4
ATOM      4  C   UNL     1      99.708 -68.078  -0.160  1.00  0.00     0.053 C 
BRANCH   4   5
ATOM      5  C   UNL     1      98.827 -69.245  -0.489  1.00  0.00     0.041 C 
ATOM      6  O   UNL     1      98.658 -70.169   0.349  1.00  0.00    -0.550 OA
ATOM      7  O   UNL     1      98.222 -69.331  -1.737  1.00  0.00    -0.550 OA
ENDBRANCH   4   5
ENDBRANCH   3   4
ENDBRANCH   2   3
ENDBRANCH   1   2
BRANCH   1   8
ATOM      8  C   UNL     1      98.718 -68.250   4.450  1.00  0.00     0.000 C 
BRANCH   8   9
ATOM      9  C   UNL     1     100.062 -68.996   4.532  1.00  0.00     0.000 C 
BRANCH   9  10
ATOM     10  C   UNL     1     100.227 -69.786   5.841  1.00  0.00     0.006 C 
BRANCH  10  11
ATOM     11  C   UNL     1     101.440 -69.313   6.653  1.00  0.00     0.053 C 
BRANCH  11  12
ATOM     12  C   UNL     1     101.041 -68.393   7.765  1.00  0.00     0.041 C 
ATOM     13  O   UNL     1     100.684 -68.862   8.878  1.00  0.00    -0.550 OA
ATOM     14  O   UNL     1     101.035 -67.019   7.563  1.00  0.00    -0.550 OA
ENDBRANCH  11  12
ENDBRANCH  10  11
ENDBRANCH   9  10
ENDBRANCH   8   9
ENDBRANCH   1   8
TORSDOF 9
ENDMDL
MODEL 6
REMARK VINA RESULT:    -3.845      2.452      3.852
REMARK INTER + INTRA:          -6.243
REMARK INTER:                  -5.443
REMARK INTRA:                  -0.800
REMARK UNBOUND:                -0.375
REMARK SMILES O=C([O-])CCCCCCCCC(=O)[O-]
REMARK SMILES IDX 7 1 6 2 5 3 4 4 2 5 1 6 3 7 8 8 9 9 10 10 11 11 12 12 13 13
REMARK SMILES IDX 14 14
REMARK H PARENT
REMARK Flexibility Score: inf
ROOT
ATOM      1  C   UNL     1      98.150 -65.700   2.194  1.00  0.00     0.000 C 
ENDROOT
BRANCH   1   2
ATOM      2  C   UNL     1      99.621 -65.624   1.743  1.00  0.00     0.000 C 
BRANCH   2   3
ATOM      3  C   UNL     1     100.052 -66.693   0.720  1.00  0.00     0.006 C 
BRANCH   3   4
ATOM      4  C   UNL     1      98.951 -67.075  -0.287  1.00  0.00     0.053 C 
BRANCH   4   5
ATOM      5  C   UNL     1      98.880 -68.551  -0.535  1.00  0.00     0.041 C 
ATOM      6  O   UNL     1      98.462 -68.990  -1.639  1.00  0.00    -0.550 OA
ATOM      7  O   UNL     1      99.240 -69.444   0.467  1.00  0.00    -0.550 OA
ENDBRANCH   4   5
ENDBRANCH   3   4
ENDBRANCH   2   3
ENDBRANCH   1   2
BRANCH   1   8
ATOM      8  C   UNL     1      97.921 -66.286   3.602  1.00  0.00     0.000 C 
BRANCH   8   9
ATOM      9  C   UNL     1      97.630 -67.797   3.640  1.00  0.00     0.000 C 
BRANCH   9  10
ATOM     10  C   UNL     1      98.896 -68.643   3.857  1.00  0.00     0.006 C 
BRANCH  10  11
ATOM     11  C   UNL     1      99.767 -68.099   4.996  1.00  0.00     0.053 C 
BRANCH  11  12
ATOM     12  C   UNL     1     100.382 -69.201   5.803  1.00  0.00     0.041 C 
ATOM     13  O   UNL     1     100.408 -70.377   5.353  1.00  0.00    -0.550 OA
ATOM     14  O   UNL     1     100.899 -68.934   7.064  1.00  0.00    -0.550 OA
ENDBRANCH  11  12
ENDBRANCH  10  11
ENDBRANCH   9  10
ENDBRANCH   8   9
ENDBRANCH   1   8
TORSDOF 9
ENDMDL
MODEL 7
REMARK VINA RESULT:    -3.729      2.785      4.603
REMARK INTER + INTRA:          -6.066
REMARK INTER:                  -5.713
REMARK INTRA:                  -0.354
REMARK UNBOUND:                -0.375
REMARK SMILES O=C([O-])CCCCCCCCC(=O)[O-]
REMARK SMILES IDX 7 1 6 2 5 3 4 4 2 5 1 6 3 7 8 8 9 9 10 10 11 11 12 12 13 13
REMARK SMILES IDX 14 14
REMARK H PARENT
REMARK Flexibility Score: inf
ROOT
ATOM      1  C   UNL     1      99.251 -68.430   0.397  1.00  0.00     0.000 C 
ENDROOT
BRANCH   1   2
ATOM      2  C   UNL     1     100.318 -67.903  -0.581  1.00  0.00     0.000 C 
BRANCH   2   3
ATOM      3  C   UNL     1      99.942 -67.988  -2.073  1.00  0.00     0.006 C 
BRANCH   3   4
ATOM      4  C   UNL     1      98.463 -68.334  -2.326  1.00  0.00     0.053 C 
BRANCH   4   5
ATOM      5  C   UNL     1      97.630 -67.125  -2.623  1.00  0.00     0.041 C 
ATOM      6  O   UNL     1      97.599 -66.161  -1.813  1.00  0.00    -0.550 OA
ATOM      7  O   UNL     1      96.856 -67.077  -3.776  1.00  0.00    -0.550 OA
ENDBRANCH   4   5
ENDBRANCH   3   4
ENDBRANCH   2   3
ENDBRANCH   1   2
BRANCH   1   8
ATOM      8  C   UNL     1      99.519 -68.139   1.887  1.00  0.00     0.000 C 
BRANCH   8   9
ATOM      9  C   UNL     1      98.387 -68.545   2.847  1.00  0.00     0.000 C 
BRANCH   9  10
ATOM     10  C   UNL     1      98.672 -68.154   4.307  1.00  0.00     0.006 C 
BRANCH  10  11
ATOM     11  C   UNL     1     100.158 -68.296   4.664  1.00  0.00     0.053 C 
BRANCH  11  12
ATOM     12  C   UNL     1     100.382 -69.347   5.707  1.00  0.00     0.041 C 
ATOM     13  O   UNL     1     100.274 -70.567   5.412  1.00  0.00    -0.550 OA
ATOM     14  O   UNL     1     100.682 -68.979   7.012  1.00  0.00    -0.550 OA
ENDBRANCH  11  12
ENDBRANCH  10  11
ENDBRANCH   9  10
ENDBRANCH   8   9
ENDBRANCH   1   8
TORSDOF 9
ENDMDL
MODEL 8
REMARK VINA RESULT:    -3.724      1.980      7.040
REMARK INTER + INTRA:          -6.058
REMARK INTER:                  -5.342
REMARK INTRA:                  -0.716
REMARK UNBOUND:                -0.375
REMARK SMILES O=C([O-])CCCCCCCCC(=O)[O-]
REMARK SMILES IDX 7 1 6 2 5 3 4 4 2 5 1 6 3 7 8 8 9 9 10 10 11 11 12 12 13 13
REMARK SMILES IDX 14 14
REMARK H PARENT
REMARK Flexibility Score: inf
ROOT
ATOM      1  C   UNL     1      97.591 -67.624   3.887  1.00  0.00     0.000 C 
ENDROOT
BRANCH   1   2
ATOM      2  C   UNL     1      98.729 -68.619   4.185  1.00  0.00     0.000 C 
BRANCH   2   3
ATOM      3  C   UNL     1      99.907 -68.046   4.996  1.00  0.00     0.006 C 
BRANCH   3   4
ATOM      4  C   UNL     1     100.541 -69.052   5.974  1.00  0.00     0.053 C 
BRANCH   4   5
ATOM      5  C   UNL     1     101.117 -68.392   7.190  1.00  0.00     0.041 C 
ATOM      6  O   UNL     1     101.809 -69.057   8.006  1.00  0.00    -0.550 OA
ATOM      7  O   UNL     1     100.858 -67.051   7.444  1.00  0.00    -0.550 OA
ENDBRANCH   4   5
ENDBRANCH   3   4
ENDBRANCH   2   3
ENDBRANCH   1   2
BRANCH   1   8
ATOM      8  C   UNL     1      98.012 -66.142   3.815  1.00  0.00     0.000 C 
BRANCH   8   9
ATOM      9  C   UNL     1      98.044 -65.541   2.399  1.00  0.00     0.000 C 
BRANCH   9  10
ATOM     10  C   UNL     1      99.304 -65.937   1.611  1.00  0.00     0.006 C 
BRANCH  10  11
ATOM     11  C   UNL     1      98.999 -66.966   0.513  1.00  0.00     0.053 C 
BRANCH  11  12
ATOM     12  C   UNL     1      99.718 -68.259   0.747  1.00  0.00     0.041 C 
ATOM     13  O   UNL     1     100.910 -68.257   1.154  1.00  0.00    -0.550 OA
ATOM     14  O   UNL     1      99.081 -69.466   0.487  1.00  0.00    -0.550 OA
ENDBRANCH  11  12
ENDBRANCH  10  11
ENDBRANCH   9  10
ENDBRANCH   8   9
ENDBRANCH   1   8
TORSDOF 9
ENDMDL
MODEL 9
REMARK VINA RESULT:    -3.611      3.132      7.880
REMARK INTER + INTRA:          -5.886
REMARK INTER:                  -5.327
REMARK INTRA:                  -0.559
REMARK UNBOUND:                -0.375
REMARK SMILES O=C([O-])CCCCCCCCC(=O)[O-]
REMARK SMILES IDX 7 1 6 2 5 3 4 4 2 5 1 6 3 7 8 8 9 9 10 10 11 11 12 12 13 13
REMARK SMILES IDX 14 14
REMARK H PARENT
REMARK Flexibility Score: inf
ROOT
ATOM      1  C   UNL     1      98.360 -68.438   2.678  1.00  0.00     0.000 C 
ENDROOT
BRANCH   1   2
ATOM      2  C   UNL     1      98.459 -68.195   4.196  1.00  0.00     0.000 C 
BRANCH   2   3
ATOM      3  C   UNL     1      99.631 -67.301   4.644  1.00  0.00     0.006 C 
BRANCH   3   4
ATOM      4  C   UNL     1     100.675 -68.027   5.513  1.00  0.00     0.053 C 
BRANCH   4   5
ATOM      5  C   UNL     1     101.068 -69.360   4.950  1.00  0.00     0.041 C 
ATOM      6  O   UNL     1     101.863 -69.428   3.975  1.00  0.00    -0.550 OA
ATOM      7  O   UNL     1     100.528 -70.526   5.478  1.00  0.00    -0.550 OA
ENDBRANCH   4   5
ENDBRANCH   3   4
ENDBRANCH   2   3
ENDBRANCH   1   2
BRANCH   1   8
ATOM      8  C   UNL     1      99.053 -67.381   1.795  1.00  0.00     0.000 C 
BRANCH   8   9
ATOM      9  C   UNL     1     100.313 -67.870   1.058  1.00  0.00     0.000 C 
BRANCH   9  10
ATOM     10  C   UNL     1     100.121 -67.947  -0.467  1.00  0.00     0.006 C 
BRANCH  10  11
ATOM     11  C   UNL     1      98.877 -67.178  -0.932  1.00  0.00     0.053 C 
BRANCH  11  12
ATOM     12  C   UNL     1      98.242 -67.818  -2.128  1.00  0.00     0.041 C 
ATOM     13  O   UNL     1      98.881 -68.663  -2.809  1.00  0.00    -0.550 OA
ATOM     14  O   UNL     1      96.955 -67.458  -2.508  1.00  0.00    -0.550 OA
ENDBRANCH  11  12
ENDBRANCH  10  11
ENDBRANCH   9  10
ENDBRANCH   8   9
ENDBRANCH   1   8
TORSDOF 9
ENDMDL
