MODEL 1
REMARK VINA RESULT:    -4.625      0.000      0.000
REMARK INTER + INTRA:          -4.760
REMARK INTER:                  -4.760
REMARK INTRA:                   0.000
REMARK UNBOUND:                 0.000
REMARK SMILES Nc1ncnc2nc[nH]c12
REMARK SMILES IDX 8 1 7 2 6 3 5 4 4 5 3 6 2 7 10 8 9 9 1 11
REMARK H PARENT 9 10 1 12 1 13
REMARK Flexibility Score: inf
ROOT
ATOM      1  C   UNL     1     124.150 118.262 125.591  1.00  0.00     0.199 A 
ATOM      2  N   UNL     1     123.392 117.346 124.930  1.00  0.00    -0.217 NA
ATOM      3  C   UNL     1     123.744 116.196 125.530  1.00  0.00     0.182 A 
ATOM      4  N   UNL     1     123.274 114.958 125.244  1.00  0.00    -0.215 NA
ATOM      5  C   UNL     1     123.755 113.903 125.968  1.00  0.00     0.226 A 
ATOM      6  N   UNL     1     124.688 114.102 126.955  1.00  0.00    -0.217 NA
ATOM      7  C   UNL     1     125.163 115.350 127.244  1.00  0.00     0.152 A 
ATOM      8  C   UNL     1     124.663 116.414 126.498  1.00  0.00     0.127 A 
ATOM      9  N   UNL     1     124.938 117.723 126.556  1.00  0.00    -0.340 N 
ATOM     10  H   UNL     1     125.600 118.224 127.189  1.00  0.00     0.168 HD
ENDROOT
BRANCH   7  11
ATOM     11  N   UNL     1     126.134 115.534 128.275  1.00  0.00    -0.382 N 
ATOM     12  H   UNL     1     127.109 115.185 128.142  1.00  0.00     0.158 HD
ATOM     13  H   UNL     1     125.893 116.014 129.169  1.00  0.00     0.158 HD
ENDBRANCH   7  11
TORSDOF 1
ENDMDL
MODEL 2
REMARK VINA RESULT:    -4.103     15.338     15.822
REMARK INTER + INTRA:          -4.223
REMARK INTER:                  -4.223
REMARK INTRA:                   0.000
REMARK UNBOUND:                 0.000
REMARK SMILES Nc1ncnc2nc[nH]c12
REMARK SMILES IDX 8 1 7 2 6 3 5 4 4 5 3 6 2 7 10 8 9 9 1 11
REMARK H PARENT 9 10 1 12 1 13
REMARK Flexibility Score: inf
ROOT
ATOM      1  C   UNL     1     118.909 130.433 125.138  1.00  0.00     0.199 A 
ATOM      2  N   UNL     1     119.676 130.200 124.039  1.00  0.00    -0.217 NA
ATOM      3  C   UNL     1     120.850 130.752 124.386  1.00  0.00     0.182 A 
ATOM      4  N   UNL     1     121.976 130.797 123.634  1.00  0.00    -0.215 NA
ATOM      5  C   UNL     1     123.080 131.407 124.162  1.00  0.00     0.226 A 
ATOM      6  N   UNL     1     123.039 131.956 125.419  1.00  0.00    -0.217 NA
ATOM      7  C   UNL     1     121.903 131.912 126.178  1.00  0.00     0.152 A 
ATOM      8  C   UNL     1     120.788 131.287 125.626  1.00  0.00     0.127 A 
ATOM      9  N   UNL     1     119.561 131.096 126.127  1.00  0.00    -0.340 N 
ATOM     10  H   UNL     1     119.183 131.385 127.055  1.00  0.00     0.168 HD
ENDROOT
BRANCH   7  11
ATOM     11  N   UNL     1     121.883 132.490 127.484  1.00  0.00    -0.382 N 
ATOM     12  H   UNL     1     122.766 132.556 128.039  1.00  0.00     0.158 HD
ATOM     13  H   UNL     1     121.000 132.852 127.904  1.00  0.00     0.158 HD
ENDBRANCH   7  11
TORSDOF 1
ENDMDL
MODEL 3
REMARK VINA RESULT:    -4.087     15.154     15.940
REMARK INTER + INTRA:          -4.207
REMARK INTER:                  -4.207
REMARK INTRA:                   0.000
REMARK UNBOUND:                 0.000
REMARK SMILES Nc1ncnc2nc[nH]c12
REMARK SMILES IDX 8 1 7 2 6 3 5 4 4 5 3 6 2 7 10 8 9 9 1 11
REMARK H PARENT 9 10 1 12 1 13
REMARK Flexibility Score: inf
ROOT
ATOM      1  C   UNL     1     122.151 132.213 126.990  1.00  0.00     0.199 A 
ATOM      2  N   UNL     1     122.783 131.717 125.892  1.00  0.00    -0.217 NA
ATOM      3  C   UNL     1     121.759 131.248 125.159  1.00  0.00     0.182 A 
ATOM      4  N   UNL     1     121.841 130.642 123.950  1.00  0.00    -0.215 NA
ATOM      5  C   UNL     1     120.682 130.229 123.356  1.00  0.00     0.226 A 
ATOM      6  N   UNL     1     119.472 130.427 123.975  1.00  0.00    -0.217 NA
ATOM      7  C   UNL     1     119.389 131.037 125.195  1.00  0.00     0.152 A 
ATOM      8  C   UNL     1     120.579 131.452 125.786  1.00  0.00     0.127 A 
ATOM      9  N   UNL     1     120.802 132.066 126.955  1.00  0.00    -0.340 N 
ATOM     10  H   UNL     1     120.111 132.365 127.678  1.00  0.00     0.168 HD
ENDROOT
BRANCH   7  11
ATOM     11  N   UNL     1     118.120 131.233 125.820  1.00  0.00    -0.382 N 
ATOM     12  H   UNL     1     117.317 130.608 125.580  1.00  0.00     0.158 HD
ATOM     13  H   UNL     1     117.969 131.991 126.520  1.00  0.00     0.158 HD
ENDBRANCH   7  11
TORSDOF 1
ENDMDL
MODEL 4
REMARK VINA RESULT:    -4.034     14.877     15.720
REMARK INTER + INTRA:          -4.152
REMARK INTER:                  -4.152
REMARK INTRA:                   0.000
REMARK UNBOUND:                 0.000
REMARK SMILES Nc1ncnc2nc[nH]c12
REMARK SMILES IDX 8 1 7 2 6 3 5 4 4 5 3 6 2 7 10 8 9 9 1 11
REMARK H PARENT 9 10 1 12 1 13
REMARK Flexibility Score: inf
ROOT
ATOM      1  C   UNL     1     121.118 129.894 122.635  1.00  0.00     0.199 A 
ATOM      2  N   UNL     1     122.218 130.284 123.336  1.00  0.00    -0.217 NA
ATOM      3  C   UNL     1     121.679 130.769 124.468  1.00  0.00     0.182 A 
ATOM      4  N   UNL     1     122.349 131.294 125.521  1.00  0.00    -0.215 NA
ATOM      5  C   UNL     1     121.622 131.739 126.590  1.00  0.00     0.226 A 
ATOM      6  N   UNL     1     120.252 131.653 126.586  1.00  0.00    -0.217 NA
ATOM      7  C   UNL     1     119.575 131.123 125.524  1.00  0.00     0.152 A 
ATOM      8  C   UNL     1     120.330 130.674 124.443  1.00  0.00     0.127 A 
ATOM      9  N   UNL     1     119.949 130.120 123.286  1.00  0.00    -0.340 N 
ATOM     10  H   UNL     1     118.984 129.907 122.951  1.00  0.00     0.168 HD
ENDROOT
BRANCH   7  11
ATOM     11  N   UNL     1     118.150 131.042 125.541  1.00  0.00    -0.382 N 
ATOM     12  H   UNL     1     117.628 130.821 124.663  1.00  0.00     0.158 HD
ATOM     13  H   UNL     1     117.607 131.200 126.418  1.00  0.00     0.158 HD
ENDBRANCH   7  11
TORSDOF 1
ENDMDL
MODEL 5
REMARK VINA RESULT:    -3.955      1.024      3.067
REMARK INTER + INTRA:          -4.070
REMARK INTER:                  -4.070
REMARK INTRA:                   0.000
REMARK UNBOUND:                 0.000
REMARK SMILES Nc1ncnc2nc[nH]c12
REMARK SMILES IDX 8 1 7 2 6 3 5 4 4 5 3 6 2 7 10 8 9 9 1 11
REMARK H PARENT 9 10 1 12 1 13
REMARK Flexibility Score: inf
ROOT
ATOM      1  C   UNL     1     125.311 115.047 127.372  1.00  0.00     0.199 A 
ATOM      2  N   UNL     1     124.297 114.576 126.596  1.00  0.00    -0.217 NA
ATOM      3  C   UNL     1     123.917 115.676 125.924  1.00  0.00     0.182 A 
ATOM      4  N   UNL     1     122.926 115.758 125.004  1.00  0.00    -0.215 NA
ATOM      5  C   UNL     1     122.683 116.972 124.425  1.00  0.00     0.226 A 
ATOM      6  N   UNL     1     123.428 118.072 124.772  1.00  0.00    -0.217 NA
ATOM      7  C   UNL     1     124.428 117.989 125.700  1.00  0.00     0.152 A 
ATOM      8  C   UNL     1     124.662 116.746 126.281  1.00  0.00     0.127 A 
ATOM      9  N   UNL     1     125.558 116.370 127.202  1.00  0.00    -0.340 N 
ATOM     10  H   UNL     1     126.280 116.949 127.684  1.00  0.00     0.168 HD
ENDROOT
BRANCH   7  11
ATOM     11  N   UNL     1     125.190 119.146 126.046  1.00  0.00    -0.382 N 
ATOM     12  H   UNL     1     125.390 119.359 127.049  1.00  0.00     0.158 HD
ATOM     13  H   UNL     1     125.559 119.793 125.315  1.00  0.00     0.158 HD
ENDBRANCH   7  11
TORSDOF 1
ENDMDL
MODEL 6
REMARK VINA RESULT:    -3.944      1.377      3.961
REMARK INTER + INTRA:          -4.059
REMARK INTER:                  -4.059
REMARK INTRA:                   0.000
REMARK UNBOUND:                 0.000
REMARK SMILES Nc1ncnc2nc[nH]c12
REMARK SMILES IDX 8 1 7 2 6 3 5 4 4 5 3 6 2 7 10 8 9 9 1 11
REMARK H PARENT 9 10 1 12 1 13
REMARK Flexibility Score: inf
ROOT
ATOM      1  C   UNL     1     124.446 114.073 126.644  1.00  0.00     0.199 A 
ATOM      2  N   UNL     1     124.858 115.353 126.852  1.00  0.00    -0.217 NA
ATOM      3  C   UNL     1     124.106 116.041 125.976  1.00  0.00     0.182 A 
ATOM      4  N   UNL     1     124.124 117.381 125.773  1.00  0.00    -0.215 NA
ATOM      5  C   UNL     1     123.282 117.901 124.831  1.00  0.00     0.226 A 
ATOM      6  N   UNL     1     122.446 117.082 124.114  1.00  0.00    -0.217 NA
ATOM      7  C   UNL     1     122.427 115.731 124.318  1.00  0.00     0.152 A 
ATOM      8  C   UNL     1     123.291 115.217 125.281  1.00  0.00     0.127 A 
ATOM      9  N   UNL     1     123.488 113.957 125.690  1.00  0.00    -0.340 N 
ATOM     10  H   UNL     1     123.023 113.083 125.359  1.00  0.00     0.168 HD
ENDROOT
BRANCH   7  11
ATOM     11  N   UNL     1     121.548 114.897 123.562  1.00  0.00    -0.382 N 
ATOM     12  H   UNL     1     121.897 114.414 122.703  1.00  0.00     0.158 HD
ATOM     13  H   UNL     1     120.555 114.755 123.846  1.00  0.00     0.158 HD
ENDBRANCH   7  11
TORSDOF 1
ENDMDL
MODEL 7
REMARK VINA RESULT:    -3.774      1.145      2.737
REMARK INTER + INTRA:          -3.884
REMARK INTER:                  -3.884
REMARK INTRA:                   0.000
REMARK UNBOUND:                 0.000
REMARK SMILES Nc1ncnc2nc[nH]c12
REMARK SMILES IDX 8 1 7 2 6 3 5 4 4 5 3 6 2 7 10 8 9 9 1 11
REMARK H PARENT 9 10 1 12 1 13
REMARK Flexibility Score: inf
ROOT
ATOM      1  C   UNL     1     123.877 118.370 124.936  1.00  0.00     0.199 A 
ATOM      2  N   UNL     1     124.689 117.862 125.902  1.00  0.00    -0.217 NA
ATOM      3  C   UNL     1     124.347 116.562 125.909  1.00  0.00     0.182 A 
ATOM      4  N   UNL     1     124.866 115.594 126.702  1.00  0.00    -0.215 NA
ATOM      5  C   UNL     1     124.387 114.322 126.563  1.00  0.00     0.226 A 
ATOM      6  N   UNL     1     123.407 114.042 125.643  1.00  0.00    -0.217 NA
ATOM      7  C   UNL     1     122.883 115.018 124.843  1.00  0.00     0.152 A 
ATOM      8  C   UNL     1     123.382 116.309 124.997  1.00  0.00     0.127 A 
ATOM      9  N   UNL     1     123.065 117.445 124.364  1.00  0.00    -0.340 N 
ATOM     10  H   UNL     1     122.362 117.598 123.608  1.00  0.00     0.168 HD
ENDROOT
BRANCH   7  11
ATOM     11  N   UNL     1     121.864 114.705 123.893  1.00  0.00    -0.382 N 
ATOM     12  H   UNL     1     121.131 113.998 124.127  1.00  0.00     0.158 HD
ATOM     13  H   UNL     1     121.831 115.167 122.959  1.00  0.00     0.158 HD
ENDBRANCH   7  11
TORSDOF 1
ENDMDL
MODEL 8
REMARK VINA RESULT:    -3.764     15.195     15.657
REMARK INTER + INTRA:          -3.874
REMARK INTER:                  -3.874
REMARK INTRA:                   0.000
REMARK UNBOUND:                 0.000
REMARK SMILES Nc1ncnc2nc[nH]c12
REMARK SMILES IDX 8 1 7 2 6 3 5 4 4 5 3 6 2 7 10 8 9 9 1 11
REMARK H PARENT 9 10 1 12 1 13
REMARK Flexibility Score: inf
ROOT
ATOM      1  C   UNL     1     123.347 130.918 123.594  1.00  0.00     0.199 A 
ATOM      2  N   UNL     1     122.196 130.426 123.061  1.00  0.00    -0.217 NA
ATOM      3  C   UNL     1     121.298 130.692 124.024  1.00  0.00     0.182 A 
ATOM      4  N   UNL     1     119.975 130.402 123.998  1.00  0.00    -0.215 NA
ATOM      5  C   UNL     1     119.217 130.753 125.080  1.00  0.00     0.226 A 
ATOM      6  N   UNL     1     119.789 131.380 126.159  1.00  0.00    -0.217 NA
ATOM      7  C   UNL     1     121.124 131.673 126.186  1.00  0.00     0.152 A 
ATOM      8  C   UNL     1     121.882 131.309 125.076  1.00  0.00     0.127 A 
ATOM      9  N   UNL     1     123.188 131.465 124.826  1.00  0.00    -0.340 N 
ATOM     10  H   UNL     1     123.920 131.901 125.427  1.00  0.00     0.168 HD
ENDROOT
BRANCH   7  11
ATOM     11  N   UNL     1     121.698 132.326 127.318  1.00  0.00    -0.382 N 
ATOM     12  H   UNL     1     121.081 132.803 128.014  1.00  0.00     0.158 HD
ATOM     13  H   UNL     1     122.729 132.341 127.473  1.00  0.00     0.158 HD
ENDBRANCH   7  11
TORSDOF 1
ENDMDL
MODEL 9
REMARK VINA RESULT:    -3.684      2.042      4.302
REMARK INTER + INTRA:          -3.792
REMARK INTER:                  -3.792
REMARK INTRA:                   0.000
REMARK UNBOUND:                 0.000
REMARK SMILES Nc1ncnc2nc[nH]c12
REMARK SMILES IDX 8 1 7 2 6 3 5 4 4 5 3 6 2 7 10 8 9 9 1 11
REMARK H PARENT 9 10 1 12 1 13
REMARK Flexibility Score: inf
ROOT
ATOM      1  C   UNL     1     121.802 114.769 124.400  1.00  0.00     0.199 A 
ATOM      2  N   UNL     1     122.713 114.905 125.401  1.00  0.00    -0.217 NA
ATOM      3  C   UNL     1     123.384 116.009 125.030  1.00  0.00     0.182 A 
ATOM      4  N   UNL     1     124.415 116.588 125.691  1.00  0.00    -0.215 NA
ATOM      5  C   UNL     1     124.973 117.714 125.153  1.00  0.00     0.226 A 
ATOM      6  N   UNL     1     124.497 118.235 123.976  1.00  0.00    -0.217 NA
ATOM      7  C   UNL     1     123.457 117.651 123.309  1.00  0.00     0.152 A 
ATOM      8  C   UNL     1     122.899 116.505 123.870  1.00  0.00     0.127 A 
ATOM      9  N   UNL     1     121.890 115.732 123.448  1.00  0.00    -0.340 N 
ATOM     10  H   UNL     1     121.302 115.835 122.592  1.00  0.00     0.168 HD
ENDROOT
BRANCH   7  11
ATOM     11  N   UNL     1     122.977 118.210 122.086  1.00  0.00    -0.382 N 
ATOM     12  H   UNL     1     123.382 117.897 121.174  1.00  0.00     0.158 HD
ATOM     13  H   UNL     1     122.224 118.931 122.076  1.00  0.00     0.158 HD
ENDBRANCH   7  11
TORSDOF 1
ENDMDL
