MODEL 1
REMARK VINA RESULT:    -2.877      0.000      0.000
REMARK INTER + INTRA:          -3.473
REMARK INTER:                  -3.382
REMARK INTRA:                  -0.092
REMARK UNBOUND:                -0.092
REMARK SMILES CCCCC(=O)[O-]
REMARK SMILES IDX 4 1 5 2 6 3 7 4 3 5 2 6 1 7
REMARK H PARENT
REMARK Flexibility Score: inf
ROOT
ATOM      1  C   UNL     1      11.793 -14.955  -3.609  1.00  0.00     0.053 C 
ENDROOT
BRANCH   1   2
ATOM      2  C   UNL     1      11.709 -14.176  -2.333  1.00  0.00     0.041 C 
ATOM      3  O   UNL     1      12.682 -13.473  -1.953  1.00  0.00    -0.550 OA
ATOM      4  O   UNL     1      10.567 -14.253  -1.544  1.00  0.00    -0.550 OA
ENDBRANCH   1   2
BRANCH   1   5
ATOM      5  C   UNL     1      12.063 -16.447  -3.357  1.00  0.00     0.006 C 
BRANCH   5   6
ATOM      6  C   UNL     1      10.792 -17.291  -3.155  1.00  0.00    -0.003 C 
ATOM      7  C   UNL     1      10.660 -17.835  -1.733  1.00  0.00     0.004 C 
ENDBRANCH   5   6
ENDBRANCH   1   5
TORSDOF 3
ENDMDL
MODEL 2
REMARK VINA RESULT:    -2.704     22.121     22.851
REMARK INTER + INTRA:          -3.270
REMARK INTER:                  -3.255
REMARK INTRA:                  -0.015
REMARK UNBOUND:                -0.092
REMARK SMILES CCCCC(=O)[O-]
REMARK SMILES IDX 4 1 5 2 6 3 7 4 3 5 2 6 1 7
REMARK H PARENT
REMARK Flexibility Score: inf
ROOT
ATOM      1  C   UNL     1      -2.927 -11.111  14.735  1.00  0.00     0.053 C 
ENDROOT
BRANCH   1   2
ATOM      2  C   UNL     1      -2.917  -9.685  14.278  1.00  0.00     0.041 C 
ATOM      3  O   UNL     1      -2.083  -9.301  13.416  1.00  0.00    -0.550 OA
ATOM      4  O   UNL     1      -3.807  -8.771  14.830  1.00  0.00    -0.550 OA
ENDBRANCH   1   2
BRANCH   1   5
ATOM      5  C   UNL     1      -4.207 -11.844  14.303  1.00  0.00     0.006 C 
BRANCH   5   6
ATOM      6  C   UNL     1      -4.098 -13.379  14.350  1.00  0.00    -0.003 C 
ATOM      7  C   UNL     1      -4.432 -14.039  13.012  1.00  0.00     0.004 C 
ENDBRANCH   5   6
ENDBRANCH   1   5
TORSDOF 3
ENDMDL
MODEL 3
REMARK VINA RESULT:    -2.484      9.472     10.876
REMARK INTER + INTRA:          -3.011
REMARK INTER:                  -2.903
REMARK INTRA:                  -0.108
REMARK UNBOUND:                -0.092
REMARK SMILES CCCCC(=O)[O-]
REMARK SMILES IDX 4 1 5 2 6 3 7 4 3 5 2 6 1 7
REMARK H PARENT
REMARK Flexibility Score: inf
ROOT
ATOM      1  C   UNL     1       3.098 -17.986   2.696  1.00  0.00     0.053 C 
ENDROOT
BRANCH   1   2
ATOM      2  C   UNL     1       4.054 -18.959   2.079  1.00  0.00     0.041 C 
ATOM      3  O   UNL     1       5.132 -19.247   2.663  1.00  0.00    -0.550 OA
ATOM      4  O   UNL     1       3.770 -19.524   0.842  1.00  0.00    -0.550 OA
ENDBRANCH   1   2
BRANCH   1   5
ATOM      5  C   UNL     1       1.853 -18.685   3.267  1.00  0.00     0.006 C 
BRANCH   5   6
ATOM      6  C   UNL     1       2.040 -19.239   4.690  1.00  0.00    -0.003 C 
ATOM      7  C   UNL     1       2.783 -18.272   5.612  1.00  0.00     0.004 C 
ENDBRANCH   5   6
ENDBRANCH   1   5
TORSDOF 3
ENDMDL
MODEL 4
REMARK VINA RESULT:    -2.413      9.509     10.945
REMARK INTER + INTRA:          -2.927
REMARK INTER:                  -2.797
REMARK INTRA:                  -0.130
REMARK UNBOUND:                -0.092
REMARK SMILES CCCCC(=O)[O-]
REMARK SMILES IDX 4 1 5 2 6 3 7 4 3 5 2 6 1 7
REMARK H PARENT
REMARK Flexibility Score: inf
ROOT
ATOM      1  C   UNL     1       3.152 -17.947   2.707  1.00  0.00     0.053 C 
ENDROOT
BRANCH   1   2
ATOM      2  C   UNL     1       4.068 -18.964   2.098  1.00  0.00     0.041 C 
ATOM      3  O   UNL     1       3.781 -19.494   0.992  1.00  0.00    -0.550 OA
ATOM      4  O   UNL     1       5.222 -19.351   2.767  1.00  0.00    -0.550 OA
ENDBRANCH   1   2
BRANCH   1   5
ATOM      5  C   UNL     1       2.537 -18.442   4.026  1.00  0.00     0.006 C 
BRANCH   5   6
ATOM      6  C   UNL     1       1.594 -19.647   3.866  1.00  0.00    -0.003 C 
ATOM      7  C   UNL     1       0.446 -19.378   2.893  1.00  0.00     0.004 C 
ENDBRANCH   5   6
ENDBRANCH   1   5
TORSDOF 3
ENDMDL
MODEL 5
REMARK VINA RESULT:    -2.408     10.243     11.318
REMARK INTER + INTRA:          -2.922
REMARK INTER:                  -2.860
REMARK INTRA:                  -0.062
REMARK UNBOUND:                -0.092
REMARK SMILES CCCCC(=O)[O-]
REMARK SMILES IDX 4 1 5 2 6 3 7 4 3 5 2 6 1 7
REMARK H PARENT
REMARK Flexibility Score: inf
ROOT
ATOM      1  C   UNL     1       2.229 -18.733   4.093  1.00  0.00     0.053 C 
ENDROOT
BRANCH   1   2
ATOM      2  C   UNL     1       2.982 -18.639   5.385  1.00  0.00     0.041 C 
ATOM      3  O   UNL     1       3.962 -19.398   5.604  1.00  0.00    -0.550 OA
ATOM      4  O   UNL     1       2.580 -17.735   6.361  1.00  0.00    -0.550 OA
ENDBRANCH   1   2
BRANCH   1   5
ATOM      5  C   UNL     1       2.803 -17.789   3.023  1.00  0.00     0.006 C 
BRANCH   5   6
ATOM      6  C   UNL     1       3.913 -18.417   2.162  1.00  0.00    -0.003 C 
ATOM      7  C   UNL     1       3.389 -19.486   1.204  1.00  0.00     0.004 C 
ENDBRANCH   5   6
ENDBRANCH   1   5
TORSDOF 3
ENDMDL
MODEL 6
REMARK VINA RESULT:    -2.258      8.289      9.275
REMARK INTER + INTRA:          -2.745
REMARK INTER:                  -2.640
REMARK INTRA:                  -0.105
REMARK UNBOUND:                -0.092
REMARK SMILES CCCCC(=O)[O-]
REMARK SMILES IDX 4 1 5 2 6 3 7 4 3 5 2 6 1 7
REMARK H PARENT
REMARK Flexibility Score: inf
ROOT
ATOM      1  C   UNL     1       9.319 -16.313   5.939  1.00  0.00     0.053 C 
ENDROOT
BRANCH   1   2
ATOM      2  C   UNL     1      10.192 -16.160   4.732  1.00  0.00     0.041 C 
ATOM      3  O   UNL     1       9.933 -16.795   3.676  1.00  0.00    -0.550 OA
ATOM      4  O   UNL     1      11.313 -15.340   4.784  1.00  0.00    -0.550 OA
ENDBRANCH   1   2
BRANCH   1   5
ATOM      5  C   UNL     1       9.001 -14.960   6.595  1.00  0.00     0.006 C 
BRANCH   5   6
ATOM      6  C   UNL     1       9.409 -14.868   8.077  1.00  0.00    -0.003 C 
ATOM      7  C   UNL     1      10.907 -14.637   8.267  1.00  0.00     0.004 C 
ENDBRANCH   5   6
ENDBRANCH   1   5
TORSDOF 3
ENDMDL
MODEL 7
REMARK VINA RESULT:    -2.220      7.611      8.780
REMARK INTER + INTRA:          -2.701
REMARK INTER:                  -2.591
REMARK INTRA:                  -0.111
REMARK UNBOUND:                -0.092
REMARK SMILES CCCCC(=O)[O-]
REMARK SMILES IDX 4 1 5 2 6 3 7 4 3 5 2 6 1 7
REMARK H PARENT
REMARK Flexibility Score: inf
ROOT
ATOM      1  C   UNL     1       9.268 -17.719   5.351  1.00  0.00     0.053 C 
ENDROOT
BRANCH   1   2
ATOM      2  C   UNL     1       9.606 -16.976   4.095  1.00  0.00     0.041 C 
ATOM      3  O   UNL     1      10.339 -15.954   4.141  1.00  0.00    -0.550 OA
ATOM      4  O   UNL     1       9.083 -17.394   2.877  1.00  0.00    -0.550 OA
ENDBRANCH   1   2
BRANCH   1   5
ATOM      5  C   UNL     1       9.564 -16.886   6.610  1.00  0.00     0.006 C 
BRANCH   5   6
ATOM      6  C   UNL     1       8.327 -16.196   7.212  1.00  0.00    -0.003 C 
ATOM      7  C   UNL     1       8.299 -14.691   6.948  1.00  0.00     0.004 C 
ENDBRANCH   5   6
ENDBRANCH   1   5
TORSDOF 3
ENDMDL
MODEL 8
REMARK VINA RESULT:    -2.198     18.794     19.644
REMARK INTER + INTRA:          -2.675
REMARK INTER:                  -2.640
REMARK INTRA:                  -0.036
REMARK UNBOUND:                -0.092
REMARK SMILES CCCCC(=O)[O-]
REMARK SMILES IDX 4 1 5 2 6 3 7 4 3 5 2 6 1 7
REMARK H PARENT
REMARK Flexibility Score: inf
ROOT
ATOM      1  C   UNL     1       8.219  -7.769  15.418  1.00  0.00     0.053 C 
ENDROOT
BRANCH   1   2
ATOM      2  C   UNL     1       7.408  -6.534  15.177  1.00  0.00     0.041 C 
ATOM      3  O   UNL     1       6.301  -6.378  15.757  1.00  0.00    -0.550 OA
ATOM      4  O   UNL     1       7.858  -5.568  14.284  1.00  0.00    -0.550 OA
ENDBRANCH   1   2
BRANCH   1   5
ATOM      5  C   UNL     1       7.333  -9.007  15.632  1.00  0.00     0.006 C 
BRANCH   5   6
ATOM      6  C   UNL     1       7.902 -10.301  15.022  1.00  0.00    -0.003 C 
ATOM      7  C   UNL     1       9.367 -10.167  14.606  1.00  0.00     0.004 C 
ENDBRANCH   5   6
ENDBRANCH   1   5
TORSDOF 3
ENDMDL
MODEL 9
REMARK VINA RESULT:    -2.184     18.638     19.192
REMARK INTER + INTRA:          -2.658
REMARK INTER:                  -2.638
REMARK INTRA:                  -0.020
REMARK UNBOUND:                -0.092
REMARK SMILES CCCCC(=O)[O-]
REMARK SMILES IDX 4 1 5 2 6 3 7 4 3 5 2 6 1 7
REMARK H PARENT
REMARK Flexibility Score: inf
ROOT
ATOM      1  C   UNL     1       7.571 -10.693  15.461  1.00  0.00     0.053 C 
ENDROOT
BRANCH   1   2
ATOM      2  C   UNL     1       6.279  -9.943  15.362  1.00  0.00     0.041 C 
ATOM      3  O   UNL     1       5.189 -10.567  15.268  1.00  0.00    -0.550 OA
ATOM      4  O   UNL     1       6.280  -8.553  15.341  1.00  0.00    -0.550 OA
ENDBRANCH   1   2
BRANCH   1   5
ATOM      5  C   UNL     1       8.655 -10.096  14.548  1.00  0.00     0.006 C 
BRANCH   5   6
ATOM      6  C   UNL     1      10.092 -10.477  14.946  1.00  0.00    -0.003 C 
ATOM      7  C   UNL     1      10.839  -9.337  15.638  1.00  0.00     0.004 C 
ENDBRANCH   5   6
ENDBRANCH   1   5
TORSDOF 3
ENDMDL
