MODEL 1
REMARK VINA RESULT:    -4.563      0.000      0.000
REMARK INTER + INTRA:          -6.661
REMARK INTER:                  -6.431
REMARK INTRA:                  -0.230
REMARK UNBOUND:                -0.230
REMARK SMILES CCCCCCCCC(=O)[O-]
REMARK SMILES IDX 6 1 7 2 8 3 9 4 10 5 11 6 5 7 4 8 3 9 2 10 1 11
REMARK H PARENT
REMARK Flexibility Score: inf
ROOT
ATOM      1  C   UNL     1      15.211  23.630  28.766  1.00  0.00     0.000 C 
ENDROOT
BRANCH   1   2
ATOM      2  C   UNL     1      14.328  23.410  30.004  1.00  0.00     0.006 C 
BRANCH   2   3
ATOM      3  C   UNL     1      13.433  24.616  30.315  1.00  0.00     0.053 C 
BRANCH   3   4
ATOM      4  C   UNL     1      12.033  24.168  30.596  1.00  0.00     0.041 C 
ATOM      5  O   UNL     1      11.441  24.554  31.639  1.00  0.00    -0.550 OA
ATOM      6  O   UNL     1      11.399  23.282  29.734  1.00  0.00    -0.550 OA
ENDBRANCH   3   4
ENDBRANCH   2   3
ENDBRANCH   1   2
BRANCH   1   7
ATOM      7  C   UNL     1      16.511  22.807  28.814  1.00  0.00     0.000 C 
BRANCH   7   8
ATOM      8  C   UNL     1      16.433  21.527  27.966  1.00  0.00    -0.000 C 
BRANCH   8   9
ATOM      9  C   UNL     1      16.837  21.764  26.500  1.00  0.00    -0.000 C 
BRANCH   9  10
ATOM     10  C   UNL     1      15.625  22.017  25.590  1.00  0.00    -0.003 C 
ATOM     11  C   UNL     1      16.012  22.206  24.124  1.00  0.00     0.004 C 
ENDBRANCH   9  10
ENDBRANCH   8   9
ENDBRANCH   7   8
ENDBRANCH   1   7
TORSDOF 7
ENDMDL
MODEL 2
REMARK VINA RESULT:    -4.500      3.037      5.180
REMARK INTER + INTRA:          -6.572
REMARK INTER:                  -5.933
REMARK INTRA:                  -0.639
REMARK UNBOUND:                -0.230
REMARK SMILES CCCCCCCCC(=O)[O-]
REMARK SMILES IDX 6 1 7 2 8 3 9 4 10 5 11 6 5 7 4 8 3 9 2 10 1 11
REMARK H PARENT
REMARK Flexibility Score: inf
ROOT
ATOM      1  C   UNL     1      14.145  21.422  27.227  1.00  0.00     0.000 C 
ENDROOT
BRANCH   1   2
ATOM      2  C   UNL     1      15.125  21.805  26.107  1.00  0.00     0.006 C 
BRANCH   2   3
ATOM      3  C   UNL     1      16.508  22.201  26.640  1.00  0.00     0.053 C 
BRANCH   3   4
ATOM      4  C   UNL     1      16.582  23.681  26.851  1.00  0.00     0.041 C 
ATOM      5  O   UNL     1      15.991  24.464  26.061  1.00  0.00    -0.550 OA
ATOM      6  O   UNL     1      17.346  24.198  27.890  1.00  0.00    -0.550 OA
ENDBRANCH   3   4
ENDBRANCH   2   3
ENDBRANCH   1   2
BRANCH   1   7
ATOM      7  C   UNL     1      14.861  20.910  28.489  1.00  0.00     0.000 C 
BRANCH   7   8
ATOM      8  C   UNL     1      14.311  21.542  29.778  1.00  0.00    -0.000 C 
BRANCH   8   9
ATOM      9  C   UNL     1      14.985  22.885  30.112  1.00  0.00    -0.000 C 
BRANCH   9  10
ATOM     10  C   UNL     1      14.121  24.091  29.710  1.00  0.00    -0.003 C 
ATOM     11  C   UNL     1      13.075  24.451  30.764  1.00  0.00     0.004 C 
ENDBRANCH   9  10
ENDBRANCH   8   9
ENDBRANCH   7   8
ENDBRANCH   1   7
TORSDOF 7
ENDMDL
MODEL 3
REMARK VINA RESULT:    -4.463      3.440      5.976
REMARK INTER + INTRA:          -6.520
REMARK INTER:                  -6.297
REMARK INTRA:                  -0.223
REMARK UNBOUND:                -0.230
REMARK SMILES CCCCCCCCC(=O)[O-]
REMARK SMILES IDX 6 1 7 2 8 3 9 4 10 5 11 6 5 7 4 8 3 9 2 10 1 11
REMARK H PARENT
REMARK Flexibility Score: inf
ROOT
ATOM      1  C   UNL     1      16.087  23.359  29.036  1.00  0.00     0.000 C 
ENDROOT
BRANCH   1   2
ATOM      2  C   UNL     1      16.842  23.809  27.775  1.00  0.00     0.006 C 
BRANCH   2   3
ATOM      3  C   UNL     1      15.973  23.749  26.512  1.00  0.00     0.053 C 
BRANCH   3   4
ATOM      4  C   UNL     1      16.344  22.562  25.680  1.00  0.00     0.041 C 
ATOM      5  O   UNL     1      15.943  22.472  24.489  1.00  0.00    -0.550 OA
ATOM      6  O   UNL     1      17.089  21.528  26.234  1.00  0.00    -0.550 OA
ENDBRANCH   3   4
ENDBRANCH   2   3
ENDBRANCH   1   2
BRANCH   1   7
ATOM      7  C   UNL     1      14.626  23.838  29.053  1.00  0.00     0.000 C 
BRANCH   7   8
ATOM      8  C   UNL     1      13.902  23.485  30.362  1.00  0.00    -0.000 C 
BRANCH   8   9
ATOM      9  C   UNL     1      12.778  24.480  30.703  1.00  0.00    -0.000 C 
BRANCH   9  10
ATOM     10  C   UNL     1      11.424  24.062  30.106  1.00  0.00    -0.003 C 
ATOM     11  C   UNL     1      10.269  24.202  31.097  1.00  0.00     0.004 C 
ENDBRANCH   9  10
ENDBRANCH   8   9
ENDBRANCH   7   8
ENDBRANCH   1   7
TORSDOF 7
ENDMDL
MODEL 4
REMARK VINA RESULT:    -4.416      2.322      2.844
REMARK INTER + INTRA:          -6.453
REMARK INTER:                  -5.943
REMARK INTRA:                  -0.510
REMARK UNBOUND:                -0.230
REMARK SMILES CCCCCCCCC(=O)[O-]
REMARK SMILES IDX 6 1 7 2 8 3 9 4 10 5 11 6 5 7 4 8 3 9 2 10 1 11
REMARK H PARENT
REMARK Flexibility Score: inf
ROOT
ATOM      1  C   UNL     1      14.787  23.748  28.959  1.00  0.00     0.000 C 
ENDROOT
BRANCH   1   2
ATOM      2  C   UNL     1      13.903  22.586  29.438  1.00  0.00     0.006 C 
BRANCH   2   3
ATOM      3  C   UNL     1      13.956  21.374  28.498  1.00  0.00     0.053 C 
BRANCH   3   4
ATOM      4  C   UNL     1      13.091  20.270  29.021  1.00  0.00     0.041 C 
ATOM      5  O   UNL     1      12.159  20.524  29.829  1.00  0.00    -0.550 OA
ATOM      6  O   UNL     1      13.347  18.954  28.656  1.00  0.00    -0.550 OA
ENDBRANCH   3   4
ENDBRANCH   2   3
ENDBRANCH   1   2
BRANCH   1   7
ATOM      7  C   UNL     1      16.280  23.377  28.921  1.00  0.00     0.000 C 
BRANCH   7   8
ATOM      8  C   UNL     1      16.981  23.872  27.645  1.00  0.00    -0.000 C 
BRANCH   8   9
ATOM      9  C   UNL     1      16.129  23.653  26.382  1.00  0.00    -0.000 C 
BRANCH   9  10
ATOM     10  C   UNL     1      16.293  22.239  25.801  1.00  0.00    -0.003 C 
ATOM     11  C   UNL     1      15.967  22.168  24.310  1.00  0.00     0.004 C 
ENDBRANCH   9  10
ENDBRANCH   8   9
ENDBRANCH   7   8
ENDBRANCH   1   7
TORSDOF 7
ENDMDL
MODEL 5
REMARK VINA RESULT:    -4.302      1.561      2.028
REMARK INTER + INTRA:          -6.292
REMARK INTER:                  -5.601
REMARK INTRA:                  -0.691
REMARK UNBOUND:                -0.230
REMARK SMILES CCCCCCCCC(=O)[O-]
REMARK SMILES IDX 6 1 7 2 8 3 9 4 10 5 11 6 5 7 4 8 3 9 2 10 1 11
REMARK H PARENT
REMARK Flexibility Score: inf
ROOT
ATOM      1  C   UNL     1      14.812  20.943  28.840  1.00  0.00     0.000 C 
ENDROOT
BRANCH   1   2
ATOM      2  C   UNL     1      14.712  21.876  30.057  1.00  0.00     0.006 C 
BRANCH   2   3
ATOM      3  C   UNL     1      14.301  23.305  29.676  1.00  0.00     0.053 C 
BRANCH   3   4
ATOM      4  C   UNL     1      13.069  23.709  30.422  1.00  0.00     0.041 C 
ATOM      5  O   UNL     1      13.062  24.763  31.111  1.00  0.00    -0.550 OA
ATOM      6  O   UNL     1      11.942  22.895  30.398  1.00  0.00    -0.550 OA
ENDBRANCH   3   4
ENDBRANCH   2   3
ENDBRANCH   1   2
BRANCH   1   7
ATOM      7  C   UNL     1      14.049  21.482  27.618  1.00  0.00     0.000 C 
BRANCH   7   8
ATOM      8  C   UNL     1      14.968  21.731  26.410  1.00  0.00    -0.000 C 
BRANCH   8   9
ATOM      9  C   UNL     1      16.444  21.895  26.815  1.00  0.00    -0.000 C 
BRANCH   9  10
ATOM     10  C   UNL     1      16.852  23.369  26.961  1.00  0.00    -0.003 C 
ATOM     11  C   UNL     1      16.075  24.296  26.028  1.00  0.00     0.004 C 
ENDBRANCH   9  10
ENDBRANCH   8   9
ENDBRANCH   7   8
ENDBRANCH   1   7
TORSDOF 7
ENDMDL
MODEL 6
REMARK VINA RESULT:    -4.281      1.469      2.019
REMARK INTER + INTRA:          -6.263
REMARK INTER:                  -5.698
REMARK INTRA:                  -0.565
REMARK UNBOUND:                -0.230
REMARK SMILES CCCCCCCCC(=O)[O-]
REMARK SMILES IDX 6 1 7 2 8 3 9 4 10 5 11 6 5 7 4 8 3 9 2 10 1 11
REMARK H PARENT
REMARK Flexibility Score: inf
ROOT
ATOM      1  C   UNL     1      14.236  23.972  29.516  1.00  0.00     0.000 C 
ENDROOT
BRANCH   1   2
ATOM      2  C   UNL     1      13.200  24.301  30.602  1.00  0.00     0.006 C 
BRANCH   2   3
ATOM      3  C   UNL     1      11.755  24.174  30.100  1.00  0.00     0.053 C 
BRANCH   3   4
ATOM      4  C   UNL     1      11.394  22.734  29.910  1.00  0.00     0.041 C 
ATOM      5  O   UNL     1      10.635  22.390  28.966  1.00  0.00    -0.550 OA
ATOM      6  O   UNL     1      11.855  21.777  30.806  1.00  0.00    -0.550 OA
ENDBRANCH   3   4
ENDBRANCH   2   3
ENDBRANCH   1   2
BRANCH   1   7
ATOM      7  C   UNL     1      15.302  22.973  29.999  1.00  0.00     0.000 C 
BRANCH   7   8
ATOM      8  C   UNL     1      15.611  21.887  28.956  1.00  0.00    -0.000 C 
BRANCH   8   9
ATOM      9  C   UNL     1      14.566  21.839  27.826  1.00  0.00    -0.000 C 
BRANCH   9  10
ATOM     10  C   UNL     1      15.206  21.916  26.431  1.00  0.00    -0.003 C 
ATOM     11  C   UNL     1      16.731  21.813  26.471  1.00  0.00     0.004 C 
ENDBRANCH   9  10
ENDBRANCH   8   9
ENDBRANCH   7   8
ENDBRANCH   1   7
TORSDOF 7
ENDMDL
MODEL 7
REMARK VINA RESULT:    -4.263      3.620      5.105
REMARK INTER + INTRA:          -6.238
REMARK INTER:                  -5.658
REMARK INTRA:                  -0.580
REMARK UNBOUND:                -0.230
REMARK SMILES CCCCCCCCC(=O)[O-]
REMARK SMILES IDX 6 1 7 2 8 3 9 4 10 5 11 6 5 7 4 8 3 9 2 10 1 11
REMARK H PARENT
REMARK Flexibility Score: inf
ROOT
ATOM      1  C   UNL     1      15.094  23.743  28.793  1.00  0.00     0.000 C 
ENDROOT
BRANCH   1   2
ATOM      2  C   UNL     1      16.314  23.634  27.865  1.00  0.00     0.006 C 
BRANCH   2   3
ATOM      3  C   UNL     1      15.936  23.704  26.379  1.00  0.00     0.053 C 
BRANCH   3   4
ATOM      4  C   UNL     1      16.294  22.426  25.689  1.00  0.00     0.041 C 
ATOM      5  O   UNL     1      17.029  21.579  26.263  1.00  0.00    -0.550 OA
ATOM      6  O   UNL     1      15.859  22.190  24.390  1.00  0.00    -0.550 OA
ENDBRANCH   3   4
ENDBRANCH   2   3
ENDBRANCH   1   2
BRANCH   1   7
ATOM      7  C   UNL     1      14.967  22.541  29.745  1.00  0.00     0.000 C 
BRANCH   7   8
ATOM      8  C   UNL     1      14.897  21.199  28.998  1.00  0.00    -0.000 C 
BRANCH   8   9
ATOM      9  C   UNL     1      13.659  21.093  28.088  1.00  0.00    -0.000 C 
BRANCH   9  10
ATOM     10  C   UNL     1      12.345  21.294  28.859  1.00  0.00    -0.003 C 
ATOM     11  C   UNL     1      11.638  19.978  29.181  1.00  0.00     0.004 C 
ENDBRANCH   9  10
ENDBRANCH   8   9
ENDBRANCH   7   8
ENDBRANCH   1   7
TORSDOF 7
ENDMDL
MODEL 8
REMARK VINA RESULT:    -4.237     21.866     22.925
REMARK INTER + INTRA:          -6.201
REMARK INTER:                  -5.779
REMARK INTRA:                  -0.422
REMARK UNBOUND:                -0.230
REMARK SMILES CCCCCCCCC(=O)[O-]
REMARK SMILES IDX 6 1 7 2 8 3 9 4 10 5 11 6 5 7 4 8 3 9 2 10 1 11
REMARK H PARENT
REMARK Flexibility Score: inf
ROOT
ATOM      1  C   UNL     1       3.506  35.642  15.070  1.00  0.00     0.000 C 
ENDROOT
BRANCH   1   2
ATOM      2  C   UNL     1       2.418  36.650  15.475  1.00  0.00     0.006 C 
BRANCH   2   3
ATOM      3  C   UNL     1       1.376  36.872  14.371  1.00  0.00     0.053 C 
BRANCH   3   4
ATOM      4  C   UNL     1       2.028  37.422  13.141  1.00  0.00     0.041 C 
ATOM      5  O   UNL     1       1.921  36.816  12.042  1.00  0.00    -0.550 OA
ATOM      6  O   UNL     1       2.797  38.577  13.219  1.00  0.00    -0.550 OA
ENDBRANCH   3   4
ENDBRANCH   2   3
ENDBRANCH   1   2
BRANCH   1   7
ATOM      7  C   UNL     1       4.899  36.036  15.592  1.00  0.00     0.000 C 
BRANCH   7   8
ATOM      8  C   UNL     1       5.096  37.559  15.662  1.00  0.00    -0.000 C 
BRANCH   8   9
ATOM      9  C   UNL     1       6.577  37.968  15.569  1.00  0.00    -0.000 C 
BRANCH   9  10
ATOM     10  C   UNL     1       6.831  39.006  14.464  1.00  0.00    -0.003 C 
ATOM     11  C   UNL     1       7.744  38.483  13.356  1.00  0.00     0.004 C 
ENDBRANCH   9  10
ENDBRANCH   8   9
ENDBRANCH   7   8
ENDBRANCH   1   7
TORSDOF 7
ENDMDL
MODEL 9
REMARK VINA RESULT:    -4.210     22.120     23.267
REMARK INTER + INTRA:          -6.164
REMARK INTER:                  -5.454
REMARK INTRA:                  -0.710
REMARK UNBOUND:                -0.230
REMARK SMILES CCCCCCCCC(=O)[O-]
REMARK SMILES IDX 6 1 7 2 8 3 9 4 10 5 11 6 5 7 4 8 3 9 2 10 1 11
REMARK H PARENT
REMARK Flexibility Score: inf
ROOT
ATOM      1  C   UNL     1       2.812  38.056  14.162  1.00  0.00     0.000 C 
ENDROOT
BRANCH   1   2
ATOM      2  C   UNL     1       3.007  37.343  15.509  1.00  0.00     0.006 C 
BRANCH   2   3
ATOM      3  C   UNL     1       3.649  35.957  15.358  1.00  0.00     0.053 C 
BRANCH   3   4
ATOM      4  C   UNL     1       5.043  35.965  15.902  1.00  0.00     0.041 C 
ATOM      5  O   UNL     1       5.926  36.689  15.372  1.00  0.00    -0.550 OA
ATOM      6  O   UNL     1       5.380  35.135  16.964  1.00  0.00    -0.550 OA
ENDBRANCH   3   4
ENDBRANCH   2   3
ENDBRANCH   1   2
BRANCH   1   7
ATOM      7  C   UNL     1       1.389  38.614  13.989  1.00  0.00     0.000 C 
BRANCH   7   8
ATOM      8  C   UNL     1       0.612  37.914  12.861  1.00  0.00    -0.000 C 
BRANCH   8   9
ATOM      9  C   UNL     1       1.443  36.825  12.160  1.00  0.00    -0.000 C 
BRANCH   9  10
ATOM     10  C   UNL     1       0.757  35.450  12.193  1.00  0.00    -0.003 C 
ATOM     11  C   UNL     1       0.408  34.994  13.610  1.00  0.00     0.004 C 
ENDBRANCH   9  10
ENDBRANCH   8   9
ENDBRANCH   7   8
ENDBRANCH   1   7
TORSDOF 7
ENDMDL
