MODEL 1
REMARK VINA RESULT:    -4.239      0.000      0.000
REMARK INTER + INTRA:          -5.987
REMARK INTER:                  -5.478
REMARK INTRA:                  -0.509
REMARK UNBOUND:                -0.509
REMARK SMILES CO[C@]1(CO)O[C@H](CO)[C@H](O)[C@@H]1O
REMARK SMILES IDX 3 1 12 2 10 3 7 4 6 5 2 6 1 7 4 8 5 9 13 11 11 13 8 15 9 16
REMARK H PARENT 5 10 13 12 11 14 9 17
REMARK Flexibility Score: inf
ROOT
ATOM      1  C   UNL     1      16.729  25.815  53.302  1.00  0.00     0.221 C 
ATOM      2  C   UNL     1      15.911  24.584  52.810  1.00  0.00     0.207 C 
ATOM      3  C   UNL     1      14.920  25.175  51.826  1.00  0.00     0.180 C 
ATOM      4  C   UNL     1      15.622  26.460  51.411  1.00  0.00     0.179 C 
ATOM      5  O   UNL     1      16.318  26.936  52.537  1.00  0.00    -0.337 OA
ENDROOT
BRANCH   1   6
ATOM      6  O   UNL     1      16.434  26.125  54.666  1.00  0.00    -0.349 OA
ATOM      7  C   UNL     1      15.940  27.436  54.871  1.00  0.00     0.198 C 
ENDBRANCH   1   6
BRANCH   1   8
ATOM      8  C   UNL     1      18.249  25.631  53.027  1.00  0.00     0.224 C 
BRANCH   8   9
ATOM      9  O   UNL     1      18.450  24.571  52.132  1.00  0.00    -0.391 OA
ATOM     10  H   UNL     1      19.255  24.087  52.454  1.00  0.00     0.210 HD
ENDBRANCH   8   9
ENDBRANCH   1   8
BRANCH   2  11
ATOM     11  O   UNL     1      15.250  23.916  53.856  1.00  0.00    -0.385 OA
ATOM     12  H   UNL     1      15.652  24.245  54.703  1.00  0.00     0.211 HD
ENDBRANCH   2  11
BRANCH   3  13
ATOM     13  O   UNL     1      13.664  25.418  52.423  1.00  0.00    -0.387 OA
ATOM     14  H   UNL     1      13.065  24.655  52.206  1.00  0.00     0.211 HD
ENDBRANCH   3  13
BRANCH   4  15
ATOM     15  C   UNL     1      14.686  27.549  50.866  1.00  0.00     0.191 C 
BRANCH  15  16
ATOM     16  O   UNL     1      14.192  28.344  51.912  1.00  0.00    -0.394 OA
ATOM     17  H   UNL     1      13.395  28.819  51.559  1.00  0.00     0.210 HD
ENDBRANCH  15  16
ENDBRANCH   4  15
TORSDOF 7
ENDMDL
MODEL 2
REMARK VINA RESULT:    -4.217      4.276      6.572
REMARK INTER + INTRA:          -5.958
REMARK INTER:                  -5.560
REMARK INTRA:                  -0.398
REMARK UNBOUND:                -0.509
REMARK SMILES CO[C@]1(CO)O[C@H](CO)[C@H](O)[C@@H]1O
REMARK SMILES IDX 3 1 12 2 10 3 7 4 6 5 2 6 1 7 4 8 5 9 13 11 11 13 8 15 9 16
REMARK H PARENT 5 10 13 12 11 14 9 17
REMARK Flexibility Score: inf
ROOT
ATOM      1  C   UNL     1      15.145  32.471  51.359  1.00  0.00     0.221 C 
ATOM      2  C   UNL     1      15.959  31.780  52.494  1.00  0.00     0.207 C 
ATOM      3  C   UNL     1      15.906  30.308  52.136  1.00  0.00     0.180 C 
ATOM      4  C   UNL     1      15.640  30.361  50.638  1.00  0.00     0.179 C 
ATOM      5  O   UNL     1      14.819  31.478  50.401  1.00  0.00    -0.337 OA
ENDROOT
BRANCH   1   6
ATOM      6  O   UNL     1      13.905  32.986  51.848  1.00  0.00    -0.349 OA
ATOM      7  C   UNL     1      12.766  32.254  51.430  1.00  0.00     0.198 C 
ENDBRANCH   1   6
BRANCH   1   8
ATOM      8  C   UNL     1      16.002  33.534  50.614  1.00  0.00     0.224 C 
BRANCH   8   9
ATOM      9  O   UNL     1      15.351  34.775  50.633  1.00  0.00    -0.391 OA
ATOM     10  H   UNL     1      16.007  35.426  50.995  1.00  0.00     0.210 HD
ENDBRANCH   8   9
ENDBRANCH   1   8
BRANCH   2  11
ATOM     11  O   UNL     1      15.418  32.012  53.771  1.00  0.00    -0.385 OA
ATOM     12  H   UNL     1      16.141  31.817  54.425  1.00  0.00     0.211 HD
ENDBRANCH   2  11
BRANCH   3  13
ATOM     13  O   UNL     1      14.886  29.630  52.837  1.00  0.00    -0.387 OA
ATOM     14  H   UNL     1      14.015  29.858  52.416  1.00  0.00     0.211 HD
ENDBRANCH   3  13
BRANCH   4  15
ATOM     15  C   UNL     1      14.992  29.094  50.061  1.00  0.00     0.191 C 
BRANCH  15  16
ATOM     16  O   UNL     1      15.689  27.950  50.476  1.00  0.00    -0.394 OA
ATOM     17  H   UNL     1      15.060  27.416  51.029  1.00  0.00     0.210 HD
ENDBRANCH  15  16
ENDBRANCH   4  15
TORSDOF 7
ENDMDL
MODEL 3
REMARK VINA RESULT:    -4.199      1.527      1.764
REMARK INTER + INTRA:          -5.935
REMARK INTER:                  -5.522
REMARK INTRA:                  -0.413
REMARK UNBOUND:                -0.509
REMARK SMILES CO[C@]1(CO)O[C@H](CO)[C@H](O)[C@@H]1O
REMARK SMILES IDX 3 1 12 2 10 3 7 4 6 5 2 6 1 7 4 8 5 9 13 11 11 13 8 15 9 16
REMARK H PARENT 5 10 13 12 11 14 9 17
REMARK Flexibility Score: inf
ROOT
ATOM      1  C   UNL     1      16.039  25.852  52.948  1.00  0.00     0.221 C 
ATOM      2  C   UNL     1      15.774  24.316  52.926  1.00  0.00     0.207 C 
ATOM      3  C   UNL     1      15.006  24.097  51.636  1.00  0.00     0.180 C 
ATOM      4  C   UNL     1      15.425  25.309  50.816  1.00  0.00     0.179 C 
ATOM      5  O   UNL     1      15.590  26.381  51.711  1.00  0.00    -0.337 OA
ENDROOT
BRANCH   1   6
ATOM      6  O   UNL     1      15.272  26.497  53.967  1.00  0.00    -0.349 OA
ATOM      7  C   UNL     1      15.976  27.500  54.678  1.00  0.00     0.198 C 
ENDBRANCH   1   6
BRANCH   1   8
ATOM      8  C   UNL     1      17.561  26.163  53.032  1.00  0.00     0.224 C 
BRANCH   8   9
ATOM      9  O   UNL     1      18.257  25.033  53.481  1.00  0.00    -0.391 OA
ATOM     10  H   UNL     1      17.838  24.775  54.344  1.00  0.00     0.210 HD
ENDBRANCH   8   9
ENDBRANCH   1   8
BRANCH   2  11
ATOM     11  O   UNL     1      15.035  23.875  54.038  1.00  0.00    -0.385 OA
ATOM     12  H   UNL     1      15.537  24.162  54.845  1.00  0.00     0.211 HD
ENDBRANCH   2  11
BRANCH   3  13
ATOM     13  O   UNL     1      13.612  24.052  51.853  1.00  0.00    -0.387 OA
ATOM     14  H   UNL     1      13.415  24.529  52.702  1.00  0.00     0.211 HD
ENDBRANCH   3  13
BRANCH   4  15
ATOM     15  C   UNL     1      14.439  25.695  49.703  1.00  0.00     0.191 C 
BRANCH  15  16
ATOM     16  O   UNL     1      14.186  24.599  48.865  1.00  0.00    -0.394 OA
ATOM     17  H   UNL     1      15.036  24.091  48.792  1.00  0.00     0.210 HD
ENDBRANCH  15  16
ENDBRANCH   4  15
TORSDOF 7
ENDMDL
MODEL 4
REMARK VINA RESULT:    -4.140      1.974      2.786
REMARK INTER + INTRA:          -5.859
REMARK INTER:                  -5.412
REMARK INTRA:                  -0.447
REMARK UNBOUND:                -0.509
REMARK SMILES CO[C@]1(CO)O[C@H](CO)[C@H](O)[C@@H]1O
REMARK SMILES IDX 3 1 12 2 10 3 7 4 6 5 2 6 1 7 4 8 5 9 13 11 11 13 8 15 9 16
REMARK H PARENT 5 10 13 12 11 14 9 17
REMARK Flexibility Score: inf
ROOT
ATOM      1  C   UNL     1      15.419  25.868  52.525  1.00  0.00     0.221 C 
ATOM      2  C   UNL     1      14.051  25.283  52.063  1.00  0.00     0.207 C 
ATOM      3  C   UNL     1      14.227  25.080  50.570  1.00  0.00     0.180 C 
ATOM      4  C   UNL     1      15.741  24.976  50.447  1.00  0.00     0.179 C 
ATOM      5  O   UNL     1      16.296  25.836  51.411  1.00  0.00    -0.337 OA
ENDROOT
BRANCH   1   6
ATOM      6  O   UNL     1      15.296  27.241  52.904  1.00  0.00    -0.349 OA
ATOM      7  C   UNL     1      15.813  27.538  54.189  1.00  0.00     0.198 C 
ENDBRANCH   1   6
BRANCH   1   8
ATOM      8  C   UNL     1      16.073  24.982  53.623  1.00  0.00     0.224 C 
BRANCH   8   9
ATOM      9  O   UNL     1      15.256  23.876  53.895  1.00  0.00    -0.391 OA
ATOM     10  H   UNL     1      15.666  23.106  53.420  1.00  0.00     0.210 HD
ENDBRANCH   8   9
ENDBRANCH   1   8
BRANCH   2  11
ATOM     11  O   UNL     1      12.971  26.142  52.334  1.00  0.00    -0.385 OA
ATOM     12  H   UNL     1      13.047  26.400  53.291  1.00  0.00     0.211 HD
ENDBRANCH   2  11
BRANCH   3  13
ATOM     13  O   UNL     1      13.700  26.156  49.825  1.00  0.00    -0.387 OA
ATOM     14  H   UNL     1      12.710  26.070  49.812  1.00  0.00     0.211 HD
ENDBRANCH   3  13
BRANCH   4  15
ATOM     15  C   UNL     1      16.290  25.316  49.053  1.00  0.00     0.191 C 
BRANCH  15  16
ATOM     16  O   UNL     1      15.557  24.652  48.058  1.00  0.00    -0.394 OA
ATOM     17  H   UNL     1      15.413  23.724  48.379  1.00  0.00     0.210 HD
ENDBRANCH  15  16
ENDBRANCH   4  15
TORSDOF 7
ENDMDL
MODEL 5
REMARK VINA RESULT:    -4.126      2.047      4.029
REMARK INTER + INTRA:          -5.840
REMARK INTER:                  -5.434
REMARK INTRA:                  -0.407
REMARK UNBOUND:                -0.509
REMARK SMILES CO[C@]1(CO)O[C@H](CO)[C@H](O)[C@@H]1O
REMARK SMILES IDX 3 1 12 2 10 3 7 4 6 5 2 6 1 7 4 8 5 9 13 11 11 13 8 15 9 16
REMARK H PARENT 5 10 13 12 11 14 9 17
REMARK Flexibility Score: inf
ROOT
ATOM      1  C   UNL     1      14.405  26.460  51.768  1.00  0.00     0.221 C 
ATOM      2  C   UNL     1      14.454  27.966  51.371  1.00  0.00     0.207 C 
ATOM      3  C   UNL     1      15.558  28.034  50.334  1.00  0.00     0.180 C 
ATOM      4  C   UNL     1      15.592  26.601  49.821  1.00  0.00     0.179 C 
ATOM      5  O   UNL     1      15.294  25.763  50.911  1.00  0.00    -0.337 OA
ENDROOT
BRANCH   1   6
ATOM      6  O   UNL     1      14.883  26.257  53.099  1.00  0.00    -0.349 OA
ATOM      7  C   UNL     1      15.694  25.107  53.258  1.00  0.00     0.198 C 
ENDBRANCH   1   6
BRANCH   1   8
ATOM      8  C   UNL     1      12.993  25.856  51.521  1.00  0.00     0.224 C 
BRANCH   8   9
ATOM      9  O   UNL     1      12.094  26.328  52.487  1.00  0.00    -0.391 OA
ATOM     10  H   UNL     1      11.640  25.526  52.857  1.00  0.00     0.210 HD
ENDBRANCH   8   9
ENDBRANCH   1   8
BRANCH   2  11
ATOM     11  O   UNL     1      14.731  28.809  52.463  1.00  0.00    -0.385 OA
ATOM     12  H   UNL     1      15.705  29.000  52.434  1.00  0.00     0.211 HD
ENDBRANCH   2  11
BRANCH   3  13
ATOM     13  O   UNL     1      16.790  28.431  50.898  1.00  0.00    -0.387 OA
ATOM     14  H   UNL     1      17.277  27.614  51.185  1.00  0.00     0.211 HD
ENDBRANCH   3  13
BRANCH   4  15
ATOM     15  C   UNL     1      16.926  26.185  49.182  1.00  0.00     0.191 C 
BRANCH  15  16
ATOM     16  O   UNL     1      17.286  27.081  48.164  1.00  0.00    -0.394 OA
ATOM     17  H   UNL     1      18.009  27.654  48.530  1.00  0.00     0.210 HD
ENDBRANCH  15  16
ENDBRANCH   4  15
TORSDOF 7
ENDMDL
MODEL 6
REMARK VINA RESULT:    -4.106      1.655      3.641
REMARK INTER + INTRA:          -5.815
REMARK INTER:                  -5.584
REMARK INTRA:                  -0.230
REMARK UNBOUND:                -0.509
REMARK SMILES CO[C@]1(CO)O[C@H](CO)[C@H](O)[C@@H]1O
REMARK SMILES IDX 3 1 12 2 10 3 7 4 6 5 2 6 1 7 4 8 5 9 13 11 11 13 8 15 9 16
REMARK H PARENT 5 10 13 12 11 14 9 17
REMARK Flexibility Score: inf
ROOT
ATOM      1  C   UNL     1      15.216  25.322  51.719  1.00  0.00     0.221 C 
ATOM      2  C   UNL     1      15.415  25.208  53.260  1.00  0.00     0.207 C 
ATOM      3  C   UNL     1      16.733  25.914  53.511  1.00  0.00     0.180 C 
ATOM      4  C   UNL     1      16.831  26.830  52.298  1.00  0.00     0.179 C 
ATOM      5  O   UNL     1      16.253  26.146  51.214  1.00  0.00    -0.337 OA
ENDROOT
BRANCH   1   6
ATOM      6  O   UNL     1      15.360  24.051  51.081  1.00  0.00    -0.349 OA
ATOM      7  C   UNL     1      16.559  23.904  50.342  1.00  0.00     0.198 C 
ENDBRANCH   1   6
BRANCH   1   8
ATOM      8  C   UNL     1      13.879  26.038  51.372  1.00  0.00     0.224 C 
BRANCH   8   9
ATOM      9  O   UNL     1      13.083  26.150  52.521  1.00  0.00    -0.391 OA
ATOM     10  H   UNL     1      12.735  27.080  52.525  1.00  0.00     0.210 HD
ENDBRANCH   8   9
ENDBRANCH   1   8
BRANCH   2  11
ATOM     11  O   UNL     1      15.460  23.875  53.707  1.00  0.00    -0.385 OA
ATOM     12  H   UNL     1      15.857  23.341  52.969  1.00  0.00     0.211 HD
ENDBRANCH   2  11
BRANCH   3  13
ATOM     13  O   UNL     1      17.812  25.007  53.586  1.00  0.00    -0.387 OA
ATOM     14  H   UNL     1      18.605  25.432  53.162  1.00  0.00     0.211 HD
ENDBRANCH   3  13
BRANCH   4  15
ATOM     15  C   UNL     1      18.260  27.270  51.947  1.00  0.00     0.191 C 
BRANCH  15  16
ATOM     16  O   UNL     1      18.308  28.653  51.714  1.00  0.00    -0.394 OA
ATOM     17  H   UNL     1      17.444  29.027  52.028  1.00  0.00     0.210 HD
ENDBRANCH  15  16
ENDBRANCH   4  15
TORSDOF 7
ENDMDL
MODEL 7
REMARK VINA RESULT:    -4.090      1.645      2.163
REMARK INTER + INTRA:          -5.795
REMARK INTER:                  -5.309
REMARK INTRA:                  -0.486
REMARK UNBOUND:                -0.509
REMARK SMILES CO[C@]1(CO)O[C@H](CO)[C@H](O)[C@@H]1O
REMARK SMILES IDX 3 1 12 2 10 3 7 4 6 5 2 6 1 7 4 8 5 9 13 11 11 13 8 15 9 16
REMARK H PARENT 5 10 13 12 11 14 9 17
REMARK Flexibility Score: inf
ROOT
ATOM      1  C   UNL     1      15.523  24.870  51.749  1.00  0.00     0.221 C 
ATOM      2  C   UNL     1      14.059  24.683  51.247  1.00  0.00     0.207 C 
ATOM      3  C   UNL     1      13.539  26.101  51.105  1.00  0.00     0.180 C 
ATOM      4  C   UNL     1      14.830  26.891  50.940  1.00  0.00     0.179 C 
ATOM      5  O   UNL     1      15.808  26.259  51.729  1.00  0.00    -0.337 OA
ENDROOT
BRANCH   1   6
ATOM      6  O   UNL     1      15.665  24.446  53.106  1.00  0.00    -0.349 OA
ATOM      7  C   UNL     1      15.962  25.492  54.014  1.00  0.00     0.198 C 
ENDBRANCH   1   6
BRANCH   1   8
ATOM      8  C   UNL     1      16.542  24.199  50.784  1.00  0.00     0.224 C 
BRANCH   8   9
ATOM      9  O   UNL     1      15.938  23.953  49.543  1.00  0.00    -0.391 OA
ATOM     10  H   UNL     1      15.735  24.844  49.154  1.00  0.00     0.210 HD
ENDBRANCH   8   9
ENDBRANCH   1   8
BRANCH   2  11
ATOM     11  O   UNL     1      13.268  23.939  52.140  1.00  0.00    -0.385 OA
ATOM     12  H   UNL     1      13.698  24.015  53.032  1.00  0.00     0.211 HD
ENDBRANCH   2  11
BRANCH   3  13
ATOM     13  O   UNL     1      12.802  26.509  52.238  1.00  0.00    -0.387 OA
ATOM     14  H   UNL     1      12.484  25.694  52.710  1.00  0.00     0.211 HD
ENDBRANCH   3  13
BRANCH   4  15
ATOM     15  C   UNL     1      14.721  28.375  51.320  1.00  0.00     0.191 C 
BRANCH  15  16
ATOM     16  O   UNL     1      14.745  28.532  52.714  1.00  0.00    -0.394 OA
ATOM     17  H   UNL     1      14.595  27.632  53.106  1.00  0.00     0.210 HD
ENDBRANCH  15  16
ENDBRANCH   4  15
TORSDOF 7
ENDMDL
MODEL 8
REMARK VINA RESULT:    -4.044      1.703      3.967
REMARK INTER + INTRA:          -5.735
REMARK INTER:                  -5.218
REMARK INTRA:                  -0.517
REMARK UNBOUND:                -0.509
REMARK SMILES CO[C@]1(CO)O[C@H](CO)[C@H](O)[C@@H]1O
REMARK SMILES IDX 3 1 12 2 10 3 7 4 6 5 2 6 1 7 4 8 5 9 13 11 11 13 8 15 9 16
REMARK H PARENT 5 10 13 12 11 14 9 17
REMARK Flexibility Score: inf
ROOT
ATOM      1  C   UNL     1      13.962  25.704  51.380  1.00  0.00     0.221 C 
ATOM      2  C   UNL     1      14.441  24.227  51.254  1.00  0.00     0.207 C 
ATOM      3  C   UNL     1      15.615  24.141  52.210  1.00  0.00     0.180 C 
ATOM      4  C   UNL     1      15.318  25.285  53.170  1.00  0.00     0.179 C 
ATOM      5  O   UNL     1      14.711  26.309  52.421  1.00  0.00    -0.337 OA
ENDROOT
BRANCH   1   6
ATOM      6  O   UNL     1      14.245  26.446  50.192  1.00  0.00    -0.349 OA
ATOM      7  C   UNL     1      15.154  27.517  50.378  1.00  0.00     0.198 C 
ENDBRANCH   1   6
BRANCH   1   8
ATOM      8  C   UNL     1      12.470  25.781  51.813  1.00  0.00     0.224 C 
BRANCH   8   9
ATOM      9  O   UNL     1      12.020  24.514  52.210  1.00  0.00    -0.391 OA
ATOM     10  H   UNL     1      11.707  24.061  51.384  1.00  0.00     0.210 HD
ENDBRANCH   8   9
ENDBRANCH   1   8
BRANCH   2  11
ATOM     11  O   UNL     1      14.827  23.890  49.944  1.00  0.00    -0.385 OA
ATOM     12  H   UNL     1      15.680  24.366  49.768  1.00  0.00     0.211 HD
ENDBRANCH   2  11
BRANCH   3  13
ATOM     13  O   UNL     1      16.849  24.304  51.546  1.00  0.00    -0.387 OA
ATOM     14  H   UNL     1      17.305  25.100  51.930  1.00  0.00     0.211 HD
ENDBRANCH   3  13
BRANCH   4  15
ATOM     15  C   UNL     1      16.549  25.828  53.911  1.00  0.00     0.191 C 
BRANCH  15  16
ATOM     16  O   UNL     1      17.309  26.654  53.069  1.00  0.00    -0.394 OA
ATOM     17  H   UNL     1      17.849  26.054  52.491  1.00  0.00     0.210 HD
ENDBRANCH  15  16
ENDBRANCH   4  15
TORSDOF 7
ENDMDL
