MODEL 1
REMARK VINA RESULT:    -5.122      0.000      0.000
REMARK INTER + INTRA:          -6.222
REMARK INTER:                  -5.571
REMARK INTRA:                  -0.651
REMARK UNBOUND:                -0.651
REMARK SMILES C=C(C)[C@@H]1CC[C@]2(C)CC[C@@]3(C)[C@H](CC[C@H]4[C@]5(C)CC[C@H](O)C(C)(C)[C@H]5CC[C@@]43C)[C@@H]12
REMARK SMILES IDX 4 1 5 2 6 3 7 4 31 5 13 6 14 7 15 8 16 9 17 10 19 11 20 12
REMARK SMILES IDX 21 13 23 14 26 15 27 16 28 17 29 18 11 19 10 20 9 21 12 22
REMARK SMILES IDX 30 23 24 24 25 25 18 26 8 27 2 28 3 29 1 30 22 31
REMARK H PARENT 22 32
REMARK Flexibility Score: inf
ROOT
ATOM      1  C   UNL     1      16.795  19.285   6.665  1.00  0.00     0.018 C 
ATOM      2  C   UNL     1      17.764  20.473   6.891  1.00  0.00     0.009 C 
ATOM      3  C   UNL     1      19.055  19.887   7.508  1.00  0.00     0.008 C 
ATOM      4  C   UNL     1      18.627  18.506   8.025  1.00  0.00    -0.029 C 
ATOM      5  C   UNL     1      17.686  18.047   6.866  1.00  0.00     0.006 C 
ATOM      6  C   UNL     1      17.118  16.633   7.173  1.00  0.00    -0.000 C 
ATOM      7  C   UNL     1      15.838  16.207   6.407  1.00  0.00     0.005 C 
ATOM      8  C   UNL     1      16.048  15.274   5.224  1.00  0.00     0.005 C 
ATOM      9  C   UNL     1      16.855  14.037   5.672  1.00  0.00     0.002 C 
ATOM     10  C   UNL     1      16.661  12.739   4.747  1.00  0.00    -0.026 C 
ATOM     11  C   UNL     1      15.182  12.246   4.877  1.00  0.00     0.010 C 
ATOM     12  C   UNL     1      14.931  10.845   4.288  1.00  0.00     0.033 C 
ATOM     13  C   UNL     1      15.849   9.782   4.905  1.00  0.00     0.120 C 
ATOM     14  C   UNL     1      17.364  10.146   4.786  1.00  0.00    -0.006 C 
ATOM     15  C   UNL     1      17.584  11.609   5.334  1.00  0.00     0.003 C 
ATOM     16  C   UNL     1      19.058  12.072   5.398  1.00  0.00     0.005 C 
ATOM     17  C   UNL     1      19.192  13.232   6.390  1.00  0.00     0.008 C 
ATOM     18  C   UNL     1      18.336  14.490   6.023  1.00  0.00    -0.024 C 
ATOM     19  C   UNL     1      18.310  15.551   7.268  1.00  0.00    -0.024 C 
ATOM     20  C   UNL     1      19.731  16.264   7.363  1.00  0.00     0.008 C 
ATOM     21  C   UNL     1      19.784  17.495   8.282  1.00  0.00     0.007 C 
ATOM     22  C   UNL     1      18.113  14.822   8.641  1.00  0.00     0.012 C 
ATOM     23  C   UNL     1      19.019  15.130   4.769  1.00  0.00     0.012 C 
ATOM     24  C   UNL     1      18.159   9.125   5.651  1.00  0.00     0.014 C 
ATOM     25  C   UNL     1      17.849   9.955   3.330  1.00  0.00     0.014 C 
ATOM     26  C   UNL     1      16.936  13.056   3.237  1.00  0.00     0.012 C 
ATOM     27  C   UNL     1      17.913  18.743   9.402  1.00  0.00     0.011 C 
ENDROOT
BRANCH   1  28
ATOM     28  C   UNL     1      16.065  19.396   5.329  1.00  0.00    -0.077 C 
ATOM     29  C   UNL     1      16.799  18.964   4.082  1.00  0.00     0.039 C 
ATOM     30  C   UNL     1      14.755  19.715   5.246  1.00  0.00     0.008 C 
ENDBRANCH   1  28
BRANCH  13  31
ATOM     31  O   UNL     1      15.490   9.617   6.259  1.00  0.00    -0.393 OA
ATOM     32  H   UNL     1      15.323   8.650   6.411  1.00  0.00     0.210 HD
ENDBRANCH  13  31
TORSDOF 2
ENDMDL
MODEL 2
REMARK VINA RESULT:    -5.118      1.808      2.570
REMARK INTER + INTRA:          -6.218
REMARK INTER:                  -5.571
REMARK INTRA:                  -0.647
REMARK UNBOUND:                -0.651
REMARK SMILES C=C(C)[C@@H]1CC[C@]2(C)CC[C@@]3(C)[C@H](CC[C@H]4[C@]5(C)CC[C@H](O)C(C)(C)[C@H]5CC[C@@]43C)[C@@H]12
REMARK SMILES IDX 4 1 5 2 6 3 7 4 31 5 13 6 14 7 15 8 16 9 17 10 19 11 20 12
REMARK SMILES IDX 21 13 23 14 26 15 27 16 28 17 29 18 11 19 10 20 9 21 12 22
REMARK SMILES IDX 30 23 24 24 25 25 18 26 8 27 2 28 3 29 1 30 22 31
REMARK H PARENT 22 32
REMARK Flexibility Score: inf
ROOT
ATOM      1  C   UNL     1      16.250  21.150   5.244  1.00  0.00     0.018 C 
ATOM      2  C   UNL     1      17.404  22.166   5.440  1.00  0.00     0.009 C 
ATOM      3  C   UNL     1      18.553  21.408   6.145  1.00  0.00     0.008 C 
ATOM      4  C   UNL     1      17.874  20.159   6.724  1.00  0.00    -0.029 C 
ATOM      5  C   UNL     1      16.905  19.793   5.555  1.00  0.00     0.006 C 
ATOM      6  C   UNL     1      16.089  18.521   5.922  1.00  0.00    -0.000 C 
ATOM      7  C   UNL     1      14.780  18.272   5.128  1.00  0.00     0.005 C 
ATOM      8  C   UNL     1      14.861  17.241   4.013  1.00  0.00     0.005 C 
ATOM      9  C   UNL     1      15.426  15.916   4.568  1.00  0.00     0.002 C 
ATOM     10  C   UNL     1      15.037  14.613   3.714  1.00  0.00    -0.026 C 
ATOM     11  C   UNL     1      13.492  14.391   3.810  1.00  0.00     0.010 C 
ATOM     12  C   UNL     1      13.019  13.019   3.295  1.00  0.00     0.033 C 
ATOM     13  C   UNL     1      13.718  11.856   4.012  1.00  0.00     0.120 C 
ATOM     14  C   UNL     1      15.276  11.946   3.937  1.00  0.00    -0.006 C 
ATOM     15  C   UNL     1      15.730  13.382   4.406  1.00  0.00     0.003 C 
ATOM     16  C   UNL     1      17.260  13.588   4.504  1.00  0.00     0.005 C 
ATOM     17  C   UNL     1      17.562  14.770   5.430  1.00  0.00     0.008 C 
ATOM     18  C   UNL     1      16.951  16.129   4.954  1.00  0.00    -0.024 C 
ATOM     19  C   UNL     1      17.072  17.259   6.131  1.00  0.00    -0.024 C 
ATOM     20  C   UNL     1      18.591  17.722   6.244  1.00  0.00     0.008 C 
ATOM     21  C   UNL     1      18.829  18.982   7.089  1.00  0.00     0.007 C 
ATOM     22  C   UNL     1      16.707  16.667   7.535  1.00  0.00     0.012 C 
ATOM     23  C   UNL     1      17.775  16.559   3.694  1.00  0.00     0.012 C 
ATOM     24  C   UNL     1      15.853  10.863   4.894  1.00  0.00     0.014 C 
ATOM     25  C   UNL     1      15.766  11.578   2.517  1.00  0.00     0.014 C 
ATOM     26  C   UNL     1      15.411  14.778   2.200  1.00  0.00     0.012 C 
ATOM     27  C   UNL     1      17.169  20.606   8.053  1.00  0.00     0.011 C 
ENDROOT
BRANCH   1  28
ATOM     28  C   UNL     1      15.593  21.296   3.874  1.00  0.00    -0.077 C 
ATOM     29  C   UNL     1      16.324  20.743   2.674  1.00  0.00     0.039 C 
ATOM     30  C   UNL     1      14.332  21.758   3.723  1.00  0.00     0.008 C 
ENDBRANCH   1  28
BRANCH  13  31
ATOM     31  O   UNL     1      13.293  11.845   5.358  1.00  0.00    -0.393 OA
ATOM     32  H   UNL     1      13.983  11.368   5.888  1.00  0.00     0.210 HD
ENDBRANCH  13  31
TORSDOF 2
ENDMDL
MODEL 3
REMARK VINA RESULT:    -4.717      2.308      7.451
REMARK INTER + INTRA:          -5.782
REMARK INTER:                  -5.160
REMARK INTRA:                  -0.622
REMARK UNBOUND:                -0.651
REMARK SMILES C=C(C)[C@@H]1CC[C@]2(C)CC[C@@]3(C)[C@H](CC[C@H]4[C@]5(C)CC[C@H](O)C(C)(C)[C@H]5CC[C@@]43C)[C@@H]12
REMARK SMILES IDX 4 1 5 2 6 3 7 4 31 5 13 6 14 7 15 8 16 9 17 10 19 11 20 12
REMARK SMILES IDX 21 13 23 14 26 15 27 16 28 17 29 18 11 19 10 20 9 21 12 22
REMARK SMILES IDX 30 23 24 24 25 25 18 26 8 27 2 28 3 29 1 30 22 31
REMARK H PARENT 22 32
REMARK Flexibility Score: inf
ROOT
ATOM      1  C   UNL     1      16.436  10.948   3.982  1.00  0.00     0.018 C 
ATOM      2  C   UNL     1      16.880   9.523   4.399  1.00  0.00     0.009 C 
ATOM      3  C   UNL     1      18.243   9.671   5.115  1.00  0.00     0.008 C 
ATOM      4  C   UNL     1      18.736  11.062   4.694  1.00  0.00    -0.029 C 
ATOM      5  C   UNL     1      17.400  11.868   4.751  1.00  0.00     0.006 C 
ATOM      6  C   UNL     1      17.657  13.350   4.355  1.00  0.00    -0.000 C 
ATOM      7  C   UNL     1      16.427  14.181   3.904  1.00  0.00     0.005 C 
ATOM      8  C   UNL     1      15.843  15.125   4.943  1.00  0.00     0.005 C 
ATOM      9  C   UNL     1      16.954  16.045   5.496  1.00  0.00     0.002 C 
ATOM     10  C   UNL     1      16.428  17.426   6.124  1.00  0.00    -0.026 C 
ATOM     11  C   UNL     1      15.805  18.294   4.982  1.00  0.00     0.010 C 
ATOM     12  C   UNL     1      15.536  19.758   5.377  1.00  0.00     0.033 C 
ATOM     13  C   UNL     1      16.800  20.464   5.884  1.00  0.00     0.120 C 
ATOM     14  C   UNL     1      17.484  19.709   7.068  1.00  0.00    -0.006 C 
ATOM     15  C   UNL     1      17.688  18.198   6.663  1.00  0.00     0.003 C 
ATOM     16  C   UNL     1      18.468  17.342   7.689  1.00  0.00     0.005 C 
ATOM     17  C   UNL     1      19.044  16.104   6.995  1.00  0.00     0.008 C 
ATOM     18  C   UNL     1      17.965  15.171   6.352  1.00  0.00    -0.024 C 
ATOM     19  C   UNL     1      18.672  14.047   5.396  1.00  0.00    -0.024 C 
ATOM     20  C   UNL     1      19.386  12.964   6.320  1.00  0.00     0.008 C 
ATOM     21  C   UNL     1      19.842  11.687   5.597  1.00  0.00     0.007 C 
ATOM     22  C   UNL     1      19.813  14.672   4.522  1.00  0.00     0.012 C 
ATOM     23  C   UNL     1      17.216  14.486   7.544  1.00  0.00     0.012 C 
ATOM     24  C   UNL     1      18.863  20.387   7.320  1.00  0.00     0.014 C 
ATOM     25  C   UNL     1      16.664  19.894   8.367  1.00  0.00     0.014 C 
ATOM     26  C   UNL     1      15.323  17.187   7.210  1.00  0.00     0.012 C 
ATOM     27  C   UNL     1      19.353  10.905   3.259  1.00  0.00     0.011 C 
ENDROOT
BRANCH   1  28
ATOM     28  C   UNL     1      14.944  11.167   4.218  1.00  0.00    -0.077 C 
ATOM     29  C   UNL     1      14.461  11.288   5.644  1.00  0.00     0.039 C 
ATOM     30  C   UNL     1      14.080  11.408   3.207  1.00  0.00     0.008 C 
ENDBRANCH   1  28
BRANCH  13  31
ATOM     31  O   UNL     1      17.698  20.596   4.803  1.00  0.00    -0.393 OA
ATOM     32  H   UNL     1      17.448  21.415   4.302  1.00  0.00     0.210 HD
ENDBRANCH  13  31
TORSDOF 2
ENDMDL
MODEL 4
REMARK VINA RESULT:    -4.473      1.937      4.564
REMARK INTER + INTRA:          -5.516
REMARK INTER:                  -4.873
REMARK INTRA:                  -0.643
REMARK UNBOUND:                -0.651
REMARK SMILES C=C(C)[C@@H]1CC[C@]2(C)CC[C@@]3(C)[C@H](CC[C@H]4[C@]5(C)CC[C@H](O)C(C)(C)[C@H]5CC[C@@]43C)[C@@H]12
REMARK SMILES IDX 4 1 5 2 6 3 7 4 31 5 13 6 14 7 15 8 16 9 17 10 19 11 20 12
REMARK SMILES IDX 21 13 23 14 26 15 27 16 28 17 29 18 11 19 10 20 9 21 12 22
REMARK SMILES IDX 30 23 24 24 25 25 18 26 8 27 2 28 3 29 1 30 22 31
REMARK H PARENT 22 32
REMARK Flexibility Score: inf
ROOT
ATOM      1  C   UNL     1      17.721  21.231   5.452  1.00  0.00     0.018 C 
ATOM      2  C   UNL     1      16.948  22.575   5.452  1.00  0.00     0.009 C 
ATOM      3  C   UNL     1      15.758  22.407   4.479  1.00  0.00     0.008 C 
ATOM      4  C   UNL     1      16.137  21.182   3.635  1.00  0.00    -0.029 C 
ATOM      5  C   UNL     1      16.766  20.264   4.731  1.00  0.00     0.006 C 
ATOM      6  C   UNL     1      17.235  18.925   4.096  1.00  0.00    -0.000 C 
ATOM      7  C   UNL     1      18.278  18.096   4.891  1.00  0.00     0.005 C 
ATOM      8  C   UNL     1      17.733  16.910   5.671  1.00  0.00     0.005 C 
ATOM      9  C   UNL     1      16.911  16.001   4.733  1.00  0.00     0.002 C 
ATOM     10  C   UNL     1      16.774  14.478   5.225  1.00  0.00    -0.026 C 
ATOM     11  C   UNL     1      18.189  13.811   5.193  1.00  0.00     0.010 C 
ATOM     12  C   UNL     1      18.166  12.279   5.348  1.00  0.00     0.033 C 
ATOM     13  C   UNL     1      17.288  11.600   4.288  1.00  0.00     0.120 C 
ATOM     14  C   UNL     1      15.828  12.155   4.264  1.00  0.00    -0.006 C 
ATOM     15  C   UNL     1      15.879  13.729   4.172  1.00  0.00     0.003 C 
ATOM     16  C   UNL     1      14.506  14.423   4.014  1.00  0.00     0.005 C 
ATOM     17  C   UNL     1      14.701  15.824   3.426  1.00  0.00     0.008 C 
ATOM     18  C   UNL     1      15.590  16.769   4.302  1.00  0.00    -0.024 C 
ATOM     19  C   UNL     1      15.981  18.123   3.473  1.00  0.00    -0.024 C 
ATOM     20  C   UNL     1      14.693  19.054   3.373  1.00  0.00     0.008 C 
ATOM     21  C   UNL     1      14.958  20.488   2.889  1.00  0.00     0.007 C 
ATOM     22  C   UNL     1      16.380  17.797   1.993  1.00  0.00     0.012 C 
ATOM     23  C   UNL     1      14.733  17.124   5.563  1.00  0.00     0.012 C 
ATOM     24  C   UNL     1      15.126  11.568   3.005  1.00  0.00     0.014 C 
ATOM     25  C   UNL     1      15.036  11.635   5.486  1.00  0.00     0.014 C 
ATOM     26  C   UNL     1      16.229  14.390   6.692  1.00  0.00     0.012 C 
ATOM     27  C   UNL     1      17.141  21.685   2.538  1.00  0.00     0.011 C 
ENDROOT
BRANCH   1  28
ATOM     28  C   UNL     1      18.167  20.835   6.857  1.00  0.00    -0.077 C 
ATOM     29  C   UNL     1      17.127  20.287   7.804  1.00  0.00     0.039 C 
ATOM     30  C   UNL     1      19.468  20.813   7.222  1.00  0.00     0.008 C 
ENDBRANCH   1  28
BRANCH  13  31
ATOM     31  O   UNL     1      17.900  11.774   3.029  1.00  0.00    -0.393 OA
ATOM     32  H   UNL     1      18.072  12.744   2.908  1.00  0.00     0.210 HD
ENDBRANCH  13  31
TORSDOF 2
ENDMDL
MODEL 5
REMARK VINA RESULT:    -4.184      1.943      4.708
REMARK INTER + INTRA:          -5.202
REMARK INTER:                  -4.551
REMARK INTRA:                  -0.651
REMARK UNBOUND:                -0.651
REMARK SMILES C=C(C)[C@@H]1CC[C@]2(C)CC[C@@]3(C)[C@H](CC[C@H]4[C@]5(C)CC[C@H](O)C(C)(C)[C@H]5CC[C@@]43C)[C@@H]12
REMARK SMILES IDX 4 1 5 2 6 3 7 4 31 5 13 6 14 7 15 8 16 9 17 10 19 11 20 12
REMARK SMILES IDX 21 13 23 14 26 15 27 16 28 17 29 18 11 19 10 20 9 21 12 22
REMARK SMILES IDX 30 23 24 24 25 25 18 26 8 27 2 28 3 29 1 30 22 31
REMARK H PARENT 22 32
REMARK Flexibility Score: inf
ROOT
ATOM      1  C   UNL     1      19.228  21.572   7.310  1.00  0.00     0.018 C 
ATOM      2  C   UNL     1      18.651  22.969   7.656  1.00  0.00     0.009 C 
ATOM      3  C   UNL     1      17.397  23.166   6.773  1.00  0.00     0.008 C 
ATOM      4  C   UNL     1      17.555  22.118   5.662  1.00  0.00    -0.029 C 
ATOM      5  C   UNL     1      18.109  20.912   6.485  1.00  0.00     0.006 C 
ATOM      6  C   UNL     1      18.351  19.697   5.546  1.00  0.00    -0.000 C 
ATOM      7  C   UNL     1      19.311  18.591   6.059  1.00  0.00     0.005 C 
ATOM      8  C   UNL     1      18.650  17.341   6.617  1.00  0.00     0.005 C 
ATOM      9  C   UNL     1      17.658  16.768   5.581  1.00  0.00     0.002 C 
ATOM     10  C   UNL     1      17.339  15.204   5.754  1.00  0.00    -0.026 C 
ATOM     11  C   UNL     1      18.642  14.389   5.464  1.00  0.00     0.010 C 
ATOM     12  C   UNL     1      18.415  12.875   5.296  1.00  0.00     0.033 C 
ATOM     13  C   UNL     1      17.394  12.559   4.195  1.00  0.00     0.120 C 
ATOM     14  C   UNL     1      16.026  13.283   4.409  1.00  0.00    -0.006 C 
ATOM     15  C   UNL     1      16.292  14.820   4.645  1.00  0.00     0.003 C 
ATOM     16  C   UNL     1      15.022  15.697   4.752  1.00  0.00     0.005 C 
ATOM     17  C   UNL     1      15.377  17.157   4.456  1.00  0.00     0.008 C 
ATOM     18  C   UNL     1      16.436  17.769   5.433  1.00  0.00    -0.024 C 
ATOM     19  C   UNL     1      16.966  19.213   4.877  1.00  0.00    -0.024 C 
ATOM     20  C   UNL     1      15.816  20.296   5.082  1.00  0.00     0.008 C 
ATOM     21  C   UNL     1      16.252  21.756   4.888  1.00  0.00     0.007 C 
ATOM     22  C   UNL     1      17.233  19.171   3.333  1.00  0.00     0.012 C 
ATOM     23  C   UNL     1      15.708  17.944   6.808  1.00  0.00     0.012 C 
ATOM     24  C   UNL     1      15.181  13.077   3.119  1.00  0.00     0.014 C 
ATOM     25  C   UNL     1      15.239  12.611   5.558  1.00  0.00     0.014 C 
ATOM     26  C   UNL     1      16.868  14.865   7.210  1.00  0.00     0.012 C 
ATOM     27  C   UNL     1      18.556  22.721   4.614  1.00  0.00     0.011 C 
ENDROOT
BRANCH   1  28
ATOM     28  C   UNL     1      19.692  20.826   8.558  1.00  0.00    -0.077 C 
ATOM     29  C   UNL     1      18.647  20.130   9.397  1.00  0.00     0.039 C 
ATOM     30  C   UNL     1      20.999  20.641   8.844  1.00  0.00     0.008 C 
ENDBRANCH   1  28
BRANCH  13  31
ATOM     31  O   UNL     1      17.954  12.927   2.953  1.00  0.00    -0.393 OA
ATOM     32  H   UNL     1      18.417  12.131   2.583  1.00  0.00     0.210 HD
ENDBRANCH  13  31
TORSDOF 2
ENDMDL
MODEL 6
REMARK VINA RESULT:    -4.123      3.191      8.091
REMARK INTER + INTRA:          -5.135
REMARK INTER:                  -4.497
REMARK INTRA:                  -0.639
REMARK UNBOUND:                -0.651
REMARK SMILES C=C(C)[C@@H]1CC[C@]2(C)CC[C@@]3(C)[C@H](CC[C@H]4[C@]5(C)CC[C@H](O)C(C)(C)[C@H]5CC[C@@]43C)[C@@H]12
REMARK SMILES IDX 4 1 5 2 6 3 7 4 31 5 13 6 14 7 15 8 16 9 17 10 19 11 20 12
REMARK SMILES IDX 21 13 23 14 26 15 27 16 28 17 29 18 11 19 10 20 9 21 12 22
REMARK SMILES IDX 30 23 24 24 25 25 18 26 8 27 2 28 3 29 1 30 22 31
REMARK H PARENT 22 32
REMARK Flexibility Score: inf
ROOT
ATOM      1  C   UNL     1      16.170  14.419   4.139  1.00  0.00     0.018 C 
ATOM      2  C   UNL     1      15.485  13.157   4.723  1.00  0.00     0.009 C 
ATOM      3  C   UNL     1      15.909  13.065   6.207  1.00  0.00     0.008 C 
ATOM      4  C   UNL     1      17.141  13.976   6.301  1.00  0.00    -0.029 C 
ATOM      5  C   UNL     1      16.692  15.158   5.384  1.00  0.00     0.006 C 
ATOM      6  C   UNL     1      17.810  16.237   5.325  1.00  0.00    -0.000 C 
ATOM      7  C   UNL     1      17.764  17.233   4.137  1.00  0.00     0.005 C 
ATOM      8  C   UNL     1      17.198  18.611   4.444  1.00  0.00     0.005 C 
ATOM      9  C   UNL     1      17.946  19.226   5.647  1.00  0.00     0.002 C 
ATOM     10  C   UNL     1      17.889  20.829   5.722  1.00  0.00    -0.026 C 
ATOM     11  C   UNL     1      18.668  21.418   4.499  1.00  0.00     0.010 C 
ATOM     12  C   UNL     1      18.953  22.928   4.602  1.00  0.00     0.033 C 
ATOM     13  C   UNL     1      19.721  23.288   5.881  1.00  0.00     0.120 C 
ATOM     14  C   UNL     1      19.006  22.792   7.178  1.00  0.00    -0.006 C 
ATOM     15  C   UNL     1      18.664  21.260   7.021  1.00  0.00     0.003 C 
ATOM     16  C   UNL     1      18.061  20.588   8.277  1.00  0.00     0.005 C 
ATOM     17  C   UNL     1      18.258  19.072   8.196  1.00  0.00     0.008 C 
ATOM     18  C   UNL     1      17.581  18.403   6.954  1.00  0.00    -0.024 C 
ATOM     19  C   UNL     1      18.080  16.854   6.790  1.00  0.00    -0.024 C 
ATOM     20  C   UNL     1      17.394  15.971   7.924  1.00  0.00     0.008 C 
ATOM     21  C   UNL     1      17.519  14.452   7.736  1.00  0.00     0.007 C 
ATOM     22  C   UNL     1      19.623  16.719   7.029  1.00  0.00     0.012 C 
ATOM     23  C   UNL     1      16.039  18.458   7.217  1.00  0.00     0.012 C 
ATOM     24  C   UNL     1      19.991  23.002   8.365  1.00  0.00     0.014 C 
ATOM     25  C   UNL     1      17.769  23.671   7.478  1.00  0.00     0.014 C 
ATOM     26  C   UNL     1      16.416  21.362   5.661  1.00  0.00     0.012 C 
ATOM     27  C   UNL     1      18.357  13.144   5.759  1.00  0.00     0.011 C 
ENDROOT
BRANCH   1  28
ATOM     28  C   UNL     1      15.232  15.199   3.222  1.00  0.00    -0.077 C 
ATOM     29  C   UNL     1      14.282  16.188   3.853  1.00  0.00     0.039 C 
ATOM     30  C   UNL     1      15.332  15.148   1.875  1.00  0.00     0.008 C 
ENDBRANCH   1  28
BRANCH  13  31
ATOM     31  O   UNL     1      21.015  22.734   5.793  1.00  0.00    -0.393 OA
ATOM     32  H   UNL     1      21.668  23.475   5.892  1.00  0.00     0.210 HD
ENDBRANCH  13  31
TORSDOF 2
ENDMDL
MODEL 7
REMARK VINA RESULT:    -4.011      2.396      7.538
REMARK INTER + INTRA:          -5.014
REMARK INTER:                  -4.498
REMARK INTRA:                  -0.516
REMARK UNBOUND:                -0.651
REMARK SMILES C=C(C)[C@@H]1CC[C@]2(C)CC[C@@]3(C)[C@H](CC[C@H]4[C@]5(C)CC[C@H](O)C(C)(C)[C@H]5CC[C@@]43C)[C@@H]12
REMARK SMILES IDX 4 1 5 2 6 3 7 4 31 5 13 6 14 7 15 8 16 9 17 10 19 11 20 12
REMARK SMILES IDX 21 13 23 14 26 15 27 16 28 17 29 18 11 19 10 20 9 21 12 22
REMARK SMILES IDX 30 23 24 24 25 25 18 26 8 27 2 28 3 29 1 30 22 31
REMARK H PARENT 22 32
REMARK Flexibility Score: inf
ROOT
ATOM      1  C   UNL     1      15.274  11.545   4.179  1.00  0.00     0.018 C 
ATOM      2  C   UNL     1      14.976  11.073   2.732  1.00  0.00     0.009 C 
ATOM      3  C   UNL     1      14.793  12.347   1.875  1.00  0.00     0.008 C 
ATOM      4  C   UNL     1      14.542  13.457   2.906  1.00  0.00    -0.029 C 
ATOM      5  C   UNL     1      15.558  13.048   4.019  1.00  0.00     0.006 C 
ATOM      6  C   UNL     1      15.485  14.057   5.200  1.00  0.00    -0.000 C 
ATOM      7  C   UNL     1      16.051  13.585   6.565  1.00  0.00     0.005 C 
ATOM      8  C   UNL     1      17.438  14.095   6.924  1.00  0.00     0.005 C 
ATOM      9  C   UNL     1      17.471  15.635   6.820  1.00  0.00     0.002 C 
ATOM     10  C   UNL     1      18.617  16.341   7.696  1.00  0.00    -0.026 C 
ATOM     11  C   UNL     1      18.308  16.108   9.211  1.00  0.00     0.010 C 
ATOM     12  C   UNL     1      19.147  16.976  10.167  1.00  0.00     0.033 C 
ATOM     13  C   UNL     1      19.001  18.474   9.870  1.00  0.00     0.120 C 
ATOM     14  C   UNL     1      19.337  18.835   8.388  1.00  0.00    -0.006 C 
ATOM     15  C   UNL     1      18.516  17.887   7.430  1.00  0.00     0.003 C 
ATOM     16  C   UNL     1      18.647  18.203   5.922  1.00  0.00     0.005 C 
ATOM     17  C   UNL     1      17.458  17.604   5.164  1.00  0.00     0.008 C 
ATOM     18  C   UNL     1      17.334  16.050   5.294  1.00  0.00    -0.024 C 
ATOM     19  C   UNL     1      15.895  15.537   4.708  1.00  0.00    -0.024 C 
ATOM     20  C   UNL     1      15.926  15.629   3.118  1.00  0.00     0.008 C 
ATOM     21  C   UNL     1      14.774  14.912   2.399  1.00  0.00     0.007 C 
ATOM     22  C   UNL     1      14.723  16.474   5.160  1.00  0.00     0.012 C 
ATOM     23  C   UNL     1      18.513  15.448   4.459  1.00  0.00     0.012 C 
ATOM     24  C   UNL     1      18.920  20.317   8.161  1.00  0.00     0.014 C 
ATOM     25  C   UNL     1      20.865  18.772   8.154  1.00  0.00     0.014 C 
ATOM     26  C   UNL     1      20.033  15.740   7.391  1.00  0.00     0.012 C 
ATOM     27  C   UNL     1      13.031  13.352   3.319  1.00  0.00     0.011 C 
ENDROOT
BRANCH   1  28
ATOM     28  C   UNL     1      16.367  10.705   4.834  1.00  0.00    -0.077 C 
ATOM     29  C   UNL     1      15.974   9.385   5.452  1.00  0.00     0.039 C 
ATOM     30  C   UNL     1      17.677  11.026   4.743  1.00  0.00     0.008 C 
ENDBRANCH   1  28
BRANCH  13  31
ATOM     31  O   UNL     1      17.680  18.862  10.181  1.00  0.00    -0.393 OA
ATOM     32  H   UNL     1      17.419  19.578   9.546  1.00  0.00     0.210 HD
ENDBRANCH  13  31
TORSDOF 2
ENDMDL
MODEL 8
REMARK VINA RESULT:    -2.259      3.799      7.015
REMARK INTER + INTRA:          -3.108
REMARK INTER:                  -2.818
REMARK INTRA:                  -0.290
REMARK UNBOUND:                -0.651
REMARK SMILES C=C(C)[C@@H]1CC[C@]2(C)CC[C@@]3(C)[C@H](CC[C@H]4[C@]5(C)CC[C@H](O)C(C)(C)[C@H]5CC[C@@]43C)[C@@H]12
REMARK SMILES IDX 4 1 5 2 6 3 7 4 31 5 13 6 14 7 15 8 16 9 17 10 19 11 20 12
REMARK SMILES IDX 21 13 23 14 26 15 27 16 28 17 29 18 11 19 10 20 9 21 12 22
REMARK SMILES IDX 30 23 24 24 25 25 18 26 8 27 2 28 3 29 1 30 22 31
REMARK H PARENT 22 32
REMARK Flexibility Score: inf
ROOT
ATOM      1  C   UNL     1      20.100  17.244  10.497  1.00  0.00     0.018 C 
ATOM      2  C   UNL     1      21.124  16.146  10.882  1.00  0.00     0.009 C 
ATOM      3  C   UNL     1      20.903  14.967   9.906  1.00  0.00     0.008 C 
ATOM      4  C   UNL     1      19.510  15.227   9.317  1.00  0.00    -0.029 C 
ATOM      5  C   UNL     1      19.563  16.777   9.133  1.00  0.00     0.006 C 
ATOM      6  C   UNL     1      18.223  17.285   8.529  1.00  0.00    -0.000 C 
ATOM      7  C   UNL     1      17.900  18.793   8.703  1.00  0.00     0.005 C 
ATOM      8  C   UNL     1      18.157  19.674   7.490  1.00  0.00     0.005 C 
ATOM      9  C   UNL     1      17.425  19.095   6.260  1.00  0.00     0.002 C 
ATOM     10  C   UNL     1      17.112  20.163   5.103  1.00  0.00    -0.026 C 
ATOM     11  C   UNL     1      16.085  21.209   5.648  1.00  0.00     0.010 C 
ATOM     12  C   UNL     1      15.466  22.110   4.563  1.00  0.00     0.033 C 
ATOM     13  C   UNL     1      14.784  21.298   3.454  1.00  0.00     0.120 C 
ATOM     14  C   UNL     1      15.737  20.249   2.796  1.00  0.00    -0.006 C 
ATOM     15  C   UNL     1      16.409  19.384   3.932  1.00  0.00     0.003 C 
ATOM     16  C   UNL     1      17.290  18.215   3.432  1.00  0.00     0.005 C 
ATOM     17  C   UNL     1      17.447  17.175   4.546  1.00  0.00     0.008 C 
ATOM     18  C   UNL     1      18.118  17.727   5.848  1.00  0.00    -0.024 C 
ATOM     19  C   UNL     1      17.982  16.647   7.068  1.00  0.00    -0.024 C 
ATOM     20  C   UNL     1      18.979  15.436   6.795  1.00  0.00     0.008 C 
ATOM     21  C   UNL     1      19.194  14.485   7.983  1.00  0.00     0.007 C 
ATOM     22  C   UNL     1      16.551  16.010   7.115  1.00  0.00     0.012 C 
ATOM     23  C   UNL     1      19.624  17.967   5.491  1.00  0.00     0.012 C 
ATOM     24  C   UNL     1      14.869  19.343   1.875  1.00  0.00     0.014 C 
ATOM     25  C   UNL     1      16.758  20.956   1.875  1.00  0.00     0.014 C 
ATOM     26  C   UNL     1      18.403  20.935   4.660  1.00  0.00     0.012 C 
ATOM     27  C   UNL     1      18.470  14.721  10.379  1.00  0.00     0.011 C 
ENDROOT
BRANCH   1  28
ATOM     28  C   UNL     1      20.720  18.639  10.550  1.00  0.00    -0.077 C 
ATOM     29  C   UNL     1      21.124  19.285   9.246  1.00  0.00     0.039 C 
ATOM     30  C   UNL     1      20.773  19.363  11.689  1.00  0.00     0.008 C 
ENDBRANCH   1  28
BRANCH  13  31
ATOM     31  O   UNL     1      13.654  20.656   4.005  1.00  0.00    -0.393 OA
ATOM     32  H   UNL     1      13.296  20.035   3.318  1.00  0.00     0.210 HD
ENDBRANCH  13  31
TORSDOF 2
ENDMDL
