MODEL 1
REMARK VINA RESULT:    -3.938      0.000      0.000
REMARK INTER + INTRA:          -5.279
REMARK INTER:                  -5.089
REMARK INTRA:                  -0.191
REMARK UNBOUND:                -0.191
REMARK SMILES CCCCCCC(=O)[O-]
REMARK SMILES IDX 5 1 6 2 7 3 8 4 9 5 4 6 3 7 2 8 1 9
REMARK H PARENT
REMARK Flexibility Score: inf
ROOT
ATOM      1  C   UNL     1      14.151  43.439 -10.604  1.00  0.00     0.006 C 
ENDROOT
BRANCH   1   2
ATOM      2  C   UNL     1      14.674  44.708  -9.919  1.00  0.00     0.053 C 
BRANCH   2   3
ATOM      3  C   UNL     1      14.843  45.808 -10.919  1.00  0.00     0.041 C 
ATOM      4  O   UNL     1      15.628  46.764 -10.684  1.00  0.00    -0.550 OA
ATOM      5  O   UNL     1      14.169  45.753 -12.133  1.00  0.00    -0.550 OA
ENDBRANCH   2   3
ENDBRANCH   1   2
BRANCH   1   6
ATOM      6  C   UNL     1      12.893  42.875  -9.926  1.00  0.00     0.000 C 
BRANCH   6   7
ATOM      7  C   UNL     1      11.937  43.977  -9.442  1.00  0.00    -0.000 C 
BRANCH   7   8
ATOM      8  C   UNL     1      10.637  43.374  -8.899  1.00  0.00    -0.003 C 
ATOM      9  C   UNL     1       9.601  43.207 -10.006  1.00  0.00     0.004 C 
ENDBRANCH   7   8
ENDBRANCH   6   7
ENDBRANCH   1   6
TORSDOF 5
ENDMDL
MODEL 2
REMARK VINA RESULT:    -3.800      2.897      4.577
REMARK INTER + INTRA:          -5.101
REMARK INTER:                  -4.864
REMARK INTRA:                  -0.237
REMARK UNBOUND:                -0.191
REMARK SMILES CCCCCCC(=O)[O-]
REMARK SMILES IDX 5 1 6 2 7 3 8 4 9 5 4 6 3 7 2 8 1 9
REMARK H PARENT
REMARK Flexibility Score: inf
ROOT
ATOM      1  C   UNL     1      13.221  43.163  -9.882  1.00  0.00     0.006 C 
ENDROOT
BRANCH   1   2
ATOM      2  C   UNL     1      12.011  44.055 -10.185  1.00  0.00     0.053 C 
BRANCH   2   3
ATOM      3  C   UNL     1      10.754  43.417  -9.683  1.00  0.00     0.041 C 
ATOM      4  O   UNL     1      10.591  43.224  -8.449  1.00  0.00    -0.550 OA
ATOM      5  O   UNL     1       9.741  43.081 -10.572  1.00  0.00    -0.550 OA
ENDBRANCH   2   3
ENDBRANCH   1   2
BRANCH   1   6
ATOM      6  C   UNL     1      14.446  43.513 -10.743  1.00  0.00     0.000 C 
BRANCH   6   7
ATOM      7  C   UNL     1      15.257  44.684 -10.168  1.00  0.00    -0.000 C 
BRANCH   7   8
ATOM      8  C   UNL     1      15.096  45.939 -11.034  1.00  0.00    -0.003 C 
ATOM      9  C   UNL     1      14.314  47.022 -10.296  1.00  0.00     0.004 C 
ENDBRANCH   7   8
ENDBRANCH   6   7
ENDBRANCH   1   6
TORSDOF 5
ENDMDL
MODEL 3
REMARK VINA RESULT:    -3.735     14.341     15.688
REMARK INTER + INTRA:          -5.017
REMARK INTER:                  -4.706
REMARK INTRA:                  -0.312
REMARK UNBOUND:                -0.191
REMARK SMILES CCCCCCC(=O)[O-]
REMARK SMILES IDX 5 1 6 2 7 3 8 4 9 5 4 6 3 7 2 8 1 9
REMARK H PARENT
REMARK Flexibility Score: inf
ROOT
ATOM      1  C   UNL     1       1.989  51.414  -0.711  1.00  0.00     0.006 C 
ENDROOT
BRANCH   1   2
ATOM      2  C   UNL     1       2.114  50.804  -2.113  1.00  0.00     0.053 C 
BRANCH   2   3
ATOM      3  C   UNL     1       3.167  51.518  -2.901  1.00  0.00     0.041 C 
ATOM      4  O   UNL     1       4.047  52.198  -2.311  1.00  0.00    -0.550 OA
ATOM      5  O   UNL     1       3.206  51.391  -4.283  1.00  0.00    -0.550 OA
ENDBRANCH   2   3
ENDBRANCH   1   2
BRANCH   1   6
ATOM      6  C   UNL     1       1.991  50.352   0.400  1.00  0.00     0.000 C 
BRANCH   6   7
ATOM      7  C   UNL     1       3.061  50.616   1.470  1.00  0.00    -0.000 C 
BRANCH   7   8
ATOM      8  C   UNL     1       3.728  51.979   1.253  1.00  0.00    -0.003 C 
ATOM      9  C   UNL     1       5.249  51.859   1.275  1.00  0.00     0.004 C 
ENDBRANCH   7   8
ENDBRANCH   6   7
ENDBRANCH   1   6
TORSDOF 5
ENDMDL
MODEL 4
REMARK VINA RESULT:    -3.706     13.897     15.272
REMARK INTER + INTRA:          -4.980
REMARK INTER:                  -4.811
REMARK INTRA:                  -0.169
REMARK UNBOUND:                -0.191
REMARK SMILES CCCCCCC(=O)[O-]
REMARK SMILES IDX 5 1 6 2 7 3 8 4 9 5 4 6 3 7 2 8 1 9
REMARK H PARENT
REMARK Flexibility Score: inf
ROOT
ATOM      1  C   UNL     1       1.881  51.620  -1.914  1.00  0.00     0.006 C 
ENDROOT
BRANCH   1   2
ATOM      2  C   UNL     1       2.167  50.751  -3.146  1.00  0.00     0.053 C 
BRANCH   2   3
ATOM      3  C   UNL     1       3.088  51.464  -4.085  1.00  0.00     0.041 C 
ATOM      4  O   UNL     1       2.658  52.401  -4.806  1.00  0.00    -0.550 OA
ATOM      5  O   UNL     1       4.435  51.126  -4.127  1.00  0.00    -0.550 OA
ENDBRANCH   2   3
ENDBRANCH   1   2
BRANCH   1   6
ATOM      6  C   UNL     1       2.925  51.432  -0.802  1.00  0.00     0.000 C 
BRANCH   6   7
ATOM      7  C   UNL     1       2.398  50.591   0.370  1.00  0.00    -0.000 C 
BRANCH   7   8
ATOM      8  C   UNL     1       3.292  50.749   1.604  1.00  0.00    -0.003 C 
ATOM      9  C   UNL     1       4.543  51.560   1.279  1.00  0.00     0.004 C 
ENDBRANCH   7   8
ENDBRANCH   6   7
ENDBRANCH   1   6
TORSDOF 5
ENDMDL
MODEL 5
REMARK VINA RESULT:    -3.696     15.005     15.774
REMARK INTER + INTRA:          -4.967
REMARK INTER:                  -4.647
REMARK INTRA:                  -0.320
REMARK UNBOUND:                -0.191
REMARK SMILES CCCCCCC(=O)[O-]
REMARK SMILES IDX 5 1 6 2 7 3 8 4 9 5 4 6 3 7 2 8 1 9
REMARK H PARENT
REMARK Flexibility Score: inf
ROOT
ATOM      1  C   UNL     1       3.903  52.009   1.450  1.00  0.00     0.006 C 
ENDROOT
BRANCH   1   2
ATOM      2  C   UNL     1       5.435  51.951   1.487  1.00  0.00     0.053 C 
BRANCH   2   3
ATOM      3  C   UNL     1       6.008  52.449   0.197  1.00  0.00     0.041 C 
ATOM      4  O   UNL     1       7.093  53.086   0.190  1.00  0.00    -0.550 OA
ATOM      5  O   UNL     1       5.367  52.166  -1.002  1.00  0.00    -0.550 OA
ENDBRANCH   2   3
ENDBRANCH   1   2
BRANCH   1   6
ATOM      6  C   UNL     1       3.252  50.643   1.720  1.00  0.00     0.000 C 
BRANCH   6   7
ATOM      7  C   UNL     1       2.144  50.305   0.711  1.00  0.00    -0.000 C 
BRANCH   7   8
ATOM      8  C   UNL     1       1.933  51.457  -0.278  1.00  0.00    -0.003 C 
ATOM      9  C   UNL     1       2.131  50.993  -1.718  1.00  0.00     0.004 C 
ENDBRANCH   7   8
ENDBRANCH   6   7
ENDBRANCH   1   6
TORSDOF 5
ENDMDL
MODEL 6
REMARK VINA RESULT:    -3.536     16.414     17.186
REMARK INTER + INTRA:          -4.760
REMARK INTER:                  -4.532
REMARK INTRA:                  -0.228
REMARK UNBOUND:                -0.191
REMARK SMILES CCCCCCC(=O)[O-]
REMARK SMILES IDX 5 1 6 2 7 3 8 4 9 5 4 6 3 7 2 8 1 9
REMARK H PARENT
REMARK Flexibility Score: inf
ROOT
ATOM      1  C   UNL     1       4.166  53.238   1.375  1.00  0.00     0.006 C 
ENDROOT
BRANCH   1   2
ATOM      2  C   UNL     1       3.737  54.237   0.292  1.00  0.00     0.053 C 
BRANCH   2   3
ATOM      3  C   UNL     1       4.091  55.632   0.700  1.00  0.00     0.041 C 
ATOM      4  O   UNL     1       5.175  55.862   1.298  1.00  0.00    -0.550 OA
ATOM      5  O   UNL     1       3.247  56.687   0.377  1.00  0.00    -0.550 OA
ENDBRANCH   2   3
ENDBRANCH   1   2
BRANCH   1   6
ATOM      6  C   UNL     1       4.245  51.795   0.852  1.00  0.00     0.000 C 
BRANCH   6   7
ATOM      7  C   UNL     1       3.411  50.815   1.689  1.00  0.00    -0.000 C 
BRANCH   7   8
ATOM      8  C   UNL     1       2.231  50.266   0.878  1.00  0.00    -0.003 C 
ATOM      9  C   UNL     1       2.300  50.727  -0.575  1.00  0.00     0.004 C 
ENDBRANCH   7   8
ENDBRANCH   6   7
ENDBRANCH   1   6
TORSDOF 5
ENDMDL
MODEL 7
REMARK VINA RESULT:    -3.523     13.362     14.353
REMARK INTER + INTRA:          -4.744
REMARK INTER:                  -4.561
REMARK INTRA:                  -0.183
REMARK UNBOUND:                -0.191
REMARK SMILES CCCCCCC(=O)[O-]
REMARK SMILES IDX 5 1 6 2 7 3 8 4 9 5 4 6 3 7 2 8 1 9
REMARK H PARENT
REMARK Flexibility Score: inf
ROOT
ATOM      1  C   UNL     1       6.335  52.581  -0.946  1.00  0.00     0.006 C 
ENDROOT
BRANCH   1   2
ATOM      2  C   UNL     1       6.750  51.893  -2.253  1.00  0.00     0.053 C 
BRANCH   2   3
ATOM      3  C   UNL     1       5.889  52.361  -3.384  1.00  0.00     0.041 C 
ATOM      4  O   UNL     1       6.017  53.529  -3.837  1.00  0.00    -0.550 OA
ATOM      5  O   UNL     1       4.980  51.491  -3.972  1.00  0.00    -0.550 OA
ENDBRANCH   2   3
ENDBRANCH   1   2
BRANCH   1   6
ATOM      6  C   UNL     1       4.968  52.102  -0.433  1.00  0.00     0.000 C 
BRANCH   6   7
ATOM      7  C   UNL     1       4.902  52.033   1.100  1.00  0.00    -0.000 C 
BRANCH   7   8
ATOM      8  C   UNL     1       3.831  51.036   1.558  1.00  0.00    -0.003 C 
ATOM      9  C   UNL     1       2.743  50.870   0.501  1.00  0.00     0.004 C 
ENDBRANCH   7   8
ENDBRANCH   6   7
ENDBRANCH   1   6
TORSDOF 5
ENDMDL
MODEL 8
REMARK VINA RESULT:    -3.518     16.047     16.667
REMARK INTER + INTRA:          -4.737
REMARK INTER:                  -4.372
REMARK INTRA:                  -0.366
REMARK UNBOUND:                -0.191
REMARK SMILES CCCCCCC(=O)[O-]
REMARK SMILES IDX 5 1 6 2 7 3 8 4 9 5 4 6 3 7 2 8 1 9
REMARK H PARENT
REMARK Flexibility Score: inf
ROOT
ATOM      1  C   UNL     1       1.967  52.890  -0.661  1.00  0.00     0.006 C 
ENDROOT
BRANCH   1   2
ATOM      2  C   UNL     1       2.605  54.157  -0.075  1.00  0.00     0.053 C 
BRANCH   2   3
ATOM      3  C   UNL     1       3.863  54.495  -0.810  1.00  0.00     0.041 C 
ATOM      4  O   UNL     1       3.833  54.718  -2.049  1.00  0.00    -0.550 OA
ATOM      5  O   UNL     1       5.062  54.612  -0.119  1.00  0.00    -0.550 OA
ENDBRANCH   2   3
ENDBRANCH   1   2
BRANCH   1   6
ATOM      6  C   UNL     1       2.865  51.652  -0.513  1.00  0.00     0.000 C 
BRANCH   6   7
ATOM      7  C   UNL     1       2.360  50.678   0.562  1.00  0.00    -0.000 C 
BRANCH   7   8
ATOM      8  C   UNL     1       3.261  50.715   1.801  1.00  0.00    -0.003 C 
ATOM      9  C   UNL     1       4.582  51.418   1.503  1.00  0.00     0.004 C 
ENDBRANCH   7   8
ENDBRANCH   6   7
ENDBRANCH   1   6
TORSDOF 5
ENDMDL
MODEL 9
REMARK VINA RESULT:    -3.498     14.265     15.416
REMARK INTER + INTRA:          -4.712
REMARK INTER:                  -4.512
REMARK INTRA:                  -0.200
REMARK UNBOUND:                -0.191
REMARK SMILES CCCCCCC(=O)[O-]
REMARK SMILES IDX 5 1 6 2 7 3 8 4 9 5 4 6 3 7 2 8 1 9
REMARK H PARENT
REMARK Flexibility Score: inf
ROOT
ATOM      1  C   UNL     1       5.185  51.872   1.334  1.00  0.00     0.006 C 
ENDROOT
BRANCH   1   2
ATOM      2  C   UNL     1       5.404  52.477  -0.059  1.00  0.00     0.053 C 
BRANCH   2   3
ATOM      3  C   UNL     1       6.866  52.584  -0.357  1.00  0.00     0.041 C 
ATOM      4  O   UNL     1       7.707  52.573   0.581  1.00  0.00    -0.550 OA
ATOM      5  O   UNL     1       7.305  52.647  -1.673  1.00  0.00    -0.550 OA
ENDBRANCH   2   3
ENDBRANCH   1   2
BRANCH   1   6
ATOM      6  C   UNL     1       3.760  51.329   1.527  1.00  0.00     0.000 C 
BRANCH   6   7
ATOM      7  C   UNL     1       2.954  51.303   0.219  1.00  0.00    -0.000 C 
BRANCH   7   8
ATOM      8  C   UNL     1       1.875  50.216   0.262  1.00  0.00    -0.003 C 
ATOM      9  C   UNL     1       1.931  49.434   1.571  1.00  0.00     0.004 C 
ENDBRANCH   7   8
ENDBRANCH   6   7
ENDBRANCH   1   6
TORSDOF 5
ENDMDL
