MODEL 1
REMARK VINA RESULT:    -3.773      0.000      0.000
REMARK INTER + INTRA:          -5.467
REMARK INTER:                  -5.097
REMARK INTRA:                  -0.370
REMARK UNBOUND:                -0.370
REMARK SMILES CCCCCCC=CC(=O)[O-]
REMARK SMILES IDX 5 1 6 2 7 3 8 4 9 5 10 6 11 7 4 8 3 9 2 10 1 11
REMARK H PARENT
REMARK Flexibility Score: inf
ROOT
ATOM      1  C   UNL     1     -46.488 -27.829   2.908  1.00  0.00     0.004 C 
ENDROOT
BRANCH   1   2
ATOM      2  C   UNL     1     -46.195 -26.389   2.459  1.00  0.00     0.027 C 
BRANCH   2   3
ATOM      3  C   UNL     1     -45.235 -26.333   1.303  1.00  0.00    -0.025 C 
ATOM      4  C   UNL     1     -44.986 -27.409   0.548  1.00  0.00     0.020 C 
BRANCH   4   5
ATOM      5  C   UNL     1     -44.055 -27.373  -0.591  1.00  0.00     0.064 C 
ATOM      6  O   UNL     1     -42.827 -27.604  -0.436  1.00  0.00    -0.545 OA
ATOM      7  O   UNL     1     -44.540 -27.080  -1.859  1.00  0.00    -0.545 OA
ENDBRANCH   4   5
ENDBRANCH   2   3
ENDBRANCH   1   2
BRANCH   1   8
ATOM      8  C   UNL     1     -46.306 -28.013   4.421  1.00  0.00     0.000 C 
BRANCH   8   9
ATOM      9  C   UNL     1     -46.367 -26.666   5.150  1.00  0.00    -0.000 C 
BRANCH   9  10
ATOM     10  C   UNL     1     -45.625 -26.730   6.490  1.00  0.00    -0.003 C 
ATOM     11  C   UNL     1     -45.252 -28.165   6.846  1.00  0.00     0.004 C 
ENDBRANCH   9  10
ENDBRANCH   8   9
ENDBRANCH   1   8
TORSDOF 6
ENDMDL
MODEL 2
REMARK VINA RESULT:    -3.710      3.510      6.032
REMARK INTER + INTRA:          -5.382
REMARK INTER:                  -5.198
REMARK INTRA:                  -0.184
REMARK UNBOUND:                -0.370
REMARK SMILES CCCCCCC=CC(=O)[O-]
REMARK SMILES IDX 5 1 6 2 7 3 8 4 9 5 10 6 11 7 4 8 3 9 2 10 1 11
REMARK H PARENT
REMARK Flexibility Score: inf
ROOT
ATOM      1  C   UNL     1     -45.572 -26.272   1.555  1.00  0.00     0.004 C 
ENDROOT
BRANCH   1   2
ATOM      2  C   UNL     1     -46.592 -26.782   2.585  1.00  0.00     0.027 C 
BRANCH   2   3
ATOM      3  C   UNL     1     -45.952 -27.137   3.899  1.00  0.00    -0.025 C 
ATOM      4  C   UNL     1     -46.331 -26.554   5.041  1.00  0.00     0.020 C 
BRANCH   4   5
ATOM      5  C   UNL     1     -45.722 -26.892   6.338  1.00  0.00     0.064 C 
ATOM      6  O   UNL     1     -45.664 -26.047   7.270  1.00  0.00    -0.545 OA
ATOM      7  O   UNL     1     -45.200 -28.163   6.535  1.00  0.00    -0.545 OA
ENDBRANCH   4   5
ENDBRANCH   2   3
ENDBRANCH   1   2
BRANCH   1   8
ATOM      8  C   UNL     1     -45.235 -27.334   0.499  1.00  0.00     0.000 C 
BRANCH   8   9
ATOM      9  C   UNL     1     -43.848 -27.087  -0.106  1.00  0.00    -0.000 C 
BRANCH   9  10
ATOM     10  C   UNL     1     -43.095 -28.406  -0.312  1.00  0.00    -0.003 C 
ATOM     11  C   UNL     1     -41.585 -28.186  -0.310  1.00  0.00     0.004 C 
ENDBRANCH   9  10
ENDBRANCH   8   9
ENDBRANCH   1   8
TORSDOF 6
ENDMDL
MODEL 3
REMARK VINA RESULT:    -3.382      1.511      2.173
REMARK INTER + INTRA:          -4.938
REMARK INTER:                  -4.710
REMARK INTRA:                  -0.228
REMARK UNBOUND:                -0.370
REMARK SMILES CCCCCCC=CC(=O)[O-]
REMARK SMILES IDX 5 1 6 2 7 3 8 4 9 5 10 6 11 7 4 8 3 9 2 10 1 11
REMARK H PARENT
REMARK Flexibility Score: inf
ROOT
ATOM      1  C   UNL     1     -45.669 -26.160   1.667  1.00  0.00     0.004 C 
ENDROOT
BRANCH   1   2
ATOM      2  C   UNL     1     -45.787 -27.159   0.505  1.00  0.00     0.027 C 
BRANCH   2   3
ATOM      3  C   UNL     1     -44.574 -28.039   0.381  1.00  0.00    -0.025 C 
ATOM      4  C   UNL     1     -43.452 -27.606  -0.203  1.00  0.00     0.020 C 
BRANCH   4   5
ATOM      5  C   UNL     1     -42.253 -28.449  -0.329  1.00  0.00     0.064 C 
ATOM      6  O   UNL     1     -41.098 -27.947  -0.302  1.00  0.00    -0.545 OA
ATOM      7  O   UNL     1     -42.397 -29.821  -0.480  1.00  0.00    -0.545 OA
ENDBRANCH   4   5
ENDBRANCH   2   3
ENDBRANCH   1   2
BRANCH   1   8
ATOM      8  C   UNL     1     -46.782 -26.346   2.707  1.00  0.00     0.000 C 
BRANCH   8   9
ATOM      9  C   UNL     1     -46.263 -27.096   3.939  1.00  0.00    -0.000 C 
BRANCH   9  10
ATOM     10  C   UNL     1     -46.754 -26.436   5.233  1.00  0.00    -0.003 C 
ATOM     11  C   UNL     1     -45.713 -26.553   6.342  1.00  0.00     0.004 C 
ENDBRANCH   9  10
ENDBRANCH   8   9
ENDBRANCH   1   8
TORSDOF 6
ENDMDL
MODEL 4
REMARK VINA RESULT:    -3.249      5.333      5.978
REMARK INTER + INTRA:          -4.759
REMARK INTER:                  -4.407
REMARK INTRA:                  -0.352
REMARK UNBOUND:                -0.370
REMARK SMILES CCCCCCC=CC(=O)[O-]
REMARK SMILES IDX 5 1 6 2 7 3 8 4 9 5 10 6 11 7 4 8 3 9 2 10 1 11
REMARK H PARENT
REMARK Flexibility Score: inf
ROOT
ATOM      1  C   UNL     1     -44.821 -29.278  -1.081  1.00  0.00     0.004 C 
ENDROOT
BRANCH   1   2
ATOM      2  C   UNL     1     -45.065 -27.944  -1.804  1.00  0.00     0.027 C 
BRANCH   2   3
ATOM      3  C   UNL     1     -45.534 -28.138  -3.220  1.00  0.00    -0.025 C 
ATOM      4  C   UNL     1     -45.169 -27.302  -4.198  1.00  0.00     0.020 C 
BRANCH   4   5
ATOM      5  C   UNL     1     -45.612 -27.478  -5.590  1.00  0.00     0.064 C 
ATOM      6  O   UNL     1     -46.763 -27.914  -5.858  1.00  0.00    -0.545 OA
ATOM      7  O   UNL     1     -44.745 -27.158  -6.627  1.00  0.00    -0.545 OA
ENDBRANCH   4   5
ENDBRANCH   2   3
ENDBRANCH   1   2
BRANCH   1   8
ATOM      8  C   UNL     1     -43.507 -29.274  -0.285  1.00  0.00     0.000 C 
BRANCH   8   9
ATOM      9  C   UNL     1     -42.815 -27.909  -0.374  1.00  0.00    -0.000 C 
BRANCH   9  10
ATOM     10  C   UNL     1     -41.292 -28.057  -0.276  1.00  0.00    -0.003 C 
ATOM     11  C   UNL     1     -40.899 -29.485   0.089  1.00  0.00     0.004 C 
ENDBRANCH   9  10
ENDBRANCH   8   9
ENDBRANCH   1   8
TORSDOF 6
ENDMDL
MODEL 5
REMARK VINA RESULT:    -3.149      4.961      6.332
REMARK INTER + INTRA:          -4.623
REMARK INTER:                  -4.371
REMARK INTRA:                  -0.252
REMARK UNBOUND:                -0.370
REMARK SMILES CCCCCCC=CC(=O)[O-]
REMARK SMILES IDX 5 1 6 2 7 3 8 4 9 5 10 6 11 7 4 8 3 9 2 10 1 11
REMARK H PARENT
REMARK Flexibility Score: inf
ROOT
ATOM      1  C   UNL     1     -45.064 -27.833  -2.162  1.00  0.00     0.004 C 
ENDROOT
BRANCH   1   2
ATOM      2  C   UNL     1     -46.155 -28.504  -3.012  1.00  0.00     0.027 C 
BRANCH   2   3
ATOM      3  C   UNL     1     -45.805 -28.531  -4.474  1.00  0.00    -0.025 C 
ATOM      4  C   UNL     1     -45.485 -27.414  -5.137  1.00  0.00     0.020 C 
BRANCH   4   5
ATOM      5  C   UNL     1     -45.134 -27.420  -6.566  1.00  0.00     0.064 C 
ATOM      6  O   UNL     1     -45.945 -27.008  -7.438  1.00  0.00    -0.545 OA
ATOM      7  O   UNL     1     -43.888 -27.888  -6.960  1.00  0.00    -0.545 OA
ENDBRANCH   4   5
ENDBRANCH   2   3
ENDBRANCH   1   2
BRANCH   1   8
ATOM      8  C   UNL     1     -45.232 -28.130  -0.665  1.00  0.00     0.000 C 
BRANCH   8   9
ATOM      9  C   UNL     1     -43.901 -28.559  -0.037  1.00  0.00    -0.000 C 
BRANCH   9  10
ATOM     10  C   UNL     1     -42.774 -27.595  -0.424  1.00  0.00    -0.003 C 
ATOM     11  C   UNL     1     -41.404 -28.231  -0.204  1.00  0.00     0.004 C 
ENDBRANCH   9  10
ENDBRANCH   8   9
ENDBRANCH   1   8
TORSDOF 6
ENDMDL
MODEL 6
REMARK VINA RESULT:    -3.038      1.814      3.143
REMARK INTER + INTRA:          -4.474
REMARK INTER:                  -4.266
REMARK INTRA:                  -0.207
REMARK UNBOUND:                -0.370
REMARK SMILES CCCCCCC=CC(=O)[O-]
REMARK SMILES IDX 5 1 6 2 7 3 8 4 9 5 10 6 11 7 4 8 3 9 2 10 1 11
REMARK H PARENT
REMARK Flexibility Score: inf
ROOT
ATOM      1  C   UNL     1     -44.697 -26.522   0.822  1.00  0.00     0.004 C 
ENDROOT
BRANCH   1   2
ATOM      2  C   UNL     1     -43.936 -27.586   0.015  1.00  0.00     0.027 C 
BRANCH   2   3
ATOM      3  C   UNL     1     -44.254 -27.526  -1.454  1.00  0.00    -0.025 C 
ATOM      4  C   UNL     1     -45.267 -28.224  -1.979  1.00  0.00     0.020 C 
BRANCH   4   5
ATOM      5  C   UNL     1     -45.598 -28.175  -3.412  1.00  0.00     0.064 C 
ATOM      6  O   UNL     1     -46.146 -29.151  -3.988  1.00  0.00    -0.545 OA
ATOM      7  O   UNL     1     -45.300 -27.032  -4.142  1.00  0.00    -0.545 OA
ENDBRANCH   4   5
ENDBRANCH   2   3
ENDBRANCH   1   2
BRANCH   1   8
ATOM      8  C   UNL     1     -45.974 -27.084   1.463  1.00  0.00     0.000 C 
BRANCH   8   9
ATOM      9  C   UNL     1     -46.172 -26.524   2.876  1.00  0.00    -0.000 C 
BRANCH   9  10
ATOM     10  C   UNL     1     -46.327 -27.654   3.900  1.00  0.00    -0.003 C 
ATOM     11  C   UNL     1     -46.034 -27.162   5.313  1.00  0.00     0.004 C 
ENDBRANCH   9  10
ENDBRANCH   8   9
ENDBRANCH   1   8
TORSDOF 6
ENDMDL
MODEL 7
REMARK VINA RESULT:    -3.009      6.015     10.017
REMARK INTER + INTRA:          -4.434
REMARK INTER:                  -4.034
REMARK INTRA:                  -0.401
REMARK UNBOUND:                -0.370
REMARK SMILES CCCCCCC=CC(=O)[O-]
REMARK SMILES IDX 5 1 6 2 7 3 8 4 9 5 10 6 11 7 4 8 3 9 2 10 1 11
REMARK H PARENT
REMARK Flexibility Score: inf
ROOT
ATOM      1  C   UNL     1     -45.603 -28.846  -7.038  1.00  0.00     0.004 C 
ENDROOT
BRANCH   1   2
ATOM      2  C   UNL     1     -45.909 -27.490  -6.382  1.00  0.00     0.027 C 
BRANCH   2   3
ATOM      3  C   UNL     1     -45.512 -27.454  -4.932  1.00  0.00    -0.025 C 
ATOM      4  C   UNL     1     -45.980 -28.350  -4.056  1.00  0.00     0.020 C 
BRANCH   4   5
ATOM      5  C   UNL     1     -45.600 -28.335  -2.634  1.00  0.00     0.064 C 
ATOM      6  O   UNL     1     -45.900 -29.289  -1.870  1.00  0.00    -0.545 OA
ATOM      7  O   UNL     1     -44.898 -27.249  -2.128  1.00  0.00    -0.545 OA
ENDBRANCH   4   5
ENDBRANCH   2   3
ENDBRANCH   1   2
BRANCH   1   8
ATOM      8  C   UNL     1     -45.041 -28.689  -8.458  1.00  0.00     0.000 C 
BRANCH   8   9
ATOM      9  C   UNL     1     -43.796 -27.795  -8.461  1.00  0.00    -0.000 C 
BRANCH   9  10
ATOM     10  C   UNL     1     -42.595 -28.522  -7.847  1.00  0.00    -0.003 C 
ATOM     11  C   UNL     1     -41.946 -29.464  -8.856  1.00  0.00     0.004 C 
ENDBRANCH   9  10
ENDBRANCH   8   9
ENDBRANCH   1   8
TORSDOF 6
ENDMDL
MODEL 8
REMARK VINA RESULT:    -2.928      4.557      8.620
REMARK INTER + INTRA:          -4.325
REMARK INTER:                  -4.071
REMARK INTRA:                  -0.253
REMARK UNBOUND:                -0.370
REMARK SMILES CCCCCCC=CC(=O)[O-]
REMARK SMILES IDX 5 1 6 2 7 3 8 4 9 5 10 6 11 7 4 8 3 9 2 10 1 11
REMARK H PARENT
REMARK Flexibility Score: inf
ROOT
ATOM      1  C   UNL     1     -45.366 -27.360  -4.597  1.00  0.00     0.004 C 
ENDROOT
BRANCH   1   2
ATOM      2  C   UNL     1     -46.017 -28.429  -3.705  1.00  0.00     0.027 C 
BRANCH   2   3
ATOM      3  C   UNL     1     -45.480 -28.408  -2.301  1.00  0.00    -0.025 C 
ATOM      4  C   UNL     1     -44.503 -27.571  -1.938  1.00  0.00     0.020 C 
BRANCH   4   5
ATOM      5  C   UNL     1     -43.969 -27.530  -0.567  1.00  0.00     0.064 C 
ATOM      6  O   UNL     1     -43.131 -28.381  -0.169  1.00  0.00    -0.545 OA
ATOM      7  O   UNL     1     -44.398 -26.536   0.302  1.00  0.00    -0.545 OA
ENDBRANCH   4   5
ENDBRANCH   2   3
ENDBRANCH   1   2
BRANCH   1   8
ATOM      8  C   UNL     1     -45.693 -27.566  -6.083  1.00  0.00     0.000 C 
BRANCH   8   9
ATOM      9  C   UNL     1     -44.678 -28.504  -6.744  1.00  0.00    -0.000 C 
BRANCH   9  10
ATOM     10  C   UNL     1     -43.634 -27.712  -7.541  1.00  0.00    -0.003 C 
ATOM     11  C   UNL     1     -42.475 -28.605  -7.972  1.00  0.00     0.004 C 
ENDBRANCH   9  10
ENDBRANCH   8   9
ENDBRANCH   1   8
TORSDOF 6
ENDMDL
MODEL 9
REMARK VINA RESULT:    -2.914      5.209      7.476
REMARK INTER + INTRA:          -4.306
REMARK INTER:                  -4.034
REMARK INTRA:                  -0.272
REMARK UNBOUND:                -0.370
REMARK SMILES CCCCCCC=CC(=O)[O-]
REMARK SMILES IDX 5 1 6 2 7 3 8 4 9 5 10 6 11 7 4 8 3 9 2 10 1 11
REMARK H PARENT
REMARK Flexibility Score: inf
ROOT
ATOM      1  C   UNL     1     -45.409 -27.741  -3.902  1.00  0.00     0.004 C 
ENDROOT
BRANCH   1   2
ATOM      2  C   UNL     1     -46.071 -27.611  -5.283  1.00  0.00     0.027 C 
BRANCH   2   3
ATOM      3  C   UNL     1     -45.067 -27.392  -6.381  1.00  0.00    -0.025 C 
ATOM      4  C   UNL     1     -44.281 -28.383  -6.817  1.00  0.00     0.020 C 
BRANCH   4   5
ATOM      5  C   UNL     1     -43.297 -28.191  -7.894  1.00  0.00     0.064 C 
ATOM      6  O   UNL     1     -43.644 -27.753  -9.023  1.00  0.00    -0.545 OA
ATOM      7  O   UNL     1     -41.963 -28.500  -7.662  1.00  0.00    -0.545 OA
ENDBRANCH   4   5
ENDBRANCH   2   3
ENDBRANCH   1   2
BRANCH   1   8
ATOM      8  C   UNL     1     -46.268 -28.553  -2.922  1.00  0.00     0.000 C 
BRANCH   8   9
ATOM      9  C   UNL     1     -45.655 -28.545  -1.517  1.00  0.00    -0.000 C 
BRANCH   9  10
ATOM     10  C   UNL     1     -44.475 -27.569  -1.437  1.00  0.00    -0.003 C 
ATOM     11  C   UNL     1     -43.727 -27.716  -0.116  1.00  0.00     0.004 C 
ENDBRANCH   9  10
ENDBRANCH   8   9
ENDBRANCH   1   8
TORSDOF 6
ENDMDL
