MODEL 1
REMARK VINA RESULT:    -4.195      0.000      0.000
REMARK INTER + INTRA:          -5.019
REMARK INTER:                  -4.931
REMARK INTRA:                  -0.088
REMARK UNBOUND:                -0.088
REMARK SMILES O=C([O-])CCC(=O)[O-]
REMARK SMILES IDX 4 1 2 2 1 3 3 4 5 5 6 6 7 7 8 8
REMARK H PARENT
REMARK Flexibility Score: inf
ROOT
ATOM      1  C   UNL     1      28.907   2.854   5.848  1.00  0.00     0.059 C 
ENDROOT
BRANCH   1   2
ATOM      2  C   UNL     1      27.821   2.618   4.844  1.00  0.00     0.042 C 
ATOM      3  O   UNL     1      27.317   1.471   4.712  1.00  0.00    -0.550 OA
ATOM      4  O   UNL     1      27.393   3.655   4.026  1.00  0.00    -0.550 OA
ENDBRANCH   1   2
BRANCH   1   5
ATOM      5  C   UNL     1      29.784   4.049   5.459  1.00  0.00     0.059 C 
BRANCH   5   6
ATOM      6  C   UNL     1      29.556   5.220   6.368  1.00  0.00     0.042 C 
ATOM      7  O   UNL     1      29.932   6.371   6.024  1.00  0.00    -0.550 OA
ATOM      8  O   UNL     1      28.892   5.044   7.575  1.00  0.00    -0.550 OA
ENDBRANCH   5   6
ENDBRANCH   1   5
TORSDOF 3
ENDMDL
MODEL 2
REMARK VINA RESULT:    -4.184      0.039      3.985
REMARK INTER + INTRA:          -5.006
REMARK INTER:                  -4.923
REMARK INTRA:                  -0.083
REMARK UNBOUND:                -0.088
REMARK SMILES O=C([O-])CCC(=O)[O-]
REMARK SMILES IDX 4 1 2 2 1 3 3 4 5 5 6 6 7 7 8 8
REMARK H PARENT
REMARK Flexibility Score: inf
ROOT
ATOM      1  C   UNL     1      29.821   4.029   5.502  1.00  0.00     0.059 C 
ENDROOT
BRANCH   1   2
ATOM      2  C   UNL     1      29.544   5.204   6.388  1.00  0.00     0.042 C 
ATOM      3  O   UNL     1      29.929   6.355   6.054  1.00  0.00    -0.550 OA
ATOM      4  O   UNL     1      28.896   5.021   7.603  1.00  0.00    -0.550 OA
ENDBRANCH   1   2
BRANCH   1   5
ATOM      5  C   UNL     1      28.928   2.834   5.856  1.00  0.00     0.059 C 
BRANCH   5   6
ATOM      6  C   UNL     1      27.859   2.620   4.827  1.00  0.00     0.042 C 
ATOM      7  O   UNL     1      27.326   1.487   4.695  1.00  0.00    -0.550 OA
ATOM      8  O   UNL     1      27.424   3.682   4.044  1.00  0.00    -0.550 OA
ENDBRANCH   5   6
ENDBRANCH   1   5
TORSDOF 3
ENDMDL
MODEL 3
REMARK VINA RESULT:    -4.070      1.784      2.948
REMARK INTER + INTRA:          -4.872
REMARK INTER:                  -4.750
REMARK INTRA:                  -0.122
REMARK UNBOUND:                -0.088
REMARK SMILES O=C([O-])CCC(=O)[O-]
REMARK SMILES IDX 4 1 2 2 1 3 3 4 5 5 6 6 7 7 8 8
REMARK H PARENT
REMARK Flexibility Score: inf
ROOT
ATOM      1  C   UNL     1      27.730   1.410   5.551  1.00  0.00     0.059 C 
ENDROOT
BRANCH   1   2
ATOM      2  C   UNL     1      28.451   0.414   4.696  1.00  0.00     0.042 C 
ATOM      3  O   UNL     1      28.734   0.691   3.501  1.00  0.00    -0.550 OA
ATOM      4  O   UNL     1      28.775  -0.836   5.209  1.00  0.00    -0.550 OA
ENDBRANCH   1   2
BRANCH   1   5
ATOM      5  C   UNL     1      28.564   2.678   5.766  1.00  0.00     0.059 C 
BRANCH   5   6
ATOM      6  C   UNL     1      27.950   3.864   5.084  1.00  0.00     0.042 C 
ATOM      7  O   UNL     1      28.066   5.013   5.587  1.00  0.00    -0.550 OA
ATOM      8  O   UNL     1      27.288   3.705   3.874  1.00  0.00    -0.550 OA
ENDBRANCH   5   6
ENDBRANCH   1   5
TORSDOF 3
ENDMDL
MODEL 4
REMARK VINA RESULT:    -4.052      1.789      4.123
REMARK INTER + INTRA:          -4.851
REMARK INTER:                  -4.728
REMARK INTRA:                  -0.123
REMARK UNBOUND:                -0.088
REMARK SMILES O=C([O-])CCC(=O)[O-]
REMARK SMILES IDX 4 1 2 2 1 3 3 4 5 5 6 6 7 7 8 8
REMARK H PARENT
REMARK Flexibility Score: inf
ROOT
ATOM      1  C   UNL     1      28.645   2.603   5.768  1.00  0.00     0.059 C 
ENDROOT
BRANCH   1   2
ATOM      2  C   UNL     1      28.021   3.813   5.144  1.00  0.00     0.042 C 
ATOM      3  O   UNL     1      28.155   4.945   5.680  1.00  0.00    -0.550 OA
ATOM      4  O   UNL     1      27.257   3.684   3.991  1.00  0.00    -0.550 OA
ENDBRANCH   1   2
BRANCH   1   5
ATOM      5  C   UNL     1      27.785   1.353   5.557  1.00  0.00     0.059 C 
BRANCH   5   6
ATOM      6  C   UNL     1      28.455   0.369   4.645  1.00  0.00     0.042 C 
ATOM      7  O   UNL     1      28.679   0.670   3.444  1.00  0.00    -0.550 OA
ATOM      8  O   UNL     1      28.868  -0.863   5.135  1.00  0.00    -0.550 OA
ENDBRANCH   5   6
ENDBRANCH   1   5
TORSDOF 3
ENDMDL
MODEL 5
REMARK VINA RESULT:    -4.024      1.690      1.883
REMARK INTER + INTRA:          -4.817
REMARK INTER:                  -4.698
REMARK INTRA:                  -0.120
REMARK UNBOUND:                -0.088
REMARK SMILES O=C([O-])CCC(=O)[O-]
REMARK SMILES IDX 4 1 2 2 1 3 3 4 5 5 6 6 7 7 8 8
REMARK H PARENT
REMARK Flexibility Score: inf
ROOT
ATOM      1  C   UNL     1      28.530   2.612   3.999  1.00  0.00     0.059 C 
ENDROOT
BRANCH   1   2
ATOM      2  C   UNL     1      27.966   1.357   4.588  1.00  0.00     0.042 C 
ATOM      3  O   UNL     1      27.975   0.285   3.927  1.00  0.00    -0.550 OA
ATOM      4  O   UNL     1      27.394   1.379   5.854  1.00  0.00    -0.550 OA
ENDBRANCH   1   2
BRANCH   1   5
ATOM      5  C   UNL     1      27.709   3.842   4.401  1.00  0.00     0.059 C 
BRANCH   5   6
ATOM      6  C   UNL     1      28.479   4.747   5.315  1.00  0.00     0.042 C 
ATOM      7  O   UNL     1      28.819   5.896   4.929  1.00  0.00    -0.550 OA
ATOM      8  O   UNL     1      28.785   4.335   6.605  1.00  0.00    -0.550 OA
ENDBRANCH   5   6
ENDBRANCH   1   5
TORSDOF 3
ENDMDL
MODEL 6
REMARK VINA RESULT:    -3.158      2.735      4.994
REMARK INTER + INTRA:          -3.800
REMARK INTER:                  -3.684
REMARK INTRA:                  -0.116
REMARK UNBOUND:                -0.088
REMARK SMILES O=C([O-])CCC(=O)[O-]
REMARK SMILES IDX 4 1 2 2 1 3 3 4 5 5 6 6 7 7 8 8
REMARK H PARENT
REMARK Flexibility Score: inf
ROOT
ATOM      1  C   UNL     1      29.004   1.460   4.494  1.00  0.00     0.059 C 
ENDROOT
BRANCH   1   2
ATOM      2  C   UNL     1      27.790   2.055   5.137  1.00  0.00     0.042 C 
ATOM      3  O   UNL     1      27.179   1.427   6.042  1.00  0.00    -0.550 OA
ATOM      4  O   UNL     1      27.309   3.286   4.710  1.00  0.00    -0.550 OA
ENDBRANCH   1   2
BRANCH   1   5
ATOM      5  C   UNL     1      28.636   0.607   3.275  1.00  0.00     0.059 C 
BRANCH   5   6
ATOM      6  C   UNL     1      28.394  -0.823   3.654  1.00  0.00     0.042 C 
ATOM      7  O   UNL     1      28.930  -1.304   4.687  1.00  0.00    -0.550 OA
ATOM      8  O   UNL     1      27.544  -1.611   2.889  1.00  0.00    -0.550 OA
ENDBRANCH   5   6
ENDBRANCH   1   5
TORSDOF 3
ENDMDL
MODEL 7
REMARK VINA RESULT:    -2.746     16.710     17.502
REMARK INTER + INTRA:          -3.315
REMARK INTER:                  -3.194
REMARK INTRA:                  -0.122
REMARK UNBOUND:                -0.088
REMARK SMILES O=C([O-])CCC(=O)[O-]
REMARK SMILES IDX 4 1 2 2 1 3 3 4 5 5 6 6 7 7 8 8
REMARK H PARENT
REMARK Flexibility Score: inf
ROOT
ATOM      1  C   UNL     1      27.662  11.606  20.493  1.00  0.00     0.059 C 
ENDROOT
BRANCH   1   2
ATOM      2  C   UNL     1      28.673  12.684  20.252  1.00  0.00     0.042 C 
ATOM      3  O   UNL     1      28.812  13.179  19.102  1.00  0.00    -0.550 OA
ATOM      4  O   UNL     1      29.491  13.114  21.289  1.00  0.00    -0.550 OA
ENDBRANCH   1   2
BRANCH   1   5
ATOM      5  C   UNL     1      27.742  11.068  21.925  1.00  0.00     0.059 C 
BRANCH   5   6
ATOM      6  C   UNL     1      28.464   9.755  21.982  1.00  0.00     0.042 C 
ATOM      7  O   UNL     1      29.722   9.721  21.934  1.00  0.00    -0.550 OA
ATOM      8  O   UNL     1      27.749   8.574  22.130  1.00  0.00    -0.550 OA
ENDBRANCH   5   6
ENDBRANCH   1   5
TORSDOF 3
ENDMDL
MODEL 8
REMARK VINA RESULT:    -2.744     16.690     17.324
REMARK INTER + INTRA:          -3.314
REMARK INTER:                  -3.196
REMARK INTRA:                  -0.118
REMARK UNBOUND:                -0.088
REMARK SMILES O=C([O-])CCC(=O)[O-]
REMARK SMILES IDX 4 1 2 2 1 3 3 4 5 5 6 6 7 7 8 8
REMARK H PARENT
REMARK Flexibility Score: inf
ROOT
ATOM      1  C   UNL     1      27.705  11.057  21.916  1.00  0.00     0.059 C 
ENDROOT
BRANCH   1   2
ATOM      2  C   UNL     1      28.442   9.756  21.980  1.00  0.00     0.042 C 
ATOM      3  O   UNL     1      29.699   9.733  21.899  1.00  0.00    -0.550 OA
ATOM      4  O   UNL     1      27.739   8.563  22.091  1.00  0.00    -0.550 OA
ENDBRANCH   1   2
BRANCH   1   5
ATOM      5  C   UNL     1      27.633  11.595  20.483  1.00  0.00     0.059 C 
BRANCH   5   6
ATOM      6  C   UNL     1      28.647  12.674  20.246  1.00  0.00     0.042 C 
ATOM      7  O   UNL     1      28.812  13.145  19.090  1.00  0.00    -0.550 OA
ATOM      8  O   UNL     1      29.378  13.186  21.310  1.00  0.00    -0.550 OA
ENDBRANCH   5   6
ENDBRANCH   1   5
TORSDOF 3
ENDMDL
MODEL 9
REMARK VINA RESULT:    -2.627     17.372     17.769
REMARK INTER + INTRA:          -3.175
REMARK INTER:                  -3.054
REMARK INTRA:                  -0.121
REMARK UNBOUND:                -0.088
REMARK SMILES O=C([O-])CCC(=O)[O-]
REMARK SMILES IDX 4 1 2 2 1 3 3 4 5 5 6 6 7 7 8 8
REMARK H PARENT
REMARK Flexibility Score: inf
ROOT
ATOM      1  C   UNL     1      29.647   9.918  21.988  1.00  0.00     0.059 C 
ENDROOT
BRANCH   1   2
ATOM      2  C   UNL     1      28.208   9.684  22.328  1.00  0.00     0.042 C 
ATOM      3  O   UNL     1      27.511  10.612  22.818  1.00  0.00    -0.550 OA
ATOM      4  O   UNL     1      27.644   8.428  22.141  1.00  0.00    -0.550 OA
ENDBRANCH   1   2
BRANCH   1   5
ATOM      5  C   UNL     1      30.106  11.317  22.410  1.00  0.00     0.059 C 
BRANCH   5   6
ATOM      6  C   UNL     1      30.273  12.224  21.228  1.00  0.00     0.042 C 
ATOM      7  O   UNL     1      31.424  12.558  20.844  1.00  0.00    -0.550 OA
ATOM      8  O   UNL     1      29.158  12.666  20.528  1.00  0.00    -0.550 OA
ENDBRANCH   5   6
ENDBRANCH   1   5
TORSDOF 3
ENDMDL
