MODEL 1
REMARK VINA RESULT:    -3.088      0.000      0.000
REMARK INTER + INTRA:          -2.715
REMARK INTER:                  -3.810
REMARK INTRA:                   1.095
REMARK UNBOUND:                 1.095
REMARK SMILES CC1=CC=CC(C)(C)CC1=O
REMARK SMILES IDX 1 1 2 2 3 3 10 4 11 5 9 6 4 8 5 9 6 10 7 11 8 12
REMARK H PARENT
REMARK Flexibility Score: 80.00
ROOT
ATOM      1  C   UNL     1      80.863  18.913   1.943  1.00  0.00     0.048 C 
ATOM      2  C   UNL     1      79.919  17.847   2.450  1.00  0.00    -0.008 C 
ATOM      3  C   UNL     1      80.185  17.291   3.652  1.00  0.00     0.007 C 
ENDROOT
BRANCH   2   4
ATOM      4  C   UNL     1      78.801  17.461   1.549  1.00  0.00     0.159 C 
ATOM      5  O   UNL     1      78.804  17.894   0.365  1.00  0.00    -0.295 OA
BRANCH   4   6
ATOM      6  C   UNL     1      77.679  16.547   1.946  1.00  0.00     0.091 CG0
ATOM      7  G   UNL     1      78.149  15.184   2.500  1.00  0.00     0.000 G0
ENDBRANCH   4   6
ENDBRANCH   2   4
BRANCH   3   8
ATOM      8  C   UNL     1      79.443  16.248   4.396  1.00  0.00    -0.003 C 
ATOM      9  C   UNL     1      78.547  15.369   3.932  1.00  0.00    -0.020 C 
BRANCH   9  10
ATOM     10  C   UNL     1      78.133  15.197   2.491  1.00  0.00    -0.010 CG0
ATOM     11  C   UNL     1      77.042  14.107   2.373  1.00  0.00     0.016 C 
ATOM     12  C   UNL     1      79.366  14.721   1.687  1.00  0.00     0.016 C 
ATOM     13  G   UNL     1      77.683  16.559   1.918  1.00  0.00     0.000 G0
ENDBRANCH   9  10
ENDBRANCH   3   8
TORSDOF 0
ENDMDL
MODEL 2
REMARK VINA RESULT:    -2.885      2.049      3.087
REMARK INTER + INTRA:          -2.464
REMARK INTER:                  -3.559
REMARK INTRA:                   1.096
REMARK UNBOUND:                 1.095
REMARK SMILES CC1=CC=CC(C)(C)CC1=O
REMARK SMILES IDX 1 1 2 2 3 3 10 4 11 5 9 6 4 8 5 9 6 10 7 11 8 12
REMARK H PARENT
REMARK Flexibility Score: 80.00
ROOT
ATOM      1  C   UNL     1      79.698  17.435   5.923  1.00  0.00     0.048 C 
ATOM      2  C   UNL     1      79.750  16.844   4.533  1.00  0.00    -0.008 C 
ATOM      3  C   UNL     1      79.739  17.697   3.485  1.00  0.00     0.007 C 
ENDROOT
BRANCH   2   4
ATOM      4  C   UNL     1      79.754  15.361   4.437  1.00  0.00     0.159 C 
ATOM      5  O   UNL     1      79.516  14.688   5.477  1.00  0.00    -0.295 OA
BRANCH   4   6
ATOM      6  C   UNL     1      79.985  14.601   3.164  1.00  0.00     0.091 CG0
ATOM      7  G   UNL     1      79.016  14.983   2.023  1.00  0.00     0.000 G0
ENDBRANCH   4   6
ENDBRANCH   2   4
BRANCH   3   8
ATOM      8  C   UNL     1      79.793  17.413   2.034  1.00  0.00    -0.003 C 
ATOM      9  C   UNL     1      79.519  16.268   1.397  1.00  0.00    -0.020 C 
BRANCH   9  10
ATOM     10  C   UNL     1      79.015  14.994   2.032  1.00  0.00    -0.010 CG0
ATOM     11  C   UNL     1      78.861  13.887   0.963  1.00  0.00     0.016 C 
ATOM     12  C   UNL     1      77.617  15.273   2.631  1.00  0.00     0.016 C 
ATOM     13  G   UNL     1      79.959  14.586   3.184  1.00  0.00     0.000 G0
ENDBRANCH   9  10
ENDBRANCH   3   8
TORSDOF 0
ENDMDL
MODEL 3
REMARK VINA RESULT:    -2.413      1.560      2.246
REMARK INTER + INTRA:          -1.883
REMARK INTER:                  -2.726
REMARK INTRA:                   0.843
REMARK UNBOUND:                 1.095
REMARK SMILES CC1=CC=CC(C)(C)CC1=O
REMARK SMILES IDX 1 1 2 2 3 3 10 4 11 5 9 6 4 8 5 9 6 10 7 11 8 12
REMARK H PARENT
REMARK Flexibility Score: 80.00
ROOT
ATOM      1  C   UNL     1      78.485  18.049   0.214  1.00  0.00     0.048 C 
ATOM      2  C   UNL     1      79.081  17.330   1.402  1.00  0.00    -0.008 C 
ATOM      3  C   UNL     1      79.550  18.082   2.422  1.00  0.00     0.007 C 
ENDROOT
BRANCH   2   4
ATOM      4  C   UNL     1      79.150  15.847   1.322  1.00  0.00     0.159 C 
ATOM      5  O   UNL     1      78.631  15.273   0.326  1.00  0.00    -0.295 OA
BRANCH   4   6
ATOM      6  C   UNL     1      79.837  14.980   2.335  1.00  0.00     0.091 CG0
ATOM      7  G   UNL     1      79.391  15.245   3.791  1.00  0.00     0.000 G0
ENDBRANCH   4   6
ENDBRANCH   2   4
BRANCH   3   8
ATOM      8  C   UNL     1      80.168  17.662   3.701  1.00  0.00    -0.003 C 
ATOM      9  C   UNL     1      80.096  16.474   4.312  1.00  0.00    -0.020 C 
BRANCH   9  10
ATOM     10  C   UNL     1      79.404  15.240   3.783  1.00  0.00    -0.010 CG0
ATOM     11  C   UNL     1      77.871  15.377   3.938  1.00  0.00     0.016 C 
ATOM     12  C   UNL     1      79.860  14.029   4.629  1.00  0.00     0.016 C 
ATOM     13  G   UNL     1      79.837  14.995   2.320  1.00  0.00     0.000 G0
ENDBRANCH   9  10
ENDBRANCH   3   8
TORSDOF 0
ENDMDL
MODEL 4
REMARK VINA RESULT:    -2.402      1.365      3.436
REMARK INTER + INTRA:          -1.869
REMARK INTER:                  -2.962
REMARK INTRA:                   1.093
REMARK UNBOUND:                 1.095
REMARK SMILES CC1=CC=CC(C)(C)CC1=O
REMARK SMILES IDX 1 1 2 2 3 3 10 4 11 5 9 6 4 8 5 9 6 10 7 11 8 12
REMARK H PARENT
REMARK Flexibility Score: 80.00
ROOT
ATOM      1  C   UNL     1      77.027  13.875   2.441  1.00  0.00     0.048 C 
ATOM      2  C   UNL     1      78.064  14.961   2.618  1.00  0.00    -0.008 C 
ATOM      3  C   UNL     1      78.294  15.413   3.870  1.00  0.00     0.007 C 
ENDROOT
BRANCH   2   4
ATOM      4  C   UNL     1      78.707  15.479   1.381  1.00  0.00     0.159 C 
ATOM      5  O   UNL     1      78.240  15.124   0.265  1.00  0.00    -0.295 OA
BRANCH   4   6
ATOM      6  C   UNL     1      79.860  16.439   1.372  1.00  0.00     0.091 CG0
ATOM      7  G   UNL     1      79.622  17.711   2.216  1.00  0.00     0.000 G0
ENDBRANCH   4   6
ENDBRANCH   2   4
BRANCH   3   8
ATOM      8  C   UNL     1      79.243  16.446   4.342  1.00  0.00    -0.003 C 
ATOM      9  C   UNL     1      79.847  17.410   3.637  1.00  0.00    -0.020 C 
BRANCH   9  10
ATOM     10  C   UNL     1      79.634  17.709   2.172  1.00  0.00    -0.010 CG0
ATOM     11  C   UNL     1      80.552  18.869   1.722  1.00  0.00     0.016 C 
ATOM     12  C   UNL     1      78.168  18.163   1.980  1.00  0.00     0.016 C 
ATOM     13  G   UNL     1      79.850  16.421   1.348  1.00  0.00     0.000 G0
ENDBRANCH   9  10
ENDBRANCH   3   8
TORSDOF 0
ENDMDL
MODEL 5
REMARK VINA RESULT:    -2.198     19.376     20.673
REMARK INTER + INTRA:          -1.617
REMARK INTER:                  -2.474
REMARK INTRA:                   0.857
REMARK UNBOUND:                 1.095
REMARK SMILES CC1=CC=CC(C)(C)CC1=O
REMARK SMILES IDX 1 1 2 2 3 3 10 4 11 5 9 6 4 8 5 9 6 10 7 11 8 12
REMARK H PARENT
REMARK Flexibility Score: 80.00
ROOT
ATOM      1  C   UNL     1      89.190  27.441  18.253  1.00  0.00     0.048 C 
ATOM      2  C   UNL     1      89.572  27.063  16.840  1.00  0.00    -0.008 C 
ATOM      3  C   UNL     1      88.601  27.075  15.901  1.00  0.00     0.007 C 
ENDROOT
BRANCH   2   4
ATOM      4  C   UNL     1      90.984  26.654  16.616  1.00  0.00     0.159 C 
ATOM      5  O   UNL     1      91.798  26.748  17.574  1.00  0.00    -0.295 OA
BRANCH   4   6
ATOM      6  C   UNL     1      91.501  26.092  15.324  1.00  0.00     0.091 CG0
ATOM      7  G   UNL     1      91.186  26.966  14.091  1.00  0.00     0.000 G0
ENDBRANCH   4   6
ENDBRANCH   2   4
BRANCH   3   8
ATOM      8  C   UNL     1      88.680  26.767  14.455  1.00  0.00    -0.003 C 
ATOM      9  C   UNL     1      89.759  26.746  13.664  1.00  0.00    -0.020 C 
BRANCH   9  10
ATOM     10  C   UNL     1      91.187  26.972  14.099  1.00  0.00    -0.010 CG0
ATOM     11  C   UNL     1      91.435  28.476  14.364  1.00  0.00     0.016 C 
ATOM     12  C   UNL     1      92.119  26.535  12.945  1.00  0.00     0.016 C 
ATOM     13  G   UNL     1      91.496  26.089  15.328  1.00  0.00     0.000 G0
ENDBRANCH   9  10
ENDBRANCH   3   8
TORSDOF 0
ENDMDL
MODEL 6
REMARK VINA RESULT:    -1.596     19.239     20.474
REMARK INTER + INTRA:          -0.875
REMARK INTER:                  -1.728
REMARK INTRA:                   0.853
REMARK UNBOUND:                 1.095
REMARK SMILES CC1=CC=CC(C)(C)CC1=O
REMARK SMILES IDX 1 1 2 2 3 3 10 4 11 5 9 6 4 8 5 9 6 10 7 11 8 12
REMARK H PARENT
REMARK Flexibility Score: 80.00
ROOT
ATOM      1  C   UNL     1      87.502  25.274  17.034  1.00  0.00     0.048 C 
ATOM      2  C   UNL     1      88.669  26.155  16.653  1.00  0.00    -0.008 C 
ATOM      3  C   UNL     1      89.526  26.522  17.631  1.00  0.00     0.007 C 
ENDROOT
BRANCH   2   4
ATOM      4  C   UNL     1      88.743  26.590  15.233  1.00  0.00     0.159 C 
ATOM      5  O   UNL     1      87.894  26.137  14.419  1.00  0.00    -0.295 OA
BRANCH   4   6
ATOM      6  C   UNL     1      89.746  27.574  14.707  1.00  0.00     0.091 CG0
ATOM      7  G   UNL     1      91.209  27.226  15.058  1.00  0.00     0.000 G0
ENDBRANCH   4   6
ENDBRANCH   2   4
BRANCH   3   8
ATOM      8  C   UNL     1      90.745  27.358  17.555  1.00  0.00    -0.003 C 
ATOM      9  C   UNL     1      91.492  27.650  16.484  1.00  0.00    -0.020 C 
BRANCH   9  10
ATOM     10  C   UNL     1      91.208  27.234  15.060  1.00  0.00    -0.010 CG0
ATOM     11  C   UNL     1      91.544  25.738  14.861  1.00  0.00     0.016 C 
ATOM     12  C   UNL     1      92.125  28.055  14.124  1.00  0.00     0.016 C 
ATOM     13  G   UNL     1      89.741  27.569  14.710  1.00  0.00     0.000 G0
ENDBRANCH   9  10
ENDBRANCH   3   8
TORSDOF 0
ENDMDL
MODEL 7
REMARK VINA RESULT:    -0.460     18.865     20.023
REMARK INTER + INTRA:           0.528
REMARK INTER:                  -0.324
REMARK INTRA:                   0.852
REMARK UNBOUND:                 1.095
REMARK SMILES CC1=CC=CC(C)(C)CC1=O
REMARK SMILES IDX 1 1 2 2 3 3 10 4 11 5 9 6 4 8 5 9 6 10 7 11 8 12
REMARK H PARENT
REMARK Flexibility Score: 80.00
ROOT
ATOM      1  C   UNL     1      91.744  27.209  12.259  1.00  0.00     0.048 C 
ATOM      2  C   UNL     1      91.208  26.890  13.636  1.00  0.00    -0.008 C 
ATOM      3  C   UNL     1      92.100  26.745  14.641  1.00  0.00     0.007 C 
ENDROOT
BRANCH   2   4
ATOM      4  C   UNL     1      89.737  26.709  13.757  1.00  0.00     0.159 C 
ATOM      5  O   UNL     1      89.013  26.986  12.762  1.00  0.00    -0.295 OA
BRANCH   4   6
ATOM      6  C   UNL     1      89.053  26.175  14.980  1.00  0.00     0.091 CG0
ATOM      7  G   UNL     1      89.361  26.971  16.268  1.00  0.00     0.000 G0
ENDBRANCH   4   6
ENDBRANCH   2   4
BRANCH   3   8
ATOM      8  C   UNL     1      91.872  26.447  16.073  1.00  0.00    -0.003 C 
ATOM      9  C   UNL     1      90.742  26.564  16.780  1.00  0.00    -0.020 C 
BRANCH   9  10
ATOM     10  C   UNL     1      89.392  26.973  16.240  1.00  0.00    -0.010 CG0
ATOM     11  C   UNL     1      89.350  28.501  16.004  1.00  0.00     0.016 C 
ATOM     12  C   UNL     1      88.322  26.628  17.302  1.00  0.00     0.016 C 
ATOM     13  G   UNL     1      89.081  26.161  14.963  1.00  0.00     0.000 G0
ENDBRANCH   9  10
ENDBRANCH   3   8
TORSDOF 0
ENDMDL
