MODEL 1
REMARK VINA RESULT:    -4.141      0.000      0.000
REMARK INTER + INTRA:          -4.973
REMARK INTER:                  -4.867
REMARK INTRA:                  -0.107
REMARK UNBOUND:                -0.107
REMARK SMILES O=C([O-])CCC(=O)[O-]
REMARK SMILES IDX 4 1 2 2 1 3 3 4 5 5 6 6 7 7 8 8
REMARK H PARENT
REMARK Flexibility Score: inf
ROOT
ATOM      1  C   UNL     1       4.392 -33.300  -3.150  1.00  0.00     0.059 C 
ENDROOT
BRANCH   1   2
ATOM      2  C   UNL     1       3.537 -32.212  -3.722  1.00  0.00     0.042 C 
ATOM      3  O   UNL     1       4.067 -31.217  -4.282  1.00  0.00    -0.550 OA
ATOM      4  O   UNL     1       2.155 -32.277  -3.601  1.00  0.00    -0.550 OA
ENDBRANCH   1   2
BRANCH   1   5
ATOM      5  C   UNL     1       5.241 -33.978  -4.231  1.00  0.00     0.059 C 
BRANCH   5   6
ATOM      6  C   UNL     1       6.684 -33.593  -4.121  1.00  0.00     0.042 C 
ATOM      7  O   UNL     1       7.108 -33.005  -3.092  1.00  0.00    -0.550 OA
ATOM      8  O   UNL     1       7.553 -33.850  -5.174  1.00  0.00    -0.550 OA
ENDBRANCH   5   6
ENDBRANCH   1   5
TORSDOF 3
ENDMDL
MODEL 2
REMARK VINA RESULT:    -4.114      0.097      1.148
REMARK INTER + INTRA:          -4.941
REMARK INTER:                  -4.831
REMARK INTRA:                  -0.110
REMARK UNBOUND:                -0.107
REMARK SMILES O=C([O-])CCC(=O)[O-]
REMARK SMILES IDX 4 1 2 2 1 3 3 4 5 5 6 6 7 7 8 8
REMARK H PARENT
REMARK Flexibility Score: inf
ROOT
ATOM      1  C   UNL     1       4.366 -33.294  -3.110  1.00  0.00     0.059 C 
ENDROOT
BRANCH   1   2
ATOM      2  C   UNL     1       3.496 -32.192  -3.632  1.00  0.00     0.042 C 
ATOM      3  O   UNL     1       2.244 -32.268  -3.525  1.00  0.00    -0.550 OA
ATOM      4  O   UNL     1       4.066 -31.100  -4.273  1.00  0.00    -0.550 OA
ENDBRANCH   1   2
BRANCH   1   5
ATOM      5  C   UNL     1       5.180 -33.949  -4.232  1.00  0.00     0.059 C 
BRANCH   5   6
ATOM      6  C   UNL     1       6.638 -33.624  -4.118  1.00  0.00     0.042 C 
ATOM      7  O   UNL     1       7.069 -32.981  -3.125  1.00  0.00    -0.550 OA
ATOM      8  O   UNL     1       7.513 -33.996  -5.130  1.00  0.00    -0.550 OA
ENDBRANCH   5   6
ENDBRANCH   1   5
TORSDOF 3
ENDMDL
MODEL 3
REMARK VINA RESULT:    -4.095      0.137      3.905
REMARK INTER + INTRA:          -4.919
REMARK INTER:                  -4.810
REMARK INTRA:                  -0.110
REMARK UNBOUND:                -0.107
REMARK SMILES O=C([O-])CCC(=O)[O-]
REMARK SMILES IDX 4 1 2 2 1 3 3 4 5 5 6 6 7 7 8 8
REMARK H PARENT
REMARK Flexibility Score: inf
ROOT
ATOM      1  C   UNL     1       5.211 -34.045  -4.247  1.00  0.00     0.059 C 
ENDROOT
BRANCH   1   2
ATOM      2  C   UNL     1       6.662 -33.682  -4.161  1.00  0.00     0.042 C 
ATOM      3  O   UNL     1       7.475 -34.113  -5.021  1.00  0.00    -0.550 OA
ATOM      4  O   UNL     1       7.123 -32.902  -3.110  1.00  0.00    -0.550 OA
ENDBRANCH   1   2
BRANCH   1   5
ATOM      5  C   UNL     1       4.395 -33.367  -3.142  1.00  0.00     0.059 C 
BRANCH   5   6
ATOM      6  C   UNL     1       3.563 -32.243  -3.680  1.00  0.00     0.042 C 
ATOM      7  O   UNL     1       4.110 -31.271  -4.263  1.00  0.00    -0.550 OA
ATOM      8  O   UNL     1       2.186 -32.252  -3.500  1.00  0.00    -0.550 OA
ENDBRANCH   5   6
ENDBRANCH   1   5
TORSDOF 3
ENDMDL
MODEL 4
REMARK VINA RESULT:    -4.030      1.432      3.487
REMARK INTER + INTRA:          -4.843
REMARK INTER:                  -4.655
REMARK INTRA:                  -0.188
REMARK UNBOUND:                -0.107
REMARK SMILES O=C([O-])CCC(=O)[O-]
REMARK SMILES IDX 4 1 2 2 1 3 3 4 5 5 6 6 7 7 8 8
REMARK H PARENT
REMARK Flexibility Score: inf
ROOT
ATOM      1  C   UNL     1       6.746 -33.972  -3.880  1.00  0.00     0.059 C 
ENDROOT
BRANCH   1   2
ATOM      2  C   UNL     1       7.228 -32.565  -3.705  1.00  0.00     0.042 C 
ATOM      3  O   UNL     1       7.422 -31.831  -4.710  1.00  0.00    -0.550 OA
ATOM      4  O   UNL     1       7.501 -32.075  -2.435  1.00  0.00    -0.550 OA
ENDBRANCH   1   2
BRANCH   1   5
ATOM      5  C   UNL     1       5.310 -34.014  -4.412  1.00  0.00     0.059 C 
BRANCH   5   6
ATOM      6  C   UNL     1       4.359 -33.314  -3.490  1.00  0.00     0.042 C 
ATOM      7  O   UNL     1       4.140 -33.770  -2.338  1.00  0.00    -0.550 OA
ATOM      8  O   UNL     1       3.684 -32.179  -3.921  1.00  0.00    -0.550 OA
ENDBRANCH   5   6
ENDBRANCH   1   5
TORSDOF 3
ENDMDL
MODEL 5
REMARK VINA RESULT:    -4.022      1.466      1.881
REMARK INTER + INTRA:          -4.834
REMARK INTER:                  -4.645
REMARK INTRA:                  -0.189
REMARK UNBOUND:                -0.107
REMARK SMILES O=C([O-])CCC(=O)[O-]
REMARK SMILES IDX 4 1 2 2 1 3 3 4 5 5 6 6 7 7 8 8
REMARK H PARENT
REMARK Flexibility Score: inf
ROOT
ATOM      1  C   UNL     1       5.333 -34.080  -4.367  1.00  0.00     0.059 C 
ENDROOT
BRANCH   1   2
ATOM      2  C   UNL     1       4.344 -33.421  -3.456  1.00  0.00     0.042 C 
ATOM      3  O   UNL     1       4.130 -33.890  -2.307  1.00  0.00    -0.550 OA
ATOM      4  O   UNL     1       3.628 -32.314  -3.891  1.00  0.00    -0.550 OA
ENDBRANCH   1   2
BRANCH   1   5
ATOM      5  C   UNL     1       6.754 -34.017  -3.796  1.00  0.00     0.059 C 
BRANCH   5   6
ATOM      6  C   UNL     1       7.222 -32.603  -3.634  1.00  0.00     0.042 C 
ATOM      7  O   UNL     1       7.519 -32.159  -2.495  1.00  0.00    -0.550 OA
ATOM      8  O   UNL     1       7.289 -31.764  -4.739  1.00  0.00    -0.550 OA
ENDBRANCH   5   6
ENDBRANCH   1   5
TORSDOF 3
ENDMDL
MODEL 6
REMARK VINA RESULT:    -3.969      1.686      2.250
REMARK INTER + INTRA:          -4.772
REMARK INTER:                  -4.690
REMARK INTRA:                  -0.082
REMARK UNBOUND:                -0.107
REMARK SMILES O=C([O-])CCC(=O)[O-]
REMARK SMILES IDX 4 1 2 2 1 3 3 4 5 5 6 6 7 7 8 8
REMARK H PARENT
REMARK Flexibility Score: inf
ROOT
ATOM      1  C   UNL     1       4.179 -31.202  -4.177  1.00  0.00     0.059 C 
ENDROOT
BRANCH   1   2
ATOM      2  C   UNL     1       3.268 -32.268  -3.649  1.00  0.00     0.042 C 
ATOM      3  O   UNL     1       2.019 -32.127  -3.722  1.00  0.00    -0.550 OA
ATOM      4  O   UNL     1       3.799 -33.397  -3.040  1.00  0.00    -0.550 OA
ENDBRANCH   1   2
BRANCH   1   5
ATOM      5  C   UNL     1       5.392 -31.803  -4.896  1.00  0.00     0.059 C 
BRANCH   5   6
ATOM      6  C   UNL     1       6.647 -31.633  -4.097  1.00  0.00     0.042 C 
ATOM      7  O   UNL     1       7.476 -32.576  -4.010  1.00  0.00    -0.550 OA
ATOM      8  O   UNL     1       6.880 -30.446  -3.415  1.00  0.00    -0.550 OA
ENDBRANCH   5   6
ENDBRANCH   1   5
TORSDOF 3
ENDMDL
MODEL 7
REMARK VINA RESULT:    -3.947      1.478      2.136
REMARK INTER + INTRA:          -4.746
REMARK INTER:                  -4.567
REMARK INTRA:                  -0.179
REMARK UNBOUND:                -0.107
REMARK SMILES O=C([O-])CCC(=O)[O-]
REMARK SMILES IDX 4 1 2 2 1 3 3 4 5 5 6 6 7 7 8 8
REMARK H PARENT
REMARK Flexibility Score: inf
ROOT
ATOM      1  C   UNL     1       5.248 -34.125  -4.251  1.00  0.00     0.059 C 
ENDROOT
BRANCH   1   2
ATOM      2  C   UNL     1       4.368 -33.452  -3.243  1.00  0.00     0.042 C 
ATOM      3  O   UNL     1       3.528 -32.589  -3.610  1.00  0.00    -0.550 OA
ATOM      4  O   UNL     1       4.503 -33.749  -1.893  1.00  0.00    -0.550 OA
ENDBRANCH   1   2
BRANCH   1   5
ATOM      5  C   UNL     1       6.729 -34.001  -3.877  1.00  0.00     0.059 C 
BRANCH   5   6
ATOM      6  C   UNL     1       7.185 -32.575  -3.892  1.00  0.00     0.042 C 
ATOM      7  O   UNL     1       7.320 -31.963  -4.984  1.00  0.00    -0.550 OA
ATOM      8  O   UNL     1       7.500 -31.934  -2.701  1.00  0.00    -0.550 OA
ENDBRANCH   5   6
ENDBRANCH   1   5
TORSDOF 3
ENDMDL
MODEL 8
REMARK VINA RESULT:    -3.876      1.703      3.825
REMARK INTER + INTRA:          -4.662
REMARK INTER:                  -4.552
REMARK INTRA:                  -0.110
REMARK UNBOUND:                -0.107
REMARK SMILES O=C([O-])CCC(=O)[O-]
REMARK SMILES IDX 4 1 2 2 1 3 3 4 5 5 6 6 7 7 8 8
REMARK H PARENT
REMARK Flexibility Score: inf
ROOT
ATOM      1  C   UNL     1       4.200 -33.787  -2.328  1.00  0.00     0.059 C 
ENDROOT
BRANCH   1   2
ATOM      2  C   UNL     1       5.283 -33.220  -1.463  1.00  0.00     0.042 C 
ATOM      3  O   UNL     1       5.186 -33.274  -0.208  1.00  0.00    -0.550 OA
ATOM      4  O   UNL     1       6.380 -32.595  -2.041  1.00  0.00    -0.550 OA
ENDBRANCH   1   2
BRANCH   1   5
ATOM      5  C   UNL     1       4.261 -33.220  -3.751  1.00  0.00     0.059 C 
BRANCH   5   6
ATOM      6  C   UNL     1       3.374 -32.023  -3.906  1.00  0.00     0.042 C 
ATOM      7  O   UNL     1       2.133 -32.125  -3.723  1.00  0.00    -0.550 OA
ATOM      8  O   UNL     1       3.915 -30.804  -4.294  1.00  0.00    -0.550 OA
ENDBRANCH   5   6
ENDBRANCH   1   5
TORSDOF 3
ENDMDL
MODEL 9
REMARK VINA RESULT:    -3.851      1.715      3.967
REMARK INTER + INTRA:          -4.633
REMARK INTER:                  -4.564
REMARK INTRA:                  -0.070
REMARK UNBOUND:                -0.107
REMARK SMILES O=C([O-])CCC(=O)[O-]
REMARK SMILES IDX 4 1 2 2 1 3 3 4 5 5 6 6 7 7 8 8
REMARK H PARENT
REMARK Flexibility Score: inf
ROOT
ATOM      1  C   UNL     1       5.634 -31.519  -5.305  1.00  0.00     0.059 C 
ENDROOT
BRANCH   1   2
ATOM      2  C   UNL     1       6.949 -31.899  -4.697  1.00  0.00     0.042 C 
ATOM      3  O   UNL     1       7.513 -32.976  -5.027  1.00  0.00    -0.550 OA
ATOM      4  O   UNL     1       7.534 -31.084  -3.737  1.00  0.00    -0.550 OA
ENDBRANCH   1   2
BRANCH   1   5
ATOM      5  C   UNL     1       4.628 -31.075  -4.238  1.00  0.00     0.059 C 
BRANCH   5   6
ATOM      6  C   UNL     1       3.672 -32.175  -3.890  1.00  0.00     0.042 C 
ATOM      7  O   UNL     1       2.432 -31.962  -3.891  1.00  0.00    -0.550 OA
ATOM      8  O   UNL     1       4.156 -33.424  -3.524  1.00  0.00    -0.550 OA
ENDBRANCH   5   6
ENDBRANCH   1   5
TORSDOF 3
ENDMDL
