MODEL 1
REMARK VINA RESULT:    -4.127      0.000      0.000
REMARK INTER + INTRA:          -6.000
REMARK INTER:                  -5.333
REMARK INTRA:                  -0.667
REMARK UNBOUND:                -0.667
REMARK SMILES CCO[C@H]1O[C@@H](CO)[C@@H](O)[C@@H](O)[C@@H]1O
REMARK SMILES IDX 4 1 13 2 11 3 9 4 6 5 5 6 3 7 2 8 1 9 14 10 12 12 7 14 8 15
REMARK SMILES IDX 10 17
REMARK H PARENT 14 11 12 13 8 16 10 18
REMARK Flexibility Score: inf
ROOT
ATOM      1  C   UNL     1      38.439  -4.992  21.692  1.00  0.00     0.281 C 
ATOM      2  C   UNL     1      39.895  -4.942  22.181  1.00  0.00     0.202 C 
ATOM      3  C   UNL     1      40.009  -5.458  23.623  1.00  0.00     0.179 C 
ATOM      4  C   UNL     1      38.991  -4.740  24.525  1.00  0.00     0.177 C 
ATOM      5  C   UNL     1      37.572  -4.640  23.897  1.00  0.00     0.178 C 
ATOM      6  O   UNL     1      37.562  -4.249  22.528  1.00  0.00    -0.341 OA
ENDROOT
BRANCH   1   7
ATOM      7  O   UNL     1      38.011  -6.335  21.547  1.00  0.00    -0.350 OA
BRANCH   7   8
ATOM      8  C   UNL     1      38.371  -6.830  20.273  1.00  0.00     0.160 C 
ATOM      9  C   UNL     1      39.004  -8.204  20.430  1.00  0.00     0.035 C 
ENDBRANCH   7   8
ENDBRANCH   1   7
BRANCH   2  10
ATOM     10  O   UNL     1      40.357  -3.616  22.108  1.00  0.00    -0.385 OA
ATOM     11  H   UNL     1      39.852  -3.097  22.788  1.00  0.00     0.211 HD
ENDBRANCH   2  10
BRANCH   3  12
ATOM     12  O   UNL     1      39.823  -6.849  23.668  1.00  0.00    -0.387 OA
ATOM     13  H   UNL     1      38.852  -7.007  23.807  1.00  0.00     0.211 HD
ENDBRANCH   3  12
BRANCH   5  14
ATOM     14  C   UNL     1      36.605  -5.811  24.191  1.00  0.00     0.191 C 
BRANCH  14  15
ATOM     15  O   UNL     1      37.217  -7.058  24.026  1.00  0.00    -0.394 OA
ATOM     16  H   UNL     1      38.091  -6.882  23.590  1.00  0.00     0.210 HD
ENDBRANCH  14  15
ENDBRANCH   5  14
BRANCH   4  17
ATOM     17  O   UNL     1      38.926  -5.354  25.787  1.00  0.00    -0.387 OA
ATOM     18  H   UNL     1      38.170  -4.933  26.274  1.00  0.00     0.211 HD
ENDBRANCH   4  17
TORSDOF 7
ENDMDL
MODEL 2
REMARK VINA RESULT:    -4.089      1.670      4.402
REMARK INTER + INTRA:          -5.952
REMARK INTER:                  -5.513
REMARK INTRA:                  -0.439
REMARK UNBOUND:                -0.667
REMARK SMILES CCO[C@H]1O[C@@H](CO)[C@@H](O)[C@@H](O)[C@@H]1O
REMARK SMILES IDX 4 1 13 2 11 3 9 4 6 5 5 6 3 7 2 8 1 9 14 10 12 12 7 14 8 15
REMARK SMILES IDX 10 17
REMARK H PARENT 14 11 12 13 8 16 10 18
REMARK Flexibility Score: inf
ROOT
ATOM      1  C   UNL     1      37.123  -4.298  24.374  1.00  0.00     0.281 C 
ATOM      2  C   UNL     1      36.824  -5.743  24.805  1.00  0.00     0.202 C 
ATOM      3  C   UNL     1      37.859  -6.716  24.222  1.00  0.00     0.179 C 
ATOM      4  C   UNL     1      37.994  -6.500  22.705  1.00  0.00     0.177 C 
ATOM      5  C   UNL     1      38.093  -5.003  22.300  1.00  0.00     0.178 C 
ATOM      6  O   UNL     1      37.161  -4.153  22.962  1.00  0.00    -0.341 OA
ENDROOT
BRANCH   1   7
ATOM      7  O   UNL     1      38.318  -3.838  24.980  1.00  0.00    -0.350 OA
BRANCH   7   8
ATOM      8  C   UNL     1      38.024  -3.114  26.159  1.00  0.00     0.160 C 
ATOM      9  C   UNL     1      36.898  -2.133  25.877  1.00  0.00     0.035 C 
ENDBRANCH   7   8
ENDBRANCH   1   7
BRANCH   2  10
ATOM     10  O   UNL     1      35.535  -6.094  24.367  1.00  0.00    -0.385 OA
ATOM     11  H   UNL     1      35.503  -5.913  23.391  1.00  0.00     0.211 HD
ENDBRANCH   2  10
BRANCH   3  12
ATOM     12  O   UNL     1      39.101  -6.562  24.860  1.00  0.00    -0.387 OA
ATOM     13  H   UNL     1      38.950  -5.979  25.650  1.00  0.00     0.211 HD
ENDBRANCH   3  12
BRANCH   5  14
ATOM     14  C   UNL     1      39.516  -4.398  22.243  1.00  0.00     0.191 C 
BRANCH  14  15
ATOM     15  O   UNL     1      40.200  -4.764  21.079  1.00  0.00    -0.394 OA
ATOM     16  H   UNL     1      40.691  -5.598  21.298  1.00  0.00     0.210 HD
ENDBRANCH  14  15
ENDBRANCH   5  14
BRANCH   4  17
ATOM     17  O   UNL     1      39.089  -7.219  22.196  1.00  0.00    -0.387 OA
ATOM     18  H   UNL     1      38.721  -8.021  21.741  1.00  0.00     0.211 HD
ENDBRANCH   4  17
TORSDOF 7
ENDMDL
MODEL 3
REMARK VINA RESULT:    -4.088      1.958      3.301
REMARK INTER + INTRA:          -5.950
REMARK INTER:                  -5.500
REMARK INTRA:                  -0.450
REMARK UNBOUND:                -0.667
REMARK SMILES CCO[C@H]1O[C@@H](CO)[C@@H](O)[C@@H](O)[C@@H]1O
REMARK SMILES IDX 4 1 13 2 11 3 9 4 6 5 5 6 3 7 2 8 1 9 14 10 12 12 7 14 8 15
REMARK SMILES IDX 10 17
REMARK H PARENT 14 11 12 13 8 16 10 18
REMARK Flexibility Score: inf
ROOT
ATOM      1  C   UNL     1      39.314  -4.584  24.112  1.00  0.00     0.281 C 
ATOM      2  C   UNL     1      39.280  -6.100  24.362  1.00  0.00     0.202 C 
ATOM      3  C   UNL     1      37.879  -6.670  24.096  1.00  0.00     0.179 C 
ATOM      4  C   UNL     1      36.821  -5.856  24.860  1.00  0.00     0.177 C 
ATOM      5  C   UNL     1      37.017  -4.319  24.738  1.00  0.00     0.178 C 
ATOM      6  O   UNL     1      38.363  -3.884  24.902  1.00  0.00    -0.341 OA
ENDROOT
BRANCH   1   7
ATOM      7  O   UNL     1      39.153  -4.306  22.732  1.00  0.00    -0.350 OA
BRANCH   7   8
ATOM      8  C   UNL     1      40.406  -4.327  22.077  1.00  0.00     0.160 C 
ATOM      9  C   UNL     1      41.359  -3.378  22.787  1.00  0.00     0.035 C 
ENDBRANCH   7   8
ENDBRANCH   1   7
BRANCH   2  10
ATOM     10  O   UNL     1      39.655  -6.352  25.694  1.00  0.00    -0.385 OA
ATOM     11  H   UNL     1      39.315  -5.593  26.237  1.00  0.00     0.211 HD
ENDBRANCH   2  10
BRANCH   3  12
ATOM     12  O   UNL     1      37.602  -6.681  22.719  1.00  0.00    -0.387 OA
ATOM     13  H   UNL     1      36.782  -7.228  22.592  1.00  0.00     0.211 HD
ENDBRANCH   3  12
BRANCH   5  14
ATOM     14  C   UNL     1      36.306  -3.626  23.552  1.00  0.00     0.191 C 
BRANCH  14  15
ATOM     15  O   UNL     1      34.945  -3.417  23.799  1.00  0.00    -0.394 OA
ATOM     16  H   UNL     1      34.542  -4.317  23.906  1.00  0.00     0.210 HD
ENDBRANCH  14  15
ENDBRANCH   5  14
BRANCH   4  17
ATOM     17  O   UNL     1      35.526  -6.219  24.453  1.00  0.00    -0.387 OA
ATOM     18  H   UNL     1      35.481  -7.210  24.485  1.00  0.00     0.211 HD
ENDBRANCH   4  17
TORSDOF 7
ENDMDL
MODEL 4
REMARK VINA RESULT:    -4.071      1.731      3.339
REMARK INTER + INTRA:          -5.927
REMARK INTER:                  -5.274
REMARK INTRA:                  -0.653
REMARK UNBOUND:                -0.667
REMARK SMILES CCO[C@H]1O[C@@H](CO)[C@@H](O)[C@@H](O)[C@@H]1O
REMARK SMILES IDX 4 1 13 2 11 3 9 4 6 5 5 6 3 7 2 8 1 9 14 10 12 12 7 14 8 15
REMARK SMILES IDX 10 17
REMARK H PARENT 14 11 12 13 8 16 10 18
REMARK Flexibility Score: inf
ROOT
ATOM      1  C   UNL     1      37.662  -4.140  23.206  1.00  0.00     0.281 C 
ATOM      2  C   UNL     1      37.977  -5.263  22.205  1.00  0.00     0.202 C 
ATOM      3  C   UNL     1      38.374  -6.555  22.935  1.00  0.00     0.179 C 
ATOM      4  C   UNL     1      39.481  -6.264  23.963  1.00  0.00     0.177 C 
ATOM      5  C   UNL     1      39.210  -4.997  24.821  1.00  0.00     0.178 C 
ATOM      6  O   UNL     1      38.751  -3.872  24.078  1.00  0.00    -0.341 OA
ENDROOT
BRANCH   1   7
ATOM      7  O   UNL     1      36.476  -4.435  23.925  1.00  0.00    -0.350 OA
BRANCH   7   8
ATOM      8  C   UNL     1      35.474  -3.484  23.631  1.00  0.00     0.160 C 
ATOM      9  C   UNL     1      35.683  -2.251  24.498  1.00  0.00     0.035 C 
ENDBRANCH   7   8
ENDBRANCH   1   7
BRANCH   2  10
ATOM     10  O   UNL     1      39.024  -4.846  21.364  1.00  0.00    -0.385 OA
ATOM     11  H   UNL     1      39.285  -5.632  20.817  1.00  0.00     0.211 HD
ENDBRANCH   2  10
BRANCH   3  12
ATOM     12  O   UNL     1      37.257  -7.138  23.556  1.00  0.00    -0.387 OA
ATOM     13  H   UNL     1      37.542  -8.030  23.887  1.00  0.00     0.211 HD
ENDBRANCH   3  12
BRANCH   5  14
ATOM     14  C   UNL     1      38.418  -5.210  26.133  1.00  0.00     0.191 C 
BRANCH  14  15
ATOM     15  O   UNL     1      37.479  -6.241  26.023  1.00  0.00    -0.394 OA
ATOM     16  H   UNL     1      36.971  -6.244  26.874  1.00  0.00     0.210 HD
ENDBRANCH  14  15
ENDBRANCH   5  14
BRANCH   4  17
ATOM     17  O   UNL     1      39.696  -7.379  24.790  1.00  0.00    -0.387 OA
ATOM     18  H   UNL     1      39.549  -8.186  24.231  1.00  0.00     0.211 HD
ENDBRANCH   4  17
TORSDOF 7
ENDMDL
MODEL 5
REMARK VINA RESULT:    -4.039      1.498      3.809
REMARK INTER + INTRA:          -5.887
REMARK INTER:                  -5.210
REMARK INTRA:                  -0.677
REMARK UNBOUND:                -0.667
REMARK SMILES CCO[C@H]1O[C@@H](CO)[C@@H](O)[C@@H](O)[C@@H]1O
REMARK SMILES IDX 4 1 13 2 11 3 9 4 6 5 5 6 3 7 2 8 1 9 14 10 12 12 7 14 8 15
REMARK SMILES IDX 10 17
REMARK H PARENT 14 11 12 13 8 16 10 18
REMARK Flexibility Score: inf
ROOT
ATOM      1  C   UNL     1      39.173  -6.473  23.616  1.00  0.00     0.281 C 
ATOM      2  C   UNL     1      39.489  -4.974  23.494  1.00  0.00     0.202 C 
ATOM      3  C   UNL     1      39.581  -4.549  22.021  1.00  0.00     0.179 C 
ATOM      4  C   UNL     1      40.537  -5.483  21.259  1.00  0.00     0.177 C 
ATOM      5  C   UNL     1      40.307  -6.989  21.570  1.00  0.00     0.178 C 
ATOM      6  O   UNL     1      40.133  -7.283  22.952  1.00  0.00    -0.341 OA
ENDROOT
BRANCH   1   7
ATOM      7  O   UNL     1      37.858  -6.741  23.161  1.00  0.00    -0.350 OA
BRANCH   7   8
ATOM      8  C   UNL     1      36.908  -6.252  24.086  1.00  0.00     0.160 C 
ATOM      9  C   UNL     1      36.927  -7.124  25.332  1.00  0.00     0.035 C 
ENDBRANCH   7   8
ENDBRANCH   1   7
BRANCH   2  10
ATOM     10  O   UNL     1      40.705  -4.708  24.148  1.00  0.00    -0.385 OA
ATOM     11  H   UNL     1      40.477  -4.329  25.037  1.00  0.00     0.211 HD
ENDBRANCH   2  10
BRANCH   3  12
ATOM     12  O   UNL     1      38.309  -4.543  21.425  1.00  0.00    -0.387 OA
ATOM     13  H   UNL     1      37.960  -3.616  21.498  1.00  0.00     0.211 HD
ENDBRANCH   3  12
BRANCH   5  14
ATOM     14  C   UNL     1      39.291  -7.731  20.669  1.00  0.00     0.191 C 
BRANCH  14  15
ATOM     15  O   UNL     1      38.233  -6.907  20.274  1.00  0.00    -0.394 OA
ATOM     16  H   UNL     1      38.634  -6.181  19.731  1.00  0.00     0.210 HD
ENDBRANCH  14  15
ENDBRANCH   5  14
BRANCH   4  17
ATOM     17  O   UNL     1      40.459  -5.252  19.875  1.00  0.00    -0.387 OA
ATOM     18  H   UNL     1      41.317  -5.561  19.483  1.00  0.00     0.211 HD
ENDBRANCH   4  17
TORSDOF 7
ENDMDL
MODEL 6
REMARK VINA RESULT:    -3.969      1.593      3.978
REMARK INTER + INTRA:          -5.796
REMARK INTER:                  -5.143
REMARK INTRA:                  -0.653
REMARK UNBOUND:                -0.667
REMARK SMILES CCO[C@H]1O[C@@H](CO)[C@@H](O)[C@@H](O)[C@@H]1O
REMARK SMILES IDX 4 1 13 2 11 3 9 4 6 5 5 6 3 7 2 8 1 9 14 10 12 12 7 14 8 15
REMARK SMILES IDX 10 17
REMARK H PARENT 14 11 12 13 8 16 10 18
REMARK Flexibility Score: inf
ROOT
ATOM      1  C   UNL     1      36.900  -5.337  24.163  1.00  0.00     0.281 C 
ATOM      2  C   UNL     1      37.859  -5.277  25.363  1.00  0.00     0.202 C 
ATOM      3  C   UNL     1      39.318  -5.161  24.896  1.00  0.00     0.179 C 
ATOM      4  C   UNL     1      39.632  -6.254  23.861  1.00  0.00     0.177 C 
ATOM      5  C   UNL     1      38.530  -6.412  22.776  1.00  0.00     0.178 C 
ATOM      6  O   UNL     1      37.200  -6.413  23.285  1.00  0.00    -0.341 OA
ENDROOT
BRANCH   1   7
ATOM      7  O   UNL     1      36.881  -4.094  23.482  1.00  0.00    -0.350 OA
BRANCH   7   8
ATOM      8  C   UNL     1      35.615  -3.481  23.614  1.00  0.00     0.160 C 
ATOM      9  C   UNL     1      35.746  -2.242  24.486  1.00  0.00     0.035 C 
ENDBRANCH   7   8
ENDBRANCH   1   7
BRANCH   2  10
ATOM     10  O   UNL     1      37.695  -6.439  26.138  1.00  0.00    -0.385 OA
ATOM     11  H   UNL     1      38.392  -7.082  25.845  1.00  0.00     0.211 HD
ENDBRANCH   2  10
BRANCH   3  12
ATOM     12  O   UNL     1      39.569  -3.884  24.366  1.00  0.00    -0.387 OA
ATOM     13  H   UNL     1      38.692  -3.506  24.094  1.00  0.00     0.211 HD
ENDBRANCH   3  12
BRANCH   5  14
ATOM     14  C   UNL     1      38.684  -5.541  21.507  1.00  0.00     0.191 C 
BRANCH  14  15
ATOM     15  O   UNL     1      39.354  -4.341  21.766  1.00  0.00    -0.394 OA
ATOM     16  H   UNL     1      39.264  -3.791  20.946  1.00  0.00     0.210 HD
ENDBRANCH  14  15
ENDBRANCH   5  14
BRANCH   4  17
ATOM     17  O   UNL     1      40.881  -6.025  23.261  1.00  0.00    -0.387 OA
ATOM     18  H   UNL     1      41.406  -5.464  23.891  1.00  0.00     0.211 HD
ENDBRANCH   4  17
TORSDOF 7
ENDMDL
MODEL 7
REMARK VINA RESULT:    -3.796      1.261      3.207
REMARK INTER + INTRA:          -5.573
REMARK INTER:                  -4.865
REMARK INTRA:                  -0.708
REMARK UNBOUND:                -0.667
REMARK SMILES CCO[C@H]1O[C@@H](CO)[C@@H](O)[C@@H](O)[C@@H]1O
REMARK SMILES IDX 4 1 13 2 11 3 9 4 6 5 5 6 3 7 2 8 1 9 14 10 12 12 7 14 8 15
REMARK SMILES IDX 10 17
REMARK H PARENT 14 11 12 13 8 16 10 18
REMARK Flexibility Score: inf
ROOT
ATOM      1  C   UNL     1      37.659  -6.769  23.341  1.00  0.00     0.281 C 
ATOM      2  C   UNL     1      36.527  -6.029  24.071  1.00  0.00     0.202 C 
ATOM      3  C   UNL     1      36.978  -4.628  24.509  1.00  0.00     0.179 C 
ATOM      4  C   UNL     1      38.306  -4.715  25.280  1.00  0.00     0.177 C 
ATOM      5  C   UNL     1      39.355  -5.639  24.600  1.00  0.00     0.178 C 
ATOM      6  O   UNL     1      38.832  -6.879  24.135  1.00  0.00    -0.341 OA
ENDROOT
BRANCH   1   7
ATOM      7  O   UNL     1      37.928  -6.154  22.092  1.00  0.00    -0.350 OA
BRANCH   7   8
ATOM      8  C   UNL     1      38.345  -7.121  21.149  1.00  0.00     0.160 C 
ATOM      9  C   UNL     1      39.214  -6.450  20.096  1.00  0.00     0.035 C 
ENDBRANCH   7   8
ENDBRANCH   1   7
BRANCH   2  10
ATOM     10  O   UNL     1      36.138  -6.781  25.193  1.00  0.00    -0.385 OA
ATOM     11  H   UNL     1      35.891  -7.685  24.864  1.00  0.00     0.211 HD
ENDBRANCH   2  10
BRANCH   3  12
ATOM     12  O   UNL     1      37.100  -3.776  23.399  1.00  0.00    -0.387 OA
ATOM     13  H   UNL     1      36.403  -3.075  23.493  1.00  0.00     0.211 HD
ENDBRANCH   3  12
BRANCH   5  14
ATOM     14  C   UNL     1      40.302  -4.968  23.576  1.00  0.00     0.191 C 
BRANCH  14  15
ATOM     15  O   UNL     1      39.644  -4.016  22.791  1.00  0.00    -0.394 OA
ATOM     16  H   UNL     1      38.888  -3.681  23.338  1.00  0.00     0.210 HD
ENDBRANCH  14  15
ENDBRANCH   5  14
BRANCH   4  17
ATOM     17  O   UNL     1      38.844  -3.434  25.490  1.00  0.00    -0.387 OA
ATOM     18  H   UNL     1      39.828  -3.515  25.388  1.00  0.00     0.211 HD
ENDBRANCH   4  17
TORSDOF 7
ENDMDL
MODEL 8
REMARK VINA RESULT:    -3.700      1.616      3.543
REMARK INTER + INTRA:          -5.449
REMARK INTER:                  -4.775
REMARK INTRA:                  -0.674
REMARK UNBOUND:                -0.667
REMARK SMILES CCO[C@H]1O[C@@H](CO)[C@@H](O)[C@@H](O)[C@@H]1O
REMARK SMILES IDX 4 1 13 2 11 3 9 4 6 5 5 6 3 7 2 8 1 9 14 10 12 12 7 14 8 15
REMARK SMILES IDX 10 17
REMARK H PARENT 14 11 12 13 8 16 10 18
REMARK Flexibility Score: inf
ROOT
ATOM      1  C   UNL     1      38.404  -5.403  22.273  1.00  0.00     0.281 C 
ATOM      2  C   UNL     1      38.824  -6.148  20.996  1.00  0.00     0.202 C 
ATOM      3  C   UNL     1      40.345  -6.358  20.957  1.00  0.00     0.179 C 
ATOM      4  C   UNL     1      41.071  -5.024  21.206  1.00  0.00     0.177 C 
ATOM      5  C   UNL     1      40.478  -4.210  22.390  1.00  0.00     0.178 C 
ATOM      6  O   UNL     1      39.055  -4.147  22.405  1.00  0.00    -0.341 OA
ENDROOT
BRANCH   1   7
ATOM      7  O   UNL     1      38.606  -6.221  23.413  1.00  0.00    -0.350 OA
BRANCH   7   8
ATOM      8  C   UNL     1      37.390  -6.824  23.807  1.00  0.00     0.160 C 
ATOM      9  C   UNL     1      36.436  -5.750  24.305  1.00  0.00     0.035 C 
ENDBRANCH   7   8
ENDBRANCH   1   7
BRANCH   2  10
ATOM     10  O   UNL     1      38.413  -5.403  19.876  1.00  0.00    -0.385 OA
ATOM     11  H   UNL     1      37.794  -5.981  19.357  1.00  0.00     0.211 HD
ENDBRANCH   2  10
BRANCH   3  12
ATOM     12  O   UNL     1      40.737  -7.323  21.898  1.00  0.00    -0.387 OA
ATOM     13  H   UNL     1      41.652  -7.079  22.200  1.00  0.00     0.211 HD
ENDBRANCH   3  12
BRANCH   5  14
ATOM     14  C   UNL     1      41.078  -4.491  23.788  1.00  0.00     0.191 C 
BRANCH  14  15
ATOM     15  O   UNL     1      41.502  -5.817  23.926  1.00  0.00    -0.394 OA
ATOM     16  H   UNL     1      42.457  -5.832  23.660  1.00  0.00     0.210 HD
ENDBRANCH  14  15
ENDBRANCH   5  14
BRANCH   4  17
ATOM     17  O   UNL     1      42.446  -5.236  21.397  1.00  0.00    -0.387 OA
ATOM     18  H   UNL     1      42.871  -4.340  21.451  1.00  0.00     0.211 HD
ENDBRANCH   4  17
TORSDOF 7
ENDMDL
