MODEL 1
REMARK VINA RESULT:    -2.463      0.000      0.000
REMARK INTER + INTRA:          -5.308
REMARK INTER:                  -4.190
REMARK INTRA:                  -1.117
REMARK UNBOUND:                -1.117
REMARK SMILES CCCCCCCCCCCCCC(=O)[O-]
REMARK SMILES IDX 8 1 9 2 10 3 11 4 12 5 13 6 14 7 15 8 16 9 7 10 6 11 5 12
REMARK SMILES IDX 4 13 3 14 2 15 1 16
REMARK H PARENT
REMARK Flexibility Score: inf
ROOT
ATOM      1  C   UNL     1       3.985 -34.472  20.979  1.00  0.00     0.000 C 
ENDROOT
BRANCH   1   2
ATOM      2  C   UNL     1       5.128 -34.441  19.944  1.00  0.00     0.000 C 
BRANCH   2   3
ATOM      3  C   UNL     1       5.743 -35.813  19.613  1.00  0.00     0.000 C 
BRANCH   3   4
ATOM      4  C   UNL     1       4.686 -36.926  19.500  1.00  0.00     0.000 C 
BRANCH   4   5
ATOM      5  C   UNL     1       5.220 -38.293  19.953  1.00  0.00     0.006 C 
BRANCH   5   6
ATOM      6  C   UNL     1       5.084 -38.506  21.466  1.00  0.00     0.053 C 
BRANCH   6   7
ATOM      7  C   UNL     1       5.376 -39.930  21.822  1.00  0.00     0.041 C 
ATOM      8  O   UNL     1       4.984 -40.401  22.922  1.00  0.00    -0.550 OA
ATOM      9  O   UNL     1       6.125 -40.722  20.962  1.00  0.00    -0.550 OA
ENDBRANCH   6   7
ENDBRANCH   5   6
ENDBRANCH   4   5
ENDBRANCH   3   4
ENDBRANCH   2   3
ENDBRANCH   1   2
BRANCH   1  10
ATOM     10  C   UNL     1       4.268 -33.713  22.288  1.00  0.00     0.000 C 
BRANCH  10  11
ATOM     11  C   UNL     1       5.767 -33.582  22.591  1.00  0.00    -0.000 C 
BRANCH  11  12
ATOM     12  C   UNL     1       6.104 -34.192  23.960  1.00  0.00    -0.000 C 
BRANCH  12  13
ATOM     13  C   UNL     1       5.809 -35.700  24.030  1.00  0.00    -0.000 C 
BRANCH  13  14
ATOM     14  C   UNL     1       5.793 -36.232  25.472  1.00  0.00    -0.000 C 
BRANCH  14  15
ATOM     15  C   UNL     1       5.146 -37.621  25.580  1.00  0.00    -0.003 C 
ATOM     16  C   UNL     1       3.795 -37.592  26.296  1.00  0.00     0.004 C 
ENDBRANCH  14  15
ENDBRANCH  13  14
ENDBRANCH  12  13
ENDBRANCH  11  12
ENDBRANCH  10  11
ENDBRANCH   1  10
TORSDOF 12
ENDMDL
MODEL 2
REMARK VINA RESULT:    -2.321      1.545      4.393
REMARK INTER + INTRA:          -5.067
REMARK INTER:                  -4.081
REMARK INTRA:                  -0.985
REMARK UNBOUND:                -1.117
REMARK SMILES CCCCCCCCCCCCCC(=O)[O-]
REMARK SMILES IDX 8 1 9 2 10 3 11 4 12 5 13 6 14 7 15 8 16 9 7 10 6 11 5 12
REMARK SMILES IDX 4 13 3 14 2 15 1 16
REMARK H PARENT
REMARK Flexibility Score: inf
ROOT
ATOM      1  C   UNL     1       3.782 -33.605  21.002  1.00  0.00     0.000 C 
ENDROOT
BRANCH   1   2
ATOM      2  C   UNL     1       4.243 -34.206  22.345  1.00  0.00     0.000 C 
BRANCH   2   3
ATOM      3  C   UNL     1       5.542 -33.607  22.914  1.00  0.00     0.000 C 
BRANCH   3   4
ATOM      4  C   UNL     1       6.111 -34.425  24.086  1.00  0.00     0.000 C 
BRANCH   4   5
ATOM      5  C   UNL     1       5.500 -35.831  24.175  1.00  0.00     0.006 C 
BRANCH   5   6
ATOM      6  C   UNL     1       5.756 -36.499  25.532  1.00  0.00     0.053 C 
BRANCH   6   7
ATOM      7  C   UNL     1       4.797 -37.627  25.748  1.00  0.00     0.041 C 
ATOM      8  O   UNL     1       3.771 -37.459  26.459  1.00  0.00    -0.550 OA
ATOM      9  O   UNL     1       5.061 -38.879  25.208  1.00  0.00    -0.550 OA
ENDBRANCH   6   7
ENDBRANCH   5   6
ENDBRANCH   4   5
ENDBRANCH   3   4
ENDBRANCH   2   3
ENDBRANCH   1   2
BRANCH   1  10
ATOM     10  C   UNL     1       4.431 -34.225  19.751  1.00  0.00     0.000 C 
BRANCH  10  11
ATOM     11  C   UNL     1       5.547 -35.223  20.090  1.00  0.00    -0.000 C 
BRANCH  11  12
ATOM     12  C   UNL     1       5.265 -36.596  19.461  1.00  0.00    -0.000 C 
BRANCH  12  13
ATOM     13  C   UNL     1       4.505 -37.540  20.407  1.00  0.00    -0.000 C 
BRANCH  13  14
ATOM     14  C   UNL     1       5.353 -37.972  21.616  1.00  0.00    -0.000 C 
BRANCH  14  15
ATOM     15  C   UNL     1       5.604 -39.488  21.647  1.00  0.00    -0.003 C 
ATOM     16  C   UNL     1       6.123 -40.030  20.315  1.00  0.00     0.004 C 
ENDBRANCH  14  15
ENDBRANCH  13  14
ENDBRANCH  12  13
ENDBRANCH  11  12
ENDBRANCH  10  11
ENDBRANCH   1  10
TORSDOF 12
ENDMDL
MODEL 3
REMARK VINA RESULT:    -1.371      0.856      1.500
REMARK INTER + INTRA:          -3.449
REMARK INTER:                  -2.451
REMARK INTRA:                  -0.998
REMARK UNBOUND:                -1.117
REMARK SMILES CCCCCCCCCCCCCC(=O)[O-]
REMARK SMILES IDX 8 1 9 2 10 3 11 4 12 5 13 6 14 7 15 8 16 9 7 10 6 11 5 12
REMARK SMILES IDX 4 13 3 14 2 15 1 16
REMARK H PARENT
REMARK Flexibility Score: inf
ROOT
ATOM      1  C   UNL     1       4.732 -33.536  22.393  1.00  0.00     0.000 C 
ENDROOT
BRANCH   1   2
ATOM      2  C   UNL     1       4.197 -34.198  21.106  1.00  0.00     0.000 C 
BRANCH   2   3
ATOM      3  C   UNL     1       5.254 -34.945  20.272  1.00  0.00     0.000 C 
BRANCH   3   4
ATOM      4  C   UNL     1       4.630 -35.905  19.245  1.00  0.00     0.000 C 
BRANCH   4   5
ATOM      5  C   UNL     1       5.015 -37.370  19.498  1.00  0.00     0.006 C 
BRANCH   5   6
ATOM      6  C   UNL     1       4.645 -37.840  20.911  1.00  0.00     0.053 C 
BRANCH   6   7
ATOM      7  C   UNL     1       5.377 -39.100  21.251  1.00  0.00     0.041 C 
ATOM      8  O   UNL     1       5.489 -39.463  22.452  1.00  0.00    -0.550 OA
ATOM      9  O   UNL     1       5.978 -39.848  20.248  1.00  0.00    -0.550 OA
ENDBRANCH   6   7
ENDBRANCH   5   6
ENDBRANCH   4   5
ENDBRANCH   3   4
ENDBRANCH   2   3
ENDBRANCH   1   2
BRANCH   1  10
ATOM     10  C   UNL     1       6.120 -34.023  22.849  1.00  0.00     0.000 C 
BRANCH  10  11
ATOM     11  C   UNL     1       6.125 -34.547  24.292  1.00  0.00    -0.000 C 
BRANCH  11  12
ATOM     12  C   UNL     1       6.103 -36.082  24.318  1.00  0.00    -0.000 C 
BRANCH  12  13
ATOM     13  C   UNL     1       4.784 -36.650  24.865  1.00  0.00    -0.000 C 
BRANCH  13  14
ATOM     14  C   UNL     1       4.978 -37.445  26.168  1.00  0.00    -0.000 C 
BRANCH  14  15
ATOM     15  C   UNL     1       3.750 -38.295  26.528  1.00  0.00    -0.003 C 
ATOM     16  C   UNL     1       2.546 -37.450  26.946  1.00  0.00     0.004 C 
ENDBRANCH  14  15
ENDBRANCH  13  14
ENDBRANCH  12  13
ENDBRANCH  11  12
ENDBRANCH  10  11
ENDBRANCH   1  10
TORSDOF 12
ENDMDL
MODEL 4
REMARK VINA RESULT:    -1.051      3.553      4.777
REMARK INTER + INTRA:          -2.906
REMARK INTER:                  -1.740
REMARK INTRA:                  -1.166
REMARK UNBOUND:                -1.117
REMARK SMILES CCCCCCCCCCCCCC(=O)[O-]
REMARK SMILES IDX 8 1 9 2 10 3 11 4 12 5 13 6 14 7 15 8 16 9 7 10 6 11 5 12
REMARK SMILES IDX 4 13 3 14 2 15 1 16
REMARK H PARENT
REMARK Flexibility Score: inf
ROOT
ATOM      1  C   UNL     1       4.151 -34.067  20.696  1.00  0.00     0.000 C 
ENDROOT
BRANCH   1   2
ATOM      2  C   UNL     1       5.503 -34.402  20.034  1.00  0.00     0.000 C 
BRANCH   2   3
ATOM      3  C   UNL     1       5.434 -34.682  18.521  1.00  0.00     0.000 C 
BRANCH   3   4
ATOM      4  C   UNL     1       4.044 -35.162  18.068  1.00  0.00     0.000 C 
BRANCH   4   5
ATOM      5  C   UNL     1       4.103 -36.023  16.798  1.00  0.00     0.006 C 
BRANCH   5   6
ATOM      6  C   UNL     1       2.955 -35.719  15.827  1.00  0.00     0.053 C 
BRANCH   6   7
ATOM      7  C   UNL     1       2.890 -36.759  14.752  1.00  0.00     0.041 C 
ATOM      8  O   UNL     1       1.912 -36.790  13.959  1.00  0.00    -0.550 OA
ATOM      9  O   UNL     1       3.883 -37.724  14.658  1.00  0.00    -0.550 OA
ENDBRANCH   6   7
ENDBRANCH   5   6
ENDBRANCH   4   5
ENDBRANCH   3   4
ENDBRANCH   2   3
ENDBRANCH   1   2
BRANCH   1  10
ATOM     10  C   UNL     1       4.198 -33.894  22.225  1.00  0.00     0.000 C 
BRANCH  10  11
ATOM     11  C   UNL     1       5.629 -33.791  22.771  1.00  0.00    -0.000 C 
BRANCH  11  12
ATOM     12  C   UNL     1       5.950 -34.976  23.695  1.00  0.00    -0.000 C 
BRANCH  12  13
ATOM     13  C   UNL     1       5.114 -36.226  23.374  1.00  0.00    -0.000 C 
BRANCH  13  14
ATOM     14  C   UNL     1       5.668 -37.015  22.176  1.00  0.00    -0.000 C 
BRANCH  14  15
ATOM     15  C   UNL     1       4.562 -37.709  21.365  1.00  0.00    -0.003 C 
ATOM     16  C   UNL     1       5.036 -38.165  19.985  1.00  0.00     0.004 C 
ENDBRANCH  14  15
ENDBRANCH  13  14
ENDBRANCH  12  13
ENDBRANCH  11  12
ENDBRANCH  10  11
ENDBRANCH   1  10
TORSDOF 12
ENDMDL
MODEL 5
REMARK VINA RESULT:    -0.960      2.656      6.009
REMARK INTER + INTRA:          -2.750
REMARK INTER:                  -2.285
REMARK INTRA:                  -0.466
REMARK UNBOUND:                -1.117
REMARK SMILES CCCCCCCCCCCCCC(=O)[O-]
REMARK SMILES IDX 8 1 9 2 10 3 11 4 12 5 13 6 14 7 15 8 16 9 7 10 6 11 5 12
REMARK SMILES IDX 4 13 3 14 2 15 1 16
REMARK H PARENT
REMARK Flexibility Score: inf
ROOT
ATOM      1  C   UNL     1       4.088 -33.691  20.511  1.00  0.00     0.000 C 
ENDROOT
BRANCH   1   2
ATOM      2  C   UNL     1       4.014 -33.812  22.046  1.00  0.00     0.000 C 
BRANCH   2   3
ATOM      3  C   UNL     1       5.353 -34.124  22.739  1.00  0.00     0.000 C 
BRANCH   3   4
ATOM      4  C   UNL     1       5.312 -35.429  23.553  1.00  0.00     0.000 C 
BRANCH   4   5
ATOM      5  C   UNL     1       5.716 -36.655  22.721  1.00  0.00     0.006 C 
BRANCH   5   6
ATOM      6  C   UNL     1       4.566 -37.179  21.850  1.00  0.00     0.053 C 
BRANCH   6   7
ATOM      7  C   UNL     1       5.049 -38.277  20.954  1.00  0.00     0.041 C 
ATOM      8  O   UNL     1       4.981 -38.148  19.702  1.00  0.00    -0.550 OA
ATOM      9  O   UNL     1       5.525 -39.461  21.499  1.00  0.00    -0.550 OA
ENDBRANCH   6   7
ENDBRANCH   5   6
ENDBRANCH   4   5
ENDBRANCH   3   4
ENDBRANCH   2   3
ENDBRANCH   1   2
BRANCH   1  10
ATOM     10  C   UNL     1       5.017 -34.707  19.820  1.00  0.00     0.000 C 
BRANCH  10  11
ATOM     11  C   UNL     1       5.101 -34.503  18.301  1.00  0.00    -0.000 C 
BRANCH  11  12
ATOM     12  C   UNL     1       3.782 -34.899  17.620  1.00  0.00    -0.000 C 
BRANCH  12  13
ATOM     13  C   UNL     1       3.929 -36.126  16.706  1.00  0.00    -0.000 C 
BRANCH  13  14
ATOM     14  C   UNL     1       2.999 -36.065  15.482  1.00  0.00    -0.000 C 
BRANCH  14  15
ATOM     15  C   UNL     1       3.521 -36.901  14.303  1.00  0.00    -0.003 C 
ATOM     16  C   UNL     1       3.688 -38.380  14.654  1.00  0.00     0.004 C 
ENDBRANCH  14  15
ENDBRANCH  13  14
ENDBRANCH  12  13
ENDBRANCH  11  12
ENDBRANCH  10  11
ENDBRANCH   1  10
TORSDOF 12
ENDMDL
MODEL 6
REMARK VINA RESULT:    -0.754      2.482      4.747
REMARK INTER + INTRA:          -2.400
REMARK INTER:                  -2.018
REMARK INTRA:                  -0.382
REMARK UNBOUND:                -1.117
REMARK SMILES CCCCCCCCCCCCCC(=O)[O-]
REMARK SMILES IDX 8 1 9 2 10 3 11 4 12 5 13 6 14 7 15 8 16 9 7 10 6 11 5 12
REMARK SMILES IDX 4 13 3 14 2 15 1 16
REMARK H PARENT
REMARK Flexibility Score: inf
ROOT
ATOM      1  C   UNL     1       6.088 -34.777  24.519  1.00  0.00     0.000 C 
ENDROOT
BRANCH   1   2
ATOM      2  C   UNL     1       6.017 -34.066  23.153  1.00  0.00     0.000 C 
BRANCH   2   3
ATOM      3  C   UNL     1       4.593 -33.764  22.650  1.00  0.00     0.000 C 
BRANCH   3   4
ATOM      4  C   UNL     1       4.494 -33.754  21.115  1.00  0.00     0.000 C 
BRANCH   4   5
ATOM      5  C   UNL     1       5.553 -34.646  20.450  1.00  0.00     0.006 C 
BRANCH   5   6
ATOM      6  C   UNL     1       5.640 -34.425  18.934  1.00  0.00     0.053 C 
BRANCH   6   7
ATOM      7  C   UNL     1       4.612 -35.251  18.227  1.00  0.00     0.041 C 
ATOM      8  O   UNL     1       4.497 -36.478  18.488  1.00  0.00    -0.550 OA
ATOM      9  O   UNL     1       3.817 -34.680  17.242  1.00  0.00    -0.550 OA
ENDBRANCH   6   7
ENDBRANCH   5   6
ENDBRANCH   4   5
ENDBRANCH   3   4
ENDBRANCH   2   3
ENDBRANCH   1   2
BRANCH   1  10
ATOM     10  C   UNL     1       6.000 -36.313  24.462  1.00  0.00     0.000 C 
BRANCH  10  11
ATOM     11  C   UNL     1       5.025 -36.817  23.388  1.00  0.00    -0.000 C 
BRANCH  11  12
ATOM     12  C   UNL     1       5.785 -37.367  22.173  1.00  0.00    -0.000 C 
BRANCH  12  13
ATOM     13  C   UNL     1       4.866 -38.081  21.168  1.00  0.00    -0.000 C 
BRANCH  13  14
ATOM     14  C   UNL     1       5.592 -39.190  20.389  1.00  0.00    -0.000 C 
BRANCH  14  15
ATOM     15  C   UNL     1       6.124 -40.303  21.306  1.00  0.00    -0.003 C 
ATOM     16  C   UNL     1       5.153 -40.657  22.433  1.00  0.00     0.004 C 
ENDBRANCH  14  15
ENDBRANCH  13  14
ENDBRANCH  12  13
ENDBRANCH  11  12
ENDBRANCH  10  11
ENDBRANCH   1  10
TORSDOF 12
ENDMDL
MODEL 7
REMARK VINA RESULT:    -0.692      3.506      4.280
REMARK INTER + INTRA:          -2.294
REMARK INTER:                  -1.723
REMARK INTRA:                  -0.571
REMARK UNBOUND:                -1.117
REMARK SMILES CCCCCCCCCCCCCC(=O)[O-]
REMARK SMILES IDX 8 1 9 2 10 3 11 4 12 5 13 6 14 7 15 8 16 9 7 10 6 11 5 12
REMARK SMILES IDX 4 13 3 14 2 15 1 16
REMARK H PARENT
REMARK Flexibility Score: inf
ROOT
ATOM      1  C   UNL     1       4.526 -35.355  20.847  1.00  0.00     0.000 C 
ENDROOT
BRANCH   1   2
ATOM      2  C   UNL     1       5.624 -34.576  20.093  1.00  0.00     0.000 C 
BRANCH   2   3
ATOM      3  C   UNL     1       5.475 -34.561  18.561  1.00  0.00     0.000 C 
BRANCH   3   4
ATOM      4  C   UNL     1       4.070 -34.983  18.096  1.00  0.00     0.000 C 
BRANCH   4   5
ATOM      5  C   UNL     1       4.104 -35.841  16.822  1.00  0.00     0.006 C 
BRANCH   5   6
ATOM      6  C   UNL     1       2.803 -35.744  16.014  1.00  0.00     0.053 C 
BRANCH   6   7
ATOM      7  C   UNL     1       2.827 -36.708  14.869  1.00  0.00     0.041 C 
ATOM      8  O   UNL     1       1.891 -36.715  14.027  1.00  0.00    -0.550 OA
ATOM      9  O   UNL     1       3.857 -37.633  14.760  1.00  0.00    -0.550 OA
ENDBRANCH   6   7
ENDBRANCH   5   6
ENDBRANCH   4   5
ENDBRANCH   3   4
ENDBRANCH   2   3
ENDBRANCH   1   2
BRANCH   1  10
ATOM     10  C   UNL     1       4.039 -34.698  22.151  1.00  0.00     0.000 C 
BRANCH  10  11
ATOM     11  C   UNL     1       4.933 -33.536  22.607  1.00  0.00    -0.000 C 
BRANCH  11  12
ATOM     12  C   UNL     1       5.873 -33.979  23.738  1.00  0.00    -0.000 C 
BRANCH  12  13
ATOM     13  C   UNL     1       6.043 -35.505  23.809  1.00  0.00    -0.000 C 
BRANCH  13  14
ATOM     14  C   UNL     1       5.737 -36.069  25.207  1.00  0.00    -0.000 C 
BRANCH  14  15
ATOM     15  C   UNL     1       5.201 -37.508  25.157  1.00  0.00    -0.003 C 
ATOM     16  C   UNL     1       4.209 -37.811  26.282  1.00  0.00     0.004 C 
ENDBRANCH  14  15
ENDBRANCH  13  14
ENDBRANCH  12  13
ENDBRANCH  11  12
ENDBRANCH  10  11
ENDBRANCH   1  10
TORSDOF 12
ENDMDL
MODEL 8
REMARK VINA RESULT:    -0.385      2.515      5.340
REMARK INTER + INTRA:          -1.773
REMARK INTER:                  -0.994
REMARK INTRA:                  -0.779
REMARK UNBOUND:                -1.117
REMARK SMILES CCCCCCCCCCCCCC(=O)[O-]
REMARK SMILES IDX 8 1 9 2 10 3 11 4 12 5 13 6 14 7 15 8 16 9 7 10 6 11 5 12
REMARK SMILES IDX 4 13 3 14 2 15 1 16
REMARK H PARENT
REMARK Flexibility Score: inf
ROOT
ATOM      1  C   UNL     1       6.082 -36.690  25.423  1.00  0.00     0.000 C 
ENDROOT
BRANCH   1   2
ATOM      2  C   UNL     1       6.014 -35.221  24.959  1.00  0.00     0.000 C 
BRANCH   2   3
ATOM      3  C   UNL     1       6.043 -35.020  23.432  1.00  0.00     0.000 C 
BRANCH   3   4
ATOM      4  C   UNL     1       5.063 -33.935  22.957  1.00  0.00     0.000 C 
BRANCH   4   5
ATOM      5  C   UNL     1       4.544 -34.192  21.534  1.00  0.00     0.006 C 
BRANCH   5   6
ATOM      6  C   UNL     1       5.457 -35.133  20.736  1.00  0.00     0.053 C 
BRANCH   6   7
ATOM      7  C   UNL     1       5.287 -34.903  19.267  1.00  0.00     0.041 C 
ATOM      8  O   UNL     1       6.061 -34.121  18.654  1.00  0.00    -0.550 OA
ATOM      9  O   UNL     1       4.242 -35.512  18.583  1.00  0.00    -0.550 OA
ENDBRANCH   6   7
ENDBRANCH   5   6
ENDBRANCH   4   5
ENDBRANCH   3   4
ENDBRANCH   2   3
ENDBRANCH   1   2
BRANCH   1  10
ATOM     10  C   UNL     1       4.720 -37.396  25.555  1.00  0.00     0.000 C 
BRANCH  10  11
ATOM     11  C   UNL     1       4.665 -38.734  24.804  1.00  0.00    -0.000 C 
BRANCH  11  12
ATOM     12  C   UNL     1       5.373 -38.629  23.445  1.00  0.00    -0.000 C 
BRANCH  12  13
ATOM     13  C   UNL     1       4.928 -39.718  22.456  1.00  0.00    -0.000 C 
BRANCH  13  14
ATOM     14  C   UNL     1       6.080 -40.213  21.565  1.00  0.00    -0.000 C 
BRANCH  14  15
ATOM     15  C   UNL     1       5.954 -39.725  20.113  1.00  0.00    -0.003 C 
ATOM     16  C   UNL     1       5.051 -38.499  19.976  1.00  0.00     0.004 C 
ENDBRANCH  14  15
ENDBRANCH  13  14
ENDBRANCH  12  13
ENDBRANCH  11  12
ENDBRANCH  10  11
ENDBRANCH   1  10
TORSDOF 12
ENDMDL
MODEL 9
REMARK VINA RESULT:    -0.371      2.618      6.057
REMARK INTER + INTRA:          -1.748
REMARK INTER:                  -0.799
REMARK INTRA:                  -0.950
REMARK UNBOUND:                -1.117
REMARK SMILES CCCCCCCCCCCCCC(=O)[O-]
REMARK SMILES IDX 8 1 9 2 10 3 11 4 12 5 13 6 14 7 15 8 16 9 7 10 6 11 5 12
REMARK SMILES IDX 4 13 3 14 2 15 1 16
REMARK H PARENT
REMARK Flexibility Score: inf
ROOT
ATOM      1  C   UNL     1       4.693 -38.860  23.212  1.00  0.00     0.000 C 
ENDROOT
BRANCH   1   2
ATOM      2  C   UNL     1       5.648 -38.020  24.085  1.00  0.00     0.000 C 
BRANCH   2   3
ATOM      3  C   UNL     1       5.004 -36.794  24.757  1.00  0.00     0.000 C 
BRANCH   3   4
ATOM      4  C   UNL     1       5.852 -35.519  24.606  1.00  0.00     0.000 C 
BRANCH   4   5
ATOM      5  C   UNL     1       5.984 -35.069  23.143  1.00  0.00     0.006 C 
BRANCH   5   6
ATOM      6  C   UNL     1       5.267 -33.739  22.870  1.00  0.00     0.053 C 
BRANCH   6   7
ATOM      7  C   UNL     1       4.026 -33.970  22.067  1.00  0.00     0.041 C 
ATOM      8  O   UNL     1       3.533 -33.037  21.380  1.00  0.00    -0.550 OA
ATOM      9  O   UNL     1       3.384 -35.201  22.116  1.00  0.00    -0.550 OA
ENDBRANCH   6   7
ENDBRANCH   5   6
ENDBRANCH   4   5
ENDBRANCH   3   4
ENDBRANCH   2   3
ENDBRANCH   1   2
BRANCH   1  10
ATOM     10  C   UNL     1       5.380 -39.728  22.142  1.00  0.00     0.000 C 
BRANCH  10  11
ATOM     11  C   UNL     1       5.311 -39.111  20.737  1.00  0.00    -0.000 C 
BRANCH  11  12
ATOM     12  C   UNL     1       4.931 -37.624  20.809  1.00  0.00    -0.000 C 
BRANCH  12  13
ATOM     13  C   UNL     1       5.000 -36.924  19.443  1.00  0.00    -0.000 C 
BRANCH  13  14
ATOM     14  C   UNL     1       5.699 -35.556  19.515  1.00  0.00    -0.000 C 
BRANCH  14  15
ATOM     15  C   UNL     1       5.015 -34.498  18.636  1.00  0.00    -0.003 C 
ATOM     16  C   UNL     1       4.043 -35.106  17.624  1.00  0.00     0.004 C 
ENDBRANCH  14  15
ENDBRANCH  13  14
ENDBRANCH  12  13
ENDBRANCH  11  12
ENDBRANCH  10  11
ENDBRANCH   1  10
TORSDOF 12
ENDMDL
