MODEL 1
REMARK VINA RESULT:    -3.484      0.000      0.000
REMARK INTER + INTRA:          -3.818
REMARK INTER:                  -3.790
REMARK INTRA:                  -0.029
REMARK UNBOUND:                -0.029
REMARK SMILES O=C([O-])c1ccc(O)cc1
REMARK SMILES IDX 4 1 5 2 10 3 6 4 9 5 7 6 2 7 1 8 3 9 8 10
REMARK H PARENT 8 11
REMARK Flexibility Score: inf
ROOT
ATOM      1  C   UNL     1     135.327 123.193  98.810  1.00  0.00    -0.003 A 
ATOM      2  C   UNL     1     135.173 124.514  98.353  1.00  0.00     0.014 A 
ATOM      3  C   UNL     1     135.639 122.183  97.882  1.00  0.00     0.014 A 
ATOM      4  C   UNL     1     135.329 124.818  96.997  1.00  0.00     0.047 A 
ATOM      5  C   UNL     1     135.795 122.490  96.526  1.00  0.00     0.047 A 
ATOM      6  C   UNL     1     135.641 123.806  96.080  1.00  0.00     0.115 A 
ENDROOT
BRANCH   1   7
ATOM      7  C   UNL     1     135.160 122.875 100.245  1.00  0.00     0.071 C 
ATOM      8  O   UNL     1     136.125 122.421 100.917  1.00  0.00    -0.545 OA
ATOM      9  O   UNL     1     133.936 123.073 100.873  1.00  0.00    -0.545 OA
ENDBRANCH   1   7
BRANCH   6  10
ATOM     10  O   UNL     1     135.798 124.096  94.726  1.00  0.00    -0.508 OA
ATOM     11  H   UNL     1     135.473 124.971  94.332  1.00  0.00     0.293 HD
ENDBRANCH   6  10
TORSDOF 2
ENDMDL
MODEL 2
REMARK VINA RESULT:    -3.301     17.385     17.943
REMARK INTER + INTRA:          -3.619
REMARK INTER:                  -3.591
REMARK INTRA:                  -0.028
REMARK UNBOUND:                -0.029
REMARK SMILES O=C([O-])c1ccc(O)cc1
REMARK SMILES IDX 4 1 5 2 10 3 6 4 9 5 7 6 2 7 1 8 3 9 8 10
REMARK H PARENT 8 11
REMARK Flexibility Score: inf
ROOT
ATOM      1  C   UNL     1     118.183 126.217  98.355  1.00  0.00    -0.003 A 
ATOM      2  C   UNL     1     116.803 126.456  98.480  1.00  0.00     0.014 A 
ATOM      3  C   UNL     1     118.795 126.394  97.100  1.00  0.00     0.014 A 
ATOM      4  C   UNL     1     116.052 126.864  97.374  1.00  0.00     0.047 A 
ATOM      5  C   UNL     1     118.041 126.803  95.996  1.00  0.00     0.047 A 
ATOM      6  C   UNL     1     116.669 127.039  96.128  1.00  0.00     0.115 A 
ENDROOT
BRANCH   1   7
ATOM      7  C   UNL     1     118.976 125.784  99.527  1.00  0.00     0.071 C 
ATOM      8  O   UNL     1     119.780 126.577 100.086  1.00  0.00    -0.545 OA
ATOM      9  O   UNL     1     118.843 124.494 100.029  1.00  0.00    -0.545 OA
ENDBRANCH   1   7
BRANCH   6  10
ATOM     10  O   UNL     1     115.931 127.445  95.019  1.00  0.00    -0.508 OA
ATOM     11  H   UNL     1     116.337 128.034  94.300  1.00  0.00     0.293 HD
ENDBRANCH   6  10
TORSDOF 2
ENDMDL
MODEL 3
REMARK VINA RESULT:    -3.281      2.772      3.369
REMARK INTER + INTRA:          -3.598
REMARK INTER:                  -3.565
REMARK INTRA:                  -0.033
REMARK UNBOUND:                -0.029
REMARK SMILES O=C([O-])c1ccc(O)cc1
REMARK SMILES IDX 4 1 5 2 10 3 6 4 9 5 7 6 2 7 1 8 3 9 8 10
REMARK H PARENT 8 11
REMARK Flexibility Score: inf
ROOT
ATOM      1  C   UNL     1     133.175 125.293  97.855  1.00  0.00    -0.003 A 
ATOM      2  C   UNL     1     132.708 124.953  96.573  1.00  0.00     0.014 A 
ATOM      3  C   UNL     1     134.553 125.198  98.126  1.00  0.00     0.014 A 
ATOM      4  C   UNL     1     133.600 124.528  95.583  1.00  0.00     0.047 A 
ATOM      5  C   UNL     1     135.442 124.773  97.133  1.00  0.00     0.047 A 
ATOM      6  C   UNL     1     134.970 124.437  95.861  1.00  0.00     0.115 A 
ENDROOT
BRANCH   1   7
ATOM      7  C   UNL     1     132.230 125.741  98.901  1.00  0.00     0.071 C 
ATOM      8  O   UNL     1     131.060 125.274  98.950  1.00  0.00    -0.545 OA
ATOM      9  O   UNL     1     132.620 126.684  99.846  1.00  0.00    -0.545 OA
ENDBRANCH   1   7
BRANCH   6  10
ATOM     10  O   UNL     1     135.868 124.015  94.883  1.00  0.00    -0.508 OA
ATOM     11  H   UNL     1     136.255 124.662  94.206  1.00  0.00     0.293 HD
ENDBRANCH   6  10
TORSDOF 2
ENDMDL
MODEL 4
REMARK VINA RESULT:    -3.211     16.244     17.107
REMARK INTER + INTRA:          -3.521
REMARK INTER:                  -3.494
REMARK INTRA:                  -0.027
REMARK UNBOUND:                -0.029
REMARK SMILES O=C([O-])c1ccc(O)cc1
REMARK SMILES IDX 4 1 5 2 10 3 6 4 9 5 7 6 2 7 1 8 3 9 8 10
REMARK H PARENT 8 11
REMARK Flexibility Score: inf
ROOT
ATOM      1  C   UNL     1     118.757 125.360  99.410  1.00  0.00    -0.003 A 
ATOM      2  C   UNL     1     119.135 126.193 100.478  1.00  0.00     0.014 A 
ATOM      3  C   UNL     1     118.820 123.964  99.580  1.00  0.00     0.014 A 
ATOM      4  C   UNL     1     119.565 125.642 101.689  1.00  0.00     0.047 A 
ATOM      5  C   UNL     1     119.250 123.416 100.793  1.00  0.00     0.047 A 
ATOM      6  C   UNL     1     119.623 124.252 101.850  1.00  0.00     0.115 A 
ENDROOT
BRANCH   1   7
ATOM      7  C   UNL     1     118.304 125.945  98.129  1.00  0.00     0.071 C 
ATOM      8  O   UNL     1     119.140 126.365  97.285  1.00  0.00    -0.545 OA
ATOM      9  O   UNL     1     116.948 126.039  97.839  1.00  0.00    -0.545 OA
ENDBRANCH   1   7
BRANCH   6  10
ATOM     10  O   UNL     1     120.050 123.691 103.052  1.00  0.00    -0.508 OA
ATOM     11  H   UNL     1     120.165 124.255 103.886  1.00  0.00     0.293 HD
ENDBRANCH   6  10
TORSDOF 2
ENDMDL
MODEL 5
REMARK VINA RESULT:    -3.210      4.111      6.133
REMARK INTER + INTRA:          -3.520
REMARK INTER:                  -3.493
REMARK INTRA:                  -0.027
REMARK UNBOUND:                -0.029
REMARK SMILES O=C([O-])c1ccc(O)cc1
REMARK SMILES IDX 4 1 5 2 10 3 6 4 9 5 7 6 2 7 1 8 3 9 8 10
REMARK H PARENT 8 11
REMARK Flexibility Score: inf
ROOT
ATOM      1  C   UNL     1     132.809 126.122  99.049  1.00  0.00    -0.003 A 
ATOM      2  C   UNL     1     132.456 125.238 100.085  1.00  0.00     0.014 A 
ATOM      3  C   UNL     1     132.776 127.507  99.294  1.00  0.00     0.014 A 
ATOM      4  C   UNL     1     132.079 125.730 101.338  1.00  0.00     0.047 A 
ATOM      5  C   UNL     1     132.399 127.996 100.549  1.00  0.00     0.047 A 
ATOM      6  C   UNL     1     132.050 127.111 101.574  1.00  0.00     0.115 A 
ENDROOT
BRANCH   1   7
ATOM      7  C   UNL     1     133.206 125.599  97.723  1.00  0.00     0.071 C 
ATOM      8  O   UNL     1     132.359 125.490  96.797  1.00  0.00    -0.545 OA
ATOM      9  O   UNL     1     134.522 125.221  97.481  1.00  0.00    -0.545 OA
ENDBRANCH   1   7
BRANCH   6  10
ATOM     10  O   UNL     1     131.676 127.612 102.819  1.00  0.00    -0.508 OA
ATOM     11  H   UNL     1     131.227 127.026 103.512  1.00  0.00     0.293 HD
ENDBRANCH   6  10
TORSDOF 2
ENDMDL
MODEL 6
REMARK VINA RESULT:    -3.203      4.140      6.004
REMARK INTER + INTRA:          -3.512
REMARK INTER:                  -3.486
REMARK INTRA:                  -0.027
REMARK UNBOUND:                -0.029
REMARK SMILES O=C([O-])c1ccc(O)cc1
REMARK SMILES IDX 4 1 5 2 10 3 6 4 9 5 7 6 2 7 1 8 3 9 8 10
REMARK H PARENT 8 11
REMARK Flexibility Score: inf
ROOT
ATOM      1  C   UNL     1     132.794 126.129  99.108  1.00  0.00    -0.003 A 
ATOM      2  C   UNL     1     132.770 127.511  99.366  1.00  0.00     0.014 A 
ATOM      3  C   UNL     1     132.434 125.237 100.135  1.00  0.00     0.014 A 
ATOM      4  C   UNL     1     132.391 127.990 100.624  1.00  0.00     0.047 A 
ATOM      5  C   UNL     1     132.055 125.720 101.392  1.00  0.00     0.047 A 
ATOM      6  C   UNL     1     132.032 127.096 101.641  1.00  0.00     0.115 A 
ENDROOT
BRANCH   1   7
ATOM      7  C   UNL     1     133.196 125.624  97.777  1.00  0.00     0.071 C 
ATOM      8  O   UNL     1     132.336 125.439  96.875  1.00  0.00    -0.545 OA
ATOM      9  O   UNL     1     134.531 125.349  97.502  1.00  0.00    -0.545 OA
ENDBRANCH   1   7
BRANCH   6  10
ATOM     10  O   UNL     1     131.654 127.561 102.898  1.00  0.00    -0.508 OA
ATOM     11  H   UNL     1     132.337 127.735 103.625  1.00  0.00     0.293 HD
ENDBRANCH   6  10
TORSDOF 2
ENDMDL
MODEL 7
REMARK VINA RESULT:    -3.193     16.300     17.135
REMARK INTER + INTRA:          -3.502
REMARK INTER:                  -3.475
REMARK INTRA:                  -0.027
REMARK UNBOUND:                -0.029
REMARK SMILES O=C([O-])c1ccc(O)cc1
REMARK SMILES IDX 4 1 5 2 10 3 6 4 9 5 7 6 2 7 1 8 3 9 8 10
REMARK H PARENT 8 11
REMARK Flexibility Score: inf
ROOT
ATOM      1  C   UNL     1     118.848 125.353  99.450  1.00  0.00    -0.003 A 
ATOM      2  C   UNL     1     118.876 123.971  99.709  1.00  0.00     0.014 A 
ATOM      3  C   UNL     1     119.189 126.247 100.482  1.00  0.00     0.014 A 
ATOM      4  C   UNL     1     119.240 123.495 100.973  1.00  0.00     0.047 A 
ATOM      5  C   UNL     1     119.553 125.767 101.744  1.00  0.00     0.047 A 
ATOM      6  C   UNL     1     119.580 124.392 101.993  1.00  0.00     0.115 A 
ENDROOT
BRANCH   1   7
ATOM      7  C   UNL     1     118.461 125.855  98.113  1.00  0.00     0.071 C 
ATOM      8  O   UNL     1     119.336 126.069  97.232  1.00  0.00    -0.545 OA
ATOM      9  O   UNL     1     117.126 126.096  97.810  1.00  0.00    -0.545 OA
ENDBRANCH   1   7
BRANCH   6  10
ATOM     10  O   UNL     1     119.943 123.929 103.256  1.00  0.00    -0.508 OA
ATOM     11  H   UNL     1     119.729 122.984 103.555  1.00  0.00     0.293 HD
ENDBRANCH   6  10
TORSDOF 2
ENDMDL
MODEL 8
REMARK VINA RESULT:    -3.078      4.797      5.573
REMARK INTER + INTRA:          -3.377
REMARK INTER:                  -3.346
REMARK INTRA:                  -0.031
REMARK UNBOUND:                -0.029
REMARK SMILES O=C([O-])c1ccc(O)cc1
REMARK SMILES IDX 4 1 5 2 10 3 6 4 9 5 7 6 2 7 1 8 3 9 8 10
REMARK H PARENT 8 11
REMARK Flexibility Score: inf
ROOT
ATOM      1  C   UNL     1     132.038 126.768 101.796  1.00  0.00    -0.003 A 
ATOM      2  C   UNL     1     132.352 127.823 100.921  1.00  0.00     0.014 A 
ATOM      3  C   UNL     1     132.076 125.447 101.313  1.00  0.00     0.014 A 
ATOM      4  C   UNL     1     132.697 127.562  99.592  1.00  0.00     0.047 A 
ATOM      5  C   UNL     1     132.423 125.190  99.983  1.00  0.00     0.047 A 
ATOM      6  C   UNL     1     132.734 126.244  99.119  1.00  0.00     0.115 A 
ENDROOT
BRANCH   1   7
ATOM      7  C   UNL     1     131.671 127.047 103.202  1.00  0.00     0.071 C 
ATOM      8  O   UNL     1     132.219 126.415 104.145  1.00  0.00    -0.545 OA
ATOM      9  O   UNL     1     130.716 128.012 103.503  1.00  0.00    -0.545 OA
ENDBRANCH   1   7
BRANCH   6  10
ATOM     10  O   UNL     1     133.077 125.971  97.796  1.00  0.00    -0.508 OA
ATOM     11  H   UNL     1     132.744 125.138  97.325  1.00  0.00     0.293 HD
ENDBRANCH   6  10
TORSDOF 2
ENDMDL
MODEL 9
REMARK VINA RESULT:    -3.065      2.926      4.102
REMARK INTER + INTRA:          -3.362
REMARK INTER:                  -3.335
REMARK INTRA:                  -0.027
REMARK UNBOUND:                -0.029
REMARK SMILES O=C([O-])c1ccc(O)cc1
REMARK SMILES IDX 4 1 5 2 10 3 6 4 9 5 7 6 2 7 1 8 3 9 8 10
REMARK H PARENT 8 11
REMARK Flexibility Score: inf
ROOT
ATOM      1  C   UNL     1     133.515 125.600  98.508  1.00  0.00    -0.003 A 
ATOM      2  C   UNL     1     134.695 125.545  97.746  1.00  0.00     0.014 A 
ATOM      3  C   UNL     1     133.222 124.543  99.389  1.00  0.00     0.014 A 
ATOM      4  C   UNL     1     135.565 124.456  97.864  1.00  0.00     0.047 A 
ATOM      5  C   UNL     1     134.094 123.456  99.506  1.00  0.00     0.047 A 
ATOM      6  C   UNL     1     135.266 123.409  98.745  1.00  0.00     0.115 A 
ENDROOT
BRANCH   1   7
ATOM      7  C   UNL     1     132.596 126.753  98.380  1.00  0.00     0.071 C 
ATOM      8  O   UNL     1     131.669 126.742  97.527  1.00  0.00    -0.545 OA
ATOM      9  O   UNL     1     132.742 127.865  99.202  1.00  0.00    -0.545 OA
ENDBRANCH   1   7
BRANCH   6  10
ATOM     10  O   UNL     1     136.125 122.319  98.872  1.00  0.00    -0.508 OA
ATOM     11  H   UNL     1     136.879 122.316  99.548  1.00  0.00     0.293 HD
ENDBRANCH   6  10
TORSDOF 2
ENDMDL
