MODEL 1
REMARK VINA RESULT:    -5.202      0.000      0.000
REMARK INTER + INTRA:         -10.881
REMARK INTER:                  -9.459
REMARK INTRA:                  -1.421
REMARK UNBOUND:                -1.421
REMARK SMILES CCCCCCCCCCCCCCCC(=O)[O-]
REMARK SMILES IDX 9 1 10 2 11 3 12 4 13 5 14 6 15 7 16 8 17 9 18 10 8 11 7 12
REMARK SMILES IDX 6 13 5 14 4 15 3 16 2 17 1 18
REMARK H PARENT
REMARK Flexibility Score: inf
ROOT
ATOM      1  C   UNL     1       4.516  11.520  18.989  1.00  0.00     0.000 C 
ENDROOT
BRANCH   1   2
ATOM      2  C   UNL     1       3.538  10.332  18.983  1.00  0.00     0.000 C 
BRANCH   2   3
ATOM      3  C   UNL     1       2.704  10.275  17.686  1.00  0.00     0.000 C 
BRANCH   3   4
ATOM      4  C   UNL     1       2.313   8.845  17.272  1.00  0.00     0.000 C 
BRANCH   4   5
ATOM      5  C   UNL     1       1.006   8.370  17.922  1.00  0.00     0.000 C 
BRANCH   5   6
ATOM      6  C   UNL     1       0.774   6.876  17.665  1.00  0.00     0.006 C 
BRANCH   6   7
ATOM      7  C   UNL     1       0.245   6.179  18.922  1.00  0.00     0.053 C 
BRANCH   7   8
ATOM      8  C   UNL     1       1.028   4.935  19.200  1.00  0.00     0.041 C 
ATOM      9  O   UNL     1       1.267   4.589  20.387  1.00  0.00    -0.550 OA
ATOM     10  O   UNL     1       1.452   4.130  18.150  1.00  0.00    -0.550 OA
ENDBRANCH   7   8
ENDBRANCH   6   7
ENDBRANCH   5   6
ENDBRANCH   4   5
ENDBRANCH   3   4
ENDBRANCH   2   3
ENDBRANCH   1   2
BRANCH   1  11
ATOM     11  C   UNL     1       5.907  11.142  18.456  1.00  0.00     0.000 C 
BRANCH  11  12
ATOM     12  C   UNL     1       6.106  11.567  16.991  1.00  0.00    -0.000 C 
BRANCH  12  13
ATOM     13  C   UNL     1       5.164  12.724  16.622  1.00  0.00    -0.000 C 
BRANCH  13  14
ATOM     14  C   UNL     1       4.891  12.807  15.112  1.00  0.00    -0.000 C 
BRANCH  14  15
ATOM     15  C   UNL     1       3.388  12.867  14.785  1.00  0.00    -0.000 C 
BRANCH  15  16
ATOM     16  C   UNL     1       2.850  11.531  14.247  1.00  0.00    -0.000 C 
BRANCH  16  17
ATOM     17  C   UNL     1       3.908  10.418  14.257  1.00  0.00    -0.003 C 
ATOM     18  C   UNL     1       3.503   9.268  13.338  1.00  0.00     0.004 C 
ENDBRANCH  16  17
ENDBRANCH  15  16
ENDBRANCH  14  15
ENDBRANCH  13  14
ENDBRANCH  12  13
ENDBRANCH  11  12
ENDBRANCH   1  11
TORSDOF 14
ENDMDL
MODEL 2
REMARK VINA RESULT:    -5.110      0.858      1.689
REMARK INTER + INTRA:         -10.714
REMARK INTER:                  -9.175
REMARK INTRA:                  -1.539
REMARK UNBOUND:                -1.421
REMARK SMILES CCCCCCCCCCCCCCCC(=O)[O-]
REMARK SMILES IDX 9 1 10 2 11 3 12 4 13 5 14 6 15 7 16 8 17 9 18 10 8 11 7 12
REMARK SMILES IDX 6 13 5 14 4 15 3 16 2 17 1 18
REMARK H PARENT
REMARK Flexibility Score: inf
ROOT
ATOM      1  C   UNL     1       3.743  10.463  19.298  1.00  0.00     0.000 C 
ENDROOT
BRANCH   1   2
ATOM      2  C   UNL     1       2.747  10.470  18.124  1.00  0.00     0.000 C 
BRANCH   2   3
ATOM      3  C   UNL     1       3.220   9.576  16.959  1.00  0.00     0.000 C 
BRANCH   3   4
ATOM      4  C   UNL     1       2.306   8.364  16.707  1.00  0.00     0.000 C 
BRANCH   4   5
ATOM      5  C   UNL     1       1.209   8.210  17.770  1.00  0.00     0.000 C 
BRANCH   5   6
ATOM      6  C   UNL     1       0.552   6.826  17.688  1.00  0.00     0.006 C 
BRANCH   6   7
ATOM      7  C   UNL     1       0.314   6.249  19.086  1.00  0.00     0.053 C 
BRANCH   7   8
ATOM      8  C   UNL     1       0.969   4.911  19.219  1.00  0.00     0.041 C 
ATOM      9  O   UNL     1       1.274   4.251  18.191  1.00  0.00    -0.550 OA
ATOM     10  O   UNL     1       1.288   4.414  20.477  1.00  0.00    -0.550 OA
ENDBRANCH   7   8
ENDBRANCH   6   7
ENDBRANCH   5   6
ENDBRANCH   4   5
ENDBRANCH   3   4
ENDBRANCH   2   3
ENDBRANCH   1   2
BRANCH   1  11
ATOM     11  C   UNL     1       4.750  11.622  19.223  1.00  0.00     0.000 C 
BRANCH  11  12
ATOM     12  C   UNL     1       6.137  11.161  18.747  1.00  0.00    -0.000 C 
BRANCH  12  13
ATOM     13  C   UNL     1       6.259  11.275  17.220  1.00  0.00    -0.000 C 
BRANCH  13  14
ATOM     14  C   UNL     1       5.723  12.611  16.679  1.00  0.00    -0.000 C 
BRANCH  14  15
ATOM     15  C   UNL     1       4.745  12.424  15.505  1.00  0.00    -0.000 C 
BRANCH  15  16
ATOM     16  C   UNL     1       3.450  13.232  15.684  1.00  0.00    -0.000 C 
BRANCH  16  17
ATOM     17  C   UNL     1       2.448  13.006  14.543  1.00  0.00    -0.003 C 
ATOM     18  C   UNL     1       2.662  11.645  13.885  1.00  0.00     0.004 C 
ENDBRANCH  16  17
ENDBRANCH  15  16
ENDBRANCH  14  15
ENDBRANCH  13  14
ENDBRANCH  12  13
ENDBRANCH  11  12
ENDBRANCH   1  11
TORSDOF 14
ENDMDL
MODEL 3
REMARK VINA RESULT:    -5.109      2.585      6.213
REMARK INTER + INTRA:         -10.712
REMARK INTER:                  -9.573
REMARK INTRA:                  -1.139
REMARK UNBOUND:                -1.421
REMARK SMILES CCCCCCCCCCCCCCCC(=O)[O-]
REMARK SMILES IDX 9 1 10 2 11 3 12 4 13 5 14 6 15 7 16 8 17 9 18 10 8 11 7 12
REMARK SMILES IDX 6 13 5 14 4 15 3 16 2 17 1 18
REMARK H PARENT
REMARK Flexibility Score: inf
ROOT
ATOM      1  C   UNL     1       4.452  11.474  19.120  1.00  0.00     0.000 C 
ENDROOT
BRANCH   1   2
ATOM      2  C   UNL     1       5.806  11.337  18.400  1.00  0.00     0.000 C 
BRANCH   2   3
ATOM      3  C   UNL     1       5.641  11.247  16.869  1.00  0.00     0.000 C 
BRANCH   3   4
ATOM      4  C   UNL     1       5.375  12.607  16.201  1.00  0.00     0.000 C 
BRANCH   4   5
ATOM      5  C   UNL     1       3.930  12.760  15.705  1.00  0.00     0.000 C 
BRANCH   5   6
ATOM      6  C   UNL     1       3.798  12.317  14.243  1.00  0.00     0.006 C 
BRANCH   6   7
ATOM      7  C   UNL     1       2.926  11.064  14.127  1.00  0.00     0.053 C 
BRANCH   7   8
ATOM      8  C   UNL     1       3.742   9.900  13.660  1.00  0.00     0.041 C 
ATOM      9  O   UNL     1       4.994  10.000  13.568  1.00  0.00    -0.550 OA
ATOM     10  O   UNL     1       3.126   8.688  13.372  1.00  0.00    -0.550 OA
ENDBRANCH   7   8
ENDBRANCH   6   7
ENDBRANCH   5   6
ENDBRANCH   4   5
ENDBRANCH   3   4
ENDBRANCH   2   3
ENDBRANCH   1   2
BRANCH   1  11
ATOM     11  C   UNL     1       3.581  10.216  18.980  1.00  0.00     0.000 C 
BRANCH  11  12
ATOM     12  C   UNL     1       2.644  10.286  17.762  1.00  0.00    -0.000 C 
BRANCH  12  13
ATOM     13  C   UNL     1       2.324   8.880  17.233  1.00  0.00    -0.000 C 
BRANCH  13  14
ATOM     14  C   UNL     1       0.979   8.344  17.750  1.00  0.00    -0.000 C 
BRANCH  14  15
ATOM     15  C   UNL     1       0.910   6.806  17.733  1.00  0.00    -0.000 C 
BRANCH  15  16
ATOM     16  C   UNL     1       0.125   6.240  18.928  1.00  0.00    -0.000 C 
BRANCH  16  17
ATOM     17  C   UNL     1       0.793   5.001  19.543  1.00  0.00    -0.003 C 
ATOM     18  C   UNL     1       1.616   4.247  18.501  1.00  0.00     0.004 C 
ENDBRANCH  16  17
ENDBRANCH  15  16
ENDBRANCH  14  15
ENDBRANCH  13  14
ENDBRANCH  12  13
ENDBRANCH  11  12
ENDBRANCH   1  11
TORSDOF 14
ENDMDL
MODEL 4
REMARK VINA RESULT:    -5.054      2.737      6.631
REMARK INTER + INTRA:         -10.613
REMARK INTER:                  -9.423
REMARK INTRA:                  -1.190
REMARK UNBOUND:                -1.421
REMARK SMILES CCCCCCCCCCCCCCCC(=O)[O-]
REMARK SMILES IDX 9 1 10 2 11 3 12 4 13 5 14 6 15 7 16 8 17 9 18 10 8 11 7 12
REMARK SMILES IDX 6 13 5 14 4 15 3 16 2 17 1 18
REMARK H PARENT
REMARK Flexibility Score: inf
ROOT
ATOM      1  C   UNL     1       3.818  10.381  19.192  1.00  0.00     0.000 C 
ENDROOT
BRANCH   1   2
ATOM      2  C   UNL     1       4.823  11.547  19.200  1.00  0.00     0.000 C 
BRANCH   2   3
ATOM      3  C   UNL     1       6.147  11.176  18.500  1.00  0.00     0.000 C 
BRANCH   3   4
ATOM      4  C   UNL     1       6.113  11.385  16.976  1.00  0.00     0.000 C 
BRANCH   4   5
ATOM      5  C   UNL     1       5.309  12.624  16.559  1.00  0.00     0.000 C 
BRANCH   5   6
ATOM      6  C   UNL     1       4.262  12.270  15.496  1.00  0.00     0.006 C 
BRANCH   6   7
ATOM      7  C   UNL     1       4.444  10.831  15.005  1.00  0.00     0.053 C 
BRANCH   7   8
ATOM      8  C   UNL     1       3.381  10.477  14.014  1.00  0.00     0.041 C 
ATOM      9  O   UNL     1       2.507  11.326  13.693  1.00  0.00    -0.550 OA
ATOM     10  O   UNL     1       3.383   9.228  13.407  1.00  0.00    -0.550 OA
ENDBRANCH   7   8
ENDBRANCH   6   7
ENDBRANCH   5   6
ENDBRANCH   4   5
ENDBRANCH   3   4
ENDBRANCH   2   3
ENDBRANCH   1   2
BRANCH   1  11
ATOM     11  C   UNL     1       2.710  10.566  18.143  1.00  0.00     0.000 C 
BRANCH  11  12
ATOM     12  C   UNL     1       2.376   9.256  17.410  1.00  0.00    -0.000 C 
BRANCH  12  13
ATOM     13  C   UNL     1       1.034   8.684  17.892  1.00  0.00    -0.000 C 
BRANCH  13  14
ATOM     14  C   UNL     1       0.958   7.154  17.756  1.00  0.00    -0.000 C 
BRANCH  14  15
ATOM     15  C   UNL     1       0.143   6.500  18.886  1.00  0.00    -0.000 C 
BRANCH  15  16
ATOM     16  C   UNL     1       0.321   4.974  18.933  1.00  0.00    -0.000 C 
BRANCH  16  17
ATOM     17  C   UNL     1       1.224   4.517  20.087  1.00  0.00    -0.003 C 
ATOM     18  C   UNL     1       2.398   3.690  19.571  1.00  0.00     0.004 C 
ENDBRANCH  16  17
ENDBRANCH  15  16
ENDBRANCH  14  15
ENDBRANCH  13  14
ENDBRANCH  12  13
ENDBRANCH  11  12
ENDBRANCH   1  11
TORSDOF 14
ENDMDL
MODEL 5
REMARK VINA RESULT:    -5.017      0.950      3.232
REMARK INTER + INTRA:         -10.544
REMARK INTER:                  -9.404
REMARK INTRA:                  -1.139
REMARK UNBOUND:                -1.421
REMARK SMILES CCCCCCCCCCCCCCCC(=O)[O-]
REMARK SMILES IDX 9 1 10 2 11 3 12 4 13 5 14 6 15 7 16 8 17 9 18 10 8 11 7 12
REMARK SMILES IDX 6 13 5 14 4 15 3 16 2 17 1 18
REMARK H PARENT
REMARK Flexibility Score: inf
ROOT
ATOM      1  C   UNL     1       3.872   9.930  14.495  1.00  0.00     0.000 C 
ENDROOT
BRANCH   1   2
ATOM      2  C   UNL     1       3.800   9.660  16.009  1.00  0.00     0.000 C 
BRANCH   2   3
ATOM      3  C   UNL     1       2.679   8.662  16.367  1.00  0.00     0.000 C 
BRANCH   3   4
ATOM      4  C   UNL     1       1.988   8.971  17.707  1.00  0.00     0.000 C 
BRANCH   4   5
ATOM      5  C   UNL     1       0.627   8.277  17.854  1.00  0.00     0.000 C 
BRANCH   5   6
ATOM      6  C   UNL     1       0.768   6.755  17.730  1.00  0.00     0.006 C 
BRANCH   6   7
ATOM      7  C   UNL     1       0.238   6.052  18.984  1.00  0.00     0.053 C 
BRANCH   7   8
ATOM      8  C   UNL     1       1.071   4.851  19.302  1.00  0.00     0.041 C 
ATOM      9  O   UNL     1       1.334   4.563  20.500  1.00  0.00    -0.550 OA
ATOM     10  O   UNL     1       1.518   4.023  18.281  1.00  0.00    -0.550 OA
ENDBRANCH   7   8
ENDBRANCH   6   7
ENDBRANCH   5   6
ENDBRANCH   4   5
ENDBRANCH   3   4
ENDBRANCH   2   3
ENDBRANCH   1   2
BRANCH   1  11
ATOM     11  C   UNL     1       3.025  11.141  14.073  1.00  0.00     0.000 C 
BRANCH  11  12
ATOM     12  C   UNL     1       3.660  12.475  14.501  1.00  0.00    -0.000 C 
BRANCH  12  13
ATOM     13  C   UNL     1       2.626  13.380  15.187  1.00  0.00    -0.000 C 
BRANCH  13  14
ATOM     14  C   UNL     1       2.943  13.622  16.672  1.00  0.00    -0.000 C 
BRANCH  14  15
ATOM     15  C   UNL     1       3.770  12.482  17.294  1.00  0.00    -0.000 C 
BRANCH  15  16
ATOM     16  C   UNL     1       3.348  12.169  18.738  1.00  0.00    -0.000 C 
BRANCH  16  17
ATOM     17  C   UNL     1       4.305  11.193  19.438  1.00  0.00    -0.003 C 
ATOM     18  C   UNL     1       5.708  11.278  18.842  1.00  0.00     0.004 C 
ENDBRANCH  16  17
ENDBRANCH  15  16
ENDBRANCH  14  15
ENDBRANCH  13  14
ENDBRANCH  12  13
ENDBRANCH  11  12
ENDBRANCH   1  11
TORSDOF 14
ENDMDL
MODEL 6
REMARK VINA RESULT:    -4.763      2.668      6.316
REMARK INTER + INTRA:         -10.083
REMARK INTER:                  -8.826
REMARK INTRA:                  -1.257
REMARK UNBOUND:                -1.421
REMARK SMILES CCCCCCCCCCCCCCCC(=O)[O-]
REMARK SMILES IDX 9 1 10 2 11 3 12 4 13 5 14 6 15 7 16 8 17 9 18 10 8 11 7 12
REMARK SMILES IDX 6 13 5 14 4 15 3 16 2 17 1 18
REMARK H PARENT
REMARK Flexibility Score: inf
ROOT
ATOM      1  C   UNL     1       3.724  10.078  14.377  1.00  0.00     0.000 C 
ENDROOT
BRANCH   1   2
ATOM      2  C   UNL     1       3.032  11.447  14.261  1.00  0.00     0.000 C 
BRANCH   2   3
ATOM      3  C   UNL     1       4.035  12.615  14.370  1.00  0.00     0.000 C 
BRANCH   3   4
ATOM      4  C   UNL     1       4.373  12.997  15.822  1.00  0.00     0.000 C 
BRANCH   4   5
ATOM      5  C   UNL     1       3.139  13.037  16.734  1.00  0.00     0.000 C 
BRANCH   5   6
ATOM      6  C   UNL     1       3.479  12.541  18.144  1.00  0.00     0.006 C 
BRANCH   6   7
ATOM      7  C   UNL     1       4.861  11.883  18.175  1.00  0.00     0.053 C 
BRANCH   7   8
ATOM      8  C   UNL     1       5.085  11.196  19.485  1.00  0.00     0.041 C 
ATOM      9  O   UNL     1       6.191  11.307  20.077  1.00  0.00    -0.550 OA
ATOM     10  O   UNL     1       4.057  10.473  20.076  1.00  0.00    -0.550 OA
ENDBRANCH   7   8
ENDBRANCH   6   7
ENDBRANCH   5   6
ENDBRANCH   4   5
ENDBRANCH   3   4
ENDBRANCH   2   3
ENDBRANCH   1   2
BRANCH   1  11
ATOM     11  C   UNL     1       3.899   9.628  15.836  1.00  0.00     0.000 C 
BRANCH  11  12
ATOM     12  C   UNL     1       2.786   8.668  16.288  1.00  0.00    -0.000 C 
BRANCH  12  13
ATOM     13  C   UNL     1       2.054   9.218  17.522  1.00  0.00    -0.000 C 
BRANCH  13  14
ATOM     14  C   UNL     1       0.735   8.481  17.807  1.00  0.00    -0.000 C 
BRANCH  14  15
ATOM     15  C   UNL     1       0.900   6.951  17.808  1.00  0.00    -0.000 C 
BRANCH  15  16
ATOM     16  C   UNL     1       0.107   6.274  18.936  1.00  0.00    -0.000 C 
BRANCH  16  17
ATOM     17  C   UNL     1       0.901   5.160  19.634  1.00  0.00    -0.003 C 
ATOM     18  C   UNL     1       1.422   4.141  18.624  1.00  0.00     0.004 C 
ENDBRANCH  16  17
ENDBRANCH  15  16
ENDBRANCH  14  15
ENDBRANCH  13  14
ENDBRANCH  12  13
ENDBRANCH  11  12
ENDBRANCH   1  11
TORSDOF 14
ENDMDL
MODEL 7
REMARK VINA RESULT:    -4.249      1.367      2.381
REMARK INTER + INTRA:          -9.148
REMARK INTER:                  -8.077
REMARK INTRA:                  -1.071
REMARK UNBOUND:                -1.421
REMARK SMILES CCCCCCCCCCCCCCCC(=O)[O-]
REMARK SMILES IDX 9 1 10 2 11 3 12 4 13 5 14 6 15 7 16 8 17 9 18 10 8 11 7 12
REMARK SMILES IDX 6 13 5 14 4 15 3 16 2 17 1 18
REMARK H PARENT
REMARK Flexibility Score: inf
ROOT
ATOM      1  C   UNL     1       4.759  10.919  16.879  1.00  0.00     0.000 C 
ENDROOT
BRANCH   1   2
ATOM      2  C   UNL     1       4.269   9.540  16.401  1.00  0.00     0.000 C 
BRANCH   2   3
ATOM      3  C   UNL     1       2.729   9.441  16.405  1.00  0.00     0.000 C 
BRANCH   3   4
ATOM      4  C   UNL     1       2.143   9.067  17.778  1.00  0.00     0.000 C 
BRANCH   4   5
ATOM      5  C   UNL     1       0.747   8.435  17.683  1.00  0.00     0.000 C 
BRANCH   5   6
ATOM      6  C   UNL     1       0.836   6.905  17.632  1.00  0.00     0.006 C 
BRANCH   6   7
ATOM      7  C   UNL     1       0.358   6.284  18.948  1.00  0.00     0.053 C 
BRANCH   7   8
ATOM      8  C   UNL     1       0.960   4.928  19.137  1.00  0.00     0.041 C 
ATOM      9  O   UNL     1       1.431   4.301  18.151  1.00  0.00    -0.550 OA
ATOM     10  O   UNL     1       1.047   4.376  20.408  1.00  0.00    -0.550 OA
ENDBRANCH   7   8
ENDBRANCH   6   7
ENDBRANCH   5   6
ENDBRANCH   4   5
ENDBRANCH   3   4
ENDBRANCH   2   3
ENDBRANCH   1   2
BRANCH   1  11
ATOM     11  C   UNL     1       5.293  10.887  18.320  1.00  0.00     0.000 C 
BRANCH  11  12
ATOM     12  C   UNL     1       4.513  11.830  19.252  1.00  0.00    -0.000 C 
BRANCH  12  13
ATOM     13  C   UNL     1       3.101  12.094  18.708  1.00  0.00    -0.000 C 
BRANCH  13  14
ATOM     14  C   UNL     1       2.708  13.579  18.774  1.00  0.00    -0.000 C 
BRANCH  14  15
ATOM     15  C   UNL     1       2.346  14.157  17.394  1.00  0.00    -0.000 C 
BRANCH  15  16
ATOM     16  C   UNL     1       3.233  13.599  16.270  1.00  0.00    -0.000 C 
BRANCH  16  17
ATOM     17  C   UNL     1       2.458  13.354  14.968  1.00  0.00    -0.003 C 
ATOM     18  C   UNL     1       3.262  12.484  14.005  1.00  0.00     0.004 C 
ENDBRANCH  16  17
ENDBRANCH  15  16
ENDBRANCH  14  15
ENDBRANCH  13  14
ENDBRANCH  12  13
ENDBRANCH  11  12
ENDBRANCH   1  11
TORSDOF 14
ENDMDL
MODEL 8
REMARK VINA RESULT:    -4.240      1.198      2.929
REMARK INTER + INTRA:          -9.131
REMARK INTER:                  -7.659
REMARK INTRA:                  -1.471
REMARK UNBOUND:                -1.421
REMARK SMILES CCCCCCCCCCCCCCCC(=O)[O-]
REMARK SMILES IDX 9 1 10 2 11 3 12 4 13 5 14 6 15 7 16 8 17 9 18 10 8 11 7 12
REMARK SMILES IDX 6 13 5 14 4 15 3 16 2 17 1 18
REMARK H PARENT
REMARK Flexibility Score: inf
ROOT
ATOM      1  C   UNL     1       4.000  10.669  15.603  1.00  0.00     0.000 C 
ENDROOT
BRANCH   1   2
ATOM      2  C   UNL     1       3.059   9.485  15.317  1.00  0.00     0.000 C 
BRANCH   2   3
ATOM      3  C   UNL     1       2.855   8.594  16.560  1.00  0.00     0.000 C 
BRANCH   3   4
ATOM      4  C   UNL     1       1.915   9.213  17.609  1.00  0.00     0.000 C 
BRANCH   4   5
ATOM      5  C   UNL     1       0.657   8.370  17.858  1.00  0.00     0.000 C 
BRANCH   5   6
ATOM      6  C   UNL     1       0.966   6.872  17.750  1.00  0.00     0.006 C 
BRANCH   6   7
ATOM      7  C   UNL     1       0.289   6.089  18.879  1.00  0.00     0.053 C 
BRANCH   7   8
ATOM      8  C   UNL     1       1.074   4.859  19.207  1.00  0.00     0.041 C 
ATOM      9  O   UNL     1       1.324   4.568  20.406  1.00  0.00    -0.550 OA
ATOM     10  O   UNL     1       1.488   4.006  18.191  1.00  0.00    -0.550 OA
ENDBRANCH   7   8
ENDBRANCH   6   7
ENDBRANCH   5   6
ENDBRANCH   4   5
ENDBRANCH   3   4
ENDBRANCH   2   3
ENDBRANCH   1   2
BRANCH   1  11
ATOM     11  C   UNL     1       5.281  10.240  16.336  1.00  0.00     0.000 C 
BRANCH  11  12
ATOM     12  C   UNL     1       5.953  11.412  17.071  1.00  0.00    -0.000 C 
BRANCH  12  13
ATOM     13  C   UNL     1       6.044  11.134  18.579  1.00  0.00    -0.000 C 
BRANCH  13  14
ATOM     14  C   UNL     1       4.666  11.100  19.261  1.00  0.00    -0.000 C 
BRANCH  14  15
ATOM     15  C   UNL     1       3.989  12.482  19.296  1.00  0.00    -0.000 C 
BRANCH  15  16
ATOM     16  C   UNL     1       2.763  12.560  18.372  1.00  0.00    -0.000 C 
BRANCH  16  17
ATOM     17  C   UNL     1       2.709  13.866  17.567  1.00  0.00    -0.003 C 
ATOM     18  C   UNL     1       2.850  13.595  16.071  1.00  0.00     0.004 C 
ENDBRANCH  16  17
ENDBRANCH  15  16
ENDBRANCH  14  15
ENDBRANCH  13  14
ENDBRANCH  12  13
ENDBRANCH  11  12
ENDBRANCH   1  11
TORSDOF 14
ENDMDL
MODEL 9
REMARK VINA RESULT:    -4.221      1.366      3.599
REMARK INTER + INTRA:          -9.097
REMARK INTER:                  -7.578
REMARK INTRA:                  -1.518
REMARK UNBOUND:                -1.421
REMARK SMILES CCCCCCCCCCCCCCCC(=O)[O-]
REMARK SMILES IDX 9 1 10 2 11 3 12 4 13 5 14 6 15 7 16 8 17 9 18 10 8 11 7 12
REMARK SMILES IDX 6 13 5 14 4 15 3 16 2 17 1 18
REMARK H PARENT
REMARK Flexibility Score: inf
ROOT
ATOM      1  C   UNL     1       3.130  11.491  14.004  1.00  0.00     0.000 C 
ENDROOT
BRANCH   1   2
ATOM      2  C   UNL     1       3.811  10.545  15.009  1.00  0.00     0.000 C 
BRANCH   2   3
ATOM      3  C   UNL     1       3.409   9.073  14.782  1.00  0.00     0.000 C 
BRANCH   3   4
ATOM      4  C   UNL     1       3.061   8.326  16.081  1.00  0.00     0.000 C 
BRANCH   4   5
ATOM      5  C   UNL     1       2.366   9.219  17.118  1.00  0.00     0.000 C 
BRANCH   5   6
ATOM      6  C   UNL     1       1.194   8.486  17.781  1.00  0.00     0.006 C 
BRANCH   6   7
ATOM      7  C   UNL     1       1.181   7.006  17.390  1.00  0.00     0.053 C 
BRANCH   7   8
ATOM      8  C   UNL     1       0.497   6.192  18.442  1.00  0.00     0.041 C 
ATOM      9  O   UNL     1      -0.398   6.710  19.161  1.00  0.00    -0.550 OA
ATOM     10  O   UNL     1       0.813   4.848  18.598  1.00  0.00    -0.550 OA
ENDBRANCH   7   8
ENDBRANCH   6   7
ENDBRANCH   5   6
ENDBRANCH   4   5
ENDBRANCH   3   4
ENDBRANCH   2   3
ENDBRANCH   1   2
BRANCH   1  11
ATOM     11  C   UNL     1       2.766  12.849  14.626  1.00  0.00     0.000 C 
BRANCH  11  12
ATOM     12  C   UNL     1       3.525  13.112  15.937  1.00  0.00    -0.000 C 
BRANCH  12  13
ATOM     13  C   UNL     1       2.665  13.927  16.915  1.00  0.00    -0.000 C 
BRANCH  13  14
ATOM     14  C   UNL     1       2.748  13.402  18.358  1.00  0.00    -0.000 C 
BRANCH  14  15
ATOM     15  C   UNL     1       3.230  11.942  18.429  1.00  0.00    -0.000 C 
BRANCH  15  16
ATOM     16  C   UNL     1       4.506  11.784  19.272  1.00  0.00    -0.000 C 
BRANCH  16  17
ATOM     17  C   UNL     1       5.596  10.976  18.553  1.00  0.00    -0.003 C 
ATOM     18  C   UNL     1       6.257  11.804  17.454  1.00  0.00     0.004 C 
ENDBRANCH  16  17
ENDBRANCH  15  16
ENDBRANCH  14  15
ENDBRANCH  13  14
ENDBRANCH  12  13
ENDBRANCH  11  12
ENDBRANCH   1  11
TORSDOF 14
ENDMDL
