MODEL 1
REMARK VINA RESULT:    -4.055      0.000      0.000
REMARK INTER + INTRA:          -5.650
REMARK INTER:                  -5.477
REMARK INTRA:                  -0.172
REMARK UNBOUND:                -0.172
REMARK SMILES CCCCCCCC(=O)[O-]
REMARK SMILES IDX 5 1 6 2 7 3 8 4 9 5 10 6 4 7 3 8 2 9 1 10
REMARK H PARENT
REMARK Flexibility Score: inf
ROOT
ATOM      1  C   UNL     1      10.293  14.318  23.160  1.00  0.00     0.000 C 
ENDROOT
BRANCH   1   2
ATOM      2  C   UNL     1      11.581  14.898  23.764  1.00  0.00     0.006 C 
BRANCH   2   3
ATOM      3  C   UNL     1      12.523  13.803  24.283  1.00  0.00     0.053 C 
BRANCH   3   4
ATOM      4  C   UNL     1      12.874  14.010  25.725  1.00  0.00     0.041 C 
ATOM      5  O   UNL     1      14.075  14.177  26.067  1.00  0.00    -0.550 OA
ATOM      6  O   UNL     1      11.873  14.050  26.685  1.00  0.00    -0.550 OA
ENDBRANCH   3   4
ENDBRANCH   2   3
ENDBRANCH   1   2
BRANCH   1   7
ATOM      7  C   UNL     1       9.087  15.210  23.477  1.00  0.00     0.000 C 
BRANCH   7   8
ATOM      8  C   UNL     1       8.238  14.610  24.603  1.00  0.00    -0.000 C 
BRANCH   8   9
ATOM      9  C   UNL     1       6.755  14.583  24.219  1.00  0.00    -0.003 C 
ATOM     10  C   UNL     1       5.933  15.492  25.130  1.00  0.00     0.004 C 
ENDBRANCH   8   9
ENDBRANCH   7   8
ENDBRANCH   1   7
TORSDOF 6
ENDMDL
MODEL 2
REMARK VINA RESULT:    -3.981      3.246      5.145
REMARK INTER + INTRA:          -5.550
REMARK INTER:                  -5.168
REMARK INTRA:                  -0.382
REMARK UNBOUND:                -0.172
REMARK SMILES CCCCCCCC(=O)[O-]
REMARK SMILES IDX 5 1 6 2 7 3 8 4 9 5 10 6 4 7 3 8 2 9 1 10
REMARK H PARENT
REMARK Flexibility Score: inf
ROOT
ATOM      1  C   UNL     1      10.337  14.319  23.149  1.00  0.00     0.000 C 
ENDROOT
BRANCH   1   2
ATOM      2  C   UNL     1       9.075  15.138  23.458  1.00  0.00     0.006 C 
BRANCH   2   3
ATOM      3  C   UNL     1       8.352  14.638  24.716  1.00  0.00     0.053 C 
BRANCH   3   4
ATOM      4  C   UNL     1       6.863  14.704  24.565  1.00  0.00     0.041 C 
ATOM      5  O   UNL     1       6.268  13.902  23.798  1.00  0.00    -0.550 OA
ATOM      6  O   UNL     1       6.130  15.629  25.297  1.00  0.00    -0.550 OA
ENDBRANCH   3   4
ENDBRANCH   2   3
ENDBRANCH   1   2
BRANCH   1   7
ATOM      7  C   UNL     1      11.566  14.920  23.843  1.00  0.00     0.000 C 
BRANCH   7   8
ATOM      8  C   UNL     1      12.423  13.826  24.491  1.00  0.00    -0.000 C 
BRANCH   8   9
ATOM      9  C   UNL     1      12.645  14.111  25.980  1.00  0.00    -0.003 C 
ATOM     10  C   UNL     1      11.414  13.738  26.803  1.00  0.00     0.004 C 
ENDBRANCH   8   9
ENDBRANCH   7   8
ENDBRANCH   1   7
TORSDOF 6
ENDMDL
MODEL 3
REMARK VINA RESULT:    -3.904      9.805     10.653
REMARK INTER + INTRA:          -5.446
REMARK INTER:                  -5.341
REMARK INTRA:                  -0.105
REMARK UNBOUND:                -0.172
REMARK SMILES CCCCCCCC(=O)[O-]
REMARK SMILES IDX 5 1 6 2 7 3 8 4 9 5 10 6 4 7 3 8 2 9 1 10
REMARK H PARENT
REMARK Flexibility Score: inf
ROOT
ATOM      1  C   UNL     1       5.398  10.091  16.430  1.00  0.00     0.000 C 
ENDROOT
BRANCH   1   2
ATOM      2  C   UNL     1       6.639  10.504  15.626  1.00  0.00     0.006 C 
BRANCH   2   3
ATOM      3  C   UNL     1       7.245  11.822  16.129  1.00  0.00     0.053 C 
BRANCH   3   4
ATOM      4  C   UNL     1       8.294  11.588  17.173  1.00  0.00     0.041 C 
ATOM      5  O   UNL     1       8.694  10.420  17.419  1.00  0.00    -0.550 OA
ATOM      6  O   UNL     1       8.852  12.664  17.851  1.00  0.00    -0.550 OA
ENDBRANCH   3   4
ENDBRANCH   2   3
ENDBRANCH   1   2
BRANCH   1   7
ATOM      7  C   UNL     1       4.220   9.775  15.499  1.00  0.00     0.000 C 
BRANCH   7   8
ATOM      8  C   UNL     1       2.962   9.424  16.301  1.00  0.00    -0.000 C 
BRANCH   8   9
ATOM      9  C   UNL     1       1.915   8.744  15.413  1.00  0.00    -0.003 C 
ATOM     10  C   UNL     1       0.594   8.564  16.155  1.00  0.00     0.004 C 
ENDBRANCH   8   9
ENDBRANCH   7   8
ENDBRANCH   1   7
TORSDOF 6
ENDMDL
MODEL 4
REMARK VINA RESULT:    -3.897     11.010     12.784
REMARK INTER + INTRA:          -5.437
REMARK INTER:                  -5.209
REMARK INTRA:                  -0.228
REMARK UNBOUND:                -0.172
REMARK SMILES CCCCCCCC(=O)[O-]
REMARK SMILES IDX 5 1 6 2 7 3 8 4 9 5 10 6 4 7 3 8 2 9 1 10
REMARK H PARENT
REMARK Flexibility Score: inf
ROOT
ATOM      1  C   UNL     1       2.042  19.870  32.100  1.00  0.00     0.000 C 
ENDROOT
BRANCH   1   2
ATOM      2  C   UNL     1       3.384  19.889  32.848  1.00  0.00     0.006 C 
BRANCH   2   3
ATOM      3  C   UNL     1       3.582  18.641  33.719  1.00  0.00     0.053 C 
BRANCH   3   4
ATOM      4  C   UNL     1       4.867  17.940  33.401  1.00  0.00     0.041 C 
ATOM      5  O   UNL     1       5.622  18.381  32.494  1.00  0.00    -0.550 OA
ATOM      6  O   UNL     1       5.246  16.819  34.128  1.00  0.00    -0.550 OA
ENDBRANCH   3   4
ENDBRANCH   2   3
ENDBRANCH   1   2
BRANCH   1   7
ATOM      7  C   UNL     1       0.923  20.465  32.964  1.00  0.00     0.000 C 
BRANCH   7   8
ATOM      8  C   UNL     1      -0.066  21.266  32.109  1.00  0.00    -0.000 C 
BRANCH   8   9
ATOM      9  C   UNL     1      -0.544  22.519  32.849  1.00  0.00    -0.003 C 
ATOM     10  C   UNL     1       0.078  22.610  34.240  1.00  0.00     0.004 C 
ENDBRANCH   8   9
ENDBRANCH   7   8
ENDBRANCH   1   7
TORSDOF 6
ENDMDL
MODEL 5
REMARK VINA RESULT:    -3.882     10.418     12.228
REMARK INTER + INTRA:          -5.417
REMARK INTER:                  -5.267
REMARK INTRA:                  -0.150
REMARK UNBOUND:                -0.172
REMARK SMILES CCCCCCCC(=O)[O-]
REMARK SMILES IDX 5 1 6 2 7 3 8 4 9 5 10 6 4 7 3 8 2 9 1 10
REMARK H PARENT
REMARK Flexibility Score: inf
ROOT
ATOM      1  C   UNL     1       3.317  19.899  32.577  1.00  0.00     0.000 C 
ENDROOT
BRANCH   1   2
ATOM      2  C   UNL     1       3.553  18.780  33.602  1.00  0.00     0.006 C 
BRANCH   2   3
ATOM      3  C   UNL     1       5.011  18.726  34.078  1.00  0.00     0.053 C 
BRANCH   3   4
ATOM      4  C   UNL     1       5.810  17.719  33.309  1.00  0.00     0.041 C 
ATOM      5  O   UNL     1       5.449  16.513  33.280  1.00  0.00    -0.550 OA
ATOM      6  O   UNL     1       6.935  18.118  32.599  1.00  0.00    -0.550 OA
ENDBRANCH   3   4
ENDBRANCH   2   3
ENDBRANCH   1   2
BRANCH   1   7
ATOM      7  C   UNL     1       1.828  20.023  32.231  1.00  0.00     0.000 C 
BRANCH   7   8
ATOM      8  C   UNL     1       1.121  20.998  33.179  1.00  0.00    -0.000 C 
BRANCH   8   9
ATOM      9  C   UNL     1      -0.113  21.616  32.512  1.00  0.00    -0.003 C 
ATOM     10  C   UNL     1      -0.526  22.909  33.208  1.00  0.00     0.004 C 
ENDBRANCH   8   9
ENDBRANCH   7   8
ENDBRANCH   1   7
TORSDOF 6
ENDMDL
MODEL 6
REMARK VINA RESULT:    -3.867     13.366     14.121
REMARK INTER + INTRA:          -5.395
REMARK INTER:                  -5.258
REMARK INTRA:                  -0.137
REMARK UNBOUND:                -0.172
REMARK SMILES CCCCCCCC(=O)[O-]
REMARK SMILES IDX 5 1 6 2 7 3 8 4 9 5 10 6 4 7 3 8 2 9 1 10
REMARK H PARENT
REMARK Flexibility Score: inf
ROOT
ATOM      1  C   UNL     1      -1.639  20.364  29.663  1.00  0.00     0.000 C 
ENDROOT
BRANCH   1   2
ATOM      2  C   UNL     1      -0.509  20.254  30.697  1.00  0.00     0.006 C 
BRANCH   2   3
ATOM      3  C   UNL     1      -0.598  21.345  31.773  1.00  0.00     0.053 C 
BRANCH   3   4
ATOM      4  C   UNL     1       0.558  21.283  32.725  1.00  0.00     0.041 C 
ATOM      5  O   UNL     1       1.493  20.463  32.533  1.00  0.00    -0.550 OA
ATOM      6  O   UNL     1       0.616  22.153  33.805  1.00  0.00    -0.550 OA
ENDBRANCH   3   4
ENDBRANCH   2   3
ENDBRANCH   1   2
BRANCH   1   7
ATOM      7  C   UNL     1      -1.672  19.130  28.753  1.00  0.00     0.000 C 
BRANCH   7   8
ATOM      8  C   UNL     1      -2.771  19.257  27.692  1.00  0.00    -0.000 C 
BRANCH   8   9
ATOM      9  C   UNL     1      -2.714  20.625  27.002  1.00  0.00    -0.003 C 
ATOM     10  C   UNL     1      -1.425  20.786  26.202  1.00  0.00     0.004 C 
ENDBRANCH   8   9
ENDBRANCH   7   8
ENDBRANCH   1   7
TORSDOF 6
ENDMDL
MODEL 7
REMARK VINA RESULT:    -3.857     13.033     14.351
REMARK INTER + INTRA:          -5.382
REMARK INTER:                  -5.171
REMARK INTRA:                  -0.211
REMARK UNBOUND:                -0.172
REMARK SMILES CCCCCCCC(=O)[O-]
REMARK SMILES IDX 5 1 6 2 7 3 8 4 9 5 10 6 4 7 3 8 2 9 1 10
REMARK H PARENT
REMARK Flexibility Score: inf
ROOT
ATOM      1  C   UNL     1       0.257   9.396  17.100  1.00  0.00     0.000 C 
ENDROOT
BRANCH   1   2
ATOM      2  C   UNL     1      -1.057   9.368  17.895  1.00  0.00     0.006 C 
BRANCH   2   3
ATOM      3  C   UNL     1      -1.239  10.622  18.761  1.00  0.00     0.053 C 
BRANCH   3   4
ATOM      4  C   UNL     1      -1.979  10.320  20.029  1.00  0.00     0.041 C 
ATOM      5  O   UNL     1      -3.215  10.546  20.109  1.00  0.00    -0.550 OA
ATOM      6  O   UNL     1      -1.310   9.759  21.108  1.00  0.00    -0.550 OA
ENDBRANCH   3   4
ENDBRANCH   2   3
ENDBRANCH   1   2
BRANCH   1   7
ATOM      7  C   UNL     1       0.307   8.251  16.082  1.00  0.00     0.000 C 
BRANCH   7   8
ATOM      8  C   UNL     1       1.650   8.228  15.344  1.00  0.00    -0.000 C 
BRANCH   8   9
ATOM      9  C   UNL     1       2.648   9.196  15.988  1.00  0.00    -0.003 C 
ATOM     10  C   UNL     1       3.614   9.763  14.952  1.00  0.00     0.004 C 
ENDBRANCH   8   9
ENDBRANCH   7   8
ENDBRANCH   1   7
TORSDOF 6
ENDMDL
MODEL 8
REMARK VINA RESULT:    -3.799     11.133     13.764
REMARK INTER + INTRA:          -5.304
REMARK INTER:                  -5.186
REMARK INTRA:                  -0.118
REMARK UNBOUND:                -0.172
REMARK SMILES CCCCCCCC(=O)[O-]
REMARK SMILES IDX 5 1 6 2 7 3 8 4 9 5 10 6 4 7 3 8 2 9 1 10
REMARK H PARENT
REMARK Flexibility Score: inf
ROOT
ATOM      1  C   UNL     1       2.956  19.787  32.619  1.00  0.00     0.000 C 
ENDROOT
BRANCH   1   2
ATOM      2  C   UNL     1       1.474  19.920  33.000  1.00  0.00     0.006 C 
BRANCH   2   3
ATOM      3  C   UNL     1       1.111  21.346  33.434  1.00  0.00     0.053 C 
BRANCH   3   4
ATOM      4  C   UNL     1      -0.106  21.851  32.722  1.00  0.00     0.041 C 
ATOM      5  O   UNL     1      -0.512  21.279  31.676  1.00  0.00    -0.550 OA
ATOM      6  O   UNL     1      -0.811  22.933  33.233  1.00  0.00    -0.550 OA
ENDBRANCH   3   4
ENDBRANCH   2   3
ENDBRANCH   1   2
BRANCH   1   7
ATOM      7  C   UNL     1       3.646  18.708  33.463  1.00  0.00     0.000 C 
BRANCH   7   8
ATOM      8  C   UNL     1       5.018  18.348  32.883  1.00  0.00    -0.000 C 
BRANCH   8   9
ATOM      9  C   UNL     1       5.491  16.983  33.395  1.00  0.00    -0.003 C 
ATOM     10  C   UNL     1       6.576  16.401  32.493  1.00  0.00     0.004 C 
ENDBRANCH   8   9
ENDBRANCH   7   8
ENDBRANCH   1   7
TORSDOF 6
ENDMDL
MODEL 9
REMARK VINA RESULT:    -3.719     13.570     14.744
REMARK INTER + INTRA:          -5.196
REMARK INTER:                  -4.986
REMARK INTRA:                  -0.210
REMARK UNBOUND:                -0.172
REMARK SMILES CCCCCCCC(=O)[O-]
REMARK SMILES IDX 5 1 6 2 7 3 8 4 9 5 10 6 4 7 3 8 2 9 1 10
REMARK H PARENT
REMARK Flexibility Score: inf
ROOT
ATOM      1  C   UNL     1      -1.575  20.339  29.724  1.00  0.00     0.000 C 
ENDROOT
BRANCH   1   2
ATOM      2  C   UNL     1      -1.559  19.106  28.808  1.00  0.00     0.006 C 
BRANCH   2   3
ATOM      3  C   UNL     1      -2.645  19.173  27.726  1.00  0.00     0.053 C 
BRANCH   3   4
ATOM      4  C   UNL     1      -2.541  20.426  26.911  1.00  0.00     0.041 C 
ATOM      5  O   UNL     1      -3.482  21.263  26.913  1.00  0.00    -0.550 OA
ATOM      6  O   UNL     1      -1.392  20.684  26.176  1.00  0.00    -0.550 OA
ENDBRANCH   3   4
ENDBRANCH   2   3
ENDBRANCH   1   2
BRANCH   1   7
ATOM      7  C   UNL     1      -0.485  20.239  30.799  1.00  0.00     0.000 C 
BRANCH   7   8
ATOM      8  C   UNL     1      -0.551  21.429  31.763  1.00  0.00    -0.000 C 
BRANCH   8   9
ATOM      9  C   UNL     1       0.306  21.177  33.008  1.00  0.00    -0.003 C 
ATOM     10  C   UNL     1       1.554  20.369  32.664  1.00  0.00     0.004 C 
ENDBRANCH   8   9
ENDBRANCH   7   8
ENDBRANCH   1   7
TORSDOF 6
ENDMDL
