MODEL 1
REMARK VINA RESULT:     4.088      0.000      0.000
REMARK INTER + INTRA:           6.734
REMARK INTER:                   7.195
REMARK INTRA:                  -0.461
REMARK UNBOUND:                -0.461
REMARK SMILES CCCCCCCCCCCCCCC(=O)[O-]
REMARK SMILES IDX 9 1 10 2 11 3 12 4 13 5 14 6 15 7 16 8 17 9 8 10 7 11 6 12
REMARK SMILES IDX 5 13 4 14 3 15 2 16 1 17
REMARK H PARENT
REMARK Flexibility Score: inf
ROOT
ATOM      1  C   UNL     1      11.754  13.770  -1.246  1.00  0.00     0.000 C 
ENDROOT
BRANCH   1   2
ATOM      2  C   UNL     1      10.774  14.548  -2.144  1.00  0.00     0.000 C 
BRANCH   2   3
ATOM      3  C   UNL     1      10.839  14.111  -3.618  1.00  0.00     0.000 C 
BRANCH   3   4
ATOM      4  C   UNL     1      10.539  15.263  -4.590  1.00  0.00     0.000 C 
BRANCH   4   5
ATOM      5  C   UNL     1      11.750  15.626  -5.465  1.00  0.00     0.006 C 
BRANCH   5   6
ATOM      6  C   UNL     1      12.007  17.138  -5.500  1.00  0.00     0.053 C 
BRANCH   6   7
ATOM      7  C   UNL     1      13.174  17.484  -6.373  1.00  0.00     0.041 C 
ATOM      8  O   UNL     1      13.677  18.638  -6.333  1.00  0.00    -0.550 OA
ATOM      9  O   UNL     1      13.726  16.522  -7.209  1.00  0.00    -0.550 OA
ENDBRANCH   6   7
ENDBRANCH   5   6
ENDBRANCH   4   5
ENDBRANCH   3   4
ENDBRANCH   2   3
ENDBRANCH   1   2
BRANCH   1  10
ATOM     10  C   UNL     1      11.087  12.881  -0.181  1.00  0.00     0.000 C 
BRANCH  10  11
ATOM     11  C   UNL     1      11.805  12.936   1.179  1.00  0.00    -0.000 C 
BRANCH  11  12
ATOM     12  C   UNL     1      12.216  14.364   1.570  1.00  0.00    -0.000 C 
BRANCH  12  13
ATOM     13  C   UNL     1      11.012  15.234   1.971  1.00  0.00    -0.000 C 
BRANCH  13  14
ATOM     14  C   UNL     1       9.712  14.423   2.101  1.00  0.00    -0.000 C 
BRANCH  14  15
ATOM     15  C   UNL     1       8.457  15.312   2.075  1.00  0.00    -0.000 C 
BRANCH  15  16
ATOM     16  C   UNL     1       8.777  16.767   1.695  1.00  0.00    -0.003 C 
ATOM     17  C   UNL     1       7.684  17.746   2.125  1.00  0.00     0.004 C 
ENDBRANCH  15  16
ENDBRANCH  14  15
ENDBRANCH  13  14
ENDBRANCH  12  13
ENDBRANCH  11  12
ENDBRANCH  10  11
ENDBRANCH   1  10
TORSDOF 13
ENDMDL
MODEL 2
REMARK VINA RESULT:     4.209      3.149      7.719
REMARK INTER + INTRA:           6.947
REMARK INTER:                   7.313
REMARK INTRA:                  -0.366
REMARK UNBOUND:                -0.461
REMARK SMILES CCCCCCCCCCCCCCC(=O)[O-]
REMARK SMILES IDX 9 1 10 2 11 3 12 4 13 5 14 6 15 7 16 8 17 9 8 10 7 11 6 12
REMARK SMILES IDX 5 13 4 14 3 15 2 16 1 17
REMARK H PARENT
REMARK Flexibility Score: inf
ROOT
ATOM      1  C   UNL     1      11.834  13.589  -1.225  1.00  0.00     0.000 C 
ENDROOT
BRANCH   1   2
ATOM      2  C   UNL     1      11.313  12.894   0.046  1.00  0.00     0.000 C 
BRANCH   2   3
ATOM      3  C   UNL     1      12.036  13.362   1.322  1.00  0.00     0.000 C 
BRANCH   3   4
ATOM      4  C   UNL     1      11.223  14.393   2.119  1.00  0.00     0.000 C 
BRANCH   4   5
ATOM      5  C   UNL     1       9.779  14.529   1.606  1.00  0.00     0.006 C 
BRANCH   5   6
ATOM      6  C   UNL     1       9.097  15.801   2.125  1.00  0.00     0.053 C 
BRANCH   6   7
ATOM      7  C   UNL     1       9.624  17.029   1.450  1.00  0.00     0.041 C 
ATOM      8  O   UNL     1      10.847  17.323   1.531  1.00  0.00    -0.550 OA
ATOM      9  O   UNL     1       8.771  17.836   0.708  1.00  0.00    -0.550 OA
ENDBRANCH   6   7
ENDBRANCH   5   6
ENDBRANCH   4   5
ENDBRANCH   3   4
ENDBRANCH   2   3
ENDBRANCH   1   2
BRANCH   1  10
ATOM     10  C   UNL     1      10.783  14.420  -1.983  1.00  0.00     0.000 C 
BRANCH  10  11
ATOM     11  C   UNL     1      11.063  14.503  -3.494  1.00  0.00    -0.000 C 
BRANCH  11  12
ATOM     12  C   UNL     1      11.542  15.897  -3.928  1.00  0.00    -0.000 C 
BRANCH  12  13
ATOM     13  C   UNL     1      11.776  15.992  -5.446  1.00  0.00    -0.000 C 
BRANCH  13  14
ATOM     14  C   UNL     1      12.309  17.367  -5.879  1.00  0.00    -0.000 C 
BRANCH  14  15
ATOM     15  C   UNL     1      13.761  17.304  -6.382  1.00  0.00    -0.000 C 
BRANCH  15  16
ATOM     16  C   UNL     1      13.873  16.664  -7.776  1.00  0.00    -0.003 C 
ATOM     17  C   UNL     1      14.904  15.537  -7.830  1.00  0.00     0.004 C 
ENDBRANCH  15  16
ENDBRANCH  14  15
ENDBRANCH  13  14
ENDBRANCH  12  13
ENDBRANCH  11  12
ENDBRANCH  10  11
ENDBRANCH   1  10
TORSDOF 13
ENDMDL
MODEL 3
REMARK VINA RESULT:     4.216      3.346      7.363
REMARK INTER + INTRA:           6.959
REMARK INTER:                   7.593
REMARK INTRA:                  -0.634
REMARK UNBOUND:                -0.461
REMARK SMILES CCCCCCCCCCCCCCC(=O)[O-]
REMARK SMILES IDX 9 1 10 2 11 3 12 4 13 5 14 6 15 7 16 8 17 9 8 10 7 11 6 12
REMARK SMILES IDX 5 13 4 14 3 15 2 16 1 17
REMARK H PARENT
REMARK Flexibility Score: inf
ROOT
ATOM      1  C   UNL     1      12.227  13.642  -1.213  1.00  0.00     0.000 C 
ENDROOT
BRANCH   1   2
ATOM      2  C   UNL     1      11.808  12.881   0.059  1.00  0.00     0.000 C 
BRANCH   2   3
ATOM      3  C   UNL     1      12.017  13.703   1.343  1.00  0.00     0.000 C 
BRANCH   3   4
ATOM      4  C   UNL     1      10.712  13.921   2.125  1.00  0.00     0.000 C 
BRANCH   4   5
ATOM      5  C   UNL     1       9.628  14.613   1.281  1.00  0.00     0.006 C 
BRANCH   5   6
ATOM      6  C   UNL     1       8.749  15.549   2.120  1.00  0.00     0.053 C 
BRANCH   6   7
ATOM      7  C   UNL     1       9.131  16.985   1.934  1.00  0.00     0.041 C 
ATOM      8  O   UNL     1       8.248  17.851   1.695  1.00  0.00    -0.550 OA
ATOM      9  O   UNL     1      10.459  17.372   2.052  1.00  0.00    -0.550 OA
ENDBRANCH   6   7
ENDBRANCH   5   6
ENDBRANCH   4   5
ENDBRANCH   3   4
ENDBRANCH   2   3
ENDBRANCH   1   2
BRANCH   1  10
ATOM     10  C   UNL     1      11.281  14.787  -1.621  1.00  0.00     0.000 C 
BRANCH  10  11
ATOM     11  C   UNL     1      10.227  14.351  -2.654  1.00  0.00    -0.000 C 
BRANCH  11  12
ATOM     12  C   UNL     1      10.856  13.739  -3.915  1.00  0.00    -0.000 C 
BRANCH  12  13
ATOM     13  C   UNL     1      10.799  14.693  -5.121  1.00  0.00    -0.000 C 
BRANCH  13  14
ATOM     14  C   UNL     1      11.492  16.037  -4.847  1.00  0.00    -0.000 C 
BRANCH  14  15
ATOM     15  C   UNL     1      12.082  16.667  -6.120  1.00  0.00    -0.000 C 
BRANCH  15  16
ATOM     16  C   UNL     1      12.938  17.909  -5.819  1.00  0.00    -0.003 C 
ATOM     17  C   UNL     1      14.088  18.091  -6.808  1.00  0.00     0.004 C 
ENDBRANCH  15  16
ENDBRANCH  14  15
ENDBRANCH  13  14
ENDBRANCH  12  13
ENDBRANCH  11  12
ENDBRANCH  10  11
ENDBRANCH   1  10
TORSDOF 13
ENDMDL
MODEL 4
REMARK VINA RESULT:     6.606      7.110     11.220
REMARK INTER + INTRA:          11.166
REMARK INTER:                  12.171
REMARK INTRA:                  -1.005
REMARK UNBOUND:                -0.461
REMARK SMILES CCCCCCCCCCCCCCC(=O)[O-]
REMARK SMILES IDX 9 1 10 2 11 3 12 4 13 5 14 6 15 7 16 8 17 9 8 10 7 11 6 12
REMARK SMILES IDX 5 13 4 14 3 15 2 16 1 17
REMARK H PARENT
REMARK Flexibility Score: inf
ROOT
ATOM      1  C   UNL     1      16.908  14.661 -13.281  1.00  0.00     0.000 C 
ENDROOT
BRANCH   1   2
ATOM      2  C   UNL     1      18.092  15.637 -13.152  1.00  0.00     0.000 C 
BRANCH   2   3
ATOM      3  C   UNL     1      17.646  17.084 -12.879  1.00  0.00     0.000 C 
BRANCH   3   4
ATOM      4  C   UNL     1      18.234  17.649 -11.576  1.00  0.00     0.000 C 
BRANCH   4   5
ATOM      5  C   UNL     1      17.852  19.121 -11.347  1.00  0.00     0.006 C 
BRANCH   5   6
ATOM      6  C   UNL     1      18.058  19.976 -12.603  1.00  0.00     0.053 C 
BRANCH   6   7
ATOM      7  C   UNL     1      19.235  20.893 -12.465  1.00  0.00     0.041 C 
ATOM      8  O   UNL     1      20.406  20.431 -12.490  1.00  0.00    -0.550 OA
ATOM      9  O   UNL     1      19.038  22.261 -12.336  1.00  0.00    -0.550 OA
ENDBRANCH   6   7
ENDBRANCH   5   6
ENDBRANCH   4   5
ENDBRANCH   3   4
ENDBRANCH   2   3
ENDBRANCH   1   2
BRANCH   1  10
ATOM     10  C   UNL     1      15.553  15.225 -12.816  1.00  0.00     0.000 C 
BRANCH  10  11
ATOM     11  C   UNL     1      15.036  14.556 -11.530  1.00  0.00    -0.000 C 
BRANCH  11  12
ATOM     12  C   UNL     1      14.472  15.571 -10.525  1.00  0.00    -0.000 C 
BRANCH  12  13
ATOM     13  C   UNL     1      15.478  15.920  -9.414  1.00  0.00    -0.000 C 
BRANCH  13  14
ATOM     14  C   UNL     1      14.934  15.625  -8.007  1.00  0.00    -0.000 C 
BRANCH  14  15
ATOM     15  C   UNL     1      13.670  16.439  -7.681  1.00  0.00    -0.000 C 
BRANCH  15  16
ATOM     16  C   UNL     1      13.905  17.464  -6.560  1.00  0.00    -0.003 C 
ATOM     17  C   UNL     1      12.638  17.775  -5.765  1.00  0.00     0.004 C 
ENDBRANCH  15  16
ENDBRANCH  14  15
ENDBRANCH  13  14
ENDBRANCH  12  13
ENDBRANCH  11  12
ENDBRANCH  10  11
ENDBRANCH   1  10
TORSDOF 13
ENDMDL
MODEL 5
REMARK VINA RESULT:     6.676      6.952     12.541
REMARK INTER + INTRA:          11.288
REMARK INTER:                  12.024
REMARK INTRA:                  -0.736
REMARK UNBOUND:                -0.461
REMARK SMILES CCCCCCCCCCCCCCC(=O)[O-]
REMARK SMILES IDX 9 1 10 2 11 3 12 4 13 5 14 6 15 7 16 8 17 9 8 10 7 11 6 12
REMARK SMILES IDX 5 13 4 14 3 15 2 16 1 17
REMARK H PARENT
REMARK Flexibility Score: inf
ROOT
ATOM      1  C   UNL     1      15.453  15.159 -12.816  1.00  0.00     0.000 C 
ENDROOT
BRANCH   1   2
ATOM      2  C   UNL     1      14.993  14.507 -11.499  1.00  0.00     0.000 C 
BRANCH   2   3
ATOM      3  C   UNL     1      14.511  15.535 -10.460  1.00  0.00     0.000 C 
BRANCH   3   4
ATOM      4  C   UNL     1      14.858  15.128  -9.020  1.00  0.00     0.000 C 
BRANCH   4   5
ATOM      5  C   UNL     1      14.804  16.315  -8.043  1.00  0.00     0.006 C 
BRANCH   5   6
ATOM      6  C   UNL     1      13.536  16.298  -7.180  1.00  0.00     0.053 C 
BRANCH   6   7
ATOM      7  C   UNL     1      13.400  17.548  -6.367  1.00  0.00     0.041 C 
ATOM      8  O   UNL     1      14.273  18.454  -6.443  1.00  0.00    -0.550 OA
ATOM      9  O   UNL     1      12.295  17.727  -5.546  1.00  0.00    -0.550 OA
ENDBRANCH   6   7
ENDBRANCH   5   6
ENDBRANCH   4   5
ENDBRANCH   3   4
ENDBRANCH   2   3
ENDBRANCH   1   2
BRANCH   1  10
ATOM     10  C   UNL     1      16.748  14.574 -13.408  1.00  0.00     0.000 C 
BRANCH  10  11
ATOM     11  C   UNL     1      17.936  15.550 -13.330  1.00  0.00    -0.000 C 
BRANCH  11  12
ATOM     12  C   UNL     1      17.505  16.970 -12.930  1.00  0.00    -0.000 C 
BRANCH  12  13
ATOM     13  C   UNL     1      18.455  17.603 -11.899  1.00  0.00    -0.000 C 
BRANCH  13  14
ATOM     14  C   UNL     1      18.091  19.061 -11.575  1.00  0.00    -0.000 C 
BRANCH  14  15
ATOM     15  C   UNL     1      18.175  19.977 -12.808  1.00  0.00    -0.000 C 
BRANCH  15  16
ATOM     16  C   UNL     1      18.955  21.272 -12.526  1.00  0.00    -0.003 C 
ATOM     17  C   UNL     1      20.454  21.033 -12.345  1.00  0.00     0.004 C 
ENDBRANCH  15  16
ENDBRANCH  14  15
ENDBRANCH  13  14
ENDBRANCH  12  13
ENDBRANCH  11  12
ENDBRANCH  10  11
ENDBRANCH   1  10
TORSDOF 13
ENDMDL
