MODEL 1
REMARK VINA RESULT:    -6.054      0.000      0.000
REMARK INTER + INTRA:          -6.231
REMARK INTER:                  -6.231
REMARK INTRA:                   0.000
REMARK UNBOUND:                 0.000
REMARK SMILES C=C1CCC[C@]2(C)C[C@@]3(O)OC(=O)C(C)=C3C[C@H]12
REMARK SMILES IDX 15 1 14 2 16 3 17 4 18 5 2 6 1 7 3 8 4 9 5 10 6 11 8 12 9 13
REMARK SMILES IDX 11 14 12 15 13 16 7 17 10 18
REMARK H PARENT 10 19
REMARK Flexibility Score: inf
ROOT
ATOM      1  C   UNL     1      -5.820 -10.125   2.901  1.00  0.00     0.052 C 
ATOM      2  C   UNL     1      -5.115  -8.831   2.631  1.00  0.00     0.040 C 
ATOM      3  C   UNL     1      -4.979  -7.813   3.486  1.00  0.00     0.012 C 
ATOM      4  C   UNL     1      -5.258  -7.886   4.952  1.00  0.00     0.047 C 
ATOM      5  C   UNL     1      -3.983  -8.386   5.668  1.00  0.00     0.025 C 
ATOM      6  C   UNL     1      -4.212  -8.337   7.181  1.00  0.00    -0.073 C 
ATOM      7  C   UNL     1      -5.051  -9.221   7.748  1.00  0.00     0.008 C 
ATOM      8  C   UNL     1      -3.520  -7.345   8.086  1.00  0.00     0.031 C 
ATOM      9  C   UNL     1      -2.625  -6.375   7.331  1.00  0.00     0.005 C 
ATOM     10  C   UNL     1      -1.778  -7.127   6.305  1.00  0.00     0.008 C 
ATOM     11  C   UNL     1      -2.636  -7.701   5.138  1.00  0.00    -0.019 C 
ATOM     12  C   UNL     1      -2.890  -6.541   4.103  1.00  0.00     0.092 C 
ATOM     13  C   UNL     1      -3.936  -6.842   2.998  1.00  0.00     0.235 C 
ATOM     14  O   UNL     1      -3.363  -7.508   1.878  1.00  0.00    -0.426 OA
ATOM     15  C   UNL     1      -4.107  -8.640   1.610  1.00  0.00     0.336 C 
ATOM     16  O   UNL     1      -3.871  -9.425   0.654  1.00  0.00    -0.246 OA
ATOM     17  C   UNL     1      -1.764  -8.776   4.438  1.00  0.00     0.012 C 
ENDROOT
BRANCH  13  18
ATOM     18  O   UNL     1      -4.540  -5.654   2.545  1.00  0.00    -0.353 OA
ATOM     19  H   UNL     1      -4.519  -5.661   1.552  1.00  0.00     0.215 HD
ENDBRANCH  13  18
TORSDOF 1
ENDMDL
MODEL 2
REMARK VINA RESULT:    -5.860      2.027      2.971
REMARK INTER + INTRA:          -6.031
REMARK INTER:                  -6.031
REMARK INTRA:                   0.000
REMARK UNBOUND:                 0.000
REMARK SMILES C=C1CCC[C@]2(C)C[C@@]3(O)OC(=O)C(C)=C3C[C@H]12
REMARK SMILES IDX 15 1 14 2 16 3 17 4 18 5 2 6 1 7 3 8 4 9 5 10 6 11 8 12 9 13
REMARK SMILES IDX 11 14 12 15 13 16 7 17 10 18
REMARK H PARENT 10 19
REMARK Flexibility Score: inf
ROOT
ATOM      1  C   UNL     1      -3.733  -7.581   2.299  1.00  0.00     0.052 C 
ATOM      2  C   UNL     1      -3.052  -6.925   3.461  1.00  0.00     0.040 C 
ATOM      3  C   UNL     1      -3.541  -6.810   4.700  1.00  0.00     0.012 C 
ATOM      4  C   UNL     1      -4.726  -7.554   5.223  1.00  0.00     0.047 C 
ATOM      5  C   UNL     1      -4.246  -8.921   5.763  1.00  0.00     0.025 C 
ATOM      6  C   UNL     1      -5.428  -9.636   6.423  1.00  0.00    -0.073 C 
ATOM      7  C   UNL     1      -6.415 -10.125   5.652  1.00  0.00     0.008 C 
ATOM      8  C   UNL     1      -5.535  -9.842   7.916  1.00  0.00     0.031 C 
ATOM      9  C   UNL     1      -4.382  -9.217   8.686  1.00  0.00     0.005 C 
ATOM     10  C   UNL     1      -3.054  -9.547   8.007  1.00  0.00     0.008 C 
ATOM     11  C   UNL     1      -2.902  -8.836   6.630  1.00  0.00    -0.019 C 
ATOM     12  C   UNL     1      -2.421  -7.359   6.893  1.00  0.00     0.092 C 
ATOM     13  C   UNL     1      -2.457  -6.411   5.666  1.00  0.00     0.235 C 
ATOM     14  O   UNL     1      -1.270  -6.495   4.884  1.00  0.00    -0.426 OA
ATOM     15  C   UNL     1      -1.624  -6.718   3.568  1.00  0.00     0.336 C 
ATOM     16  O   UNL     1      -0.796  -6.806   2.623  1.00  0.00    -0.246 OA
ATOM     17  C   UNL     1      -1.766  -9.575   5.875  1.00  0.00     0.012 C 
ENDROOT
BRANCH  13  18
ATOM     18  O   UNL     1      -2.625  -5.074   6.072  1.00  0.00    -0.353 OA
ATOM     19  H   UNL     1      -2.962  -5.079   7.006  1.00  0.00     0.215 HD
ENDBRANCH  13  18
TORSDOF 1
ENDMDL
MODEL 3
REMARK VINA RESULT:    -5.159     13.800     15.717
REMARK INTER + INTRA:          -5.310
REMARK INTER:                  -5.310
REMARK INTRA:                   0.000
REMARK UNBOUND:                 0.000
REMARK SMILES C=C1CCC[C@]2(C)C[C@@]3(O)OC(=O)C(C)=C3C[C@H]12
REMARK SMILES IDX 15 1 14 2 16 3 17 4 18 5 2 6 1 7 3 8 4 9 5 10 6 11 8 12 9 13
REMARK SMILES IDX 11 14 12 15 13 16 7 17 10 18
REMARK H PARENT 10 19
REMARK Flexibility Score: inf
ROOT
ATOM      1  C   UNL     1      -2.327   4.826   8.668  1.00  0.00     0.052 C 
ATOM      2  C   UNL     1      -1.155   5.356   7.901  1.00  0.00     0.040 C 
ATOM      3  C   UNL     1      -1.109   5.581   6.584  1.00  0.00     0.012 C 
ATOM      4  C   UNL     1      -2.300   5.613   5.682  1.00  0.00     0.047 C 
ATOM      5  C   UNL     1      -2.887   7.043   5.697  1.00  0.00     0.025 C 
ATOM      6  C   UNL     1      -4.023   7.124   4.675  1.00  0.00    -0.073 C 
ATOM      7  C   UNL     1      -5.182   6.491   4.928  1.00  0.00     0.008 C 
ATOM      8  C   UNL     1      -3.917   7.905   3.385  1.00  0.00     0.031 C 
ATOM      9  C   UNL     1      -2.552   8.547   3.191  1.00  0.00     0.005 C 
ATOM     10  C   UNL     1      -2.098   9.224   4.483  1.00  0.00     0.008 C 
ATOM     11  C   UNL     1      -1.778   8.196   5.608  1.00  0.00    -0.019 C 
ATOM     12  C   UNL     1      -0.322   7.645   5.365  1.00  0.00     0.092 C 
ATOM     13  C   UNL     1       0.088   6.423   6.228  1.00  0.00     0.235 C 
ATOM     14  O   UNL     1       0.610   6.807   7.496  1.00  0.00    -0.426 OA
ATOM     15  C   UNL     1      -0.069   6.117   8.480  1.00  0.00     0.336 C 
ATOM     16  O   UNL     1       0.187   6.214   9.709  1.00  0.00    -0.246 OA
ATOM     17  C   UNL     1      -1.766   8.989   6.940  1.00  0.00     0.012 C 
ENDROOT
BRANCH  13  18
ATOM     18  O   UNL     1       1.058   5.647   5.567  1.00  0.00    -0.353 OA
ATOM     19  H   UNL     1       1.909   5.728   6.072  1.00  0.00     0.215 HD
ENDBRANCH  13  18
TORSDOF 1
ENDMDL
MODEL 4
REMARK VINA RESULT:    -5.130     13.606     15.207
REMARK INTER + INTRA:          -5.280
REMARK INTER:                  -5.280
REMARK INTRA:                   0.000
REMARK UNBOUND:                 0.000
REMARK SMILES C=C1CCC[C@]2(C)C[C@@]3(O)OC(=O)C(C)=C3C[C@H]12
REMARK SMILES IDX 15 1 14 2 16 3 17 4 18 5 2 6 1 7 3 8 4 9 5 10 6 11 8 12 9 13
REMARK SMILES IDX 11 14 12 15 13 16 7 17 10 18
REMARK H PARENT 10 19
REMARK Flexibility Score: inf
ROOT
ATOM      1  C   UNL     1      -2.312   8.569   4.912  1.00  0.00     0.052 C 
ATOM      2  C   UNL     1      -1.764   7.176   4.962  1.00  0.00     0.040 C 
ATOM      3  C   UNL     1      -0.669   6.781   5.618  1.00  0.00     0.012 C 
ATOM      4  C   UNL     1       0.049   7.593   6.645  1.00  0.00     0.047 C 
ATOM      5  C   UNL     1      -0.612   7.341   8.019  1.00  0.00     0.025 C 
ATOM      6  C   UNL     1       0.198   8.061   9.100  1.00  0.00    -0.073 C 
ATOM      7  C   UNL     1       0.159   9.403   9.167  1.00  0.00     0.008 C 
ATOM      8  C   UNL     1       1.036   7.331  10.124  1.00  0.00     0.031 C 
ATOM      9  C   UNL     1       1.033   5.823   9.928  1.00  0.00     0.005 C 
ATOM     10  C   UNL     1      -0.390   5.327   9.677  1.00  0.00     0.008 C 
ATOM     11  C   UNL     1      -0.946   5.800   8.301  1.00  0.00    -0.019 C 
ATOM     12  C   UNL     1      -0.393   4.828   7.191  1.00  0.00     0.092 C 
ATOM     13  C   UNL     1      -0.623   5.280   5.725  1.00  0.00     0.235 C 
ATOM     14  O   UNL     1      -1.895   4.874   5.229  1.00  0.00    -0.426 OA
ATOM     15  C   UNL     1      -2.536   5.979   4.705  1.00  0.00     0.336 C 
ATOM     16  O   UNL     1      -3.670   5.939   4.157  1.00  0.00    -0.246 OA
ATOM     17  C   UNL     1      -2.485   5.619   8.361  1.00  0.00     0.012 C 
ENDROOT
BRANCH  13  18
ATOM     18  O   UNL     1       0.370   4.754   4.878  1.00  0.00    -0.353 OA
ATOM     19  H   UNL     1       0.954   4.163   5.423  1.00  0.00     0.215 HD
ENDBRANCH  13  18
TORSDOF 1
ENDMDL
MODEL 5
REMARK VINA RESULT:    -5.098     13.509     15.192
REMARK INTER + INTRA:          -5.247
REMARK INTER:                  -5.247
REMARK INTRA:                   0.000
REMARK UNBOUND:                 0.000
REMARK SMILES C=C1CCC[C@]2(C)C[C@@]3(O)OC(=O)C(C)=C3C[C@H]12
REMARK SMILES IDX 15 1 14 2 16 3 17 4 18 5 2 6 1 7 3 8 4 9 5 10 6 11 8 12 9 13
REMARK SMILES IDX 11 14 12 15 13 16 7 17 10 18
REMARK H PARENT 10 19
REMARK Flexibility Score: inf
ROOT
ATOM      1  C   UNL     1      -0.923   7.346   9.248  1.00  0.00     0.052 C 
ATOM      2  C   UNL     1      -0.657   6.849   7.859  1.00  0.00     0.040 C 
ATOM      3  C   UNL     1      -1.373   5.936   7.196  1.00  0.00     0.012 C 
ATOM      4  C   UNL     1      -2.726   5.451   7.606  1.00  0.00     0.047 C 
ATOM      5  C   UNL     1      -3.788   6.408   7.018  1.00  0.00     0.025 C 
ATOM      6  C   UNL     1      -5.181   5.847   7.316  1.00  0.00    -0.073 C 
ATOM      7  C   UNL     1      -5.645   5.875   8.577  1.00  0.00     0.008 C 
ATOM      8  C   UNL     1      -6.082   5.273   6.248  1.00  0.00     0.031 C 
ATOM      9  C   UNL     1      -5.438   5.261   4.870  1.00  0.00     0.005 C 
ATOM     10  C   UNL     1      -4.758   6.600   4.594  1.00  0.00     0.008 C 
ATOM     11  C   UNL     1      -3.508   6.825   5.497  1.00  0.00    -0.019 C 
ATOM     12  C   UNL     1      -2.294   6.056   4.851  1.00  0.00     0.092 C 
ATOM     13  C   UNL     1      -1.023   5.944   5.732  1.00  0.00     0.235 C 
ATOM     14  O   UNL     1      -0.174   7.079   5.601  1.00  0.00    -0.426 OA
ATOM     15  C   UNL     1       0.108   7.566   6.862  1.00  0.00     0.336 C 
ATOM     16  O   UNL     1       0.864   8.549   7.082  1.00  0.00    -0.246 OA
ATOM     17  C   UNL     1      -3.190   8.342   5.439  1.00  0.00     0.012 C 
ENDROOT
BRANCH  13  18
ATOM     18  O   UNL     1      -0.282   4.796   5.395  1.00  0.00    -0.353 OA
ATOM     19  H   UNL     1      -0.661   4.029   5.900  1.00  0.00     0.215 HD
ENDBRANCH  13  18
TORSDOF 1
ENDMDL
MODEL 6
REMARK VINA RESULT:    -5.089     13.495     14.989
REMARK INTER + INTRA:          -5.238
REMARK INTER:                  -5.238
REMARK INTRA:                   0.000
REMARK UNBOUND:                 0.000
REMARK SMILES C=C1CCC[C@]2(C)C[C@@]3(O)OC(=O)C(C)=C3C[C@H]12
REMARK SMILES IDX 15 1 14 2 16 3 17 4 18 5 2 6 1 7 3 8 4 9 5 10 6 11 8 12 9 13
REMARK SMILES IDX 11 14 12 15 13 16 7 17 10 18
REMARK H PARENT 10 19
REMARK Flexibility Score: inf
ROOT
ATOM      1  C   UNL     1      -2.431   8.241   3.002  1.00  0.00     0.052 C 
ATOM      2  C   UNL     1      -3.614   7.540   3.596  1.00  0.00     0.040 C 
ATOM      3  C   UNL     1      -3.584   6.428   4.335  1.00  0.00     0.012 C 
ATOM      4  C   UNL     1      -2.351   5.837   4.938  1.00  0.00     0.047 C 
ATOM      5  C   UNL     1      -2.108   6.507   6.310  1.00  0.00     0.025 C 
ATOM      6  C   UNL     1      -0.927   5.817   6.997  1.00  0.00    -0.073 C 
ATOM      7  C   UNL     1       0.315   6.010   6.522  1.00  0.00     0.008 C 
ATOM      8  C   UNL     1      -1.084   4.932   8.212  1.00  0.00     0.031 C 
ATOM      9  C   UNL     1      -2.534   4.759   8.637  1.00  0.00     0.005 C 
ATOM     10  C   UNL     1      -3.251   6.108   8.631  1.00  0.00     0.008 C 
ATOM     11  C   UNL     1      -3.435   6.672   7.191  1.00  0.00    -0.019 C 
ATOM     12  C   UNL     1      -4.699   5.979   6.553  1.00  0.00     0.092 C 
ATOM     13  C   UNL     1      -4.901   6.215   5.034  1.00  0.00     0.235 C 
ATOM     14  O   UNL     1      -5.615   7.417   4.764  1.00  0.00    -0.426 OA
ATOM     15  C   UNL     1      -4.895   8.164   3.853  1.00  0.00     0.336 C 
ATOM     16  O   UNL     1      -5.282   9.268   3.388  1.00  0.00    -0.246 OA
ATOM     17  C   UNL     1      -3.754   8.182   7.347  1.00  0.00     0.012 C 
ENDROOT
BRANCH  13  18
ATOM     18  O   UNL     1      -5.602   5.144   4.451  1.00  0.00    -0.353 OA
ATOM     19  H   UNL     1      -4.938   4.538   4.027  1.00  0.00     0.215 HD
ENDBRANCH  13  18
TORSDOF 1
ENDMDL
MODEL 7
REMARK VINA RESULT:    -5.082     11.758     13.599
REMARK INTER + INTRA:          -5.230
REMARK INTER:                  -5.230
REMARK INTRA:                   0.000
REMARK UNBOUND:                 0.000
REMARK SMILES C=C1CCC[C@]2(C)C[C@@]3(O)OC(=O)C(C)=C3C[C@H]12
REMARK SMILES IDX 15 1 14 2 16 3 17 4 18 5 2 6 1 7 3 8 4 9 5 10 6 11 8 12 9 13
REMARK SMILES IDX 11 14 12 15 13 16 7 17 10 18
REMARK H PARENT 10 19
REMARK Flexibility Score: inf
ROOT
ATOM      1  C   UNL     1     -10.122   0.770  -2.626  1.00  0.00     0.052 C 
ATOM      2  C   UNL     1      -8.991   0.973  -3.587  1.00  0.00     0.040 C 
ATOM      3  C   UNL     1      -8.164   0.028  -4.043  1.00  0.00     0.012 C 
ATOM      4  C   UNL     1      -8.386  -1.442  -3.900  1.00  0.00     0.047 C 
ATOM      5  C   UNL     1      -9.254  -1.924  -5.084  1.00  0.00     0.025 C 
ATOM      6  C   UNL     1      -9.376  -3.449  -5.022  1.00  0.00    -0.073 C 
ATOM      7  C   UNL     1     -10.125  -4.011  -4.058  1.00  0.00     0.008 C 
ATOM      8  C   UNL     1      -8.704  -4.369  -6.015  1.00  0.00     0.031 C 
ATOM      9  C   UNL     1      -7.857  -3.625  -7.035  1.00  0.00     0.005 C 
ATOM     10  C   UNL     1      -8.621  -2.417  -7.576  1.00  0.00     0.008 C 
ATOM     11  C   UNL     1      -8.816  -1.311  -6.497  1.00  0.00    -0.019 C 
ATOM     12  C   UNL     1      -7.490  -0.461  -6.425  1.00  0.00     0.092 C 
ATOM     13  C   UNL     1      -7.388   0.527  -5.234  1.00  0.00     0.235 C 
ATOM     14  O   UNL     1      -7.995   1.783  -5.521  1.00  0.00    -0.426 OA
ATOM     15  C   UNL     1      -8.883   2.085  -4.507  1.00  0.00     0.336 C 
ATOM     16  O   UNL     1      -9.553   3.150  -4.456  1.00  0.00    -0.246 OA
ATOM     17  C   UNL     1      -9.943  -0.381  -7.017  1.00  0.00     0.012 C 
ENDROOT
BRANCH  13  18
ATOM     18  O   UNL     1      -6.043   0.754  -4.887  1.00  0.00    -0.353 OA
ATOM     19  H   UNL     1      -5.985   0.786  -3.896  1.00  0.00     0.215 HD
ENDBRANCH  13  18
TORSDOF 1
ENDMDL
MODEL 8
REMARK VINA RESULT:    -5.004      2.108      3.995
REMARK INTER + INTRA:          -5.151
REMARK INTER:                  -5.151
REMARK INTRA:                   0.000
REMARK UNBOUND:                 0.000
REMARK SMILES C=C1CCC[C@]2(C)C[C@@]3(O)OC(=O)C(C)=C3C[C@H]12
REMARK SMILES IDX 15 1 14 2 16 3 17 4 18 5 2 6 1 7 3 8 4 9 5 10 6 11 8 12 9 13
REMARK SMILES IDX 11 14 12 15 13 16 7 17 10 18
REMARK H PARENT 10 19
REMARK Flexibility Score: inf
ROOT
ATOM      1  C   UNL     1      -1.480  -6.107   4.104  1.00  0.00     0.052 C 
ATOM      2  C   UNL     1      -1.723  -7.481   4.650  1.00  0.00     0.040 C 
ATOM      3  C   UNL     1      -1.941  -7.795   5.930  1.00  0.00     0.012 C 
ATOM      4  C   UNL     1      -2.260  -6.810   7.008  1.00  0.00     0.047 C 
ATOM      5  C   UNL     1      -3.788  -6.576   7.021  1.00  0.00     0.025 C 
ATOM      6  C   UNL     1      -4.142  -5.675   8.206  1.00  0.00    -0.073 C 
ATOM      7  C   UNL     1      -3.798  -4.376   8.170  1.00  0.00     0.008 C 
ATOM      8  C   UNL     1      -4.885  -6.171   9.425  1.00  0.00     0.031 C 
ATOM      9  C   UNL     1      -5.188  -7.660   9.370  1.00  0.00     0.005 C 
ATOM     10  C   UNL     1      -5.730  -8.038   7.993  1.00  0.00     0.008 C 
ATOM     11  C   UNL     1      -4.647  -7.921   6.879  1.00  0.00    -0.019 C 
ATOM     12  C   UNL     1      -3.769  -9.229   6.912  1.00  0.00     0.092 C 
ATOM     13  C   UNL     1      -2.479  -9.196   6.052  1.00  0.00     0.235 C 
ATOM     14  O   UNL     1      -2.720  -9.576   4.701  1.00  0.00    -0.426 OA
ATOM     15  C   UNL     1      -2.202  -8.602   3.870  1.00  0.00     0.336 C 
ATOM     16  O   UNL     1      -2.228  -8.666   2.613  1.00  0.00    -0.246 OA
ATOM     17  C   UNL     1      -5.405  -7.895   5.527  1.00  0.00     0.012 C 
ENDROOT
BRANCH  13  18
ATOM     18  O   UNL     1      -1.501 -10.056   6.586  1.00  0.00    -0.353 OA
ATOM     19  H   UNL     1      -1.194 -10.657   5.857  1.00  0.00     0.215 HD
ENDBRANCH  13  18
TORSDOF 1
ENDMDL
MODEL 9
REMARK VINA RESULT:    -4.902     19.819     21.373
REMARK INTER + INTRA:          -5.045
REMARK INTER:                  -5.045
REMARK INTRA:                   0.000
REMARK UNBOUND:                 0.000
REMARK SMILES C=C1CCC[C@]2(C)C[C@@]3(O)OC(=O)C(C)=C3C[C@H]12
REMARK SMILES IDX 15 1 14 2 16 3 17 4 18 5 2 6 1 7 3 8 4 9 5 10 6 11 8 12 9 13
REMARK SMILES IDX 11 14 12 15 13 16 7 17 10 18
REMARK H PARENT 10 19
REMARK Flexibility Score: inf
ROOT
ATOM      1  C   UNL     1       2.833   8.654  -5.457  1.00  0.00     0.052 C 
ATOM      2  C   UNL     1       2.609   7.880  -6.719  1.00  0.00     0.040 C 
ATOM      3  C   UNL     1       1.434   7.432  -7.174  1.00  0.00     0.012 C 
ATOM      4  C   UNL     1       0.100   7.860  -6.656  1.00  0.00     0.047 C 
ATOM      5  C   UNL     1      -0.331   9.139  -7.409  1.00  0.00     0.025 C 
ATOM      6  C   UNL     1      -1.754   9.510  -6.984  1.00  0.00    -0.073 C 
ATOM      7  C   UNL     1      -1.966   9.994  -5.748  1.00  0.00     0.008 C 
ATOM      8  C   UNL     1      -2.948   9.378  -7.900  1.00  0.00     0.031 C 
ATOM      9  C   UNL     1      -2.593   8.788  -9.256  1.00  0.00     0.005 C 
ATOM     10  C   UNL     1      -1.332   9.452  -9.807  1.00  0.00     0.008 C 
ATOM     11  C   UNL     1      -0.062   9.079  -8.987  1.00  0.00    -0.019 C 
ATOM     12  C   UNL     1       0.443   7.671  -9.481  1.00  0.00     0.092 C 
ATOM     13  C   UNL     1       1.546   7.009  -8.615  1.00  0.00     0.235 C 
ATOM     14  O   UNL     1       2.853   7.436  -8.985  1.00  0.00    -0.426 OA
ATOM     15  C   UNL     1       3.510   7.875  -7.852  1.00  0.00     0.336 C 
ATOM     16  O   UNL     1       4.700   8.286  -7.846  1.00  0.00    -0.246 OA
ATOM     17  C   UNL     1       1.023  10.125  -9.354  1.00  0.00     0.012 C 
ENDROOT
BRANCH  13  18
ATOM     18  O   UNL     1       1.492   5.607  -8.723  1.00  0.00    -0.353 OA
ATOM     19  H   UNL     1       2.216   5.229  -8.158  1.00  0.00     0.215 HD
ENDBRANCH  13  18
TORSDOF 1
ENDMDL
