MODEL 1
REMARK VINA RESULT:    -4.160      0.000      0.000
REMARK INTER + INTRA:          -4.374
REMARK INTER:                  -5.133
REMARK INTRA:                   0.759
REMARK UNBOUND:                 0.759
REMARK SMILES CC1=CC=CC(C)(C)CC1=O
REMARK SMILES IDX 1 1 2 2 3 3 10 4 11 5 9 6 4 8 5 9 6 10 7 11 8 12
REMARK H PARENT
REMARK Flexibility Score: 80.00
ROOT
ATOM      1  C   UNL     1      -5.981 -11.580  -8.027  1.00  0.00     0.048 C 
ATOM      2  C   UNL     1      -5.046 -12.762  -7.928  1.00  0.00    -0.008 C 
ATOM      3  C   UNL     1      -4.066 -12.864  -8.853  1.00  0.00     0.007 C 
ENDROOT
BRANCH   2   4
ATOM      4  C   UNL     1      -5.233 -13.679  -6.775  1.00  0.00     0.159 C 
ATOM      5  O   UNL     1      -6.000 -13.328  -5.837  1.00  0.00    -0.295 OA
BRANCH   4   6
ATOM      6  C   UNL     1      -4.568 -15.017  -6.667  1.00  0.00     0.091 CG0
ATOM      7  G   UNL     1      -3.025 -14.933  -6.678  1.00  0.00     0.000 G0
ENDBRANCH   4   6
ENDBRANCH   2   4
BRANCH   3   8
ATOM      8  C   UNL     1      -2.998 -13.880  -8.998  1.00  0.00    -0.003 C 
ATOM      9  C   UNL     1      -2.531 -14.750  -8.094  1.00  0.00    -0.020 C 
BRANCH   9  10
ATOM     10  C   UNL     1      -3.020 -14.921  -6.676  1.00  0.00    -0.010 CG0
ATOM     11  C   UNL     1      -2.485 -13.773  -5.790  1.00  0.00     0.016 C 
ATOM     12  C   UNL     1      -2.458 -16.250  -6.124  1.00  0.00     0.016 C 
ATOM     13  G   UNL     1      -4.564 -15.011  -6.666  1.00  0.00     0.000 G0
ENDBRANCH   9  10
ENDBRANCH   3   8
TORSDOF 0
ENDMDL
MODEL 2
REMARK VINA RESULT:    -4.121      1.369      3.417
REMARK INTER + INTRA:          -4.325
REMARK INTER:                  -5.076
REMARK INTRA:                   0.750
REMARK UNBOUND:                 0.759
REMARK SMILES CC1=CC=CC(C)(C)CC1=O
REMARK SMILES IDX 1 1 2 2 3 3 10 4 11 5 9 6 4 8 5 9 6 10 7 11 8 12
REMARK H PARENT
REMARK Flexibility Score: 80.00
ROOT
ATOM      1  C   UNL     1      -1.939 -16.077  -5.920  1.00  0.00     0.048 C 
ATOM      2  C   UNL     1      -2.630 -14.974  -6.686  1.00  0.00    -0.008 C 
ATOM      3  C   UNL     1      -1.938 -14.374  -7.680  1.00  0.00     0.007 C 
ENDROOT
BRANCH   2   4
ATOM      4  C   UNL     1      -4.044 -14.689  -6.334  1.00  0.00     0.159 C 
ATOM      5  O   UNL     1      -4.652 -15.485  -5.567  1.00  0.00    -0.295 OA
BRANCH   4   6
ATOM      6  C   UNL     1      -4.794 -13.491  -6.830  1.00  0.00     0.091 CG0
ATOM      7  G   UNL     1      -4.875 -13.419  -8.372  1.00  0.00     0.000 G0
ENDBRANCH   4   6
ENDBRANCH   2   4
BRANCH   3   8
ATOM      8  C   UNL     1      -2.351 -13.296  -8.609  1.00  0.00    -0.003 C 
ATOM      9  C   UNL     1      -3.584 -12.883  -8.928  1.00  0.00    -0.020 C 
BRANCH   9  10
ATOM     10  C   UNL     1      -4.882 -13.419  -8.375  1.00  0.00    -0.010 CG0
ATOM     11  C   UNL     1      -5.216 -14.778  -9.032  1.00  0.00     0.016 C 
ATOM     12  C   UNL     1      -6.011 -12.426  -8.734  1.00  0.00     0.016 C 
ATOM     13  G   UNL     1      -4.794 -13.508  -6.834  1.00  0.00     0.000 G0
ENDBRANCH   9  10
ENDBRANCH   3   8
TORSDOF 0
ENDMDL
MODEL 3
REMARK VINA RESULT:    -4.107      1.639      3.426
REMARK INTER + INTRA:          -4.308
REMARK INTER:                  -5.059
REMARK INTRA:                   0.751
REMARK UNBOUND:                 0.759
REMARK SMILES CC1=CC=CC(C)(C)CC1=O
REMARK SMILES IDX 1 1 2 2 3 3 10 4 11 5 9 6 4 8 5 9 6 10 7 11 8 12
REMARK H PARENT
REMARK Flexibility Score: 80.00
ROOT
ATOM      1  C   UNL     1      -3.752 -17.035  -5.758  1.00  0.00     0.048 C 
ATOM      2  C   UNL     1      -3.749 -15.840  -6.682  1.00  0.00    -0.008 C 
ATOM      3  C   UNL     1      -4.128 -16.039  -7.963  1.00  0.00     0.007 C 
ENDROOT
BRANCH   2   4
ATOM      4  C   UNL     1      -3.399 -14.525  -6.086  1.00  0.00     0.159 C 
ATOM      5  O   UNL     1      -3.334 -14.425  -4.831  1.00  0.00    -0.295 OA
BRANCH   4   6
ATOM      6  C   UNL     1      -3.104 -13.302  -6.899  1.00  0.00     0.091 CG0
ATOM      7  G   UNL     1      -4.286 -12.866  -7.794  1.00  0.00     0.000 G0
ENDBRANCH   4   6
ENDBRANCH   2   4
BRANCH   3   8
ATOM      8  C   UNL     1      -4.250 -15.072  -9.079  1.00  0.00    -0.003 C 
ATOM      9  C   UNL     1      -4.334 -13.736  -9.035  1.00  0.00    -0.020 C 
BRANCH   9  10
ATOM     10  C   UNL     1      -4.296 -12.875  -7.795  1.00  0.00    -0.010 CG0
ATOM     11  C   UNL     1      -5.656 -12.941  -7.064  1.00  0.00     0.016 C 
ATOM     12  C   UNL     1      -4.057 -11.411  -8.227  1.00  0.00     0.016 C 
ATOM     13  G   UNL     1      -3.115 -13.309  -6.896  1.00  0.00     0.000 G0
ENDBRANCH   9  10
ENDBRANCH   3   8
TORSDOF 0
ENDMDL
MODEL 4
REMARK VINA RESULT:    -3.795      1.517      2.247
REMARK INTER + INTRA:          -3.924
REMARK INTER:                  -4.676
REMARK INTRA:                   0.752
REMARK UNBOUND:                 0.759
REMARK SMILES CC1=CC=CC(C)(C)CC1=O
REMARK SMILES IDX 1 1 2 2 3 3 10 4 11 5 9 6 4 8 5 9 6 10 7 11 8 12
REMARK H PARENT
REMARK Flexibility Score: 80.00
ROOT
ATOM      1  C   UNL     1      -6.733 -12.740  -5.462  1.00  0.00     0.048 C 
ATOM      2  C   UNL     1      -5.738 -12.830  -6.595  1.00  0.00    -0.008 C 
ATOM      3  C   UNL     1      -5.540 -11.723  -7.344  1.00  0.00     0.007 C 
ENDROOT
BRANCH   2   4
ATOM      4  C   UNL     1      -5.000 -14.110  -6.747  1.00  0.00     0.159 C 
ATOM      5  O   UNL     1      -5.100 -14.981  -5.840  1.00  0.00    -0.295 OA
BRANCH   4   6
ATOM      6  C   UNL     1      -4.146 -14.435  -7.934  1.00  0.00     0.091 CG0
ATOM      7  G   UNL     1      -2.998 -13.423  -8.154  1.00  0.00     0.000 G0
ENDBRANCH   4   6
ENDBRANCH   2   4
BRANCH   3   8
ATOM      8  C   UNL     1      -4.625 -11.500  -8.487  1.00  0.00    -0.003 C 
ATOM      9  C   UNL     1      -3.540 -12.196  -8.849  1.00  0.00    -0.020 C 
BRANCH   9  10
ATOM     10  C   UNL     1      -2.995 -13.428  -8.167  1.00  0.00    -0.010 CG0
ATOM     11  C   UNL     1      -2.258 -13.031  -6.868  1.00  0.00     0.016 C 
ATOM     12  C   UNL     1      -1.969 -14.094  -9.112  1.00  0.00     0.016 C 
ATOM     13  G   UNL     1      -4.142 -14.435  -7.917  1.00  0.00     0.000 G0
ENDBRANCH   9  10
ENDBRANCH   3   8
TORSDOF 0
ENDMDL
MODEL 5
REMARK VINA RESULT:    -3.785      1.944      3.630
REMARK INTER + INTRA:          -3.912
REMARK INTER:                  -4.669
REMARK INTRA:                   0.757
REMARK UNBOUND:                 0.759
REMARK SMILES CC1=CC=CC(C)(C)CC1=O
REMARK SMILES IDX 1 1 2 2 3 3 10 4 11 5 9 6 4 8 5 9 6 10 7 11 8 12
REMARK H PARENT
REMARK Flexibility Score: 80.00
ROOT
ATOM      1  C   UNL     1      -3.481 -17.436  -6.326  1.00  0.00     0.048 C 
ATOM      2  C   UNL     1      -3.414 -15.961  -6.647  1.00  0.00    -0.008 C 
ATOM      3  C   UNL     1      -2.661 -15.180  -5.843  1.00  0.00     0.007 C 
ENDROOT
BRANCH   2   4
ATOM      4  C   UNL     1      -4.124 -15.502  -7.868  1.00  0.00     0.159 C 
ATOM      5  O   UNL     1      -4.579 -16.365  -8.667  1.00  0.00    -0.295 OA
BRANCH   4   6
ATOM      6  C   UNL     1      -4.343 -14.058  -8.202  1.00  0.00     0.091 CG0
ATOM      7  G   UNL     1      -3.028 -13.255  -8.324  1.00  0.00     0.000 G0
ENDBRANCH   4   6
ENDBRANCH   2   4
BRANCH   3   8
ATOM      8  C   UNL     1      -2.385 -13.726  -5.918  1.00  0.00    -0.003 C 
ATOM      9  C   UNL     1      -2.520 -12.893  -6.957  1.00  0.00    -0.020 C 
BRANCH   9  10
ATOM     10  C   UNL     1      -3.030 -13.250  -8.333  1.00  0.00    -0.010 CG0
ATOM     11  C   UNL     1      -1.935 -14.003  -9.123  1.00  0.00     0.016 C 
ATOM     12  C   UNL     1      -3.346 -11.940  -9.089  1.00  0.00     0.016 C 
ATOM     13  G   UNL     1      -4.339 -14.061  -8.209  1.00  0.00     0.000 G0
ENDBRANCH   9  10
ENDBRANCH   3   8
TORSDOF 0
ENDMDL
MODEL 6
REMARK VINA RESULT:    -3.640      1.809      2.773
REMARK INTER + INTRA:          -3.733
REMARK INTER:                  -4.484
REMARK INTRA:                   0.752
REMARK UNBOUND:                 0.759
REMARK SMILES CC1=CC=CC(C)(C)CC1=O
REMARK SMILES IDX 1 1 2 2 3 3 10 4 11 5 9 6 4 8 5 9 6 10 7 11 8 12
REMARK H PARENT
REMARK Flexibility Score: 80.00
ROOT
ATOM      1  C   UNL     1      -3.130 -11.055  -9.112  1.00  0.00     0.048 C 
ATOM      2  C   UNL     1      -3.607 -12.144  -8.180  1.00  0.00    -0.008 C 
ATOM      3  C   UNL     1      -4.855 -12.032  -7.675  1.00  0.00     0.007 C 
ENDROOT
BRANCH   2   4
ATOM      4  C   UNL     1      -2.690 -13.289  -7.952  1.00  0.00     0.159 C 
ATOM      5  O   UNL     1      -1.679 -13.416  -8.696  1.00  0.00    -0.295 OA
BRANCH   4   6
ATOM      6  C   UNL     1      -2.891 -14.306  -6.870  1.00  0.00     0.091 CG0
ATOM      7  G   UNL     1      -4.225 -15.076  -6.998  1.00  0.00     0.000 G0
ENDBRANCH   4   6
ENDBRANCH   2   4
BRANCH   3   8
ATOM      8  C   UNL     1      -5.599 -12.940  -6.770  1.00  0.00    -0.003 C 
ATOM      9  C   UNL     1      -5.359 -14.224  -6.478  1.00  0.00    -0.020 C 
BRANCH   9  10
ATOM     10  C   UNL     1      -4.220 -15.066  -7.000  1.00  0.00    -0.010 CG0
ATOM     11  C   UNL     1      -4.514 -15.513  -8.451  1.00  0.00     0.016 C 
ATOM     12  C   UNL     1      -4.111 -16.334  -6.124  1.00  0.00     0.016 C 
ATOM     13  G   UNL     1      -2.894 -14.281  -6.877  1.00  0.00     0.000 G0
ENDBRANCH   9  10
ENDBRANCH   3   8
TORSDOF 0
ENDMDL
MODEL 7
REMARK VINA RESULT:    -3.611      1.525      3.071
REMARK INTER + INTRA:          -3.697
REMARK INTER:                  -4.686
REMARK INTRA:                   0.989
REMARK UNBOUND:                 0.759
REMARK SMILES CC1=CC=CC(C)(C)CC1=O
REMARK SMILES IDX 1 1 2 2 3 3 10 4 11 5 9 6 4 8 5 9 6 10 7 11 8 12
REMARK H PARENT
REMARK Flexibility Score: 80.00
ROOT
ATOM      1  C   UNL     1      -3.978 -16.290  -5.863  1.00  0.00     0.048 C 
ATOM      2  C   UNL     1      -3.721 -15.215  -6.892  1.00  0.00    -0.008 C 
ATOM      3  C   UNL     1      -2.675 -15.388  -7.730  1.00  0.00     0.007 C 
ENDROOT
BRANCH   2   4
ATOM      4  C   UNL     1      -4.686 -14.087  -6.948  1.00  0.00     0.159 C 
ATOM      5  O   UNL     1      -5.510 -13.945  -6.003  1.00  0.00    -0.295 OA
BRANCH   4   6
ATOM      6  C   UNL     1      -4.728 -13.091  -8.066  1.00  0.00     0.091 CG0
ATOM      7  G   UNL     1      -3.379 -12.372  -8.293  1.00  0.00     0.000 G0
ENDBRANCH   4   6
ENDBRANCH   2   4
BRANCH   3   8
ATOM      8  C   UNL     1      -2.196 -14.533  -8.841  1.00  0.00    -0.003 C 
ATOM      9  C   UNL     1      -2.495 -13.257  -9.114  1.00  0.00    -0.020 C 
BRANCH   9  10
ATOM     10  C   UNL     1      -3.401 -12.355  -8.310  1.00  0.00    -0.010 CG0
ATOM     11  C   UNL     1      -3.605 -11.014  -9.052  1.00  0.00     0.016 C 
ATOM     12  C   UNL     1      -2.711 -12.052  -6.961  1.00  0.00     0.016 C 
ATOM     13  G   UNL     1      -4.733 -13.082  -8.017  1.00  0.00     0.000 G0
ENDBRANCH   9  10
ENDBRANCH   3   8
TORSDOF 0
ENDMDL
MODEL 8
REMARK VINA RESULT:    -2.989      1.796      2.225
REMARK INTER + INTRA:          -2.929
REMARK INTER:                  -3.658
REMARK INTRA:                   0.729
REMARK UNBOUND:                 0.759
REMARK SMILES CC1=CC=CC(C)(C)CC1=O
REMARK SMILES IDX 1 1 2 2 3 3 10 4 11 5 9 6 4 8 5 9 6 10 7 11 8 12
REMARK H PARENT
REMARK Flexibility Score: 80.00
ROOT
ATOM      1  C   UNL     1      -6.627 -13.254  -9.124  1.00  0.00     0.048 C 
ATOM      2  C   UNL     1      -5.201 -13.162  -8.634  1.00  0.00    -0.008 C 
ATOM      3  C   UNL     1      -4.790 -11.980  -8.125  1.00  0.00     0.007 C 
ENDROOT
BRANCH   2   4
ATOM      4  C   UNL     1      -4.386 -14.403  -8.684  1.00  0.00     0.159 C 
ATOM      5  O   UNL     1      -4.964 -15.500  -8.914  1.00  0.00    -0.295 OA
BRANCH   4   6
ATOM      6  C   UNL     1      -2.902 -14.425  -8.488  1.00  0.00     0.091 CG0
ATOM      7  G   UNL     1      -2.464 -13.923  -7.093  1.00  0.00     0.000 G0
ENDBRANCH   4   6
ENDBRANCH   2   4
BRANCH   3   8
ATOM      8  C   UNL     1      -3.479 -11.597  -7.551  1.00  0.00    -0.003 C 
ATOM      9  C   UNL     1      -2.491 -12.381  -7.102  1.00  0.00    -0.020 C 
BRANCH   9  10
ATOM     10  C   UNL     1      -2.475 -13.891  -7.101  1.00  0.00    -0.010 CG0
ATOM     11  C   UNL     1      -3.336 -14.429  -5.935  1.00  0.00     0.016 C 
ATOM     12  C   UNL     1      -1.020 -14.361  -6.874  1.00  0.00     0.016 C 
ATOM     13  G   UNL     1      -2.940 -14.418  -8.477  1.00  0.00     0.000 G0
ENDBRANCH   9  10
ENDBRANCH   3   8
TORSDOF 0
ENDMDL
MODEL 9
REMARK VINA RESULT:    -2.818      2.096      3.867
REMARK INTER + INTRA:          -2.719
REMARK INTER:                  -3.821
REMARK INTRA:                   1.103
REMARK UNBOUND:                 0.759
REMARK SMILES CC1=CC=CC(C)(C)CC1=O
REMARK SMILES IDX 1 1 2 2 3 3 10 4 11 5 9 6 4 8 5 9 6 10 7 11 8 12
REMARK H PARENT
REMARK Flexibility Score: 80.00
ROOT
ATOM      1  C   UNL     1      -2.953 -15.899  -5.455  1.00  0.00     0.048 C 
ATOM      2  C   UNL     1      -3.376 -14.616  -6.131  1.00  0.00    -0.008 C 
ATOM      3  C   UNL     1      -4.692 -14.314  -6.131  1.00  0.00     0.007 C 
ENDROOT
BRANCH   2   4
ATOM      4  C   UNL     1      -2.298 -13.753  -6.677  1.00  0.00     0.159 C 
ATOM      5  O   UNL     1      -1.153 -14.250  -6.858  1.00  0.00    -0.295 OA
BRANCH   4   6
ATOM      6  C   UNL     1      -2.498 -12.314  -7.043  1.00  0.00     0.091 CG0
ATOM      7  G   UNL     1      -3.561 -12.108  -8.146  1.00  0.00     0.000 G0
ENDBRANCH   4   6
ENDBRANCH   2   4
BRANCH   3   8
ATOM      8  C   UNL     1      -5.396 -13.132  -6.682  1.00  0.00    -0.003 C 
ATOM      9  C   UNL     1      -4.940 -12.192  -7.519  1.00  0.00    -0.020 C 
BRANCH   9  10
ATOM     10  C   UNL     1      -3.563 -12.131  -8.137  1.00  0.00    -0.010 CG0
ATOM     11  C   UNL     1      -3.401 -10.819  -8.937  1.00  0.00     0.016 C 
ATOM     12  C   UNL     1      -3.421 -13.312  -9.125  1.00  0.00     0.016 C 
ATOM     13  G   UNL     1      -2.491 -12.295  -7.036  1.00  0.00     0.000 G0
ENDBRANCH   9  10
ENDBRANCH   3   8
TORSDOF 0
ENDMDL
