MODEL 1
REMARK VINA RESULT:    -4.288      0.000      0.000
REMARK INTER + INTRA:          -6.395
REMARK INTER:                  -5.792
REMARK INTRA:                  -0.603
REMARK UNBOUND:                -0.603
REMARK SMILES CCCCCCCC(=O)[O-]
REMARK SMILES IDX 5 1 6 2 7 3 8 4 9 5 10 6 4 7 3 8 2 9 1 10
REMARK H PARENT
REMARK Flexibility Score: inf
ROOT
ATOM      1  C   UNL     1     133.566 135.598 114.986  1.00  0.00     0.000 C 
ENDROOT
BRANCH   1   2
ATOM      2  C   UNL     1     134.447 136.471 115.899  1.00  0.00     0.006 C 
BRANCH   2   3
ATOM      3  C   UNL     1     135.014 135.681 117.085  1.00  0.00     0.053 C 
BRANCH   3   4
ATOM      4  C   UNL     1     136.512 135.668 117.078  1.00  0.00     0.041 C 
ATOM      5  O   UNL     1     137.144 136.045 116.055  1.00  0.00    -0.550 OA
ATOM      6  O   UNL     1     137.212 135.275 118.211  1.00  0.00    -0.550 OA
ENDBRANCH   3   4
ENDBRANCH   2   3
ENDBRANCH   1   2
BRANCH   1   7
ATOM      7  C   UNL     1     133.636 134.106 115.348  1.00  0.00     0.000 C 
BRANCH   7   8
ATOM      8  C   UNL     1     134.205 133.248 114.209  1.00  0.00    -0.000 C 
BRANCH   8   9
ATOM      9  C   UNL     1     135.703 133.518 114.015  1.00  0.00    -0.003 C 
ATOM     10  C   UNL     1     136.545 132.659 114.953  1.00  0.00     0.004 C 
ENDBRANCH   8   9
ENDBRANCH   7   8
ENDBRANCH   1   7
TORSDOF 6
ENDMDL
MODEL 2
REMARK VINA RESULT:    -4.272      7.863      9.550
REMARK INTER + INTRA:          -6.374
REMARK INTER:                  -5.763
REMARK INTRA:                  -0.611
REMARK UNBOUND:                -0.603
REMARK SMILES CCCCCCCC(=O)[O-]
REMARK SMILES IDX 5 1 6 2 7 3 8 4 9 5 10 6 4 7 3 8 2 9 1 10
REMARK H PARENT
REMARK Flexibility Score: inf
ROOT
ATOM      1  C   UNL     1     142.628 140.756 114.944  1.00  0.00     0.000 C 
ENDROOT
BRANCH   1   2
ATOM      2  C   UNL     1     142.036 139.933 116.102  1.00  0.00     0.006 C 
BRANCH   2   3
ATOM      3  C   UNL     1     141.415 140.822 117.187  1.00  0.00     0.053 C 
BRANCH   3   4
ATOM      4  C   UNL     1     139.919 140.816 117.120  1.00  0.00     0.041 C 
ATOM      5  O   UNL     1     139.332 140.342 116.112  1.00  0.00    -0.550 OA
ATOM      6  O   UNL     1     139.171 141.302 118.185  1.00  0.00    -0.550 OA
ENDBRANCH   3   4
ENDBRANCH   2   3
ENDBRANCH   1   2
BRANCH   1   7
ATOM      7  C   UNL     1     142.835 142.234 115.313  1.00  0.00     0.000 C 
BRANCH   7   8
ATOM      8  C   UNL     1     142.252 143.192 114.265  1.00  0.00    -0.000 C 
BRANCH   8   9
ATOM      9  C   UNL     1     140.752 142.940 114.066  1.00  0.00    -0.003 C 
ATOM     10  C   UNL     1     139.917 143.829 114.983  1.00  0.00     0.004 C 
ENDBRANCH   8   9
ENDBRANCH   7   8
ENDBRANCH   1   7
TORSDOF 6
ENDMDL
MODEL 3
REMARK VINA RESULT:    -4.254      9.332     10.148
REMARK INTER + INTRA:          -6.349
REMARK INTER:                  -5.828
REMARK INTRA:                  -0.521
REMARK UNBOUND:                -0.603
REMARK SMILES CCCCCCCC(=O)[O-]
REMARK SMILES IDX 5 1 6 2 7 3 8 4 9 5 10 6 4 7 3 8 2 9 1 10
REMARK H PARENT
REMARK Flexibility Score: inf
ROOT
ATOM      1  C   UNL     1     142.908 142.591 115.178  1.00  0.00     0.000 C 
ENDROOT
BRANCH   1   2
ATOM      2  C   UNL     1     141.910 143.308 114.251  1.00  0.00     0.006 C 
BRANCH   2   3
ATOM      3  C   UNL     1     140.506 142.695 114.326  1.00  0.00     0.053 C 
BRANCH   3   4
ATOM      4  C   UNL     1     139.787 143.103 115.575  1.00  0.00     0.041 C 
ATOM      5  O   UNL     1     139.228 144.229 115.644  1.00  0.00    -0.550 OA
ATOM      6  O   UNL     1     139.704 142.227 116.649  1.00  0.00    -0.550 OA
ENDBRANCH   3   4
ENDBRANCH   2   3
ENDBRANCH   1   2
BRANCH   1   7
ATOM      7  C   UNL     1     142.978 141.078 114.915  1.00  0.00     0.000 C 
BRANCH   7   8
ATOM      8  C   UNL     1     143.983 140.716 113.812  1.00  0.00    -0.000 C 
BRANCH   8   9
ATOM      9  C   UNL     1     143.298 139.942 112.679  1.00  0.00    -0.003 C 
ATOM     10  C   UNL     1     142.692 140.890 111.650  1.00  0.00     0.004 C 
ENDBRANCH   8   9
ENDBRANCH   7   8
ENDBRANCH   1   7
TORSDOF 6
ENDMDL
MODEL 4
REMARK VINA RESULT:    -4.253      1.877      3.321
REMARK INTER + INTRA:          -6.347
REMARK INTER:                  -5.801
REMARK INTRA:                  -0.547
REMARK UNBOUND:                -0.603
REMARK SMILES CCCCCCCC(=O)[O-]
REMARK SMILES IDX 5 1 6 2 7 3 8 4 9 5 10 6 4 7 3 8 2 9 1 10
REMARK H PARENT
REMARK Flexibility Score: inf
ROOT
ATOM      1  C   UNL     1     133.636 133.808 114.926  1.00  0.00     0.000 C 
ENDROOT
BRANCH   1   2
ATOM      2  C   UNL     1     134.793 133.376 114.006  1.00  0.00     0.006 C 
BRANCH   2   3
ATOM      3  C   UNL     1     136.123 134.028 114.404  1.00  0.00     0.053 C 
BRANCH   3   4
ATOM      4  C   UNL     1     136.674 133.442 115.668  1.00  0.00     0.041 C 
ATOM      5  O   UNL     1     137.173 132.286 115.664  1.00  0.00    -0.550 OA
ATOM      6  O   UNL     1     136.667 134.184 116.842  1.00  0.00    -0.550 OA
ENDBRANCH   3   4
ENDBRANCH   2   3
ENDBRANCH   1   2
BRANCH   1   7
ATOM      7  C   UNL     1     133.466 135.334 114.987  1.00  0.00     0.000 C 
BRANCH   7   8
ATOM      8  C   UNL     1     132.378 135.845 114.031  1.00  0.00    -0.000 C 
BRANCH   8   9
ATOM      9  C   UNL     1     132.999 136.420 112.751  1.00  0.00    -0.003 C 
ATOM     10  C   UNL     1     134.300 137.158 113.051  1.00  0.00     0.004 C 
ENDBRANCH   8   9
ENDBRANCH   7   8
ENDBRANCH   1   7
TORSDOF 6
ENDMDL
MODEL 5
REMARK VINA RESULT:    -4.210      1.475      2.756
REMARK INTER + INTRA:          -6.289
REMARK INTER:                  -5.785
REMARK INTRA:                  -0.504
REMARK UNBOUND:                -0.603
REMARK SMILES CCCCCCCC(=O)[O-]
REMARK SMILES IDX 5 1 6 2 7 3 8 4 9 5 10 6 4 7 3 8 2 9 1 10
REMARK H PARENT
REMARK Flexibility Score: inf
ROOT
ATOM      1  C   UNL     1     135.920 134.585 114.343  1.00  0.00     0.000 C 
ENDROOT
BRANCH   1   2
ATOM      2  C   UNL     1     136.841 134.466 115.571  1.00  0.00     0.006 C 
BRANCH   2   3
ATOM      3  C   UNL     1     136.731 135.684 116.497  1.00  0.00     0.053 C 
BRANCH   3   4
ATOM      4  C   UNL     1     136.205 135.308 117.849  1.00  0.00     0.041 C 
ATOM      5  O   UNL     1     135.495 134.278 117.988  1.00  0.00    -0.550 OA
ATOM      6  O   UNL     1     136.528 136.076 118.961  1.00  0.00    -0.550 OA
ENDBRANCH   3   4
ENDBRANCH   2   3
ENDBRANCH   1   2
BRANCH   1   7
ATOM      7  C   UNL     1     134.844 133.489 114.301  1.00  0.00     0.000 C 
BRANCH   7   8
ATOM      8  C   UNL     1     133.550 133.904 115.016  1.00  0.00    -0.000 C 
BRANCH   8   9
ATOM      9  C   UNL     1     133.312 135.414 114.886  1.00  0.00    -0.003 C 
ATOM     10  C   UNL     1     132.216 135.715 113.869  1.00  0.00     0.004 C 
ENDBRANCH   8   9
ENDBRANCH   7   8
ENDBRANCH   1   7
TORSDOF 6
ENDMDL
MODEL 6
REMARK VINA RESULT:    -4.199      8.552      9.864
REMARK INTER + INTRA:          -6.275
REMARK INTER:                  -5.855
REMARK INTRA:                  -0.420
REMARK UNBOUND:                -0.603
REMARK SMILES CCCCCCCC(=O)[O-]
REMARK SMILES IDX 5 1 6 2 7 3 8 4 9 5 10 6 4 7 3 8 2 9 1 10
REMARK H PARENT
REMARK Flexibility Score: inf
ROOT
ATOM      1  C   UNL     1     142.837 142.115 115.198  1.00  0.00     0.000 C 
ENDROOT
BRANCH   1   2
ATOM      2  C   UNL     1     142.196 143.207 114.321  1.00  0.00     0.006 C 
BRANCH   2   3
ATOM      3  C   UNL     1     140.701 142.959 114.087  1.00  0.00     0.053 C 
BRANCH   3   4
ATOM      4  C   UNL     1     139.865 143.507 115.203  1.00  0.00     0.041 C 
ATOM      5  O   UNL     1     139.564 142.779 116.185  1.00  0.00    -0.550 OA
ATOM      6  O   UNL     1     139.448 144.832 115.176  1.00  0.00    -0.550 OA
ENDBRANCH   3   4
ENDBRANCH   2   3
ENDBRANCH   1   2
BRANCH   1   7
ATOM      7  C   UNL     1     142.531 140.697 114.692  1.00  0.00     0.000 C 
BRANCH   7   8
ATOM      8  C   UNL     1     141.641 139.904 115.660  1.00  0.00    -0.000 C 
BRANCH   8   9
ATOM      9  C   UNL     1     142.276 139.832 117.055  1.00  0.00    -0.003 C 
ATOM     10  C   UNL     1     141.325 140.364 118.123  1.00  0.00     0.004 C 
ENDBRANCH   8   9
ENDBRANCH   7   8
ENDBRANCH   1   7
TORSDOF 6
ENDMDL
MODEL 7
REMARK VINA RESULT:    -4.132      1.427      2.435
REMARK INTER + INTRA:          -6.184
REMARK INTER:                  -5.541
REMARK INTRA:                  -0.643
REMARK UNBOUND:                -0.603
REMARK SMILES CCCCCCCC(=O)[O-]
REMARK SMILES IDX 5 1 6 2 7 3 8 4 9 5 10 6 4 7 3 8 2 9 1 10
REMARK H PARENT
REMARK Flexibility Score: inf
ROOT
ATOM      1  C   UNL     1     135.614 136.676 115.491  1.00  0.00     0.000 C 
ENDROOT
BRANCH   1   2
ATOM      2  C   UNL     1     136.916 135.865 115.359  1.00  0.00     0.006 C 
BRANCH   2   3
ATOM      3  C   UNL     1     136.835 134.516 116.084  1.00  0.00     0.053 C 
BRANCH   3   4
ATOM      4  C   UNL     1     136.403 134.676 117.509  1.00  0.00     0.041 C 
ATOM      5  O   UNL     1     137.169 135.226 118.345  1.00  0.00    -0.550 OA
ATOM      6  O   UNL     1     135.143 134.250 117.908  1.00  0.00    -0.550 OA
ENDBRANCH   3   4
ENDBRANCH   2   3
ENDBRANCH   1   2
BRANCH   1   7
ATOM      7  C   UNL     1     134.593 136.338 114.394  1.00  0.00     0.000 C 
BRANCH   7   8
ATOM      8  C   UNL     1     133.337 135.651 114.949  1.00  0.00    -0.000 C 
BRANCH   8   9
ATOM      9  C   UNL     1     133.396 134.135 114.724  1.00  0.00    -0.003 C 
ATOM     10  C   UNL     1     134.248 133.790 113.507  1.00  0.00     0.004 C 
ENDBRANCH   8   9
ENDBRANCH   7   8
ENDBRANCH   1   7
TORSDOF 6
ENDMDL
MODEL 8
REMARK VINA RESULT:    -4.094      8.507      9.630
REMARK INTER + INTRA:          -6.133
REMARK INTER:                  -5.628
REMARK INTRA:                  -0.505
REMARK UNBOUND:                -0.603
REMARK SMILES CCCCCCCC(=O)[O-]
REMARK SMILES IDX 5 1 6 2 7 3 8 4 9 5 10 6 4 7 3 8 2 9 1 10
REMARK H PARENT
REMARK Flexibility Score: inf
ROOT
ATOM      1  C   UNL     1     142.838 142.192 115.301  1.00  0.00     0.000 C 
ENDROOT
BRANCH   1   2
ATOM      2  C   UNL     1     142.387 140.721 115.344  1.00  0.00     0.006 C 
BRANCH   2   3
ATOM      3  C   UNL     1     141.821 140.327 116.714  1.00  0.00     0.053 C 
BRANCH   3   4
ATOM      4  C   UNL     1     140.640 141.170 117.090  1.00  0.00     0.041 C 
ATOM      5  O   UNL     1     139.537 141.012 116.504  1.00  0.00    -0.550 OA
ATOM      6  O   UNL     1     140.748 142.105 118.112  1.00  0.00    -0.550 OA
ENDBRANCH   3   4
ENDBRANCH   2   3
ENDBRANCH   1   2
BRANCH   1   7
ATOM      7  C   UNL     1     142.320 142.935 114.060  1.00  0.00     0.000 C 
BRANCH   7   8
ATOM      8  C   UNL     1     140.999 142.355 113.534  1.00  0.00    -0.000 C 
BRANCH   8   9
ATOM      9  C   UNL     1     141.071 142.109 112.022  1.00  0.00    -0.003 C 
ATOM     10  C   UNL     1     142.343 141.355 111.645  1.00  0.00     0.004 C 
ENDBRANCH   8   9
ENDBRANCH   7   8
ENDBRANCH   1   7
TORSDOF 6
ENDMDL
MODEL 9
REMARK VINA RESULT:    -4.066      8.304      9.349
REMARK INTER + INTRA:          -6.095
REMARK INTER:                  -5.856
REMARK INTRA:                  -0.239
REMARK UNBOUND:                -0.603
REMARK SMILES CCCCCCCC(=O)[O-]
REMARK SMILES IDX 5 1 6 2 7 3 8 4 9 5 10 6 4 7 3 8 2 9 1 10
REMARK H PARENT
REMARK Flexibility Score: inf
ROOT
ATOM      1  C   UNL     1     140.099 141.871 115.620  1.00  0.00     0.000 C 
ENDROOT
BRANCH   1   2
ATOM      2  C   UNL     1     140.217 142.232 117.112  1.00  0.00     0.006 C 
BRANCH   2   3
ATOM      3  C   UNL     1     139.554 141.184 118.015  1.00  0.00     0.053 C 
BRANCH   3   4
ATOM      4  C   UNL     1     140.479 140.722 119.100  1.00  0.00     0.041 C 
ATOM      5  O   UNL     1     141.674 140.431 118.831  1.00  0.00    -0.550 OA
ATOM      6  O   UNL     1     140.031 140.645 120.412  1.00  0.00    -0.550 OA
ENDBRANCH   3   4
ENDBRANCH   2   3
ENDBRANCH   1   2
BRANCH   1   7
ATOM      7  C   UNL     1     140.350 143.075 114.698  1.00  0.00     0.000 C 
BRANCH   7   8
ATOM      8  C   UNL     1     141.607 142.905 113.833  1.00  0.00    -0.000 C 
BRANCH   8   9
ATOM      9  C   UNL     1     142.843 142.656 114.705  1.00  0.00    -0.003 C 
ATOM     10  C   UNL     1     143.643 141.459 114.201  1.00  0.00     0.004 C 
ENDBRANCH   8   9
ENDBRANCH   7   8
ENDBRANCH   1   7
TORSDOF 6
ENDMDL
