MODEL 1
REMARK VINA RESULT:    -4.418      0.000      0.000
REMARK INTER + INTRA:          -6.132
REMARK INTER:                  -5.581
REMARK INTRA:                  -0.551
REMARK UNBOUND:                -0.551
REMARK SMILES Oc1ccc(CCc2cc(O)cc(O)c2)cc1
REMARK SMILES IDX 6 1 5 2 4 3 3 4 2 5 16 6 17 7 1 8 7 10 8 11 15 12 9 13 13 14
REMARK SMILES IDX 10 15 12 16 14 17 11 19
REMARK H PARENT 1 9 14 18 11 20
REMARK Flexibility Score: inf
ROOT
ATOM      1  C   UNL     1     -25.305  51.747  41.821  1.00  0.00     0.040 C 
ENDROOT
BRANCH   1   2
ATOM      2  C   UNL     1     -25.766  52.712  42.879  1.00  0.00    -0.047 A 
ATOM      3  C   UNL     1     -26.734  52.324  43.818  1.00  0.00     0.007 A 
ATOM      4  C   UNL     1     -27.140  53.210  44.821  1.00  0.00     0.046 A 
ATOM      5  C   UNL     1     -26.575  54.487  44.902  1.00  0.00     0.115 A 
ATOM      6  C   UNL     1     -25.192  53.991  42.970  1.00  0.00     0.007 A 
ATOM      7  C   UNL     1     -25.599  54.875  43.974  1.00  0.00     0.046 A 
BRANCH   5   8
ATOM      8  O   UNL     1     -26.988  55.360  45.906  1.00  0.00    -0.508 OA
ATOM      9  H   UNL     1     -26.431  55.512  46.738  1.00  0.00     0.293 HD
ENDBRANCH   5   8
ENDBRANCH   1   2
BRANCH   1  10
ATOM     10  C   UNL     1     -25.218  50.327  42.390  1.00  0.00     0.040 C 
BRANCH  10  11
ATOM     11  C   UNL     1     -26.250  49.437  41.748  1.00  0.00    -0.040 A 
ATOM     12  C   UNL     1     -26.686  48.274  42.402  1.00  0.00     0.050 A 
ATOM     13  C   UNL     1     -26.824  49.793  40.518  1.00  0.00     0.050 A 
ATOM     14  C   UNL     1     -27.669  47.462  41.822  1.00  0.00     0.119 A 
ATOM     15  C   UNL     1     -27.808  48.982  39.936  1.00  0.00     0.119 A 
ATOM     16  C   UNL     1     -28.226  47.817  40.588  1.00  0.00     0.092 A 
BRANCH  14  17
ATOM     17  O   UNL     1     -28.102  46.303  42.461  1.00  0.00    -0.508 OA
ATOM     18  H   UNL     1     -28.965  46.283  42.994  1.00  0.00     0.293 HD
ENDBRANCH  14  17
BRANCH  15  19
ATOM     19  O   UNL     1     -28.378  49.325  38.712  1.00  0.00    -0.508 OA
ATOM     20  H   UNL     1     -29.017  50.106  38.625  1.00  0.00     0.293 HD
ENDBRANCH  15  19
ENDBRANCH  10  11
ENDBRANCH   1  10
TORSDOF 6
ENDMDL
MODEL 2
REMARK VINA RESULT:    -4.416      0.037      2.030
REMARK INTER + INTRA:          -6.128
REMARK INTER:                  -5.596
REMARK INTRA:                  -0.532
REMARK UNBOUND:                -0.551
REMARK SMILES Oc1ccc(CCc2cc(O)cc(O)c2)cc1
REMARK SMILES IDX 6 1 5 2 4 3 3 4 2 5 16 6 17 7 1 8 7 10 8 11 15 12 9 13 13 14
REMARK SMILES IDX 10 15 12 16 14 17 11 19
REMARK H PARENT 1 9 14 18 11 20
REMARK Flexibility Score: inf
ROOT
ATOM      1  C   UNL     1     -25.285  51.768  41.836  1.00  0.00     0.040 C 
ENDROOT
BRANCH   1   2
ATOM      2  C   UNL     1     -25.759  52.725  42.897  1.00  0.00    -0.047 A 
ATOM      3  C   UNL     1     -26.733  52.326  43.827  1.00  0.00     0.007 A 
ATOM      4  C   UNL     1     -27.149  53.202  44.833  1.00  0.00     0.046 A 
ATOM      5  C   UNL     1     -26.592  54.482  44.926  1.00  0.00     0.115 A 
ATOM      6  C   UNL     1     -25.191  54.005  43.001  1.00  0.00     0.007 A 
ATOM      7  C   UNL     1     -25.610  54.881  44.008  1.00  0.00     0.046 A 
BRANCH   5   8
ATOM      8  O   UNL     1     -27.016  55.347  45.932  1.00  0.00    -0.508 OA
ATOM      9  H   UNL     1     -27.964  55.703  45.960  1.00  0.00     0.293 HD
ENDBRANCH   5   8
ENDBRANCH   1   2
BRANCH   1  10
ATOM     10  C   UNL     1     -25.199  50.345  42.395  1.00  0.00     0.040 C 
BRANCH  10  11
ATOM     11  C   UNL     1     -26.267  49.474  41.788  1.00  0.00    -0.040 A 
ATOM     12  C   UNL     1     -26.819  49.798  40.538  1.00  0.00     0.050 A 
ATOM     13  C   UNL     1     -26.678  48.300  42.439  1.00  0.00     0.050 A 
ATOM     14  C   UNL     1     -27.789  48.971  39.957  1.00  0.00     0.119 A 
ATOM     15  C   UNL     1     -27.648  47.472  41.858  1.00  0.00     0.119 A 
ATOM     16  C   UNL     1     -28.203  47.811  40.620  1.00  0.00     0.092 A 
BRANCH  14  17
ATOM     17  O   UNL     1     -28.346  49.290  38.720  1.00  0.00    -0.508 OA
ATOM     18  H   UNL     1     -28.130  48.752  37.888  1.00  0.00     0.293 HD
ENDBRANCH  14  17
BRANCH  15  19
ATOM     19  O   UNL     1     -28.066  46.310  42.502  1.00  0.00    -0.508 OA
ATOM     20  H   UNL     1     -28.709  45.661  42.062  1.00  0.00     0.293 HD
ENDBRANCH  15  19
ENDBRANCH  10  11
ENDBRANCH   1  10
TORSDOF 6
ENDMDL
MODEL 3
REMARK VINA RESULT:    -4.362      1.702      6.313
REMARK INTER + INTRA:          -6.061
REMARK INTER:                  -5.485
REMARK INTRA:                  -0.575
REMARK UNBOUND:                -0.551
REMARK SMILES Oc1ccc(CCc2cc(O)cc(O)c2)cc1
REMARK SMILES IDX 6 1 5 2 4 3 3 4 2 5 16 6 17 7 1 8 7 10 8 11 15 12 9 13 13 14
REMARK SMILES IDX 10 15 12 16 14 17 11 19
REMARK H PARENT 1 9 14 18 11 20
REMARK Flexibility Score: inf
ROOT
ATOM      1  C   UNL     1     -25.599  49.249  42.000  1.00  0.00     0.040 C 
ENDROOT
BRANCH   1   2
ATOM      2  C   UNL     1     -26.774  48.676  41.255  1.00  0.00    -0.047 A 
ATOM      3  C   UNL     1     -27.487  47.589  41.785  1.00  0.00     0.007 A 
ATOM      4  C   UNL     1     -28.599  47.077  41.110  1.00  0.00     0.046 A 
ATOM      5  C   UNL     1     -29.016  47.652  39.904  1.00  0.00     0.115 A 
ATOM      6  C   UNL     1     -27.203  49.259  40.052  1.00  0.00     0.007 A 
ATOM      7  C   UNL     1     -28.315  48.746  39.377  1.00  0.00     0.046 A 
BRANCH   5   8
ATOM      8  O   UNL     1     -30.124  47.132  39.240  1.00  0.00    -0.508 OA
ATOM      9  H   UNL     1     -30.806  46.557  39.719  1.00  0.00     0.293 HD
ENDBRANCH   5   8
ENDBRANCH   1   2
BRANCH   1  10
ATOM     10  C   UNL     1     -26.036  49.777  43.370  1.00  0.00     0.040 C 
BRANCH  10  11
ATOM     11  C   UNL     1     -26.089  51.282  43.363  1.00  0.00    -0.040 A 
ATOM     12  C   UNL     1     -26.477  51.981  44.517  1.00  0.00     0.050 A 
ATOM     13  C   UNL     1     -25.698  51.999  42.221  1.00  0.00     0.050 A 
ATOM     14  C   UNL     1     -26.495  53.383  44.522  1.00  0.00     0.119 A 
ATOM     15  C   UNL     1     -25.716  53.400  42.226  1.00  0.00     0.119 A 
ATOM     16  C   UNL     1     -26.117  54.088  43.375  1.00  0.00     0.092 A 
BRANCH  14  17
ATOM     17  O   UNL     1     -26.885  54.084  45.661  1.00  0.00    -0.508 OA
ATOM     18  H   UNL     1     -26.858  53.657  46.581  1.00  0.00     0.293 HD
ENDBRANCH  14  17
BRANCH  15  19
ATOM     19  O   UNL     1     -25.336  54.118  41.094  1.00  0.00    -0.508 OA
ATOM     20  H   UNL     1     -25.980  54.284  40.330  1.00  0.00     0.293 HD
ENDBRANCH  15  19
ENDBRANCH  10  11
ENDBRANCH   1  10
TORSDOF 6
ENDMDL
MODEL 4
REMARK VINA RESULT:    -4.362      1.720      6.614
REMARK INTER + INTRA:          -6.060
REMARK INTER:                  -5.502
REMARK INTRA:                  -0.558
REMARK UNBOUND:                -0.551
REMARK SMILES Oc1ccc(CCc2cc(O)cc(O)c2)cc1
REMARK SMILES IDX 6 1 5 2 4 3 3 4 2 5 16 6 17 7 1 8 7 10 8 11 15 12 9 13 13 14
REMARK SMILES IDX 10 15 12 16 14 17 11 19
REMARK H PARENT 1 9 14 18 11 20
REMARK Flexibility Score: inf
ROOT
ATOM      1  C   UNL     1     -25.627  49.165  42.081  1.00  0.00     0.040 C 
ENDROOT
BRANCH   1   2
ATOM      2  C   UNL     1     -26.830  48.644  41.343  1.00  0.00    -0.047 A 
ATOM      3  C   UNL     1     -27.246  49.253  40.148  1.00  0.00     0.007 A 
ATOM      4  C   UNL     1     -28.345  48.749  39.445  1.00  0.00     0.046 A 
ATOM      5  C   UNL     1     -29.032  47.627  39.923  1.00  0.00     0.115 A 
ATOM      6  C   UNL     1     -27.513  47.510  41.813  1.00  0.00     0.007 A 
ATOM      7  C   UNL     1     -28.612  47.008  41.108  1.00  0.00     0.046 A 
BRANCH   5   8
ATOM      8  O   UNL     1     -30.125  47.136  39.213  1.00  0.00    -0.508 OA
ATOM      9  H   UNL     1     -30.040  46.839  38.248  1.00  0.00     0.293 HD
ENDBRANCH   5   8
ENDBRANCH   1   2
BRANCH   1  10
ATOM     10  C   UNL     1     -26.036  49.732  43.444  1.00  0.00     0.040 C 
BRANCH  10  11
ATOM     11  C   UNL     1     -26.041  51.237  43.410  1.00  0.00    -0.040 A 
ATOM     12  C   UNL     1     -25.654  51.920  42.246  1.00  0.00     0.050 A 
ATOM     13  C   UNL     1     -26.485  51.969  44.523  1.00  0.00     0.050 A 
ATOM     14  C   UNL     1     -25.689  53.320  42.202  1.00  0.00     0.119 A 
ATOM     15  C   UNL     1     -26.521  53.369  44.480  1.00  0.00     0.119 A 
ATOM     16  C   UNL     1     -26.120  54.041  43.321  1.00  0.00     0.092 A 
BRANCH  14  17
ATOM     17  O   UNL     1     -25.300  54.005  41.053  1.00  0.00    -0.508 OA
ATOM     18  H   UNL     1     -25.535  54.981  40.914  1.00  0.00     0.293 HD
ENDBRANCH  14  17
BRANCH  15  19
ATOM     19  O   UNL     1     -26.954  54.102  45.582  1.00  0.00    -0.508 OA
ATOM     20  H   UNL     1     -26.522  54.983  45.837  1.00  0.00     0.293 HD
ENDBRANCH  15  19
ENDBRANCH  10  11
ENDBRANCH   1  10
TORSDOF 6
ENDMDL
MODEL 5
REMARK VINA RESULT:    -3.954      1.402      6.599
REMARK INTER + INTRA:          -5.545
REMARK INTER:                  -5.051
REMARK INTRA:                  -0.495
REMARK UNBOUND:                -0.551
REMARK SMILES Oc1ccc(CCc2cc(O)cc(O)c2)cc1
REMARK SMILES IDX 6 1 5 2 4 3 3 4 2 5 16 6 17 7 1 8 7 10 8 11 15 12 9 13 13 14
REMARK SMILES IDX 10 15 12 16 14 17 11 19
REMARK H PARENT 1 9 14 18 11 20
REMARK Flexibility Score: inf
ROOT
ATOM      1  C   UNL     1     -25.401  50.305  42.625  1.00  0.00     0.040 C 
ENDROOT
BRANCH   1   2
ATOM      2  C   UNL     1     -26.358  49.459  41.829  1.00  0.00    -0.047 A 
ATOM      3  C   UNL     1     -26.806  48.229  42.335  1.00  0.00     0.007 A 
ATOM      4  C   UNL     1     -27.720  47.458  41.610  1.00  0.00     0.046 A 
ATOM      5  C   UNL     1     -28.203  47.913  40.378  1.00  0.00     0.115 A 
ATOM      6  C   UNL     1     -26.855  49.920  40.598  1.00  0.00     0.007 A 
ATOM      7  C   UNL     1     -27.769  49.147  39.875  1.00  0.00     0.046 A 
BRANCH   5   8
ATOM      8  O   UNL     1     -29.113  47.136  39.666  1.00  0.00    -0.508 OA
ATOM      9  H   UNL     1     -29.694  46.446  40.126  1.00  0.00     0.293 HD
ENDBRANCH   5   8
ENDBRANCH   1   2
BRANCH   1  10
ATOM     10  C   UNL     1     -26.093  50.878  43.865  1.00  0.00     0.040 C 
BRANCH  10  11
ATOM     11  C   UNL     1     -25.941  52.375  43.911  1.00  0.00    -0.040 A 
ATOM     12  C   UNL     1     -26.678  53.133  44.834  1.00  0.00     0.050 A 
ATOM     13  C   UNL     1     -25.021  53.019  43.069  1.00  0.00     0.050 A 
ATOM     14  C   UNL     1     -26.514  54.523  44.900  1.00  0.00     0.119 A 
ATOM     15  C   UNL     1     -24.855  54.409  43.134  1.00  0.00     0.119 A 
ATOM     16  C   UNL     1     -25.604  55.158  44.047  1.00  0.00     0.092 A 
BRANCH  14  17
ATOM     17  O   UNL     1     -27.247  55.284  45.808  1.00  0.00    -0.508 OA
ATOM     18  H   UNL     1     -28.221  55.512  45.643  1.00  0.00     0.293 HD
ENDBRANCH  14  17
BRANCH  15  19
ATOM     19  O   UNL     1     -23.948  55.055  42.297  1.00  0.00    -0.508 OA
ATOM     20  H   UNL     1     -24.045  56.038  42.069  1.00  0.00     0.293 HD
ENDBRANCH  15  19
ENDBRANCH  10  11
ENDBRANCH   1  10
TORSDOF 6
ENDMDL
MODEL 6
REMARK VINA RESULT:    -3.931      1.367      6.891
REMARK INTER + INTRA:          -5.515
REMARK INTER:                  -5.054
REMARK INTRA:                  -0.461
REMARK UNBOUND:                -0.551
REMARK SMILES Oc1ccc(CCc2cc(O)cc(O)c2)cc1
REMARK SMILES IDX 6 1 5 2 4 3 3 4 2 5 16 6 17 7 1 8 7 10 8 11 15 12 9 13 13 14
REMARK SMILES IDX 10 15 12 16 14 17 11 19
REMARK H PARENT 1 9 14 18 11 20
REMARK Flexibility Score: inf
ROOT
ATOM      1  C   UNL     1     -25.409  50.765  42.831  1.00  0.00     0.040 C 
ENDROOT
BRANCH   1   2
ATOM      2  C   UNL     1     -26.241  49.781  42.053  1.00  0.00    -0.047 A 
ATOM      3  C   UNL     1     -26.558  48.530  42.605  1.00  0.00     0.007 A 
ATOM      4  C   UNL     1     -27.357  47.628  41.896  1.00  0.00     0.046 A 
ATOM      5  C   UNL     1     -27.856  47.971  40.634  1.00  0.00     0.115 A 
ATOM      6  C   UNL     1     -26.753  50.128  40.792  1.00  0.00     0.007 A 
ATOM      7  C   UNL     1     -27.552  49.224  40.084  1.00  0.00     0.046 A 
BRANCH   5   8
ATOM      8  O   UNL     1     -28.650  47.063  39.938  1.00  0.00    -0.508 OA
ATOM      9  H   UNL     1     -29.487  47.358  39.448  1.00  0.00     0.293 HD
ENDBRANCH   5   8
ENDBRANCH   1   2
BRANCH   1  10
ATOM     10  C   UNL     1     -26.175  51.261  44.061  1.00  0.00     0.040 C 
BRANCH  10  11
ATOM     11  C   UNL     1     -26.001  52.748  44.227  1.00  0.00    -0.040 A 
ATOM     12  C   UNL     1     -25.206  53.472  43.324  1.00  0.00     0.050 A 
ATOM     13  C   UNL     1     -26.675  53.429  45.252  1.00  0.00     0.050 A 
ATOM     14  C   UNL     1     -25.069  54.860  43.458  1.00  0.00     0.119 A 
ATOM     15  C   UNL     1     -26.539  54.818  45.387  1.00  0.00     0.119 A 
ATOM     16  C   UNL     1     -25.735  55.529  44.492  1.00  0.00     0.092 A 
BRANCH  14  17
ATOM     17  O   UNL     1     -24.278  55.586  42.571  1.00  0.00    -0.508 OA
ATOM     18  H   UNL     1     -23.272  55.463  42.537  1.00  0.00     0.293 HD
ENDBRANCH  14  17
BRANCH  15  19
ATOM     19  O   UNL     1     -27.201  55.500  46.406  1.00  0.00    -0.508 OA
ATOM     20  H   UNL     1     -26.693  55.945  47.162  1.00  0.00     0.293 HD
ENDBRANCH  15  19
ENDBRANCH  10  11
ENDBRANCH   1  10
TORSDOF 6
ENDMDL
MODEL 7
REMARK VINA RESULT:    -3.675      1.498      2.899
REMARK INTER + INTRA:          -5.193
REMARK INTER:                  -4.640
REMARK INTRA:                  -0.552
REMARK UNBOUND:                -0.551
REMARK SMILES Oc1ccc(CCc2cc(O)cc(O)c2)cc1
REMARK SMILES IDX 6 1 5 2 4 3 3 4 2 5 16 6 17 7 1 8 7 10 8 11 15 12 9 13 13 14
REMARK SMILES IDX 10 15 12 16 14 17 11 19
REMARK H PARENT 1 9 14 18 11 20
REMARK Flexibility Score: inf
ROOT
ATOM      1  C   UNL     1     -24.022  52.498  43.562  1.00  0.00     0.040 C 
ENDROOT
BRANCH   1   2
ATOM      2  C   UNL     1     -24.820  53.342  44.520  1.00  0.00    -0.047 A 
ATOM      3  C   UNL     1     -25.597  54.409  44.045  1.00  0.00     0.007 A 
ATOM      4  C   UNL     1     -26.363  55.173  44.930  1.00  0.00     0.046 A 
ATOM      5  C   UNL     1     -26.368  54.873  46.296  1.00  0.00     0.115 A 
ATOM      6  C   UNL     1     -24.837  53.034  45.890  1.00  0.00     0.007 A 
ATOM      7  C   UNL     1     -25.604  53.799  46.774  1.00  0.00     0.046 A 
BRANCH   5   8
ATOM      8  O   UNL     1     -27.136  55.642  47.168  1.00  0.00    -0.508 OA
ATOM      9  H   UNL     1     -27.642  56.458  46.847  1.00  0.00     0.293 HD
ENDBRANCH   5   8
ENDBRANCH   1   2
BRANCH   1  10
ATOM     10  C   UNL     1     -24.695  52.465  42.187  1.00  0.00     0.040 C 
BRANCH  10  11
ATOM     11  C   UNL     1     -25.473  51.188  42.009  1.00  0.00    -0.040 A 
ATOM     12  C   UNL     1     -26.004  50.852  40.754  1.00  0.00     0.050 A 
ATOM     13  C   UNL     1     -25.625  50.297  43.084  1.00  0.00     0.050 A 
ATOM     14  C   UNL     1     -26.701  49.648  40.580  1.00  0.00     0.119 A 
ATOM     15  C   UNL     1     -26.320  49.092  42.910  1.00  0.00     0.119 A 
ATOM     16  C   UNL     1     -26.859  48.773  41.660  1.00  0.00     0.092 A 
BRANCH  14  17
ATOM     17  O   UNL     1     -27.237  49.311  39.339  1.00  0.00    -0.508 OA
ATOM     18  H   UNL     1     -28.165  49.613  39.064  1.00  0.00     0.293 HD
ENDBRANCH  14  17
BRANCH  15  19
ATOM     19  O   UNL     1     -26.481  48.207  43.973  1.00  0.00    -0.508 OA
ATOM     20  H   UNL     1     -26.324  48.495  44.932  1.00  0.00     0.293 HD
ENDBRANCH  15  19
ENDBRANCH  10  11
ENDBRANCH   1  10
TORSDOF 6
ENDMDL
MODEL 8
REMARK VINA RESULT:    -3.660      1.766      6.905
REMARK INTER + INTRA:          -5.174
REMARK INTER:                  -4.639
REMARK INTRA:                  -0.535
REMARK UNBOUND:                -0.551
REMARK SMILES Oc1ccc(CCc2cc(O)cc(O)c2)cc1
REMARK SMILES IDX 6 1 5 2 4 3 3 4 2 5 16 6 17 7 1 8 7 10 8 11 15 12 9 13 13 14
REMARK SMILES IDX 10 15 12 16 14 17 11 19
REMARK H PARENT 1 9 14 18 11 20
REMARK Flexibility Score: inf
ROOT
ATOM      1  C   UNL     1     -25.347  51.976  42.422  1.00  0.00     0.040 C 
ENDROOT
BRANCH   1   2
ATOM      2  C   UNL     1     -25.982  50.637  42.159  1.00  0.00    -0.047 A 
ATOM      3  C   UNL     1     -26.538  50.351  40.902  1.00  0.00     0.007 A 
ATOM      4  C   UNL     1     -27.099  49.096  40.647  1.00  0.00     0.046 A 
ATOM      5  C   UNL     1     -27.102  48.112  41.641  1.00  0.00     0.115 A 
ATOM      6  C   UNL     1     -25.975  49.642  43.151  1.00  0.00     0.007 A 
ATOM      7  C   UNL     1     -26.537  48.388  42.894  1.00  0.00     0.046 A 
BRANCH   5   8
ATOM      8  O   UNL     1     -27.665  46.866  41.375  1.00  0.00    -0.508 OA
ATOM      9  H   UNL     1     -27.197  46.007  41.636  1.00  0.00     0.293 HD
ENDBRANCH   5   8
ENDBRANCH   1   2
BRANCH   1  10
ATOM     10  C   UNL     1     -26.377  52.957  42.991  1.00  0.00     0.040 C 
BRANCH  10  11
ATOM     11  C   UNL     1     -26.009  53.352  44.396  1.00  0.00    -0.040 A 
ATOM     12  C   UNL     1     -26.753  54.333  45.072  1.00  0.00     0.050 A 
ATOM     13  C   UNL     1     -24.956  52.705  45.061  1.00  0.00     0.050 A 
ATOM     14  C   UNL     1     -26.432  54.679  46.392  1.00  0.00     0.119 A 
ATOM     15  C   UNL     1     -24.635  53.051  46.381  1.00  0.00     0.119 A 
ATOM     16  C   UNL     1     -25.372  54.038  47.042  1.00  0.00     0.092 A 
BRANCH  14  17
ATOM     17  O   UNL     1     -27.161  55.655  47.067  1.00  0.00    -0.508 OA
ATOM     18  H   UNL     1     -27.994  56.069  46.663  1.00  0.00     0.293 HD
ENDBRANCH  14  17
BRANCH  15  19
ATOM     19  O   UNL     1     -23.586  52.418  47.045  1.00  0.00    -0.508 OA
ATOM     20  H   UNL     1     -23.308  51.471  46.815  1.00  0.00     0.293 HD
ENDBRANCH  15  19
ENDBRANCH  10  11
ENDBRANCH   1  10
TORSDOF 6
ENDMDL
MODEL 9
REMARK VINA RESULT:    -3.620      8.121     11.048
REMARK INTER + INTRA:          -5.124
REMARK INTER:                  -4.642
REMARK INTRA:                  -0.482
REMARK UNBOUND:                -0.551
REMARK SMILES Oc1ccc(CCc2cc(O)cc(O)c2)cc1
REMARK SMILES IDX 6 1 5 2 4 3 3 4 2 5 16 6 17 7 1 8 7 10 8 11 15 12 9 13 13 14
REMARK SMILES IDX 10 15 12 16 14 17 11 19
REMARK H PARENT 1 9 14 18 11 20
REMARK Flexibility Score: inf
ROOT
ATOM      1  C   UNL     1     -26.925  53.112  34.020  1.00  0.00     0.040 C 
ENDROOT
BRANCH   1   2
ATOM      2  C   UNL     1     -27.719  51.842  33.872  1.00  0.00    -0.047 A 
ATOM      3  C   UNL     1     -29.043  51.885  33.408  1.00  0.00     0.007 A 
ATOM      4  C   UNL     1     -29.770  50.703  33.239  1.00  0.00     0.046 A 
ATOM      5  C   UNL     1     -29.179  49.467  33.522  1.00  0.00     0.115 A 
ATOM      6  C   UNL     1     -27.124  50.599  34.142  1.00  0.00     0.007 A 
ATOM      7  C   UNL     1     -27.853  49.418  33.972  1.00  0.00     0.046 A 
BRANCH   5   8
ATOM      8  O   UNL     1     -29.914  48.296  33.350  1.00  0.00    -0.508 OA
ATOM      9  H   UNL     1     -29.495  47.460  32.962  1.00  0.00     0.293 HD
ENDBRANCH   5   8
ENDBRANCH   1   2
BRANCH   1  10
ATOM     10  C   UNL     1     -27.499  54.213  33.123  1.00  0.00     0.040 C 
BRANCH  10  11
ATOM     11  C   UNL     1     -27.527  55.529  33.854  1.00  0.00    -0.040 A 
ATOM     12  C   UNL     1     -27.178  55.591  35.213  1.00  0.00     0.050 A 
ATOM     13  C   UNL     1     -27.848  56.712  33.170  1.00  0.00     0.050 A 
ATOM     14  C   UNL     1     -27.172  56.820  35.886  1.00  0.00     0.119 A 
ATOM     15  C   UNL     1     -27.842  57.942  33.843  1.00  0.00     0.119 A 
ATOM     16  C   UNL     1     -27.507  57.992  35.199  1.00  0.00     0.092 A 
BRANCH  14  17
ATOM     17  O   UNL     1     -26.833  56.889  37.236  1.00  0.00    -0.508 OA
ATOM     18  H   UNL     1     -27.449  57.324  37.914  1.00  0.00     0.293 HD
ENDBRANCH  14  17
BRANCH  15  19
ATOM     19  O   UNL     1     -28.166  59.119  33.172  1.00  0.00    -0.508 OA
ATOM     20  H   UNL     1     -29.052  59.588  33.322  1.00  0.00     0.293 HD
ENDBRANCH  15  19
ENDBRANCH  10  11
ENDBRANCH   1  10
TORSDOF 6
ENDMDL
