MODEL 1
REMARK VINA RESULT:    -3.895      0.000      0.000
REMARK INTER + INTRA:          -5.124
REMARK INTER:                  -5.034
REMARK INTRA:                  -0.090
REMARK UNBOUND:                -0.090
REMARK SMILES CCCCCCC=O
REMARK SMILES IDX 4 1 3 2 2 3 1 4 5 5 6 6 7 7 8 8
REMARK H PARENT
REMARK Flexibility Score: inf
ROOT
ATOM      1  C   UNL     1      24.319  55.471  -8.878  1.00  0.00     0.000 C 
ENDROOT
BRANCH   1   2
ATOM      2  C   UNL     1      23.698  55.569  -7.480  1.00  0.00    -0.000 C 
BRANCH   2   3
ATOM      3  C   UNL     1      22.513  54.607  -7.337  1.00  0.00    -0.003 C 
ATOM      4  C   UNL     1      22.251  54.270  -5.872  1.00  0.00     0.004 C 
ENDBRANCH   2   3
ENDBRANCH   1   2
BRANCH   1   5
ATOM      5  C   UNL     1      25.536  56.394  -9.006  1.00  0.00     0.008 C 
BRANCH   5   6
ATOM      6  C   UNL     1      25.115  57.867  -8.976  1.00  0.00     0.072 C 
BRANCH   6   7
ATOM      7  C   UNL     1      26.185  58.751  -9.548  1.00  0.00     0.224 C 
ATOM      8  O   UNL     1      26.915  58.329 -10.431  1.00  0.00    -0.303 OA
ENDBRANCH   6   7
ENDBRANCH   5   6
ENDBRANCH   1   5
TORSDOF 5
ENDMDL
MODEL 2
REMARK VINA RESULT:    -3.752      2.649      5.420
REMARK INTER + INTRA:          -4.939
REMARK INTER:                  -4.887
REMARK INTRA:                  -0.052
REMARK UNBOUND:                -0.090
REMARK SMILES CCCCCCC=O
REMARK SMILES IDX 4 1 3 2 2 3 1 4 5 5 6 6 7 7 8 8
REMARK H PARENT
REMARK Flexibility Score: inf
ROOT
ATOM      1  C   UNL     1      25.682  56.823  -9.063  1.00  0.00     0.000 C 
ENDROOT
BRANCH   1   2
ATOM      2  C   UNL     1      25.897  58.311  -9.362  1.00  0.00    -0.000 C 
BRANCH   2   3
ATOM      3  C   UNL     1      27.003  58.508 -10.406  1.00  0.00    -0.003 C 
ATOM      4  C   UNL     1      27.607  59.906 -10.312  1.00  0.00     0.004 C 
ENDBRANCH   2   3
ENDBRANCH   1   2
BRANCH   1   5
ATOM      5  C   UNL     1      24.241  56.553  -8.615  1.00  0.00     0.008 C 
BRANCH   5   6
ATOM      6  C   UNL     1      24.063  55.092  -8.186  1.00  0.00     0.072 C 
BRANCH   6   7
ATOM      7  C   UNL     1      22.715  54.869  -7.566  1.00  0.00     0.224 C 
ATOM      8  O   UNL     1      22.618  54.714  -6.359  1.00  0.00    -0.303 OA
ENDBRANCH   6   7
ENDBRANCH   5   6
ENDBRANCH   1   5
TORSDOF 5
ENDMDL
MODEL 3
REMARK VINA RESULT:    -3.698      1.214      1.871
REMARK INTER + INTRA:          -4.869
REMARK INTER:                  -4.816
REMARK INTRA:                  -0.053
REMARK UNBOUND:                -0.090
REMARK SMILES CCCCCCC=O
REMARK SMILES IDX 4 1 3 2 2 3 1 4 5 5 6 6 7 7 8 8
REMARK H PARENT
REMARK Flexibility Score: inf
ROOT
ATOM      1  C   UNL     1      25.559  56.689  -9.004  1.00  0.00     0.000 C 
ENDROOT
BRANCH   1   2
ATOM      2  C   UNL     1      24.092  56.321  -8.755  1.00  0.00    -0.000 C 
BRANCH   2   3
ATOM      3  C   UNL     1      23.980  55.026  -7.942  1.00  0.00    -0.003 C 
ATOM      4  C   UNL     1      22.552  54.804  -7.452  1.00  0.00     0.004 C 
ENDBRANCH   2   3
ENDBRANCH   1   2
BRANCH   1   5
ATOM      5  C   UNL     1      25.710  58.187  -9.294  1.00  0.00     0.008 C 
BRANCH   5   6
ATOM      6  C   UNL     1      26.906  58.451 -10.215  1.00  0.00     0.072 C 
BRANCH   6   7
ATOM      7  C   UNL     1      27.298  59.900 -10.196  1.00  0.00     0.224 C 
ATOM      8  O   UNL     1      27.811  60.405 -11.182  1.00  0.00    -0.303 OA
ENDBRANCH   6   7
ENDBRANCH   5   6
ENDBRANCH   1   5
TORSDOF 5
ENDMDL
MODEL 4
REMARK VINA RESULT:    -3.502     15.904     16.900
REMARK INTER + INTRA:          -4.615
REMARK INTER:                  -4.386
REMARK INTRA:                  -0.230
REMARK UNBOUND:                -0.090
REMARK SMILES CCCCCCC=O
REMARK SMILES IDX 4 1 3 2 2 3 1 4 5 5 6 6 7 7 8 8
REMARK H PARENT
REMARK Flexibility Score: inf
ROOT
ATOM      1  C   UNL     1      17.634  44.662   0.066  1.00  0.00     0.000 C 
ENDROOT
BRANCH   1   2
ATOM      2  C   UNL     1      17.082  43.940   1.301  1.00  0.00    -0.000 C 
BRANCH   2   3
ATOM      3  C   UNL     1      15.725  44.520   1.717  1.00  0.00    -0.003 C 
ATOM      4  C   UNL     1      15.067  45.266   0.560  1.00  0.00     0.004 C 
ENDBRANCH   2   3
ENDBRANCH   1   2
BRANCH   1   5
ATOM      5  C   UNL     1      19.165  44.610   0.035  1.00  0.00     0.008 C 
BRANCH   5   6
ATOM      6  C   UNL     1      19.724  44.073   1.358  1.00  0.00     0.072 C 
BRANCH   6   7
ATOM      7  C   UNL     1      20.746  42.999   1.120  1.00  0.00     0.224 C 
ATOM      8  O   UNL     1      20.713  42.346   0.089  1.00  0.00    -0.303 OA
ENDBRANCH   6   7
ENDBRANCH   5   6
ENDBRANCH   1   5
TORSDOF 5
ENDMDL
MODEL 5
REMARK VINA RESULT:    -3.402     14.706     16.186
REMARK INTER + INTRA:          -4.486
REMARK INTER:                  -4.351
REMARK INTRA:                  -0.135
REMARK UNBOUND:                -0.090
REMARK SMILES CCCCCCC=O
REMARK SMILES IDX 4 1 3 2 2 3 1 4 5 5 6 6 7 7 8 8
REMARK H PARENT
REMARK Flexibility Score: inf
ROOT
ATOM      1  C   UNL     1      31.732  44.967   2.051  1.00  0.00     0.000 C 
ENDROOT
BRANCH   1   2
ATOM      2  C   UNL     1      32.501  46.154   2.643  1.00  0.00    -0.000 C 
BRANCH   2   3
ATOM      3  C   UNL     1      31.600  46.993   3.557  1.00  0.00    -0.003 C 
ATOM      4  C   UNL     1      32.195  48.376   3.799  1.00  0.00     0.004 C 
ENDBRANCH   2   3
ENDBRANCH   1   2
BRANCH   1   5
ATOM      5  C   UNL     1      30.369  45.410   1.506  1.00  0.00     0.008 C 
BRANCH   5   6
ATOM      6  C   UNL     1      30.197  44.985   0.044  1.00  0.00     0.072 C 
BRANCH   6   7
ATOM      7  C   UNL     1      28.762  45.085  -0.386  1.00  0.00     0.224 C 
ATOM      8  O   UNL     1      28.192  46.164  -0.354  1.00  0.00    -0.303 OA
ENDBRANCH   6   7
ENDBRANCH   5   6
ENDBRANCH   1   5
TORSDOF 5
ENDMDL
MODEL 6
REMARK VINA RESULT:    -3.397      5.000      7.759
REMARK INTER + INTRA:          -4.479
REMARK INTER:                  -4.308
REMARK INTRA:                  -0.172
REMARK UNBOUND:                -0.090
REMARK SMILES CCCCCCC=O
REMARK SMILES IDX 4 1 3 2 2 3 1 4 5 5 6 6 7 7 8 8
REMARK H PARENT
REMARK Flexibility Score: inf
ROOT
ATOM      1  C   UNL     1      30.458  58.784 -12.537  1.00  0.00     0.000 C 
ENDROOT
BRANCH   1   2
ATOM      2  C   UNL     1      29.937  57.515 -13.221  1.00  0.00    -0.000 C 
BRANCH   2   3
ATOM      3  C   UNL     1      31.091  56.575 -13.589  1.00  0.00    -0.003 C 
ATOM      4  C   UNL     1      32.354  57.361 -13.929  1.00  0.00     0.004 C 
ENDBRANCH   2   3
ENDBRANCH   1   2
BRANCH   1   5
ATOM      5  C   UNL     1      29.338  59.496 -11.770  1.00  0.00     0.008 C 
BRANCH   5   6
ATOM      6  C   UNL     1      28.098  58.603 -11.651  1.00  0.00     0.072 C 
BRANCH   6   7
ATOM      7  C   UNL     1      27.245  59.009 -10.485  1.00  0.00     0.224 C 
ATOM      8  O   UNL     1      26.566  58.175  -9.907  1.00  0.00    -0.303 OA
ENDBRANCH   6   7
ENDBRANCH   5   6
ENDBRANCH   1   5
TORSDOF 5
ENDMDL
MODEL 7
REMARK VINA RESULT:    -3.395     16.004     17.237
REMARK INTER + INTRA:          -4.477
REMARK INTER:                  -4.264
REMARK INTRA:                  -0.213
REMARK UNBOUND:                -0.090
REMARK SMILES CCCCCCC=O
REMARK SMILES IDX 4 1 3 2 2 3 1 4 5 5 6 6 7 7 8 8
REMARK H PARENT
REMARK Flexibility Score: inf
ROOT
ATOM      1  C   UNL     1      17.596  44.470   0.066  1.00  0.00     0.000 C 
ENDROOT
BRANCH   1   2
ATOM      2  C   UNL     1      19.111  44.704   0.080  1.00  0.00    -0.000 C 
BRANCH   2   3
ATOM      3  C   UNL     1      19.757  44.048   1.306  1.00  0.00    -0.003 C 
ATOM      4  C   UNL     1      20.674  42.899   0.896  1.00  0.00     0.004 C 
ENDBRANCH   2   3
ENDBRANCH   1   2
BRANCH   1   5
ATOM      5  C   UNL     1      17.104  43.960   1.426  1.00  0.00     0.008 C 
BRANCH   5   6
ATOM      6  C   UNL     1      15.746  44.574   1.785  1.00  0.00     0.072 C 
BRANCH   6   7
ATOM      7  C   UNL     1      15.059  45.122   0.569  1.00  0.00     0.224 C 
ATOM      8  O   UNL     1      14.231  46.012   0.687  1.00  0.00    -0.303 OA
ENDBRANCH   6   7
ENDBRANCH   5   6
ENDBRANCH   1   5
TORSDOF 5
ENDMDL
MODEL 8
REMARK VINA RESULT:    -3.260      5.700      7.848
REMARK INTER + INTRA:          -4.303
REMARK INTER:                  -4.115
REMARK INTRA:                  -0.188
REMARK UNBOUND:                -0.090
REMARK SMILES CCCCCCC=O
REMARK SMILES IDX 4 1 3 2 2 3 1 4 5 5 6 6 7 7 8 8
REMARK H PARENT
REMARK Flexibility Score: inf
ROOT
ATOM      1  C   UNL     1      30.179  58.846 -13.194  1.00  0.00     0.000 C 
ENDROOT
BRANCH   1   2
ATOM      2  C   UNL     1      29.345  59.341 -12.006  1.00  0.00    -0.000 C 
BRANCH   2   3
ATOM      3  C   UNL     1      28.094  58.476 -11.814  1.00  0.00    -0.003 C 
ATOM      4  C   UNL     1      27.355  58.851 -10.533  1.00  0.00     0.004 C 
ENDBRANCH   2   3
ENDBRANCH   1   2
BRANCH   1   5
ATOM      5  C   UNL     1      30.180  57.315 -13.268  1.00  0.00     0.008 C 
BRANCH   5   6
ATOM      6  C   UNL     1      31.522  56.790 -13.789  1.00  0.00     0.072 C 
BRANCH   6   7
ATOM      7  C   UNL     1      32.432  57.919 -14.180  1.00  0.00     0.224 C 
ATOM      8  O   UNL     1      33.641  57.750 -14.189  1.00  0.00    -0.303 OA
ENDBRANCH   6   7
ENDBRANCH   5   6
ENDBRANCH   1   5
TORSDOF 5
ENDMDL
MODEL 9
REMARK VINA RESULT:    -3.254     14.939     16.228
REMARK INTER + INTRA:          -4.294
REMARK INTER:                  -4.192
REMARK INTRA:                  -0.102
REMARK UNBOUND:                -0.090
REMARK SMILES CCCCCCC=O
REMARK SMILES IDX 4 1 3 2 2 3 1 4 5 5 6 6 7 7 8 8
REMARK H PARENT
REMARK Flexibility Score: inf
ROOT
ATOM      1  C   UNL     1      31.923  45.680   1.556  1.00  0.00     0.000 C 
ENDROOT
BRANCH   1   2
ATOM      2  C   UNL     1      30.417  45.396   1.519  1.00  0.00    -0.000 C 
BRANCH   2   3
ATOM      3  C   UNL     1      29.996  44.840   0.153  1.00  0.00    -0.003 C 
ATOM      4  C   UNL     1      28.728  45.522  -0.351  1.00  0.00     0.004 C 
ENDBRANCH   2   3
ENDBRANCH   1   2
BRANCH   1   5
ATOM      5  C   UNL     1      32.423  45.817   2.999  1.00  0.00     0.008 C 
BRANCH   5   6
ATOM      6  C   UNL     1      31.750  46.998   3.705  1.00  0.00     0.072 C 
BRANCH   6   7
ATOM      7  C   UNL     1      32.584  48.242   3.600  1.00  0.00     0.224 C 
ATOM      8  O   UNL     1      32.060  49.338   3.718  1.00  0.00    -0.303 OA
ENDBRANCH   6   7
ENDBRANCH   5   6
ENDBRANCH   1   5
TORSDOF 5
ENDMDL
