MODEL 1
REMARK VINA RESULT:    -4.695      0.000      0.000
REMARK INTER + INTRA:          -6.100
REMARK INTER:                  -6.617
REMARK INTRA:                   0.516
REMARK UNBOUND:                 0.516
REMARK SMILES CC1=CCC(=C(C)C)C(=O)CC(C)=CCC1
REMARK SMILES IDX 12 1 14 2 13 3 15 4 16 5 2 6 1 7 3 8 11 10 9 11 10 12 5 13
REMARK SMILES IDX 6 14 7 15 8 16 4 17
REMARK H PARENT
REMARK Flexibility Score: 60.00
ROOT
ATOM      1  C   UNL     1      24.380 -19.594 -10.376  1.00  0.00    -0.070 C 
ATOM      2  C   UNL     1      24.063 -20.048 -11.611  1.00  0.00    -0.027 C 
ATOM      3  C   UNL     1      24.752 -20.607  -9.323  1.00  0.00     0.039 C 
ENDROOT
BRANCH   2   4
ATOM      4  C   UNL     1      23.728 -19.175 -12.799  1.00  0.00     0.032 C 
BRANCH   4   5
ATOM      5  C   UNL     1      22.311 -19.451 -13.323  1.00  0.00     0.034 C 
BRANCH   5   6
ATOM      6  C   UNL     1      21.268 -19.570 -12.222  1.00  0.00    -0.077 C 
ATOM      7  C   UNL     1      20.635 -20.914 -11.962  1.00  0.00     0.039 C 
ATOM      8  C   UNL     1      20.884 -18.531 -11.444  1.00  0.00    -0.023 CG0
ATOM      9  G   UNL     1      21.352 -17.103 -11.597  1.00  0.00     0.000 G0
ENDBRANCH   5   6
ENDBRANCH   4   5
ENDBRANCH   2   4
BRANCH   1  10
ATOM     10  C   UNL     1      24.375 -18.123 -10.010  1.00  0.00     0.111 C 
BRANCH  10  11
ATOM     11  C   UNL     1      22.994 -17.661  -9.641  1.00  0.00     0.163 C 
ATOM     12  O   UNL     1      22.438 -18.132  -8.611  1.00  0.00    -0.294 OA
BRANCH  11  13
ATOM     13  C   UNL     1      22.279 -16.640 -10.449  1.00  0.00    -0.002 C 
ATOM     14  C   UNL     1      22.465 -15.315 -10.201  1.00  0.00    -0.069 C 
ATOM     15  C   UNL     1      21.707 -14.262 -10.977  1.00  0.00     0.039 C 
ATOM     16  C   UNL     1      23.466 -14.846  -9.168  1.00  0.00     0.039 C 
BRANCH  13  17
ATOM     17  C   UNL     1      21.338 -17.096 -11.560  1.00  0.00     0.066 CG0
ATOM     18  G   UNL     1      20.890 -18.533 -11.425  1.00  0.00     0.000 G0
ENDBRANCH  13  17
ENDBRANCH  11  13
ENDBRANCH  10  11
ENDBRANCH   1  10
TORSDOF 0
ENDMDL
MODEL 2
REMARK VINA RESULT:    -4.611      1.717      4.246
REMARK INTER + INTRA:          -5.981
REMARK INTER:                  -6.581
REMARK INTRA:                   0.600
REMARK UNBOUND:                 0.516
REMARK SMILES CC1=CCC(=C(C)C)C(=O)CC(C)=CCC1
REMARK SMILES IDX 12 1 14 2 13 3 15 4 16 5 2 6 1 7 3 8 11 10 9 11 10 12 5 13
REMARK SMILES IDX 6 14 7 15 8 16 4 17
REMARK H PARENT
REMARK Flexibility Score: 60.00
ROOT
ATOM      1  C   UNL     1      24.380 -19.388 -10.229  1.00  0.00    -0.070 C 
ATOM      2  C   UNL     1      23.891 -18.297  -9.593  1.00  0.00    -0.027 C 
ATOM      3  C   UNL     1      24.584 -20.646  -9.423  1.00  0.00     0.039 C 
ENDROOT
BRANCH   2   4
ATOM      4  C   UNL     1      23.566 -16.977 -10.255  1.00  0.00     0.032 C 
BRANCH   4   5
ATOM      5  C   UNL     1      22.055 -16.707 -10.267  1.00  0.00     0.034 C 
BRANCH   5   6
ATOM      6  C   UNL     1      21.417 -16.884 -11.638  1.00  0.00    -0.077 C 
ATOM      7  C   UNL     1      21.156 -15.661 -12.481  1.00  0.00     0.039 C 
ATOM      8  C   UNL     1      21.084 -18.089 -12.155  1.00  0.00    -0.023 CG0
ATOM      9  G   UNL     1      21.205 -19.413 -11.437  1.00  0.00     0.000 G0
ENDBRANCH   5   6
ENDBRANCH   4   5
ENDBRANCH   2   4
BRANCH   1  10
ATOM     10  C   UNL     1      24.729 -19.397 -11.703  1.00  0.00     0.111 C 
BRANCH  10  11
ATOM     11  C   UNL     1      23.519 -19.684 -12.546  1.00  0.00     0.163 C 
ATOM     12  O   UNL     1      23.544 -19.412 -13.778  1.00  0.00    -0.294 OA
BRANCH  11  13
ATOM     13  C   UNL     1      22.302 -20.305 -11.964  1.00  0.00    -0.002 C 
ATOM     14  C   UNL     1      22.186 -21.659 -11.901  1.00  0.00    -0.069 C 
ATOM     15  C   UNL     1      20.934 -22.311 -11.361  1.00  0.00     0.039 C 
ATOM     16  C   UNL     1      23.322 -22.562 -12.330  1.00  0.00     0.039 C 
BRANCH  13  17
ATOM     17  C   UNL     1      21.187 -19.407 -11.438  1.00  0.00     0.066 CG0
ATOM     18  G   UNL     1      21.086 -18.081 -12.155  1.00  0.00     0.000 G0
ENDBRANCH  13  17
ENDBRANCH  11  13
ENDBRANCH  10  11
ENDBRANCH   1  10
TORSDOF 0
ENDMDL
MODEL 3
REMARK VINA RESULT:    -4.464      2.322      4.786
REMARK INTER + INTRA:          -5.775
REMARK INTER:                  -6.282
REMARK INTRA:                   0.507
REMARK UNBOUND:                 0.516
REMARK SMILES CC1=CCC(=C(C)C)C(=O)CC(C)=CCC1
REMARK SMILES IDX 12 1 14 2 13 3 15 4 16 5 2 6 1 7 3 8 11 10 9 11 10 12 5 13
REMARK SMILES IDX 6 14 7 15 8 16 4 17
REMARK H PARENT
REMARK Flexibility Score: 60.00
ROOT
ATOM      1  C   UNL     1      22.956 -19.011 -10.088  1.00  0.00    -0.070 C 
ATOM      2  C   UNL     1      21.945 -18.183 -10.443  1.00  0.00    -0.027 C 
ATOM      3  C   UNL     1      23.960 -18.511  -9.081  1.00  0.00     0.039 C 
ENDROOT
BRANCH   2   4
ATOM      4  C   UNL     1      20.819 -18.540 -11.387  1.00  0.00     0.032 C 
BRANCH   4   5
ATOM      5  C   UNL     1      20.691 -17.520 -12.527  1.00  0.00     0.034 C 
BRANCH   5   6
ATOM      6  C   UNL     1      21.967 -17.353 -13.340  1.00  0.00    -0.077 C 
ATOM      7  C   UNL     1      22.557 -15.974 -13.494  1.00  0.00     0.039 C 
ATOM      8  C   UNL     1      22.617 -18.386 -13.925  1.00  0.00    -0.023 CG0
ATOM      9  G   UNL     1      22.146 -19.821 -13.941  1.00  0.00     0.000 G0
ENDBRANCH   5   6
ENDBRANCH   4   5
ENDBRANCH   2   4
BRANCH   1  10
ATOM     10  C   UNL     1      23.119 -20.406 -10.657  1.00  0.00     0.111 C 
BRANCH  10  11
ATOM     11  C   UNL     1      23.788 -20.368 -12.003  1.00  0.00     0.163 C 
ATOM     12  O   UNL     1      24.982 -19.974 -12.089  1.00  0.00    -0.294 OA
BRANCH  11  13
ATOM     13  C   UNL     1      23.078 -20.810 -13.230  1.00  0.00    -0.002 C 
ATOM     14  C   UNL     1      23.252 -22.073 -13.706  1.00  0.00    -0.069 C 
ATOM     15  C   UNL     1      22.580 -22.526 -14.982  1.00  0.00     0.039 C 
ATOM     16  C   UNL     1      24.089 -23.083 -12.953  1.00  0.00     0.039 C 
BRANCH  13  17
ATOM     17  C   UNL     1      22.153 -19.832 -13.948  1.00  0.00     0.066 CG0
ATOM     18  G   UNL     1      22.635 -18.401 -13.910  1.00  0.00     0.000 G0
ENDBRANCH  13  17
ENDBRANCH  11  13
ENDBRANCH  10  11
ENDBRANCH   1  10
TORSDOF 0
ENDMDL
MODEL 4
REMARK VINA RESULT:    -4.396      1.539      4.369
REMARK INTER + INTRA:          -5.679
REMARK INTER:                  -6.204
REMARK INTRA:                   0.525
REMARK UNBOUND:                 0.516
REMARK SMILES CC1=CCC(=C(C)C)C(=O)CC(C)=CCC1
REMARK SMILES IDX 12 1 14 2 13 3 15 4 16 5 2 6 1 7 3 8 11 10 9 11 10 12 5 13
REMARK SMILES IDX 6 14 7 15 8 16 4 17
REMARK H PARENT
REMARK Flexibility Score: 60.00
ROOT
ATOM      1  C   UNL     1      23.221 -18.609 -14.020  1.00  0.00    -0.070 C 
ATOM      2  C   UNL     1      22.441 -17.504 -14.073  1.00  0.00    -0.027 C 
ATOM      3  C   UNL     1      22.940 -19.721 -14.999  1.00  0.00     0.039 C 
ENDROOT
BRANCH   2   4
ATOM      4  C   UNL     1      22.619 -16.272 -13.214  1.00  0.00     0.032 C 
BRANCH   4   5
ATOM      5  C   UNL     1      21.435 -16.074 -12.257  1.00  0.00     0.034 C 
BRANCH   5   6
ATOM      6  C   UNL     1      21.749 -16.449 -10.816  1.00  0.00    -0.077 C 
ATOM      7  C   UNL     1      22.176 -15.364  -9.859  1.00  0.00     0.039 C 
ATOM      8  C   UNL     1      21.650 -17.709 -10.335  1.00  0.00    -0.023 CG0
ATOM      9  G   UNL     1      21.306 -18.933 -11.152  1.00  0.00     0.000 G0
ENDBRANCH   5   6
ENDBRANCH   4   5
ENDBRANCH   2   4
BRANCH   1  10
ATOM     10  C   UNL     1      24.352 -18.775 -13.025  1.00  0.00     0.111 C 
BRANCH  10  11
ATOM     11  C   UNL     1      23.832 -19.192 -11.678  1.00  0.00     0.163 C 
ATOM     12  O   UNL     1      24.536 -18.982 -10.652  1.00  0.00    -0.294 OA
BRANCH  11  13
ATOM     13  C   UNL     1      22.496 -19.823 -11.527  1.00  0.00    -0.002 C 
ATOM     14  C   UNL     1      22.343 -21.161 -11.721  1.00  0.00    -0.069 C 
ATOM     15  C   UNL     1      20.983 -21.813 -11.623  1.00  0.00     0.039 C 
ATOM     16  C   UNL     1      23.534 -22.051 -11.999  1.00  0.00     0.039 C 
BRANCH  13  17
ATOM     17  C   UNL     1      21.301 -18.953 -11.150  1.00  0.00     0.066 CG0
ATOM     18  G   UNL     1      21.671 -17.725 -10.351  1.00  0.00     0.000 G0
ENDBRANCH  13  17
ENDBRANCH  11  13
ENDBRANCH  10  11
ENDBRANCH   1  10
TORSDOF 0
ENDMDL
MODEL 5
REMARK VINA RESULT:    -4.366      1.268      1.839
REMARK INTER + INTRA:          -5.636
REMARK INTER:                  -6.024
REMARK INTRA:                   0.387
REMARK UNBOUND:                 0.516
REMARK SMILES CC1=CCC(=C(C)C)C(=O)CC(C)=CCC1
REMARK SMILES IDX 12 1 14 2 13 3 15 4 16 5 2 6 1 7 3 8 11 10 9 11 10 12 5 13
REMARK SMILES IDX 6 14 7 15 8 16 4 17
REMARK H PARENT
REMARK Flexibility Score: 60.00
ROOT
ATOM      1  C   UNL     1      24.284 -19.379 -10.305  1.00  0.00    -0.070 C 
ATOM      2  C   UNL     1      24.446 -20.045 -11.472  1.00  0.00    -0.027 C 
ATOM      3  C   UNL     1      24.369 -20.166  -9.022  1.00  0.00     0.039 C 
ENDROOT
BRANCH   2   4
ATOM      4  C   UNL     1      24.454 -19.408 -12.843  1.00  0.00     0.032 C 
BRANCH   4   5
ATOM      5  C   UNL     1      23.098 -19.561 -13.547  1.00  0.00     0.034 C 
BRANCH   5   6
ATOM      6  C   UNL     1      22.627 -18.291 -14.241  1.00  0.00    -0.077 C 
ATOM      7  C   UNL     1      23.177 -17.962 -15.606  1.00  0.00     0.039 C 
ATOM      8  C   UNL     1      21.721 -17.441 -13.705  1.00  0.00    -0.023 CG0
ATOM      9  G   UNL     1      21.112 -17.565 -12.328  1.00  0.00     0.000 G0
ENDBRANCH   5   6
ENDBRANCH   4   5
ENDBRANCH   2   4
BRANCH   1  10
ATOM     10  C   UNL     1      24.022 -17.888 -10.235  1.00  0.00     0.111 C 
BRANCH  10  11
ATOM     11  C   UNL     1      22.548 -17.599 -10.170  1.00  0.00     0.163 C 
ATOM     12  O   UNL     1      21.880 -18.011  -9.183  1.00  0.00    -0.294 OA
BRANCH  11  13
ATOM     13  C   UNL     1      21.868 -16.814 -11.232  1.00  0.00    -0.002 C 
ATOM     14  C   UNL     1      21.926 -15.455 -11.225  1.00  0.00    -0.069 C 
ATOM     15  C   UNL     1      21.197 -14.637 -12.266  1.00  0.00     0.039 C 
ATOM     16  C   UNL     1      22.756 -14.714 -10.200  1.00  0.00     0.039 C 
BRANCH  13  17
ATOM     17  C   UNL     1      21.107 -17.552 -12.329  1.00  0.00     0.066 CG0
ATOM     18  G   UNL     1      21.736 -17.424 -13.697  1.00  0.00     0.000 G0
ENDBRANCH  13  17
ENDBRANCH  11  13
ENDBRANCH  10  11
ENDBRANCH   1  10
TORSDOF 0
ENDMDL
MODEL 6
REMARK VINA RESULT:    -4.363      1.425      3.875
REMARK INTER + INTRA:          -5.632
REMARK INTER:                  -5.998
REMARK INTRA:                   0.366
REMARK UNBOUND:                 0.516
REMARK SMILES CC1=CCC(=C(C)C)C(=O)CC(C)=CCC1
REMARK SMILES IDX 12 1 14 2 13 3 15 4 16 5 2 6 1 7 3 8 11 10 9 11 10 12 5 13
REMARK SMILES IDX 6 14 7 15 8 16 4 17
REMARK H PARENT
REMARK Flexibility Score: 60.00
ROOT
ATOM      1  C   UNL     1      22.493 -15.848 -10.747  1.00  0.00    -0.070 C 
ATOM      2  C   UNL     1      21.999 -15.529 -11.967  1.00  0.00    -0.027 C 
ATOM      3  C   UNL     1      22.154 -14.946  -9.588  1.00  0.00     0.039 C 
ENDROOT
BRANCH   2   4
ATOM      4  C   UNL     1      22.185 -16.351 -13.222  1.00  0.00     0.032 C 
BRANCH   4   5
ATOM      5  C   UNL     1      21.011 -17.316 -13.446  1.00  0.00     0.034 C 
BRANCH   5   6
ATOM      6  C   UNL     1      21.442 -18.699 -13.912  1.00  0.00    -0.077 C 
ATOM      7  C   UNL     1      21.751 -18.911 -15.373  1.00  0.00     0.039 C 
ATOM      8  C   UNL     1      21.581 -19.756 -13.079  1.00  0.00    -0.023 CG0
ATOM      9  G   UNL     1      21.255 -19.756 -11.603  1.00  0.00     0.000 G0
ENDBRANCH   5   6
ENDBRANCH   4   5
ENDBRANCH   2   4
BRANCH   1  10
ATOM     10  C   UNL     1      23.366 -17.062 -10.501  1.00  0.00     0.111 C 
BRANCH  10  11
ATOM     11  C   UNL     1      22.560 -18.210  -9.962  1.00  0.00     0.163 C 
ATOM     12  O   UNL     1      21.927 -18.068  -8.880  1.00  0.00    -0.294 OA
BRANCH  11  13
ATOM     13  C   UNL     1      22.471 -19.501 -10.691  1.00  0.00    -0.002 C 
ATOM     14  C   UNL     1      23.456 -20.431 -10.563  1.00  0.00    -0.069 C 
ATOM     15  C   UNL     1      23.411 -21.728 -11.337  1.00  0.00     0.039 C 
ATOM     16  C   UNL     1      24.612 -20.219  -9.610  1.00  0.00     0.039 C 
BRANCH  13  17
ATOM     17  C   UNL     1      21.263 -19.771 -11.583  1.00  0.00     0.066 CG0
ATOM     18  G   UNL     1      21.583 -19.763 -13.059  1.00  0.00     0.000 G0
ENDBRANCH  13  17
ENDBRANCH  11  13
ENDBRANCH  10  11
ENDBRANCH   1  10
TORSDOF 0
ENDMDL
MODEL 7
REMARK VINA RESULT:    -4.313      1.606      4.175
REMARK INTER + INTRA:          -5.561
REMARK INTER:                  -6.116
REMARK INTRA:                   0.554
REMARK UNBOUND:                 0.516
REMARK SMILES CC1=CCC(=C(C)C)C(=O)CC(C)=CCC1
REMARK SMILES IDX 12 1 14 2 13 3 15 4 16 5 2 6 1 7 3 8 11 10 9 11 10 12 5 13
REMARK SMILES IDX 6 14 7 15 8 16 4 17
REMARK H PARENT
REMARK Flexibility Score: 60.00
ROOT
ATOM      1  C   UNL     1      24.475 -20.300 -11.760  1.00  0.00    -0.070 C 
ATOM      2  C   UNL     1      24.297 -20.076 -10.436  1.00  0.00    -0.027 C 
ATOM      3  C   UNL     1      24.379 -21.720 -12.256  1.00  0.00     0.039 C 
ENDROOT
BRANCH   2   4
ATOM      4  C   UNL     1      24.297 -18.715  -9.777  1.00  0.00     0.032 C 
BRANCH   4   5
ATOM      5  C   UNL     1      22.909 -18.353  -9.229  1.00  0.00     0.034 C 
BRANCH   5   6
ATOM      6  C   UNL     1      22.203 -17.269 -10.032  1.00  0.00    -0.077 C 
ATOM      7  C   UNL     1      22.252 -15.846  -9.534  1.00  0.00     0.039 C 
ATOM      8  C   UNL     1      21.540 -17.510 -11.186  1.00  0.00    -0.023 CG0
ATOM      9  G   UNL     1      21.324 -18.872 -11.804  1.00  0.00     0.000 G0
ENDBRANCH   5   6
ENDBRANCH   4   5
ENDBRANCH   2   4
BRANCH   1  10
ATOM     10  C   UNL     1      24.765 -19.193 -12.753  1.00  0.00     0.111 C 
BRANCH  10  11
ATOM     11  C   UNL     1      23.504 -18.480 -13.155  1.00  0.00     0.163 C 
ATOM     12  O   UNL     1      23.576 -17.308 -13.613  1.00  0.00    -0.294 OA
BRANCH  11  13
ATOM     13  C   UNL     1      22.177 -19.139 -13.048  1.00  0.00    -0.002 C 
ATOM     14  C   UNL     1      21.746 -19.978 -14.028  1.00  0.00    -0.069 C 
ATOM     15  C   UNL     1      20.378 -20.617 -13.963  1.00  0.00     0.039 C 
ATOM     16  C   UNL     1      22.637 -20.336 -15.197  1.00  0.00     0.039 C 
BRANCH  13  17
ATOM     17  C   UNL     1      21.307 -18.863 -11.826  1.00  0.00     0.066 CG0
ATOM     18  G   UNL     1      21.553 -17.512 -11.196  1.00  0.00     0.000 G0
ENDBRANCH  13  17
ENDBRANCH  11  13
ENDBRANCH  10  11
ENDBRANCH   1  10
TORSDOF 0
ENDMDL
MODEL 8
REMARK VINA RESULT:    -4.290      2.223      5.115
REMARK INTER + INTRA:          -5.529
REMARK INTER:                  -5.922
REMARK INTRA:                   0.393
REMARK UNBOUND:                 0.516
REMARK SMILES CC1=CCC(=C(C)C)C(=O)CC(C)=CCC1
REMARK SMILES IDX 12 1 14 2 13 3 15 4 16 5 2 6 1 7 3 8 11 10 9 11 10 12 5 13
REMARK SMILES IDX 6 14 7 15 8 16 4 17
REMARK H PARENT
REMARK Flexibility Score: 60.00
ROOT
ATOM      1  C   UNL     1      21.651 -16.526 -11.591  1.00  0.00    -0.070 C 
ATOM      2  C   UNL     1      22.314 -16.612 -10.413  1.00  0.00    -0.027 C 
ATOM      3  C   UNL     1      21.327 -15.154 -12.124  1.00  0.00     0.039 C 
ENDROOT
BRANCH   2   4
ATOM      4  C   UNL     1      22.773 -17.898  -9.765  1.00  0.00     0.032 C 
BRANCH   4   5
ATOM      5  C   UNL     1      24.231 -18.222 -10.120  1.00  0.00     0.034 C 
BRANCH   5   6
ATOM      6  C   UNL     1      24.478 -19.699 -10.391  1.00  0.00    -0.077 C 
ATOM      7  C   UNL     1      24.703 -20.625  -9.223  1.00  0.00     0.039 C 
ATOM      8  C   UNL     1      24.489 -20.236 -11.633  1.00  0.00    -0.023 CG0
ATOM      9  G   UNL     1      24.351 -19.462 -12.923  1.00  0.00     0.000 G0
ENDBRANCH   5   6
ENDBRANCH   4   5
ENDBRANCH   2   4
BRANCH   1  10
ATOM     10  C   UNL     1      21.222 -17.743 -12.387  1.00  0.00     0.111 C 
BRANCH  10  11
ATOM     11  C   UNL     1      22.224 -18.070 -13.459  1.00  0.00     0.163 C 
ATOM     12  O   UNL     1      22.482 -17.211 -14.346  1.00  0.00    -0.294 OA
BRANCH  11  13
ATOM     13  C   UNL     1      22.934 -19.374 -13.480  1.00  0.00    -0.002 C 
ATOM     14  C   UNL     1      22.321 -20.482 -13.978  1.00  0.00    -0.069 C 
ATOM     15  C   UNL     1      23.008 -21.828 -13.960  1.00  0.00     0.039 C 
ATOM     16  C   UNL     1      20.948 -20.399 -14.607  1.00  0.00     0.039 C 
BRANCH  13  17
ATOM     17  C   UNL     1      24.358 -19.453 -12.938  1.00  0.00     0.066 CG0
ATOM     18  G   UNL     1      24.473 -20.224 -11.643  1.00  0.00     0.000 G0
ENDBRANCH  13  17
ENDBRANCH  11  13
ENDBRANCH  10  11
ENDBRANCH   1  10
TORSDOF 0
ENDMDL
MODEL 9
REMARK VINA RESULT:    -4.237      2.099      4.800
REMARK INTER + INTRA:          -5.455
REMARK INTER:                  -5.908
REMARK INTRA:                   0.453
REMARK UNBOUND:                 0.516
REMARK SMILES CC1=CCC(=C(C)C)C(=O)CC(C)=CCC1
REMARK SMILES IDX 12 1 14 2 13 3 15 4 16 5 2 6 1 7 3 8 11 10 9 11 10 12 5 13
REMARK SMILES IDX 6 14 7 15 8 16 4 17
REMARK H PARENT
REMARK Flexibility Score: 60.00
ROOT
ATOM      1  C   UNL     1      24.406 -19.997 -11.608  1.00  0.00    -0.070 C 
ATOM      2  C   UNL     1      24.339 -18.838 -12.305  1.00  0.00    -0.027 C 
ATOM      3  C   UNL     1      24.934 -19.945 -10.196  1.00  0.00     0.039 C 
ENDROOT
BRANCH   2   4
ATOM      4  C   UNL     1      23.781 -18.695 -13.703  1.00  0.00     0.032 C 
BRANCH   4   5
ATOM      5  C   UNL     1      22.529 -17.807 -13.724  1.00  0.00     0.034 C 
BRANCH   5   6
ATOM      6  C   UNL     1      21.525 -18.144 -12.630  1.00  0.00    -0.077 C 
ATOM      7  C   UNL     1      21.299 -17.149 -11.519  1.00  0.00     0.039 C 
ATOM      8  C   UNL     1      20.806 -19.289 -12.607  1.00  0.00    -0.023 CG0
ATOM      9  G   UNL     1      20.943 -20.430 -13.589  1.00  0.00     0.000 G0
ENDBRANCH   5   6
ENDBRANCH   4   5
ENDBRANCH   2   4
BRANCH   1  10
ATOM     10  C   UNL     1      23.980 -21.333 -12.183  1.00  0.00     0.111 C 
BRANCH  10  11
ATOM     11  C   UNL     1      22.529 -21.606 -11.902  1.00  0.00     0.163 C 
ATOM     12  O   UNL     1      22.143 -21.725 -10.708  1.00  0.00    -0.294 OA
BRANCH  11  13
ATOM     13  C   UNL     1      21.537 -21.714 -13.002  1.00  0.00    -0.002 C 
ATOM     14  C   UNL     1      21.163 -22.935 -13.472  1.00  0.00    -0.069 C 
ATOM     15  C   UNL     1      20.194 -23.065 -14.625  1.00  0.00     0.039 C 
ATOM     16  C   UNL     1      21.669 -24.208 -12.830  1.00  0.00     0.039 C 
BRANCH  13  17
ATOM     17  C   UNL     1      20.943 -20.440 -13.595  1.00  0.00     0.066 CG0
ATOM     18  G   UNL     1      20.813 -19.310 -12.601  1.00  0.00     0.000 G0
ENDBRANCH  13  17
ENDBRANCH  11  13
ENDBRANCH  10  11
ENDBRANCH   1  10
TORSDOF 0
ENDMDL
