MODEL 1
REMARK VINA RESULT:    -3.682      0.000      0.000
REMARK INTER + INTRA:          -4.439
REMARK INTER:                  -4.436
REMARK INTRA:                  -0.003
REMARK UNBOUND:                -0.003
REMARK SMILES OCC(O)CO
REMARK SMILES IDX 3 1 5 2 6 3 2 5 1 6 4 8
REMARK H PARENT 6 4 1 7 4 9
REMARK Flexibility Score: inf
ROOT
ATOM      1  C   UNL     1     -28.856  19.596 -17.876  1.00  0.00     0.165 C 
ENDROOT
BRANCH   1   2
ATOM      2  C   UNL     1     -29.637  20.789 -18.455  1.00  0.00     0.190 C 
BRANCH   2   3
ATOM      3  O   UNL     1     -30.676  20.338 -19.282  1.00  0.00    -0.394 OA
ATOM      4  H   UNL     1     -30.986  19.473 -18.904  1.00  0.00     0.210 HD
ENDBRANCH   2   3
ENDBRANCH   1   2
BRANCH   1   5
ATOM      5  C   UNL     1     -27.413  19.533 -18.404  1.00  0.00     0.190 C 
BRANCH   5   6
ATOM      6  O   UNL     1     -27.024  18.211 -18.669  1.00  0.00    -0.394 OA
ATOM      7  H   UNL     1     -27.827  17.642 -18.541  1.00  0.00     0.210 HD
ENDBRANCH   5   6
ENDBRANCH   1   5
BRANCH   1   8
ATOM      8  O   UNL     1     -29.528  18.385 -18.116  1.00  0.00    -0.388 OA
ATOM      9  H   UNL     1     -28.843  17.689 -18.299  1.00  0.00     0.211 HD
ENDBRANCH   1   8
TORSDOF 5
ENDMDL
MODEL 2
REMARK VINA RESULT:    -3.274     11.982     13.193
REMARK INTER + INTRA:          -3.947
REMARK INTER:                  -3.728
REMARK INTRA:                  -0.219
REMARK UNBOUND:                -0.003
REMARK SMILES OCC(O)CO
REMARK SMILES IDX 3 1 5 2 6 3 2 5 1 6 4 8
REMARK H PARENT 6 4 1 7 4 9
REMARK Flexibility Score: inf
ROOT
ATOM      1  C   UNL     1     -21.704  13.604 -26.804  1.00  0.00     0.165 C 
ENDROOT
BRANCH   1   2
ATOM      2  C   UNL     1     -21.583  12.369 -27.714  1.00  0.00     0.190 C 
BRANCH   2   3
ATOM      3  O   UNL     1     -20.606  12.581 -28.698  1.00  0.00    -0.394 OA
ATOM      4  H   UNL     1     -21.003  13.202 -29.364  1.00  0.00     0.210 HD
ENDBRANCH   2   3
ENDBRANCH   1   2
BRANCH   1   5
ATOM      5  C   UNL     1     -20.572  13.675 -25.765  1.00  0.00     0.190 C 
BRANCH   5   6
ATOM      6  O   UNL     1     -19.312  13.623 -26.380  1.00  0.00    -0.394 OA
ATOM      7  H   UNL     1     -18.666  13.316 -25.691  1.00  0.00     0.210 HD
ENDBRANCH   5   6
ENDBRANCH   1   5
BRANCH   1   8
ATOM      8  O   UNL     1     -22.961  13.651 -26.177  1.00  0.00    -0.388 OA
ATOM      9  H   UNL     1     -22.998  12.910 -25.517  1.00  0.00     0.211 HD
ENDBRANCH   1   8
TORSDOF 5
ENDMDL
MODEL 3
REMARK VINA RESULT:    -3.254     10.590     11.679
REMARK INTER + INTRA:          -3.923
REMARK INTER:                  -3.700
REMARK INTRA:                  -0.224
REMARK UNBOUND:                -0.003
REMARK SMILES OCC(O)CO
REMARK SMILES IDX 3 1 5 2 6 3 2 5 1 6 4 8
REMARK H PARENT 6 4 1 7 4 9
REMARK Flexibility Score: inf
ROOT
ATOM      1  C   UNL     1     -23.787  13.334 -26.364  1.00  0.00     0.165 C 
ENDROOT
BRANCH   1   2
ATOM      2  C   UNL     1     -23.899  11.918 -26.958  1.00  0.00     0.190 C 
BRANCH   2   3
ATOM      3  O   UNL     1     -24.859  11.170 -26.260  1.00  0.00    -0.394 OA
ATOM      4  H   UNL     1     -24.824  11.473 -25.315  1.00  0.00     0.210 HD
ENDBRANCH   2   3
ENDBRANCH   1   2
BRANCH   1   5
ATOM      5  C   UNL     1     -24.887  14.273 -26.889  1.00  0.00     0.190 C 
BRANCH   5   6
ATOM      6  O   UNL     1     -26.166  13.768 -26.608  1.00  0.00    -0.394 OA
ATOM      7  H   UNL     1     -26.326  13.911 -25.638  1.00  0.00     0.210 HD
ENDBRANCH   5   6
ENDBRANCH   1   5
BRANCH   1   8
ATOM      8  O   UNL     1     -22.513  13.881 -26.593  1.00  0.00    -0.388 OA
ATOM      9  H   UNL     1     -21.906  13.540 -25.884  1.00  0.00     0.211 HD
ENDBRANCH   1   8
TORSDOF 5
ENDMDL
MODEL 4
REMARK VINA RESULT:    -3.225     10.398     11.406
REMARK INTER + INTRA:          -3.888
REMARK INTER:                  -3.680
REMARK INTRA:                  -0.208
REMARK UNBOUND:                -0.003
REMARK SMILES OCC(O)CO
REMARK SMILES IDX 3 1 5 2 6 3 2 5 1 6 4 8
REMARK H PARENT 6 4 1 7 4 9
REMARK Flexibility Score: inf
ROOT
ATOM      1  C   UNL     1     -23.427  13.563 -26.769  1.00  0.00     0.165 C 
ENDROOT
BRANCH   1   2
ATOM      2  C   UNL     1     -24.510  14.171 -25.861  1.00  0.00     0.190 C 
BRANCH   2   3
ATOM      3  O   UNL     1     -25.764  14.109 -26.486  1.00  0.00    -0.394 OA
ATOM      4  H   UNL     1     -25.596  14.129 -27.465  1.00  0.00     0.210 HD
ENDBRANCH   2   3
ENDBRANCH   1   2
BRANCH   1   5
ATOM      5  C   UNL     1     -23.771  12.128 -27.205  1.00  0.00     0.190 C 
BRANCH   5   6
ATOM      6  O   UNL     1     -24.690  11.535 -26.325  1.00  0.00    -0.394 OA
ATOM      7  H   UNL     1     -24.463  10.570 -26.277  1.00  0.00     0.210 HD
ENDBRANCH   5   6
ENDBRANCH   1   5
BRANCH   1   8
ATOM      8  O   UNL     1     -22.164  13.608 -26.153  1.00  0.00    -0.388 OA
ATOM      9  H   UNL     1     -22.255  13.213 -25.247  1.00  0.00     0.211 HD
ENDBRANCH   1   8
TORSDOF 5
ENDMDL
MODEL 5
REMARK VINA RESULT:    -3.215     11.167     12.310
REMARK INTER + INTRA:          -3.876
REMARK INTER:                  -3.873
REMARK INTRA:                  -0.003
REMARK UNBOUND:                -0.003
REMARK SMILES OCC(O)CO
REMARK SMILES IDX 3 1 5 2 6 3 2 5 1 6 4 8
REMARK H PARENT 6 4 1 7 4 9
REMARK Flexibility Score: inf
ROOT
ATOM      1  C   UNL     1     -22.041  13.069 -26.523  1.00  0.00     0.165 C 
ENDROOT
BRANCH   1   2
ATOM      2  C   UNL     1     -23.425  13.678 -26.806  1.00  0.00     0.190 C 
BRANCH   2   3
ATOM      3  O   UNL     1     -24.320  13.359 -25.773  1.00  0.00    -0.394 OA
ATOM      4  H   UNL     1     -24.999  12.748 -26.163  1.00  0.00     0.210 HD
ENDBRANCH   2   3
ENDBRANCH   1   2
BRANCH   1   5
ATOM      5  C   UNL     1     -20.993  14.142 -26.177  1.00  0.00     0.190 C 
BRANCH   5   6
ATOM      6  O   UNL     1     -19.692  13.686 -26.436  1.00  0.00    -0.394 OA
ATOM      7  H   UNL     1     -19.424  13.122 -25.664  1.00  0.00     0.210 HD
ENDBRANCH   5   6
ENDBRANCH   1   5
BRANCH   1   8
ATOM      8  O   UNL     1     -21.605  12.276 -27.599  1.00  0.00    -0.388 OA
ATOM      9  H   UNL     1     -20.876  12.767 -28.061  1.00  0.00     0.211 HD
ENDBRANCH   1   8
TORSDOF 5
ENDMDL
MODEL 6
REMARK VINA RESULT:    -3.206     11.816     12.990
REMARK INTER + INTRA:          -3.865
REMARK INTER:                  -3.682
REMARK INTRA:                  -0.183
REMARK UNBOUND:                -0.003
REMARK SMILES OCC(O)CO
REMARK SMILES IDX 3 1 5 2 6 3 2 5 1 6 4 8
REMARK H PARENT 6 4 1 7 4 9
REMARK Flexibility Score: inf
ROOT
ATOM      1  C   UNL     1     -21.900  13.284 -26.308  1.00  0.00     0.165 C 
ENDROOT
BRANCH   1   2
ATOM      2  C   UNL     1     -20.812  14.371 -26.270  1.00  0.00     0.190 C 
BRANCH   2   3
ATOM      3  O   UNL     1     -19.542  13.788 -26.149  1.00  0.00    -0.394 OA
ATOM      4  H   UNL     1     -19.688  12.826 -25.947  1.00  0.00     0.210 HD
ENDBRANCH   2   3
ENDBRANCH   1   2
BRANCH   1   5
ATOM      5  C   UNL     1     -21.712  12.313 -27.487  1.00  0.00     0.190 C 
BRANCH   5   6
ATOM      6  O   UNL     1     -20.710  12.762 -28.361  1.00  0.00    -0.394 OA
ATOM      7  H   UNL     1     -19.875  12.285 -28.113  1.00  0.00     0.210 HD
ENDBRANCH   5   6
ENDBRANCH   1   5
BRANCH   1   8
ATOM      8  O   UNL     1     -23.186  13.852 -26.330  1.00  0.00    -0.388 OA
ATOM      9  H   UNL     1     -23.656  13.569 -25.502  1.00  0.00     0.211 HD
ENDBRANCH   1   8
TORSDOF 5
ENDMDL
MODEL 7
REMARK VINA RESULT:    -3.178     10.651     11.940
REMARK INTER + INTRA:          -3.831
REMARK INTER:                  -3.829
REMARK INTRA:                  -0.003
REMARK UNBOUND:                -0.003
REMARK SMILES OCC(O)CO
REMARK SMILES IDX 3 1 5 2 6 3 2 5 1 6 4 8
REMARK H PARENT 6 4 1 7 4 9
REMARK Flexibility Score: inf
ROOT
ATOM      1  C   UNL     1     -23.275  13.511 -26.897  1.00  0.00     0.165 C 
ENDROOT
BRANCH   1   2
ATOM      2  C   UNL     1     -21.876  13.563 -26.258  1.00  0.00     0.190 C 
BRANCH   2   3
ATOM      3  O   UNL     1     -20.937  14.056 -27.177  1.00  0.00    -0.394 OA
ATOM      4  H   UNL     1     -21.279  14.934 -27.490  1.00  0.00     0.210 HD
ENDBRANCH   2   3
ENDBRANCH   1   2
BRANCH   1   5
ATOM      5  C   UNL     1     -24.361  14.081 -25.968  1.00  0.00     0.190 C 
BRANCH   5   6
ATOM      6  O   UNL     1     -25.620  14.067 -26.587  1.00  0.00    -0.394 OA
ATOM      7  H   UNL     1     -25.739  14.953 -27.020  1.00  0.00     0.210 HD
ENDBRANCH   5   6
ENDBRANCH   1   5
BRANCH   1   8
ATOM      8  O   UNL     1     -23.600  12.205 -27.302  1.00  0.00    -0.388 OA
ATOM      9  H   UNL     1     -23.030  11.979 -28.083  1.00  0.00     0.211 HD
ENDBRANCH   1   8
TORSDOF 5
ENDMDL
MODEL 8
REMARK VINA RESULT:    -3.139     21.636     22.421
REMARK INTER + INTRA:          -3.785
REMARK INTER:                  -3.590
REMARK INTRA:                  -0.195
REMARK UNBOUND:                -0.003
REMARK SMILES OCC(O)CO
REMARK SMILES IDX 3 1 5 2 6 3 2 5 1 6 4 8
REMARK H PARENT 6 4 1 7 4 9
REMARK Flexibility Score: inf
ROOT
ATOM      1  C   UNL     1     -12.974   3.648 -22.959  1.00  0.00     0.165 C 
ENDROOT
BRANCH   1   2
ATOM      2  C   UNL     1     -13.679   2.283 -23.056  1.00  0.00     0.190 C 
BRANCH   2   3
ATOM      3  O   UNL     1     -14.922   2.328 -22.408  1.00  0.00    -0.394 OA
ATOM      4  H   UNL     1     -15.589   1.961 -23.045  1.00  0.00     0.210 HD
ENDBRANCH   2   3
ENDBRANCH   1   2
BRANCH   1   5
ATOM      5  C   UNL     1     -13.013   4.223 -21.533  1.00  0.00     0.190 C 
BRANCH   5   6
ATOM      6  O   UNL     1     -14.289   4.712 -21.215  1.00  0.00    -0.394 OA
ATOM      7  H   UNL     1     -14.798   4.766 -22.066  1.00  0.00     0.210 HD
ENDBRANCH   5   6
ENDBRANCH   1   5
BRANCH   1   8
ATOM      8  O   UNL     1     -13.510   4.563 -23.881  1.00  0.00    -0.388 OA
ATOM      9  H   UNL     1     -13.364   5.477 -23.521  1.00  0.00     0.211 HD
ENDBRANCH   1   8
TORSDOF 5
ENDMDL
MODEL 9
REMARK VINA RESULT:    -3.081     11.306     12.636
REMARK INTER + INTRA:          -3.714
REMARK INTER:                  -3.712
REMARK INTRA:                  -0.003
REMARK UNBOUND:                -0.003
REMARK SMILES OCC(O)CO
REMARK SMILES IDX 3 1 5 2 6 3 2 5 1 6 4 8
REMARK H PARENT 6 4 1 7 4 9
REMARK Flexibility Score: inf
ROOT
ATOM      1  C   UNL     1     -22.034  13.413 -26.778  1.00  0.00     0.165 C 
ENDROOT
BRANCH   1   2
ATOM      2  C   UNL     1     -20.866  13.427 -25.775  1.00  0.00     0.190 C 
BRANCH   2   3
ATOM      3  O   UNL     1     -19.642  13.524 -26.453  1.00  0.00    -0.394 OA
ATOM      4  H   UNL     1     -19.337  12.595 -26.625  1.00  0.00     0.210 HD
ENDBRANCH   2   3
ENDBRANCH   1   2
BRANCH   1   5
ATOM      5  C   UNL     1     -23.389  13.672 -26.096  1.00  0.00     0.190 C 
BRANCH   5   6
ATOM      6  O   UNL     1     -24.313  12.660 -26.398  1.00  0.00    -0.394 OA
ATOM      7  H   UNL     1     -24.538  12.752 -27.360  1.00  0.00     0.210 HD
ENDBRANCH   5   6
ENDBRANCH   1   5
BRANCH   1   8
ATOM      8  O   UNL     1     -22.064  12.211 -27.506  1.00  0.00    -0.388 OA
ATOM      9  H   UNL     1     -21.646  11.506 -26.945  1.00  0.00     0.211 HD
ENDBRANCH   1   8
TORSDOF 5
ENDMDL
