MODEL 1
REMARK VINA RESULT:    -4.511      0.000      0.000
REMARK INTER + INTRA:          -7.374
REMARK INTER:                  -6.094
REMARK INTRA:                  -1.281
REMARK UNBOUND:                -1.281
REMARK SMILES CC(=O)CCC=C(C)CCC=C(C)C
REMARK SMILES IDX 7 1 6 2 8 3 9 4 10 5 11 6 13 7 12 8 14 9 5 10 4 11 2 12 3 13
REMARK SMILES IDX 1 14
REMARK H PARENT
REMARK Flexibility Score: inf
ROOT
ATOM      1  C   UNL     1     -13.058  15.046 -29.981  1.00  0.00    -0.077 C 
ATOM      2  C   UNL     1     -13.988  14.076 -29.826  1.00  0.00    -0.028 C 
ATOM      3  C   UNL     1     -13.385  16.369 -30.634  1.00  0.00     0.039 C 
ENDROOT
BRANCH   1   4
ATOM      4  C   UNL     1     -11.642  14.792 -29.503  1.00  0.00     0.034 C 
BRANCH   4   5
ATOM      5  C   UNL     1     -10.600  15.209 -30.551  1.00  0.00     0.032 C 
BRANCH   5   6
ATOM      6  C   UNL     1     -10.463  14.178 -31.646  1.00  0.00    -0.028 C 
ATOM      7  C   UNL     1     -10.809  15.840 -33.488  1.00  0.00     0.039 C 
ATOM      8  C   UNL     1     -10.584  14.440 -32.966  1.00  0.00    -0.080 C 
ATOM      9  C   UNL     1     -10.472  13.295 -33.938  1.00  0.00     0.039 C 
ENDBRANCH   5   6
ENDBRANCH   4   5
ENDBRANCH   1   4
BRANCH   2  10
ATOM     10  C   UNL     1     -15.436  14.211 -30.227  1.00  0.00     0.035 C 
BRANCH  10  11
ATOM     11  C   UNL     1     -15.729  13.397 -31.491  1.00  0.00     0.079 C 
BRANCH  11  12
ATOM     12  C   UNL     1     -15.594  14.256 -32.720  1.00  0.00     0.130 C 
ATOM     13  O   UNL     1     -16.526  14.969 -33.060  1.00  0.00    -0.300 OA
ATOM     14  C   UNL     1     -14.333  14.265 -33.533  1.00  0.00     0.087 C 
ENDBRANCH  11  12
ENDBRANCH  10  11
ENDBRANCH   2  10
TORSDOF 6
ENDMDL
MODEL 2
REMARK VINA RESULT:    -4.476      2.533      5.144
REMARK INTER + INTRA:          -7.327
REMARK INTER:                  -6.182
REMARK INTRA:                  -1.145
REMARK UNBOUND:                -1.281
REMARK SMILES CC(=O)CCC=C(C)CCC=C(C)C
REMARK SMILES IDX 7 1 6 2 8 3 9 4 10 5 11 6 13 7 12 8 14 9 5 10 4 11 2 12 3 13
REMARK SMILES IDX 1 14
REMARK H PARENT
REMARK Flexibility Score: inf
ROOT
ATOM      1  C   UNL     1     -12.677  15.521 -31.487  1.00  0.00    -0.077 C 
ATOM      2  C   UNL     1     -12.790  15.500 -30.139  1.00  0.00    -0.028 C 
ATOM      3  C   UNL     1     -11.431  15.035 -32.191  1.00  0.00     0.039 C 
ENDROOT
BRANCH   1   4
ATOM      4  C   UNL     1     -13.825  16.064 -32.313  1.00  0.00     0.034 C 
BRANCH   4   5
ATOM      5  C   UNL     1     -14.594  14.946 -33.032  1.00  0.00     0.032 C 
BRANCH   5   6
ATOM      6  C   UNL     1     -15.852  14.564 -32.289  1.00  0.00    -0.028 C 
ATOM      7  C   UNL     1     -14.811  12.558 -31.210  1.00  0.00     0.039 C 
ATOM      8  C   UNL     1     -15.974  13.480 -31.492  1.00  0.00    -0.080 C 
ATOM      9  C   UNL     1     -17.312  13.203 -30.857  1.00  0.00     0.039 C 
ENDBRANCH   5   6
ENDBRANCH   4   5
ENDBRANCH   1   4
BRANCH   2  10
ATOM     10  C   UNL     1     -11.739  14.956 -29.203  1.00  0.00     0.035 C 
BRANCH  10  11
ATOM     11  C   UNL     1     -11.995  13.477 -28.897  1.00  0.00     0.079 C 
BRANCH  11  12
ATOM     12  C   UNL     1     -12.773  13.327 -27.617  1.00  0.00     0.130 C 
ATOM     13  O   UNL     1     -12.364  13.863 -26.598  1.00  0.00    -0.300 OA
ATOM     14  C   UNL     1     -14.049  12.539 -27.566  1.00  0.00     0.087 C 
ENDBRANCH  11  12
ENDBRANCH  10  11
ENDBRANCH   2  10
TORSDOF 6
ENDMDL
MODEL 3
REMARK VINA RESULT:    -4.446      2.439      5.208
REMARK INTER + INTRA:          -7.286
REMARK INTER:                  -5.958
REMARK INTRA:                  -1.329
REMARK UNBOUND:                -1.281
REMARK SMILES CC(=O)CCC=C(C)CCC=C(C)C
REMARK SMILES IDX 7 1 6 2 8 3 9 4 10 5 11 6 13 7 12 8 14 9 5 10 4 11 2 12 3 13
REMARK SMILES IDX 1 14
REMARK H PARENT
REMARK Flexibility Score: inf
ROOT
ATOM      1  C   UNL     1     -13.471  15.687 -31.883  1.00  0.00    -0.077 C 
ATOM      2  C   UNL     1     -12.332  14.958 -31.908  1.00  0.00    -0.028 C 
ATOM      3  C   UNL     1     -13.803  16.610 -30.733  1.00  0.00     0.039 C 
ENDROOT
BRANCH   1   4
ATOM      4  C   UNL     1     -14.452  15.560 -33.031  1.00  0.00     0.034 C 
BRANCH   4   5
ATOM      5  C   UNL     1     -15.118  14.176 -33.066  1.00  0.00     0.032 C 
BRANCH   5   6
ATOM      6  C   UNL     1     -16.133  14.016 -31.959  1.00  0.00    -0.028 C 
ATOM      7  C   UNL     1     -14.796  12.275 -30.753  1.00  0.00     0.039 C 
ATOM      8  C   UNL     1     -16.018  13.146 -30.932  1.00  0.00    -0.080 C 
ATOM      9  C   UNL     1     -17.140  13.065 -29.930  1.00  0.00     0.039 C 
ENDBRANCH   5   6
ENDBRANCH   4   5
ENDBRANCH   1   4
BRANCH   2  10
ATOM     10  C   UNL     1     -11.259  15.015 -30.849  1.00  0.00     0.035 C 
BRANCH  10  11
ATOM     11  C   UNL     1     -11.360  13.810 -29.908  1.00  0.00     0.079 C 
BRANCH  11  12
ATOM     12  C   UNL     1     -11.944  14.219 -28.582  1.00  0.00     0.130 C 
ATOM     13  O   UNL     1     -11.746  15.348 -28.160  1.00  0.00    -0.300 OA
ATOM     14  C   UNL     1     -12.775  13.270 -27.769  1.00  0.00     0.087 C 
ENDBRANCH  11  12
ENDBRANCH  10  11
ENDBRANCH   2  10
TORSDOF 6
ENDMDL
MODEL 4
REMARK VINA RESULT:    -4.343      1.750      3.997
REMARK INTER + INTRA:          -7.147
REMARK INTER:                  -6.113
REMARK INTRA:                  -1.034
REMARK UNBOUND:                -1.281
REMARK SMILES CC(=O)CCC=C(C)CCC=C(C)C
REMARK SMILES IDX 7 1 6 2 8 3 9 4 10 5 11 6 13 7 12 8 14 9 5 10 4 11 2 12 3 13
REMARK SMILES IDX 1 14
REMARK H PARENT
REMARK Flexibility Score: inf
ROOT
ATOM      1  C   UNL     1     -11.712  15.030 -30.236  1.00  0.00    -0.077 C 
ATOM      2  C   UNL     1     -12.845  15.295 -30.926  1.00  0.00    -0.028 C 
ATOM      3  C   UNL     1     -10.359  14.988 -30.909  1.00  0.00     0.039 C 
ENDROOT
BRANCH   1   4
ATOM      4  C   UNL     1     -11.804  14.749 -28.750  1.00  0.00     0.034 C 
BRANCH   4   5
ATOM      5  C   UNL     1     -12.157  13.282 -28.465  1.00  0.00     0.032 C 
BRANCH   5   6
ATOM      6  C   UNL     1     -13.602  13.124 -28.055  1.00  0.00    -0.028 C 
ATOM      7  C   UNL     1     -14.251  11.947 -30.169  1.00  0.00     0.039 C 
ATOM      8  C   UNL     1     -14.559  12.555 -28.820  1.00  0.00    -0.080 C 
ATOM      9  C   UNL     1     -15.970  12.516 -28.294  1.00  0.00     0.039 C 
ENDBRANCH   5   6
ENDBRANCH   4   5
ENDBRANCH   1   4
BRANCH   2  10
ATOM     10  C   UNL     1     -12.890  15.623 -32.398  1.00  0.00     0.035 C 
BRANCH  10  11
ATOM     11  C   UNL     1     -14.329  15.892 -32.851  1.00  0.00     0.079 C 
BRANCH  11  12
ATOM     12  C   UNL     1     -15.075  14.599 -33.046  1.00  0.00     0.130 C 
ATOM     13  O   UNL     1     -14.729  13.833 -33.933  1.00  0.00    -0.300 OA
ATOM     14  C   UNL     1     -16.230  14.223 -32.166  1.00  0.00     0.087 C 
ENDBRANCH  11  12
ENDBRANCH  10  11
ENDBRANCH   2  10
TORSDOF 6
ENDMDL
MODEL 5
REMARK VINA RESULT:    -4.335      2.389      3.886
REMARK INTER + INTRA:          -7.137
REMARK INTER:                  -5.968
REMARK INTRA:                  -1.168
REMARK UNBOUND:                -1.281
REMARK SMILES CC(=O)CCC=C(C)CCC=C(C)C
REMARK SMILES IDX 7 1 6 2 8 3 9 4 10 5 11 6 13 7 12 8 14 9 5 10 4 11 2 12 3 13
REMARK SMILES IDX 1 14
REMARK H PARENT
REMARK Flexibility Score: inf
ROOT
ATOM      1  C   UNL     1     -15.129  13.958 -30.644  1.00  0.00    -0.077 C 
ATOM      2  C   UNL     1     -15.447  13.924 -29.330  1.00  0.00    -0.028 C 
ATOM      3  C   UNL     1     -14.855  12.699 -31.433  1.00  0.00     0.039 C 
ENDROOT
BRANCH   1   4
ATOM      4  C   UNL     1     -15.025  15.300 -31.342  1.00  0.00     0.034 C 
BRANCH   4   5
ATOM      5  C   UNL     1     -13.898  16.164 -30.757  1.00  0.00     0.032 C 
BRANCH   5   6
ATOM      6  C   UNL     1     -12.537  15.685 -31.203  1.00  0.00    -0.028 C 
ATOM      7  C   UNL     1     -11.819  15.038 -28.892  1.00  0.00     0.039 C 
ATOM      8  C   UNL     1     -11.582  15.206 -30.375  1.00  0.00    -0.080 C 
ATOM      9  C   UNL     1     -10.252  14.814 -30.964  1.00  0.00     0.039 C 
ENDBRANCH   5   6
ENDBRANCH   4   5
ENDBRANCH   1   4
BRANCH   2  10
ATOM     10  C   UNL     1     -15.615  12.658 -28.526  1.00  0.00     0.035 C 
BRANCH  10  11
ATOM     11  C   UNL     1     -17.058  12.515 -28.033  1.00  0.00     0.079 C 
BRANCH  11  12
ATOM     12  C   UNL     1     -17.965  12.095 -29.159  1.00  0.00     0.130 C 
ATOM     13  O   UNL     1     -17.789  11.015 -29.702  1.00  0.00    -0.300 OA
ATOM     14  C   UNL     1     -19.091  12.971 -29.623  1.00  0.00     0.087 C 
ENDBRANCH  11  12
ENDBRANCH  10  11
ENDBRANCH   2  10
TORSDOF 6
ENDMDL
MODEL 6
REMARK VINA RESULT:    -4.200      2.156      5.155
REMARK INTER + INTRA:          -6.954
REMARK INTER:                  -5.683
REMARK INTRA:                  -1.271
REMARK UNBOUND:                -1.281
REMARK SMILES CC(=O)CCC=C(C)CCC=C(C)C
REMARK SMILES IDX 7 1 6 2 8 3 9 4 10 5 11 6 13 7 12 8 14 9 5 10 4 11 2 12 3 13
REMARK SMILES IDX 1 14
REMARK H PARENT
REMARK Flexibility Score: inf
ROOT
ATOM      1  C   UNL     1     -13.136  15.683 -31.982  1.00  0.00    -0.077 C 
ATOM      2  C   UNL     1     -11.989  15.191 -32.502  1.00  0.00    -0.028 C 
ATOM      3  C   UNL     1     -13.263  16.035 -30.518  1.00  0.00     0.039 C 
ENDROOT
BRANCH   1   4
ATOM      4  C   UNL     1     -14.335  15.870 -32.891  1.00  0.00     0.034 C 
BRANCH   4   5
ATOM      5  C   UNL     1     -15.029  14.537 -33.206  1.00  0.00     0.032 C 
BRANCH   5   6
ATOM      6  C   UNL     1     -16.126  14.228 -32.214  1.00  0.00    -0.028 C 
ATOM      7  C   UNL     1     -14.778  12.499 -31.003  1.00  0.00     0.039 C 
ATOM      8  C   UNL     1     -16.039  13.296 -31.240  1.00  0.00    -0.080 C 
ATOM      9  C   UNL     1     -17.239  13.067 -30.357  1.00  0.00     0.039 C 
ENDBRANCH   5   6
ENDBRANCH   4   5
ENDBRANCH   1   4
BRANCH   2  10
ATOM     10  C   UNL     1     -10.716  14.987 -31.718  1.00  0.00     0.035 C 
BRANCH  10  11
ATOM     11  C   UNL     1     -10.199  13.555 -31.883  1.00  0.00     0.079 C 
BRANCH  11  12
ATOM     12  C   UNL     1     -10.990  12.602 -31.026  1.00  0.00     0.130 C 
ATOM     13  O   UNL     1     -11.354  11.533 -31.493  1.00  0.00    -0.300 OA
ATOM     14  C   UNL     1     -11.335  12.933 -29.604  1.00  0.00     0.087 C 
ENDBRANCH  11  12
ENDBRANCH  10  11
ENDBRANCH   2  10
TORSDOF 6
ENDMDL
MODEL 7
REMARK VINA RESULT:    -4.191      1.719      2.712
REMARK INTER + INTRA:          -6.942
REMARK INTER:                  -5.627
REMARK INTRA:                  -1.316
REMARK UNBOUND:                -1.281
REMARK SMILES CC(=O)CCC=C(C)CCC=C(C)C
REMARK SMILES IDX 7 1 6 2 8 3 9 4 10 5 11 6 13 7 12 8 14 9 5 10 4 11 2 12 3 13
REMARK SMILES IDX 1 14
REMARK H PARENT
REMARK Flexibility Score: inf
ROOT
ATOM      1  C   UNL     1     -13.238  12.747 -28.778  1.00  0.00    -0.077 C 
ATOM      2  C   UNL     1     -14.529  13.150 -28.814  1.00  0.00    -0.028 C 
ATOM      3  C   UNL     1     -12.776  11.485 -29.467  1.00  0.00     0.039 C 
ENDROOT
BRANCH   1   4
ATOM      4  C   UNL     1     -12.229  13.576 -28.007  1.00  0.00     0.034 C 
BRANCH   4   5
ATOM      5  C   UNL     1     -12.061  14.979 -28.610  1.00  0.00     0.032 C 
BRANCH   5   6
ATOM      6  C   UNL     1     -11.807  14.922 -30.098  1.00  0.00    -0.028 C 
ATOM      7  C   UNL     1     -13.693  16.474 -30.652  1.00  0.00     0.039 C 
ATOM      8  C   UNL     1     -12.548  15.562 -31.028  1.00  0.00    -0.080 C 
ATOM      9  C   UNL     1     -12.201  15.367 -32.481  1.00  0.00     0.039 C 
ENDBRANCH   5   6
ENDBRANCH   4   5
ENDBRANCH   1   4
BRANCH   2  10
ATOM     10  C   UNL     1     -15.624  12.437 -29.568  1.00  0.00     0.035 C 
BRANCH  10  11
ATOM     11  C   UNL     1     -16.366  13.407 -30.493  1.00  0.00     0.079 C 
BRANCH  11  12
ATOM     12  C   UNL     1     -15.639  13.553 -31.803  1.00  0.00     0.130 C 
ATOM     13  O   UNL     1     -14.795  12.728 -32.119  1.00  0.00    -0.300 OA
ATOM     14  C   UNL     1     -15.936  14.689 -32.739  1.00  0.00     0.087 C 
ENDBRANCH  11  12
ENDBRANCH  10  11
ENDBRANCH   2  10
TORSDOF 6
ENDMDL
MODEL 8
REMARK VINA RESULT:    -4.124      2.784      4.370
REMARK INTER + INTRA:          -6.851
REMARK INTER:                  -5.643
REMARK INTRA:                  -1.208
REMARK UNBOUND:                -1.281
REMARK SMILES CC(=O)CCC=C(C)CCC=C(C)C
REMARK SMILES IDX 7 1 6 2 8 3 9 4 10 5 11 6 13 7 12 8 14 9 5 10 4 11 2 12 3 13
REMARK SMILES IDX 1 14
REMARK H PARENT
REMARK Flexibility Score: inf
ROOT
ATOM      1  C   UNL     1     -15.351  13.970 -30.464  1.00  0.00    -0.077 C 
ATOM      2  C   UNL     1     -14.752  12.768 -30.625  1.00  0.00    -0.028 C 
ATOM      3  C   UNL     1     -16.359  14.219 -29.367  1.00  0.00     0.039 C 
ENDROOT
BRANCH   1   4
ATOM      4  C   UNL     1     -15.015  15.094 -31.424  1.00  0.00     0.034 C 
BRANCH   4   5
ATOM      5  C   UNL     1     -13.959  16.046 -30.844  1.00  0.00     0.032 C 
BRANCH   5   6
ATOM      6  C   UNL     1     -12.562  15.662 -31.274  1.00  0.00    -0.028 C 
ATOM      7  C   UNL     1     -11.896  14.867 -28.994  1.00  0.00     0.039 C 
ATOM      8  C   UNL     1     -11.617  15.161 -30.450  1.00  0.00    -0.080 C 
ATOM      9  C   UNL     1     -10.251  14.872 -31.016  1.00  0.00     0.039 C 
ENDBRANCH   5   6
ENDBRANCH   4   5
ENDBRANCH   1   4
BRANCH   2  10
ATOM     10  C   UNL     1     -14.971  11.579 -29.723  1.00  0.00     0.035 C 
BRANCH  10  11
ATOM     11  C   UNL     1     -13.803  11.415 -28.745  1.00  0.00     0.079 C 
BRANCH  11  12
ATOM     12  C   UNL     1     -14.171  11.943 -27.384  1.00  0.00     0.130 C 
ATOM     13  O   UNL     1     -13.368  12.626 -26.766  1.00  0.00    -0.300 OA
ATOM     14  C   UNL     1     -15.511  11.658 -26.772  1.00  0.00     0.087 C 
ENDBRANCH  11  12
ENDBRANCH  10  11
ENDBRANCH   2  10
TORSDOF 6
ENDMDL
MODEL 9
REMARK VINA RESULT:    -4.006      1.891      3.657
REMARK INTER + INTRA:          -6.692
REMARK INTER:                  -5.261
REMARK INTRA:                  -1.430
REMARK UNBOUND:                -1.281
REMARK SMILES CC(=O)CCC=C(C)CCC=C(C)C
REMARK SMILES IDX 7 1 6 2 8 3 9 4 10 5 11 6 13 7 12 8 14 9 5 10 4 11 2 12 3 13
REMARK SMILES IDX 1 14
REMARK H PARENT
REMARK Flexibility Score: inf
ROOT
ATOM      1  C   UNL     1     -13.289  15.304 -31.502  1.00  0.00    -0.077 C 
ATOM      2  C   UNL     1     -13.980  14.224 -31.932  1.00  0.00    -0.028 C 
ATOM      3  C   UNL     1     -13.977  16.492 -30.869  1.00  0.00     0.039 C 
ENDROOT
BRANCH   1   4
ATOM      4  C   UNL     1     -11.783  15.332 -31.676  1.00  0.00     0.034 C 
BRANCH   4   5
ATOM      5  C   UNL     1     -11.089  14.255 -30.830  1.00  0.00     0.032 C 
BRANCH   5   6
ATOM      6  C   UNL     1     -11.500  14.332 -29.378  1.00  0.00    -0.028 C 
ATOM      7  C   UNL     1     -12.404  11.996 -29.334  1.00  0.00     0.039 C 
ATOM      8  C   UNL     1     -12.118  13.339 -28.702  1.00  0.00    -0.080 C 
ATOM      9  C   UNL     1     -12.513  13.584 -27.269  1.00  0.00     0.039 C 
ENDBRANCH   5   6
ENDBRANCH   4   5
ENDBRANCH   1   4
BRANCH   2  10
ATOM     10  C   UNL     1     -15.472  14.054 -31.791  1.00  0.00     0.035 C 
BRANCH  10  11
ATOM     11  C   UNL     1     -15.801  12.917 -30.818  1.00  0.00     0.079 C 
BRANCH  11  12
ATOM     12  C   UNL     1     -16.096  13.462 -29.445  1.00  0.00     0.130 C 
ATOM     13  O   UNL     1     -16.488  14.612 -29.326  1.00  0.00    -0.300 OA
ATOM     14  C   UNL     1     -15.929  12.616 -28.217  1.00  0.00     0.087 C 
ENDBRANCH  11  12
ENDBRANCH  10  11
ENDBRANCH   2  10
TORSDOF 6
ENDMDL
