MODEL 1
REMARK VINA RESULT:    -7.003      0.000      0.000
REMARK INTER + INTRA:          -8.746
REMARK INTER:                  -8.435
REMARK INTRA:                  -0.311
REMARK UNBOUND:                -0.311
REMARK SMILES Oc1cc(O)c2cc(O)c(-c3ccc(O)c(O)c3)[o+]c2c1
REMARK SMILES IDX 10 1 19 2 20 3 21 4 2 5 3 6 4 7 6 8 7 9 8 10 11 11 12 12
REMARK SMILES IDX 13 13 14 14 18 15 16 16 15 17 17 19 9 21 1 23 5 25
REMARK H PARENT 15 18 17 20 9 22 1 24 5 26
REMARK Flexibility Score: inf
ROOT
ATOM      1  C   UNL     1      22.624  16.776   3.873  1.00  0.00     0.402 A 
ATOM      2  O   UNL     1      23.505  15.780   3.881  1.00  0.00    -0.202 OA
ATOM      3  C   UNL     1      23.213  14.543   3.490  1.00  0.00     0.368 A 
ATOM      4  C   UNL     1      24.207  13.563   3.539  1.00  0.00     0.162 A 
ATOM      5  C   UNL     1      23.929  12.256   3.137  1.00  0.00     0.128 A 
ATOM      6  C   UNL     1      22.646  11.924   2.686  1.00  0.00     0.093 A 
ATOM      7  C   UNL     1      21.632  12.888   2.627  1.00  0.00     0.136 A 
ATOM      8  C   UNL     1      21.913  14.220   3.033  1.00  0.00     0.125 A 
ATOM      9  C   UNL     1      20.964  15.254   2.996  1.00  0.00     0.078 A 
ATOM     10  C   UNL     1      21.316  16.543   3.406  1.00  0.00     0.223 A 
ENDROOT
BRANCH   1  11
ATOM     11  C   UNL     1      23.067  18.108   4.342  1.00  0.00     0.087 A 
ATOM     12  C   UNL     1      23.817  18.963   3.516  1.00  0.00     0.022 A 
ATOM     13  C   UNL     1      24.205  20.226   3.973  1.00  0.00     0.051 A 
ATOM     14  C   UNL     1      23.839  20.658   5.254  1.00  0.00     0.157 A 
ATOM     15  C   UNL     1      22.685  18.554   5.618  1.00  0.00     0.068 A 
ATOM     16  C   UNL     1      23.072  19.818   6.080  1.00  0.00     0.158 A 
BRANCH  14  17
ATOM     17  O   UNL     1      24.229  21.917   5.708  1.00  0.00    -0.504 OA
ATOM     18  H   UNL     1      23.837  22.322   6.550  1.00  0.00     0.293 HD
ENDBRANCH  14  17
BRANCH  16  19
ATOM     19  O   UNL     1      22.686  20.220   7.357  1.00  0.00    -0.504 OA
ATOM     20  H   UNL     1      23.300  20.130   8.158  1.00  0.00     0.293 HD
ENDBRANCH  16  19
ENDBRANCH   1  11
BRANCH  10  21
ATOM     21  O   UNL     1      20.387  17.581   3.323  1.00  0.00    -0.500 OA
ATOM     22  H   UNL     1      20.070  17.943   2.432  1.00  0.00     0.294 HD
ENDBRANCH  10  21
BRANCH   5  23
ATOM     23  O   UNL     1      24.934  11.292   3.193  1.00  0.00    -0.507 OA
ATOM     24  H   UNL     1      25.395  11.058   4.065  1.00  0.00     0.293 HD
ENDBRANCH   5  23
BRANCH   7  25
ATOM     25  O   UNL     1      20.378  12.477   2.168  1.00  0.00    -0.507 OA
ATOM     26  H   UNL     1      19.664  12.067   2.751  1.00  0.00     0.293 HD
ENDBRANCH   7  25
TORSDOF 6
ENDMDL
MODEL 2
REMARK VINA RESULT:    -5.779      3.142      5.851
REMARK INTER + INTRA:          -7.272
REMARK INTER:                  -7.354
REMARK INTRA:                   0.082
REMARK UNBOUND:                -0.311
REMARK SMILES Oc1cc(O)c2cc(O)c(-c3ccc(O)c(O)c3)[o+]c2c1
REMARK SMILES IDX 10 1 19 2 20 3 21 4 2 5 3 6 4 7 6 8 7 9 8 10 11 11 12 12
REMARK SMILES IDX 13 13 14 14 18 15 16 16 15 17 17 19 9 21 1 23 5 25
REMARK H PARENT 15 18 17 20 9 22 1 24 5 26
REMARK Flexibility Score: inf
ROOT
ATOM      1  C   UNL     1      23.172  19.380   7.445  1.00  0.00     0.402 A 
ATOM      2  O   UNL     1      22.369  18.603   6.722  1.00  0.00    -0.202 OA
ATOM      3  C   UNL     1      22.568  18.344   5.434  1.00  0.00     0.368 A 
ATOM      4  C   UNL     1      21.666  17.519   4.759  1.00  0.00     0.162 A 
ATOM      5  C   UNL     1      21.848  17.232   3.406  1.00  0.00     0.128 A 
ATOM      6  C   UNL     1      22.940  17.776   2.720  1.00  0.00     0.093 A 
ATOM      7  C   UNL     1      23.859  18.606   3.373  1.00  0.00     0.136 A 
ATOM      8  C   UNL     1      23.677  18.898   4.750  1.00  0.00     0.125 A 
ATOM      9  C   UNL     1      24.554  19.708   5.490  1.00  0.00     0.078 A 
ATOM     10  C   UNL     1      24.313  19.946   6.846  1.00  0.00     0.223 A 
ENDROOT
BRANCH   1  11
ATOM     11  C   UNL     1      22.837  19.600   8.870  1.00  0.00     0.087 A 
ATOM     12  C   UNL     1      23.829  19.584   9.866  1.00  0.00     0.022 A 
ATOM     13  C   UNL     1      23.492  19.818  11.201  1.00  0.00     0.051 A 
ATOM     14  C   UNL     1      22.165  20.084  11.561  1.00  0.00     0.157 A 
ATOM     15  C   UNL     1      21.511  19.888   9.232  1.00  0.00     0.068 A 
ATOM     16  C   UNL     1      21.170  20.122  10.569  1.00  0.00     0.158 A 
BRANCH  14  17
ATOM     17  O   UNL     1      21.832  20.316  12.894  1.00  0.00    -0.504 OA
ATOM     18  H   UNL     1      21.910  21.237  13.308  1.00  0.00     0.293 HD
ENDBRANCH  14  17
BRANCH  16  19
ATOM     19  O   UNL     1      19.841  20.391  10.891  1.00  0.00    -0.504 OA
ATOM     20  H   UNL     1      19.586  21.016  11.647  1.00  0.00     0.293 HD
ENDBRANCH  16  19
ENDBRANCH   1  11
BRANCH  10  21
ATOM     21  O   UNL     1      25.210  20.711   7.592  1.00  0.00    -0.500 OA
ATOM     22  H   UNL     1      25.658  21.534   7.207  1.00  0.00     0.294 HD
ENDBRANCH  10  21
BRANCH   5  23
ATOM     23  O   UNL     1      20.937  16.406   2.750  1.00  0.00    -0.507 OA
ATOM     24  H   UNL     1      20.096  16.778   2.324  1.00  0.00     0.293 HD
ENDBRANCH   5  23
BRANCH   7  25
ATOM     25  O   UNL     1      24.921  19.111   2.618  1.00  0.00    -0.507 OA
ATOM     26  H   UNL     1      25.172  20.088   2.570  1.00  0.00     0.293 HD
ENDBRANCH   7  25
TORSDOF 6
ENDMDL
MODEL 3
REMARK VINA RESULT:    -5.552      1.355      1.987
REMARK INTER + INTRA:          -6.999
REMARK INTER:                  -6.688
REMARK INTRA:                  -0.311
REMARK UNBOUND:                -0.311
REMARK SMILES Oc1cc(O)c2cc(O)c(-c3ccc(O)c(O)c3)[o+]c2c1
REMARK SMILES IDX 10 1 19 2 20 3 21 4 2 5 3 6 4 7 6 8 7 9 8 10 11 11 12 12
REMARK SMILES IDX 13 13 14 14 18 15 16 16 15 17 17 19 9 21 1 23 5 25
REMARK H PARENT 15 18 17 20 9 22 1 24 5 26
REMARK Flexibility Score: inf
ROOT
ATOM      1  C   UNL     1      21.631  16.619   4.325  1.00  0.00     0.402 A 
ATOM      2  O   UNL     1      22.351  15.563   3.953  1.00  0.00    -0.202 OA
ATOM      3  C   UNL     1      21.811  14.415   3.557  1.00  0.00     0.368 A 
ATOM      4  C   UNL     1      22.651  13.361   3.190  1.00  0.00     0.162 A 
ATOM      5  C   UNL     1      22.113  12.144   2.773  1.00  0.00     0.128 A 
ATOM      6  C   UNL     1      20.725  11.976   2.723  1.00  0.00     0.093 A 
ATOM      7  C   UNL     1      19.861  13.016   3.085  1.00  0.00     0.136 A 
ATOM      8  C   UNL     1      20.405  14.258   3.508  1.00  0.00     0.125 A 
ATOM      9  C   UNL     1      19.617  15.360   3.878  1.00  0.00     0.078 A 
ATOM     10  C   UNL     1      20.225  16.553   4.278  1.00  0.00     0.223 A 
ENDROOT
BRANCH   1  11
ATOM     11  C   UNL     1      22.349  17.840   4.756  1.00  0.00     0.087 A 
ATOM     12  C   UNL     1      22.428  18.203   6.111  1.00  0.00     0.022 A 
ATOM     13  C   UNL     1      23.131  19.347   6.497  1.00  0.00     0.051 A 
ATOM     14  C   UNL     1      23.776  20.138   5.537  1.00  0.00     0.157 A 
ATOM     15  C   UNL     1      23.014  18.624   3.800  1.00  0.00     0.068 A 
ATOM     16  C   UNL     1      23.719  19.772   4.181  1.00  0.00     0.158 A 
BRANCH  14  17
ATOM     17  O   UNL     1      24.476  21.280   5.924  1.00  0.00    -0.504 OA
ATOM     18  H   UNL     1      24.764  21.979   5.250  1.00  0.00     0.293 HD
ENDBRANCH  14  17
BRANCH  16  19
ATOM     19  O   UNL     1      24.356  20.533   3.202  1.00  0.00    -0.504 OA
ATOM     20  H   UNL     1      23.983  21.420   2.883  1.00  0.00     0.293 HD
ENDBRANCH  16  19
ENDBRANCH   1  11
BRANCH  10  21
ATOM     21  O   UNL     1      19.444  17.664   4.598  1.00  0.00    -0.500 OA
ATOM     22  H   UNL     1      19.566  18.169   5.467  1.00  0.00     0.294 HD
ENDBRANCH  10  21
BRANCH   5  23
ATOM     23  O   UNL     1      22.968  11.103   2.410  1.00  0.00    -0.507 OA
ATOM     24  H   UNL     1      23.945  11.102   2.681  1.00  0.00     0.293 HD
ENDBRANCH   5  23
BRANCH   7  25
ATOM     25  O   UNL     1      18.488  12.769   3.012  1.00  0.00    -0.507 OA
ATOM     26  H   UNL     1      18.079  11.854   2.897  1.00  0.00     0.293 HD
ENDBRANCH   7  25
TORSDOF 6
ENDMDL
MODEL 4
REMARK VINA RESULT:    -5.473      3.547      8.113
REMARK INTER + INTRA:          -6.904
REMARK INTER:                  -6.950
REMARK INTRA:                   0.046
REMARK UNBOUND:                -0.311
REMARK SMILES Oc1cc(O)c2cc(O)c(-c3ccc(O)c(O)c3)[o+]c2c1
REMARK SMILES IDX 10 1 19 2 20 3 21 4 2 5 3 6 4 7 6 8 7 9 8 10 11 11 12 12
REMARK SMILES IDX 13 13 14 14 18 15 16 16 15 17 17 19 9 21 1 23 5 25
REMARK H PARENT 15 18 17 20 9 22 1 24 5 26
REMARK Flexibility Score: inf
ROOT
ATOM      1  C   UNL     1      23.555  19.406   7.526  1.00  0.00     0.402 A 
ATOM      2  O   UNL     1      22.480  19.322   8.306  1.00  0.00    -0.202 OA
ATOM      3  C   UNL     1      22.478  19.673   9.588  1.00  0.00     0.368 A 
ATOM      4  C   UNL     1      21.299  19.544  10.326  1.00  0.00     0.162 A 
ATOM      5  C   UNL     1      21.269  19.903  11.674  1.00  0.00     0.128 A 
ATOM      6  C   UNL     1      22.425  20.391  12.291  1.00  0.00     0.093 A 
ATOM      7  C   UNL     1      23.620  20.530  11.574  1.00  0.00     0.136 A 
ATOM      8  C   UNL     1      23.654  20.169  10.201  1.00  0.00     0.125 A 
ATOM      9  C   UNL     1      24.802  20.286   9.401  1.00  0.00     0.078 A 
ATOM     10  C   UNL     1      24.757  19.915   8.053  1.00  0.00     0.223 A 
ENDROOT
BRANCH   1  11
ATOM     11  C   UNL     1      23.433  18.974   6.116  1.00  0.00     0.087 A 
ATOM     12  C   UNL     1      23.962  19.745   5.066  1.00  0.00     0.022 A 
ATOM     13  C   UNL     1      23.855  19.305   3.744  1.00  0.00     0.051 A 
ATOM     14  C   UNL     1      23.231  18.086   3.452  1.00  0.00     0.157 A 
ATOM     15  C   UNL     1      22.827  17.743   5.820  1.00  0.00     0.068 A 
ATOM     16  C   UNL     1      22.717  17.299   4.497  1.00  0.00     0.158 A 
BRANCH  14  17
ATOM     17  O   UNL     1      23.124  17.650   2.132  1.00  0.00    -0.504 OA
ATOM     18  H   UNL     1      22.557  18.146   1.454  1.00  0.00     0.293 HD
ENDBRANCH  14  17
BRANCH  16  19
ATOM     19  O   UNL     1      22.096  16.078   4.241  1.00  0.00    -0.504 OA
ATOM     20  H   UNL     1      21.445  15.657   4.895  1.00  0.00     0.293 HD
ENDBRANCH  16  19
ENDBRANCH   1  11
BRANCH  10  21
ATOM     21  O   UNL     1      25.883  20.077   7.246  1.00  0.00    -0.500 OA
ATOM     22  H   UNL     1      26.644  20.692   7.509  1.00  0.00     0.294 HD
ENDBRANCH  10  21
BRANCH   5  23
ATOM     23  O   UNL     1      20.082  19.767  12.393  1.00  0.00    -0.507 OA
ATOM     24  H   UNL     1      19.513  18.931  12.324  1.00  0.00     0.293 HD
ENDBRANCH   5  23
BRANCH   7  25
ATOM     25  O   UNL     1      24.732  21.022  12.263  1.00  0.00    -0.507 OA
ATOM     26  H   UNL     1      25.170  20.557  13.044  1.00  0.00     0.293 HD
ENDBRANCH   7  25
TORSDOF 6
ENDMDL
MODEL 5
REMARK VINA RESULT:    -4.757      5.324      8.686
REMARK INTER + INTRA:          -6.041
REMARK INTER:                  -6.408
REMARK INTRA:                   0.366
REMARK UNBOUND:                -0.311
REMARK SMILES Oc1cc(O)c2cc(O)c(-c3ccc(O)c(O)c3)[o+]c2c1
REMARK SMILES IDX 10 1 19 2 20 3 21 4 2 5 3 6 4 7 6 8 7 9 8 10 11 11 12 12
REMARK SMILES IDX 13 13 14 14 18 15 16 16 15 17 17 19 9 21 1 23 5 25
REMARK H PARENT 15 18 17 20 9 22 1 24 5 26
REMARK Flexibility Score: inf
ROOT
ATOM      1  C   UNL     1      21.304  19.658  10.317  1.00  0.00     0.402 A 
ATOM      2  O   UNL     1      21.356  19.532   8.993  1.00  0.00    -0.202 OA
ATOM      3  C   UNL     1      22.475  19.673   8.289  1.00  0.00     0.368 A 
ATOM      4  C   UNL     1      22.427  19.526   6.901  1.00  0.00     0.162 A 
ATOM      5  C   UNL     1      23.585  19.670   6.137  1.00  0.00     0.128 A 
ATOM      6  C   UNL     1      24.801  19.968   6.763  1.00  0.00     0.093 A 
ATOM      7  C   UNL     1      24.875  20.121   8.153  1.00  0.00     0.136 A 
ATOM      8  C   UNL     1      23.699  19.971   8.934  1.00  0.00     0.125 A 
ATOM      9  C   UNL     1      23.682  20.094  10.333  1.00  0.00     0.078 A 
ATOM     10  C   UNL     1      22.485  19.927  11.036  1.00  0.00     0.223 A 
ENDROOT
BRANCH   1  11
ATOM     11  C   UNL     1      19.995  19.487  10.986  1.00  0.00     0.087 A 
ATOM     12  C   UNL     1      19.904  19.270  12.372  1.00  0.00     0.022 A 
ATOM     13  C   UNL     1      18.655  19.135  12.985  1.00  0.00     0.051 A 
ATOM     14  C   UNL     1      17.481  19.228  12.227  1.00  0.00     0.157 A 
ATOM     15  C   UNL     1      18.815  19.601  10.234  1.00  0.00     0.068 A 
ATOM     16  C   UNL     1      17.562  19.466  10.844  1.00  0.00     0.158 A 
BRANCH  14  17
ATOM     17  O   UNL     1      16.237  19.092  12.841  1.00  0.00    -0.504 OA
ATOM     18  H   UNL     1      16.003  19.604  13.684  1.00  0.00     0.293 HD
ENDBRANCH  14  17
BRANCH  16  19
ATOM     19  O   UNL     1      16.413  19.571  10.063  1.00  0.00    -0.504 OA
ATOM     20  H   UNL     1      15.495  19.332  10.420  1.00  0.00     0.293 HD
ENDBRANCH  16  19
ENDBRANCH   1  11
BRANCH  10  21
ATOM     21  O   UNL     1      22.476  20.000  12.429  1.00  0.00    -0.500 OA
ATOM     22  H   UNL     1      22.776  19.223  13.005  1.00  0.00     0.294 HD
ENDBRANCH  10  21
BRANCH   5  23
ATOM     23  O   UNL     1      23.517  19.519   4.752  1.00  0.00    -0.507 OA
ATOM     24  H   UNL     1      24.351  19.379   4.194  1.00  0.00     0.293 HD
ENDBRANCH   5  23
BRANCH   7  25
ATOM     25  O   UNL     1      26.125  20.420   8.702  1.00  0.00    -0.507 OA
ATOM     26  H   UNL     1      26.262  20.905   9.576  1.00  0.00     0.293 HD
ENDBRANCH   7  25
TORSDOF 6
ENDMDL
MODEL 6
REMARK VINA RESULT:    -4.667      4.429      8.485
REMARK INTER + INTRA:          -5.932
REMARK INTER:                  -5.807
REMARK INTRA:                  -0.125
REMARK UNBOUND:                -0.311
REMARK SMILES Oc1cc(O)c2cc(O)c(-c3ccc(O)c(O)c3)[o+]c2c1
REMARK SMILES IDX 10 1 19 2 20 3 21 4 2 5 3 6 4 7 6 8 7 9 8 10 11 11 12 12
REMARK SMILES IDX 13 13 14 14 18 15 16 16 15 17 17 19 9 21 1 23 5 25
REMARK H PARENT 15 18 17 20 9 22 1 24 5 26
REMARK Flexibility Score: inf
ROOT
ATOM      1  C   UNL     1      22.716  19.686   8.794  1.00  0.00     0.402 A 
ATOM      2  O   UNL     1      21.435  19.511   9.107  1.00  0.00    -0.202 OA
ATOM      3  C   UNL     1      20.973  19.567  10.352  1.00  0.00     0.368 A 
ATOM      4  C   UNL     1      19.610  19.365  10.581  1.00  0.00     0.162 A 
ATOM      5  C   UNL     1      19.097  19.416  11.877  1.00  0.00     0.128 A 
ATOM      6  C   UNL     1      19.953  19.669  12.955  1.00  0.00     0.093 A 
ATOM      7  C   UNL     1      21.323  19.875  12.753  1.00  0.00     0.136 A 
ATOM      8  C   UNL     1      21.847  19.826  11.435  1.00  0.00     0.125 A 
ATOM      9  C   UNL     1      23.204  20.033  11.136  1.00  0.00     0.078 A 
ATOM     10  C   UNL     1      23.646  19.975   9.811  1.00  0.00     0.223 A 
ENDROOT
BRANCH   1  11
ATOM     11  C   UNL     1      23.109  19.589   7.370  1.00  0.00     0.087 A 
ATOM     12  C   UNL     1      22.880  18.420   6.625  1.00  0.00     0.022 A 
ATOM     13  C   UNL     1      23.238  18.360   5.276  1.00  0.00     0.051 A 
ATOM     14  C   UNL     1      23.819  19.470   4.648  1.00  0.00     0.157 A 
ATOM     15  C   UNL     1      23.672  20.706   6.731  1.00  0.00     0.068 A 
ATOM     16  C   UNL     1      24.034  20.650   5.380  1.00  0.00     0.158 A 
BRANCH  14  17
ATOM     17  O   UNL     1      24.177  19.407   3.303  1.00  0.00    -0.504 OA
ATOM     18  H   UNL     1      25.126  19.588   2.997  1.00  0.00     0.293 HD
ENDBRANCH  14  17
BRANCH  16  19
ATOM     19  O   UNL     1      24.603  21.774   4.784  1.00  0.00    -0.504 OA
ATOM     20  H   UNL     1      24.963  21.757   3.837  1.00  0.00     0.293 HD
ENDBRANCH  16  19
ENDBRANCH   1  11
BRANCH  10  21
ATOM     21  O   UNL     1      24.984  20.229   9.509  1.00  0.00    -0.500 OA
ATOM     22  H   UNL     1      25.545  20.864  10.064  1.00  0.00     0.294 HD
ENDBRANCH  10  21
BRANCH   5  23
ATOM     23  O   UNL     1      17.734  19.212  12.085  1.00  0.00    -0.507 OA
ATOM     24  H   UNL     1      17.294  18.323  11.877  1.00  0.00     0.293 HD
ENDBRANCH   5  23
BRANCH   7  25
ATOM     25  O   UNL     1      22.111  20.118  13.881  1.00  0.00    -0.507 OA
ATOM     26  H   UNL     1      22.832  19.497  14.217  1.00  0.00     0.293 HD
ENDBRANCH   7  25
TORSDOF 6
ENDMDL
MODEL 7
REMARK VINA RESULT:    -4.554      2.421      3.410
REMARK INTER + INTRA:          -5.796
REMARK INTER:                  -5.639
REMARK INTRA:                  -0.157
REMARK UNBOUND:                -0.311
REMARK SMILES Oc1cc(O)c2cc(O)c(-c3ccc(O)c(O)c3)[o+]c2c1
REMARK SMILES IDX 10 1 19 2 20 3 21 4 2 5 3 6 4 7 6 8 7 9 8 10 11 11 12 12
REMARK SMILES IDX 13 13 14 14 18 15 16 16 15 17 17 19 9 21 1 23 5 25
REMARK H PARENT 15 18 17 20 9 22 1 24 5 26
REMARK Flexibility Score: inf
ROOT
ATOM      1  C   UNL     1      23.738  18.600   5.749  1.00  0.00     0.402 A 
ATOM      2  O   UNL     1      24.537  17.712   5.161  1.00  0.00    -0.202 OA
ATOM      3  C   UNL     1      24.164  16.969   4.124  1.00  0.00     0.368 A 
ATOM      4  C   UNL     1      25.073  16.060   3.578  1.00  0.00     0.162 A 
ATOM      5  C   UNL     1      24.709  15.266   2.491  1.00  0.00     0.128 A 
ATOM      6  C   UNL     1      23.426  15.378   1.945  1.00  0.00     0.093 A 
ATOM      7  C   UNL     1      22.495  16.281   2.474  1.00  0.00     0.136 A 
ATOM      8  C   UNL     1      22.864  17.093   3.579  1.00  0.00     0.125 A 
ATOM      9  C   UNL     1      22.002  18.034   4.166  1.00  0.00     0.078 A 
ATOM     10  C   UNL     1      22.438  18.803   5.249  1.00  0.00     0.223 A 
ENDROOT
BRANCH   1  11
ATOM     11  C   UNL     1      24.266  19.361   6.904  1.00  0.00     0.087 A 
ATOM     12  C   UNL     1      25.361  20.232   6.769  1.00  0.00     0.022 A 
ATOM     13  C   UNL     1      25.826  20.957   7.869  1.00  0.00     0.051 A 
ATOM     14  C   UNL     1      25.200  20.833   9.115  1.00  0.00     0.157 A 
ATOM     15  C   UNL     1      23.628  19.255   8.150  1.00  0.00     0.068 A 
ATOM     16  C   UNL     1      24.092  19.979   9.255  1.00  0.00     0.158 A 
BRANCH  14  17
ATOM     17  O   UNL     1      25.667  21.556  10.211  1.00  0.00    -0.504 OA
ATOM     18  H   UNL     1      26.453  22.191  10.131  1.00  0.00     0.293 HD
ENDBRANCH  14  17
BRANCH  16  19
ATOM     19  O   UNL     1      23.441  19.837  10.479  1.00  0.00    -0.504 OA
ATOM     20  H   UNL     1      23.164  18.932  10.841  1.00  0.00     0.293 HD
ENDBRANCH  16  19
ENDBRANCH   1  11
BRANCH  10  21
ATOM     21  O   UNL     1      21.600  19.772   5.801  1.00  0.00    -0.500 OA
ATOM     22  H   UNL     1      21.623  20.736   5.489  1.00  0.00     0.294 HD
ENDBRANCH  10  21
BRANCH   5  23
ATOM     23  O   UNL     1      25.631  14.365   1.960  1.00  0.00    -0.507 OA
ATOM     24  H   UNL     1      26.205  13.780   2.557  1.00  0.00     0.293 HD
ENDBRANCH   5  23
BRANCH   7  25
ATOM     25  O   UNL     1      21.234  16.331   1.875  1.00  0.00    -0.507 OA
ATOM     26  H   UNL     1      21.069  16.241   0.883  1.00  0.00     0.293 HD
ENDBRANCH   7  25
TORSDOF 6
ENDMDL
MODEL 8
REMARK VINA RESULT:    -4.440      1.413      6.816
REMARK INTER + INTRA:          -5.659
REMARK INTER:                  -6.134
REMARK INTRA:                   0.475
REMARK UNBOUND:                -0.311
REMARK SMILES Oc1cc(O)c2cc(O)c(-c3ccc(O)c(O)c3)[o+]c2c1
REMARK SMILES IDX 10 1 19 2 20 3 21 4 2 5 3 6 4 7 6 8 7 9 8 10 11 11 12 12
REMARK SMILES IDX 13 13 14 14 18 15 16 16 15 17 17 19 9 21 1 23 5 25
REMARK H PARENT 15 18 17 20 9 22 1 24 5 26
REMARK Flexibility Score: inf
ROOT
ATOM      1  C   UNL     1      22.466  16.438   4.311  1.00  0.00     0.402 A 
ATOM      2  O   UNL     1      23.546  16.989   4.860  1.00  0.00    -0.202 OA
ATOM      3  C   UNL     1      23.539  18.181   5.447  1.00  0.00     0.368 A 
ATOM      4  C   UNL     1      24.726  18.678   5.991  1.00  0.00     0.162 A 
ATOM      5  C   UNL     1      24.749  19.926   6.612  1.00  0.00     0.128 A 
ATOM      6  C   UNL     1      23.578  20.688   6.689  1.00  0.00     0.093 A 
ATOM      7  C   UNL     1      22.375  20.214   6.152  1.00  0.00     0.136 A 
ATOM      8  C   UNL     1      22.347  18.942   5.521  1.00  0.00     0.125 A 
ATOM      9  C   UNL     1      21.185  18.381   4.967  1.00  0.00     0.078 A 
ATOM     10  C   UNL     1      21.234  17.119   4.367  1.00  0.00     0.223 A 
ENDROOT
BRANCH   1  11
ATOM     11  C   UNL     1      22.603  15.108   3.677  1.00  0.00     0.087 A 
ATOM     12  C   UNL     1      23.862  14.509   3.496  1.00  0.00     0.022 A 
ATOM     13  C   UNL     1      23.965  13.242   2.916  1.00  0.00     0.051 A 
ATOM     14  C   UNL     1      22.813  12.550   2.519  1.00  0.00     0.157 A 
ATOM     15  C   UNL     1      21.451  14.401   3.297  1.00  0.00     0.068 A 
ATOM     16  C   UNL     1      21.549  13.132   2.714  1.00  0.00     0.158 A 
BRANCH  14  17
ATOM     17  O   UNL     1      22.919  11.287   1.939  1.00  0.00    -0.504 OA
ATOM     18  H   UNL     1      22.579  11.104   1.002  1.00  0.00     0.293 HD
ENDBRANCH  14  17
BRANCH  16  19
ATOM     19  O   UNL     1      20.384  12.468   2.337  1.00  0.00    -0.504 OA
ATOM     20  H   UNL     1      20.169  11.531   2.662  1.00  0.00     0.293 HD
ENDBRANCH  16  19
ENDBRANCH   1  11
BRANCH  10  21
ATOM     21  O   UNL     1      20.071  16.540   3.860  1.00  0.00    -0.500 OA
ATOM     22  H   UNL     1      19.381  17.084   3.356  1.00  0.00     0.294 HD
ENDBRANCH  10  21
BRANCH   5  23
ATOM     23  O   UNL     1      25.944  20.404   7.149  1.00  0.00    -0.507 OA
ATOM     24  H   UNL     1      26.742  19.796   7.290  1.00  0.00     0.293 HD
ENDBRANCH   5  23
BRANCH   7  25
ATOM     25  O   UNL     1      21.250  21.035   6.266  1.00  0.00    -0.507 OA
ATOM     26  H   UNL     1      20.733  21.178   7.121  1.00  0.00     0.293 HD
ENDBRANCH   7  25
TORSDOF 6
ENDMDL
MODEL 9
REMARK VINA RESULT:    -4.130      2.008      6.922
REMARK INTER + INTRA:          -5.286
REMARK INTER:                  -5.343
REMARK INTRA:                   0.058
REMARK UNBOUND:                -0.311
REMARK SMILES Oc1cc(O)c2cc(O)c(-c3ccc(O)c(O)c3)[o+]c2c1
REMARK SMILES IDX 10 1 19 2 20 3 21 4 2 5 3 6 4 7 6 8 7 9 8 10 11 11 12 12
REMARK SMILES IDX 13 13 14 14 18 15 16 16 15 17 17 19 9 21 1 23 5 25
REMARK H PARENT 15 18 17 20 9 22 1 24 5 26
REMARK Flexibility Score: inf
ROOT
ATOM      1  C   UNL     1      20.995  16.758   4.581  1.00  0.00     0.402 A 
ATOM      2  O   UNL     1      22.247  16.865   5.019  1.00  0.00    -0.202 OA
ATOM      3  C   UNL     1      22.773  18.003   5.459  1.00  0.00     0.368 A 
ATOM      4  C   UNL     1      24.100  18.015   5.894  1.00  0.00     0.162 A 
ATOM      5  C   UNL     1      24.679  19.196   6.359  1.00  0.00     0.128 A 
ATOM      6  C   UNL     1      23.927  20.376   6.389  1.00  0.00     0.093 A 
ATOM      7  C   UNL     1      22.595  20.391   5.958  1.00  0.00     0.136 A 
ATOM      8  C   UNL     1      22.002  19.190   5.486  1.00  0.00     0.125 A 
ATOM      9  C   UNL     1      20.670  19.107   5.047  1.00  0.00     0.078 A 
ATOM     10  C   UNL     1      20.154  17.887   4.601  1.00  0.00     0.223 A 
ENDROOT
BRANCH   1  11
ATOM     11  C   UNL     1      20.529  15.436   4.106  1.00  0.00     0.087 A 
ATOM     12  C   UNL     1      19.272  14.927   4.474  1.00  0.00     0.022 A 
ATOM     13  C   UNL     1      18.843  13.687   3.993  1.00  0.00     0.051 A 
ATOM     14  C   UNL     1      19.657  12.943   3.129  1.00  0.00     0.157 A 
ATOM     15  C   UNL     1      21.332  14.697   3.223  1.00  0.00     0.068 A 
ATOM     16  C   UNL     1      20.908  13.453   2.740  1.00  0.00     0.158 A 
BRANCH  14  17
ATOM     17  O   UNL     1      19.228  11.706   2.653  1.00  0.00    -0.504 OA
ATOM     18  H   UNL     1      18.869  10.993   3.277  1.00  0.00     0.293 HD
ENDBRANCH  14  17
BRANCH  16  19
ATOM     19  O   UNL     1      21.738  12.742   1.876  1.00  0.00    -0.504 OA
ATOM     20  H   UNL     1      21.383  12.275   1.050  1.00  0.00     0.293 HD
ENDBRANCH  16  19
ENDBRANCH   1  11
BRANCH  10  21
ATOM     21  O   UNL     1      18.818  17.794   4.212  1.00  0.00    -0.500 OA
ATOM     22  H   UNL     1      18.102  17.449   4.840  1.00  0.00     0.294 HD
ENDBRANCH  10  21
BRANCH   5  23
ATOM     23  O   UNL     1      26.005  19.188   6.790  1.00  0.00    -0.507 OA
ATOM     24  H   UNL     1      26.246  19.020   7.760  1.00  0.00     0.293 HD
ENDBRANCH   5  23
BRANCH   7  25
ATOM     25  O   UNL     1      21.913  21.609   6.015  1.00  0.00    -0.507 OA
ATOM     26  H   UNL     1      21.112  21.842   5.446  1.00  0.00     0.293 HD
ENDBRANCH   7  25
TORSDOF 6
ENDMDL
