MODEL 1
REMARK VINA RESULT:    -6.912      0.000      0.000
REMARK INTER + INTRA:          -9.693
REMARK INTER:                  -8.731
REMARK INTRA:                  -0.962
REMARK UNBOUND:                -0.962
REMARK SMILES CC(C)[C@@H](C)C=C[C@H](C)[C@@H]1CC[C@@H]2C3=CC=C4C[C@@H](O)CC[C@]4(C)[C@@H]3CC[C@@]21C
REMARK SMILES IDX 8 1 9 2 7 3 6 4 4 5 5 6 2 7 1 8 3 9 10 10 11 11 28 12 12 13
REMARK SMILES IDX 13 14 27 15 29 16 14 17 26 18 25 19 15 20 23 21 16 22 17 23
REMARK SMILES IDX 22 24 24 25 18 26 21 27 19 28 20 29
REMARK H PARENT 20 30
REMARK Flexibility Score: inf
ROOT
ATOM      1  C   UNL     1     122.323 119.689 117.698  1.00  0.00     0.012 C 
ATOM      2  C   UNL     1     123.507 118.854 118.204  1.00  0.00     0.012 C 
ENDROOT
BRANCH   1   3
ATOM      3  C   UNL     1     122.435 119.877 116.198  1.00  0.00    -0.028 C 
ATOM      4  C   UNL     1     123.364 119.253 115.454  1.00  0.00    -0.028 C 
BRANCH   4   5
ATOM      5  C   UNL     1     123.489 119.496 113.966  1.00  0.00     0.011 C 
ATOM      6  C   UNL     1     124.360 120.735 113.717  1.00  0.00     0.012 C 
BRANCH   5   7
ATOM      7  C   UNL     1     122.101 119.601 113.267  1.00  0.00    -0.011 C 
ATOM      8  C   UNL     1     121.374 118.250 113.137  1.00  0.00     0.008 C 
ATOM      9  C   UNL     1     122.224 120.266 111.887  1.00  0.00     0.008 C 
ENDBRANCH   5   7
ENDBRANCH   4   5
ENDBRANCH   1   3
BRANCH   1  10
ATOM     10  C   UNL     1     120.921 119.100 118.080  1.00  0.00     0.002 C 
ATOM     11  C   UNL     1     119.857 119.480 117.038  1.00  0.00     0.005 C 
ATOM     12  C   UNL     1     120.266 119.458 119.456  1.00  0.00    -0.023 C 
ATOM     13  C   UNL     1     118.500 119.370 117.727  1.00  0.00     0.009 C 
ATOM     14  C   UNL     1     118.787 119.056 119.197  1.00  0.00     0.021 C 
ATOM     15  C   UNL     1     120.437 120.975 119.850  1.00  0.00     0.008 C 
ATOM     16  C   UNL     1     120.813 118.560 120.599  1.00  0.00     0.012 C 
ATOM     17  C   UNL     1     117.772 119.688 120.130  1.00  0.00    -0.063 C 
ATOM     18  C   UNL     1     119.134 121.756 120.053  1.00  0.00     0.009 C 
ATOM     19  C   UNL     1     118.109 120.955 120.878  1.00  0.00     0.025 C 
ATOM     20  C   UNL     1     116.631 119.042 120.391  1.00  0.00    -0.000 C 
ATOM     21  C   UNL     1     116.840 121.797 121.313  1.00  0.00    -0.005 C 
ATOM     22  C   UNL     1     115.602 119.619 121.258  1.00  0.00    -0.000 C 
ATOM     23  C   UNL     1     115.672 120.885 121.699  1.00  0.00    -0.061 C 
ATOM     24  C   UNL     1     116.313 122.716 120.169  1.00  0.00     0.014 C 
ATOM     25  C   UNL     1     117.250 122.657 122.541  1.00  0.00     0.017 C 
ATOM     26  C   UNL     1     114.390 121.552 122.136  1.00  0.00     0.063 C 
ATOM     27  C   UNL     1     114.975 123.418 120.506  1.00  0.00     0.033 C 
ATOM     28  C   UNL     1     113.885 122.431 120.982  1.00  0.00     0.118 C 
BRANCH  28  29
ATOM     29  O   UNL     1     112.752 123.140 121.409  1.00  0.00    -0.393 OA
ATOM     30  H   UNL     1     112.028 122.473 121.534  1.00  0.00     0.210 HD
ENDBRANCH  28  29
ENDBRANCH   1  10
TORSDOF 5
ENDMDL
MODEL 2
REMARK VINA RESULT:    -6.874      3.111      8.972
REMARK INTER + INTRA:          -9.644
REMARK INTER:                  -9.189
REMARK INTRA:                  -0.454
REMARK UNBOUND:                -0.962
REMARK SMILES CC(C)[C@@H](C)C=C[C@H](C)[C@@H]1CC[C@@H]2C3=CC=C4C[C@@H](O)CC[C@]4(C)[C@@H]3CC[C@@]21C
REMARK SMILES IDX 8 1 9 2 7 3 6 4 4 5 5 6 2 7 1 8 3 9 10 10 11 11 28 12 12 13
REMARK SMILES IDX 13 14 27 15 29 16 14 17 26 18 25 19 15 20 23 21 16 22 17 23
REMARK SMILES IDX 22 24 24 25 18 26 21 27 19 28 20 29
REMARK H PARENT 20 30
REMARK Flexibility Score: inf
ROOT
ATOM      1  C   UNL     1     115.327 123.932 123.273  1.00  0.00     0.012 C 
ATOM      2  C   UNL     1     114.212 124.150 122.242  1.00  0.00     0.012 C 
ENDROOT
BRANCH   1   3
ATOM      3  C   UNL     1     115.018 122.704 124.107  1.00  0.00    -0.028 C 
ATOM      4  C   UNL     1     113.839 122.063 124.047  1.00  0.00    -0.028 C 
BRANCH   4   5
ATOM      5  C   UNL     1     113.536 120.869 124.927  1.00  0.00     0.011 C 
ATOM      6  C   UNL     1     114.737 119.914 124.932  1.00  0.00     0.012 C 
BRANCH   5   7
ATOM      7  C   UNL     1     112.215 120.154 124.517  1.00  0.00    -0.011 C 
ATOM      8  C   UNL     1     112.093 118.723 125.072  1.00  0.00     0.008 C 
ATOM      9  C   UNL     1     112.042 120.141 122.990  1.00  0.00     0.008 C 
ENDBRANCH   5   7
ENDBRANCH   4   5
ENDBRANCH   1   3
BRANCH   1  10
ATOM     10  C   UNL     1     116.761 123.831 122.646  1.00  0.00     0.002 C 
ATOM     11  C   UNL     1     116.813 124.506 121.267  1.00  0.00     0.005 C 
ATOM     12  C   UNL     1     117.423 122.431 122.421  1.00  0.00    -0.023 C 
ATOM     13  C   UNL     1     118.000 123.905 120.521  1.00  0.00     0.009 C 
ATOM     14  C   UNL     1     118.552 122.792 121.415  1.00  0.00     0.021 C 
ATOM     15  C   UNL     1     116.419 121.350 121.866  1.00  0.00     0.008 C 
ATOM     16  C   UNL     1     118.091 121.900 123.719  1.00  0.00     0.012 C 
ATOM     17  C   UNL     1     119.100 121.628 120.613  1.00  0.00    -0.063 C 
ATOM     18  C   UNL     1     116.791 120.736 120.511  1.00  0.00     0.009 C 
ATOM     19  C   UNL     1     118.285 120.368 120.441  1.00  0.00     0.025 C 
ATOM     20  C   UNL     1     120.363 121.670 120.176  1.00  0.00    -0.000 C 
ATOM     21  C   UNL     1     118.677 119.524 119.160  1.00  0.00    -0.005 C 
ATOM     22  C   UNL     1     120.935 120.589 119.371  1.00  0.00    -0.000 C 
ATOM     23  C   UNL     1     120.183 119.587 118.890  1.00  0.00    -0.061 C 
ATOM     24  C   UNL     1     117.982 120.046 117.866  1.00  0.00     0.014 C 
ATOM     25  C   UNL     1     118.263 118.050 119.430  1.00  0.00     0.017 C 
ATOM     26  C   UNL     1     120.703 118.825 117.695  1.00  0.00     0.063 C 
ATOM     27  C   UNL     1     118.478 119.352 116.575  1.00  0.00     0.033 C 
ATOM     28  C   UNL     1     120.017 119.377 116.436  1.00  0.00     0.118 C 
BRANCH  28  29
ATOM     29  O   UNL     1     120.409 118.610 115.327  1.00  0.00    -0.393 OA
ATOM     30  H   UNL     1     120.115 119.105 114.519  1.00  0.00     0.210 HD
ENDBRANCH  28  29
ENDBRANCH   1  10
TORSDOF 5
ENDMDL
MODEL 3
REMARK VINA RESULT:    -6.823      0.858      1.400
REMARK INTER + INTRA:          -9.579
REMARK INTER:                  -8.732
REMARK INTRA:                  -0.847
REMARK UNBOUND:                -0.962
REMARK SMILES CC(C)[C@@H](C)C=C[C@H](C)[C@@H]1CC[C@@H]2C3=CC=C4C[C@@H](O)CC[C@]4(C)[C@@H]3CC[C@@]21C
REMARK SMILES IDX 8 1 9 2 7 3 6 4 4 5 5 6 2 7 1 8 3 9 10 10 11 11 28 12 12 13
REMARK SMILES IDX 13 14 27 15 29 16 14 17 26 18 25 19 15 20 23 21 16 22 17 23
REMARK SMILES IDX 22 24 24 25 18 26 21 27 19 28 20 29
REMARK H PARENT 20 30
REMARK Flexibility Score: inf
ROOT
ATOM      1  C   UNL     1     121.415 118.615 117.585  1.00  0.00     0.012 C 
ATOM      2  C   UNL     1     122.547 117.736 118.135  1.00  0.00     0.012 C 
ENDROOT
BRANCH   1   3
ATOM      3  C   UNL     1     121.356 118.484 116.076  1.00  0.00    -0.028 C 
ATOM      4  C   UNL     1     121.760 119.461 115.246  1.00  0.00    -0.028 C 
BRANCH   4   5
ATOM      5  C   UNL     1     121.643 119.327 113.743  1.00  0.00     0.011 C 
ATOM      6  C   UNL     1     121.141 117.921 113.388  1.00  0.00     0.012 C 
BRANCH   5   7
ATOM      7  C   UNL     1     122.973 119.680 113.014  1.00  0.00    -0.011 C 
ATOM      8  C   UNL     1     124.024 120.330 113.932  1.00  0.00     0.008 C 
ATOM      9  C   UNL     1     122.716 120.576 111.793  1.00  0.00     0.008 C 
ENDBRANCH   5   7
ENDBRANCH   4   5
ENDBRANCH   1   3
BRANCH   1  10
ATOM     10  C   UNL     1     120.013 118.318 118.223  1.00  0.00     0.002 C 
ATOM     11  C   UNL     1     118.876 118.681 117.255  1.00  0.00     0.005 C 
ATOM     12  C   UNL     1     119.606 118.993 119.575  1.00  0.00    -0.023 C 
ATOM     13  C   UNL     1     117.624 118.895 118.100  1.00  0.00     0.009 C 
ATOM     14  C   UNL     1     118.065 118.785 119.561  1.00  0.00     0.021 C 
ATOM     15  C   UNL     1     120.028 120.509 119.665  1.00  0.00     0.008 C 
ATOM     16  C   UNL     1     120.182 118.221 120.793  1.00  0.00     0.012 C 
ATOM     17  C   UNL     1     117.280 119.710 120.471  1.00  0.00    -0.063 C 
ATOM     18  C   UNL     1     118.878 121.504 119.867  1.00  0.00     0.009 C 
ATOM     19  C   UNL     1     117.880 121.016 120.933  1.00  0.00     0.025 C 
ATOM     20  C   UNL     1     116.110 119.299 120.971  1.00  0.00    -0.000 C 
ATOM     21  C   UNL     1     116.804 122.102 121.347  1.00  0.00    -0.005 C 
ATOM     22  C   UNL     1     115.295 120.160 121.829  1.00  0.00    -0.000 C 
ATOM     23  C   UNL     1     115.591 121.456 122.021  1.00  0.00    -0.061 C 
ATOM     24  C   UNL     1     116.251 122.891 120.122  1.00  0.00     0.014 C 
ATOM     25  C   UNL     1     117.489 123.078 122.344  1.00  0.00     0.017 C 
ATOM     26  C   UNL     1     114.480 122.374 122.471  1.00  0.00     0.063 C 
ATOM     27  C   UNL     1     115.076 123.835 120.474  1.00  0.00     0.033 C 
ATOM     28  C   UNL     1     113.942 123.119 121.240  1.00  0.00     0.118 C 
BRANCH  28  29
ATOM     29  O   UNL     1     112.981 124.054 121.655  1.00  0.00    -0.393 OA
ATOM     30  H   UNL     1     112.374 124.202 120.882  1.00  0.00     0.210 HD
ENDBRANCH  28  29
ENDBRANCH   1  10
TORSDOF 5
ENDMDL
MODEL 4
REMARK VINA RESULT:    -6.667      1.328      2.149
REMARK INTER + INTRA:          -9.383
REMARK INTER:                  -8.462
REMARK INTRA:                  -0.921
REMARK UNBOUND:                -0.962
REMARK SMILES CC(C)[C@@H](C)C=C[C@H](C)[C@@H]1CC[C@@H]2C3=CC=C4C[C@@H](O)CC[C@]4(C)[C@@H]3CC[C@@]21C
REMARK SMILES IDX 8 1 9 2 7 3 6 4 4 5 5 6 2 7 1 8 3 9 10 10 11 11 28 12 12 13
REMARK SMILES IDX 13 14 27 15 29 16 14 17 26 18 25 19 15 20 23 21 16 22 17 23
REMARK SMILES IDX 22 24 24 25 18 26 21 27 19 28 20 29
REMARK H PARENT 20 30
REMARK Flexibility Score: inf
ROOT
ATOM      1  C   UNL     1     122.661 118.830 116.089  1.00  0.00     0.012 C 
ATOM      2  C   UNL     1     123.558 117.643 115.714  1.00  0.00     0.012 C 
ENDROOT
BRANCH   1   3
ATOM      3  C   UNL     1     122.642 119.835 114.954  1.00  0.00    -0.028 C 
ATOM      4  C   UNL     1     123.331 119.655 113.813  1.00  0.00    -0.028 C 
BRANCH   4   5
ATOM      5  C   UNL     1     123.338 120.697 112.715  1.00  0.00     0.011 C 
ATOM      6  C   UNL     1     122.589 120.158 111.489  1.00  0.00     0.012 C 
BRANCH   5   7
ATOM      7  C   UNL     1     124.778 121.174 112.364  1.00  0.00    -0.011 C 
ATOM      8  C   UNL     1     125.741 120.023 112.023  1.00  0.00     0.008 C 
ATOM      9  C   UNL     1     125.368 122.035 113.492  1.00  0.00     0.008 C 
ENDBRANCH   5   7
ENDBRANCH   4   5
ENDBRANCH   1   3
BRANCH   1  10
ATOM     10  C   UNL     1     121.201 118.421 116.491  1.00  0.00     0.002 C 
ATOM     11  C   UNL     1     120.162 119.293 115.768  1.00  0.00     0.005 C 
ATOM     12  C   UNL     1     120.761 118.452 117.992  1.00  0.00    -0.023 C 
ATOM     13  C   UNL     1     118.878 119.228 116.590  1.00  0.00     0.009 C 
ATOM     14  C   UNL     1     119.213 118.429 117.851  1.00  0.00     0.021 C 
ATOM     15  C   UNL     1     121.295 119.715 118.771  1.00  0.00     0.008 C 
ATOM     16  C   UNL     1     121.192 117.161 118.740  1.00  0.00     0.012 C 
ATOM     17  C   UNL     1     118.445 118.919 119.064  1.00  0.00    -0.063 C 
ATOM     18  C   UNL     1     120.218 120.622 119.377  1.00  0.00     0.009 C 
ATOM     19  C   UNL     1     119.116 119.809 120.083  1.00  0.00     0.025 C 
ATOM     20  C   UNL     1     117.217 118.446 119.297  1.00  0.00    -0.000 C 
ATOM     21  C   UNL     1     118.105 120.695 120.921  1.00  0.00    -0.005 C 
ATOM     22  C   UNL     1     116.418 118.907 120.434  1.00  0.00    -0.000 C 
ATOM     23  C   UNL     1     116.803 119.940 121.201  1.00  0.00    -0.061 C 
ATOM     24  C   UNL     1     117.697 122.002 120.176  1.00  0.00     0.014 C 
ATOM     25  C   UNL     1     118.798 121.043 122.268  1.00  0.00     0.017 C 
ATOM     26  C   UNL     1     115.741 120.664 121.993  1.00  0.00     0.063 C 
ATOM     27  C   UNL     1     116.581 122.799 120.892  1.00  0.00     0.033 C 
ATOM     28  C   UNL     1     115.346 121.933 121.224  1.00  0.00     0.118 C 
BRANCH  28  29
ATOM     29  O   UNL     1     114.437 122.672 121.996  1.00  0.00    -0.393 OA
ATOM     30  H   UNL     1     113.592 122.720 121.477  1.00  0.00     0.210 HD
ENDBRANCH  28  29
ENDBRANCH   1  10
TORSDOF 5
ENDMDL
MODEL 5
REMARK VINA RESULT:    -6.653      3.756      9.639
REMARK INTER + INTRA:          -9.365
REMARK INTER:                  -8.657
REMARK INTRA:                  -0.708
REMARK UNBOUND:                -0.962
REMARK SMILES CC(C)[C@@H](C)C=C[C@H](C)[C@@H]1CC[C@@H]2C3=CC=C4C[C@@H](O)CC[C@]4(C)[C@@H]3CC[C@@]21C
REMARK SMILES IDX 8 1 9 2 7 3 6 4 4 5 5 6 2 7 1 8 3 9 10 10 11 11 28 12 12 13
REMARK SMILES IDX 13 14 27 15 29 16 14 17 26 18 25 19 15 20 23 21 16 22 17 23
REMARK SMILES IDX 22 24 24 25 18 26 21 27 19 28 20 29
REMARK H PARENT 20 30
REMARK Flexibility Score: inf
ROOT
ATOM      1  C   UNL     1     115.378 124.602 122.358  1.00  0.00     0.012 C 
ATOM      2  C   UNL     1     113.882 124.784 122.068  1.00  0.00     0.012 C 
ENDROOT
BRANCH   1   3
ATOM      3  C   UNL     1     115.796 125.527 123.484  1.00  0.00    -0.028 C 
ATOM      4  C   UNL     1     114.996 126.493 123.966  1.00  0.00    -0.028 C 
BRANCH   4   5
ATOM      5  C   UNL     1     115.454 127.437 125.057  1.00  0.00     0.011 C 
ATOM      6  C   UNL     1     116.956 127.712 124.902  1.00  0.00     0.012 C 
BRANCH   5   7
ATOM      7  C   UNL     1     115.094 126.916 126.478  1.00  0.00    -0.011 C 
ATOM      8  C   UNL     1     113.657 127.259 126.913  1.00  0.00     0.008 C 
ATOM      9  C   UNL     1     116.095 127.425 127.527  1.00  0.00     0.008 C 
ENDBRANCH   5   7
ENDBRANCH   4   5
ENDBRANCH   1   3
BRANCH   1  10
ATOM     10  C   UNL     1     115.789 123.122 122.674  1.00  0.00     0.002 C 
ATOM     11  C   UNL     1     117.196 123.057 123.289  1.00  0.00     0.005 C 
ATOM     12  C   UNL     1     115.812 122.052 121.532  1.00  0.00    -0.023 C 
ATOM     13  C   UNL     1     117.721 121.644 123.050  1.00  0.00     0.009 C 
ATOM     14  C   UNL     1     116.676 120.937 122.185  1.00  0.00     0.021 C 
ATOM     15  C   UNL     1     116.416 122.596 120.181  1.00  0.00     0.008 C 
ATOM     16  C   UNL     1     114.397 121.469 121.269  1.00  0.00     0.012 C 
ATOM     17  C   UNL     1     117.302 119.953 121.215  1.00  0.00    -0.063 C 
ATOM     18  C   UNL     1     117.655 121.854 119.665  1.00  0.00     0.009 C 
ATOM     19  C   UNL     1     117.487 120.326 119.764  1.00  0.00     0.025 C 
ATOM     20  C   UNL     1     117.561 118.706 121.622  1.00  0.00    -0.000 C 
ATOM     21  C   UNL     1     118.633 119.508 119.036  1.00  0.00    -0.005 C 
ATOM     22  C   UNL     1     118.192 117.724 120.739  1.00  0.00    -0.000 C 
ATOM     23  C   UNL     1     118.695 118.065 119.542  1.00  0.00    -0.061 C 
ATOM     24  C   UNL     1     120.048 120.116 119.282  1.00  0.00     0.014 C 
ATOM     25  C   UNL     1     118.310 119.509 117.516  1.00  0.00     0.017 C 
ATOM     26  C   UNL     1     119.744 117.165 118.935  1.00  0.00     0.063 C 
ATOM     27  C   UNL     1     121.200 119.243 118.729  1.00  0.00     0.033 C 
ATOM     28  C   UNL     1     121.125 117.777 119.213  1.00  0.00     0.118 C 
BRANCH  28  29
ATOM     29  O   UNL     1     122.105 117.010 118.566  1.00  0.00    -0.393 OA
ATOM     30  H   UNL     1     121.629 116.416 117.928  1.00  0.00     0.210 HD
ENDBRANCH  28  29
ENDBRANCH   1  10
TORSDOF 5
ENDMDL
MODEL 6
REMARK VINA RESULT:    -6.618      3.520      9.371
REMARK INTER + INTRA:          -9.321
REMARK INTER:                  -8.619
REMARK INTRA:                  -0.702
REMARK UNBOUND:                -0.962
REMARK SMILES CC(C)[C@@H](C)C=C[C@H](C)[C@@H]1CC[C@@H]2C3=CC=C4C[C@@H](O)CC[C@]4(C)[C@@H]3CC[C@@]21C
REMARK SMILES IDX 8 1 9 2 7 3 6 4 4 5 5 6 2 7 1 8 3 9 10 10 11 11 28 12 12 13
REMARK SMILES IDX 13 14 27 15 29 16 14 17 26 18 25 19 15 20 23 21 16 22 17 23
REMARK SMILES IDX 22 24 24 25 18 26 21 27 19 28 20 29
REMARK H PARENT 20 30
REMARK Flexibility Score: inf
ROOT
ATOM      1  C   UNL     1     118.928 119.464 118.899  1.00  0.00     0.012 C 
ATOM      2  C   UNL     1     118.113 118.296 119.470  1.00  0.00     0.012 C 
ENDROOT
BRANCH   1   3
ATOM      3  C   UNL     1     118.743 120.690 119.771  1.00  0.00    -0.028 C 
ATOM      4  C   UNL     1     117.543 121.256 119.984  1.00  0.00    -0.028 C 
BRANCH   4   5
ATOM      5  C   UNL     1     117.390 122.510 120.817  1.00  0.00     0.011 C 
ATOM      6  C   UNL     1     116.562 122.198 122.071  1.00  0.00     0.012 C 
BRANCH   5   7
ATOM      7  C   UNL     1     116.798 123.694 119.998  1.00  0.00    -0.011 C 
ATOM      8  C   UNL     1     117.244 125.078 120.506  1.00  0.00     0.008 C 
ATOM      9  C   UNL     1     115.264 123.623 119.949  1.00  0.00     0.008 C 
ENDBRANCH   5   7
ENDBRANCH   4   5
ENDBRANCH   1   3
BRANCH   1  10
ATOM     10  C   UNL     1     120.452 119.144 118.709  1.00  0.00     0.002 C 
ATOM     11  C   UNL     1     121.297 120.426 118.747  1.00  0.00     0.005 C 
ATOM     12  C   UNL     1     120.943 118.390 117.429  1.00  0.00    -0.023 C 
ATOM     13  C   UNL     1     122.607 120.117 118.029  1.00  0.00     0.009 C 
ATOM     14  C   UNL     1     122.466 118.703 117.463  1.00  0.00     0.021 C 
ATOM     15  C   UNL     1     120.237 118.881 116.108  1.00  0.00     0.008 C 
ATOM     16  C   UNL     1     120.767 116.853 117.569  1.00  0.00     0.012 C 
ATOM     17  C   UNL     1     123.190 118.536 116.141  1.00  0.00    -0.063 C 
ATOM     18  C   UNL     1     121.170 119.446 115.030  1.00  0.00     0.009 C 
ATOM     19  C   UNL     1     122.422 118.569 114.841  1.00  0.00     0.025 C 
ATOM     20  C   UNL     1     124.489 118.223 116.140  1.00  0.00    -0.000 C 
ATOM     21  C   UNL     1     123.303 118.974 113.589  1.00  0.00    -0.005 C 
ATOM     22  C   UNL     1     125.246 118.080 114.895  1.00  0.00    -0.000 C 
ATOM     23  C   UNL     1     124.725 118.418 113.705  1.00  0.00    -0.061 C 
ATOM     24  C   UNL     1     123.453 120.519 113.439  1.00  0.00     0.014 C 
ATOM     25  C   UNL     1     122.619 118.380 112.326  1.00  0.00     0.017 C 
ATOM     26  C   UNL     1     125.682 118.726 112.578  1.00  0.00     0.063 C 
ATOM     27  C   UNL     1     124.447 120.939 112.330  1.00  0.00     0.033 C 
ATOM     28  C   UNL     1     125.824 120.252 112.470  1.00  0.00     0.118 C 
BRANCH  28  29
ATOM     29  O   UNL     1     126.627 120.560 111.361  1.00  0.00    -0.393 OA
ATOM     30  H   UNL     1     126.379 121.477 111.074  1.00  0.00     0.210 HD
ENDBRANCH  28  29
ENDBRANCH   1  10
TORSDOF 5
ENDMDL
MODEL 7
REMARK VINA RESULT:    -6.537      3.655      9.617
REMARK INTER + INTRA:          -9.219
REMARK INTER:                  -8.845
REMARK INTRA:                  -0.373
REMARK UNBOUND:                -0.962
REMARK SMILES CC(C)[C@@H](C)C=C[C@H](C)[C@@H]1CC[C@@H]2C3=CC=C4C[C@@H](O)CC[C@]4(C)[C@@H]3CC[C@@]21C
REMARK SMILES IDX 8 1 9 2 7 3 6 4 4 5 5 6 2 7 1 8 3 9 10 10 11 11 28 12 12 13
REMARK SMILES IDX 13 14 27 15 29 16 14 17 26 18 25 19 15 20 23 21 16 22 17 23
REMARK SMILES IDX 22 24 24 25 18 26 21 27 19 28 20 29
REMARK H PARENT 20 30
REMARK Flexibility Score: inf
ROOT
ATOM      1  C   UNL     1     114.960 123.438 122.948  1.00  0.00     0.012 C 
ATOM      2  C   UNL     1     114.627 122.407 124.034  1.00  0.00     0.012 C 
ENDROOT
BRANCH   1   3
ATOM      3  C   UNL     1     114.647 124.833 123.454  1.00  0.00    -0.028 C 
ATOM      4  C   UNL     1     115.275 125.381 124.509  1.00  0.00    -0.028 C 
BRANCH   4   5
ATOM      5  C   UNL     1     114.908 126.755 125.028  1.00  0.00     0.011 C 
ATOM      6  C   UNL     1     116.016 127.754 124.668  1.00  0.00     0.012 C 
BRANCH   5   7
ATOM      7  C   UNL     1     114.595 126.745 126.553  1.00  0.00    -0.011 C 
ATOM      8  C   UNL     1     113.278 127.456 126.914  1.00  0.00     0.008 C 
ATOM      9  C   UNL     1     115.755 127.345 127.362  1.00  0.00     0.008 C 
ENDBRANCH   5   7
ENDBRANCH   4   5
ENDBRANCH   1   3
BRANCH   1  10
ATOM     10  C   UNL     1     116.436 123.358 122.425  1.00  0.00     0.002 C 
ATOM     11  C   UNL     1     116.601 124.129 121.106  1.00  0.00     0.005 C 
ATOM     12  C   UNL     1     117.097 121.966 122.148  1.00  0.00    -0.023 C 
ATOM     13  C   UNL     1     117.834 123.562 120.410  1.00  0.00     0.009 C 
ATOM     14  C   UNL     1     118.304 122.380 121.259  1.00  0.00     0.021 C 
ATOM     15  C   UNL     1     116.125 120.945 121.442  1.00  0.00     0.008 C 
ATOM     16  C   UNL     1     117.658 121.332 123.451  1.00  0.00     0.012 C 
ATOM     17  C   UNL     1     118.898 121.266 120.417  1.00  0.00    -0.063 C 
ATOM     18  C   UNL     1     116.592 120.424 120.078  1.00  0.00     0.009 C 
ATOM     19  C   UNL     1     118.083 120.037 120.094  1.00  0.00     0.025 C 
ATOM     20  C   UNL     1     120.190 121.318 120.081  1.00  0.00    -0.000 C 
ATOM     21  C   UNL     1     118.562 119.280 118.787  1.00  0.00    -0.005 C 
ATOM     22  C   UNL     1     120.809 120.288 119.245  1.00  0.00    -0.000 C 
ATOM     23  C   UNL     1     120.084 119.336 118.637  1.00  0.00    -0.061 C 
ATOM     24  C   UNL     1     117.973 119.905 117.486  1.00  0.00     0.014 C 
ATOM     25  C   UNL     1     118.111 117.798 118.917  1.00  0.00     0.017 C 
ATOM     26  C   UNL     1     120.685 118.653 117.431  1.00  0.00     0.063 C 
ATOM     27  C   UNL     1     118.558 119.297 116.189  1.00  0.00     0.033 C 
ATOM     28  C   UNL     1     120.103 119.305 116.168  1.00  0.00     0.118 C 
BRANCH  28  29
ATOM     29  O   UNL     1     120.570 118.614 115.039  1.00  0.00    -0.393 OA
ATOM     30  H   UNL     1     121.542 118.467 115.175  1.00  0.00     0.210 HD
ENDBRANCH  28  29
ENDBRANCH   1  10
TORSDOF 5
ENDMDL
MODEL 8
REMARK VINA RESULT:    -6.467      3.203      9.308
REMARK INTER + INTRA:          -9.130
REMARK INTER:                  -8.946
REMARK INTRA:                  -0.184
REMARK UNBOUND:                -0.962
REMARK SMILES CC(C)[C@@H](C)C=C[C@H](C)[C@@H]1CC[C@@H]2C3=CC=C4C[C@@H](O)CC[C@]4(C)[C@@H]3CC[C@@]21C
REMARK SMILES IDX 8 1 9 2 7 3 6 4 4 5 5 6 2 7 1 8 3 9 10 10 11 11 28 12 12 13
REMARK SMILES IDX 13 14 27 15 29 16 14 17 26 18 25 19 15 20 23 21 16 22 17 23
REMARK SMILES IDX 22 24 24 25 18 26 21 27 19 28 20 29
REMARK H PARENT 20 30
REMARK Flexibility Score: inf
ROOT
ATOM      1  C   UNL     1     113.506 122.376 121.826  1.00  0.00     0.012 C 
ATOM      2  C   UNL     1     112.680 122.164 120.551  1.00  0.00     0.012 C 
ENDROOT
BRANCH   1   3
ATOM      3  C   UNL     1     113.633 121.064 122.576  1.00  0.00    -0.028 C 
ATOM      4  C   UNL     1     112.833 120.735 123.605  1.00  0.00    -0.028 C 
BRANCH   4   5
ATOM      5  C   UNL     1     113.013 119.442 124.371  1.00  0.00     0.011 C 
ATOM      6  C   UNL     1     111.649 118.767 124.570  1.00  0.00     0.012 C 
BRANCH   5   7
ATOM      7  C   UNL     1     113.768 119.653 125.716  1.00  0.00    -0.011 C 
ATOM      8  C   UNL     1     115.297 119.525 125.590  1.00  0.00     0.008 C 
ATOM      9  C   UNL     1     113.249 118.695 126.800  1.00  0.00     0.008 C 
ENDBRANCH   5   7
ENDBRANCH   4   5
ENDBRANCH   1   3
BRANCH   1  10
ATOM     10  C   UNL     1     114.919 123.007 121.571  1.00  0.00     0.002 C 
ATOM     11  C   UNL     1     115.113 123.349 120.085  1.00  0.00     0.005 C 
ATOM     12  C   UNL     1     116.214 122.220 121.963  1.00  0.00    -0.023 C 
ATOM     13  C   UNL     1     116.617 123.416 119.837  1.00  0.00     0.009 C 
ATOM     14  C   UNL     1     117.289 122.986 121.142  1.00  0.00     0.021 C 
ATOM     15  C   UNL     1     116.140 120.685 121.611  1.00  0.00     0.008 C 
ATOM     16  C   UNL     1     116.550 122.391 123.470  1.00  0.00     0.012 C 
ATOM     17  C   UNL     1     118.581 122.227 120.902  1.00  0.00    -0.063 C 
ATOM     18  C   UNL     1     117.215 120.177 120.643  1.00  0.00     0.009 C 
ATOM     19  C   UNL     1     118.610 120.721 121.001  1.00  0.00     0.025 C 
ATOM     20  C   UNL     1     119.720 122.908 120.739  1.00  0.00    -0.000 C 
ATOM     21  C   UNL     1     119.788 120.051 120.181  1.00  0.00    -0.005 C 
ATOM     22  C   UNL     1     120.989 122.230 120.473  1.00  0.00    -0.000 C 
ATOM     23  C   UNL     1     121.052 120.914 120.214  1.00  0.00    -0.061 C 
ATOM     24  C   UNL     1     119.433 119.858 118.676  1.00  0.00     0.014 C 
ATOM     25  C   UNL     1     120.088 118.675 120.839  1.00  0.00     0.017 C 
ATOM     26  C   UNL     1     122.261 120.398 119.471  1.00  0.00     0.063 C 
ATOM     27  C   UNL     1     120.623 119.366 117.818  1.00  0.00     0.033 C 
ATOM     28  C   UNL     1     121.886 120.240 117.990  1.00  0.00     0.118 C 
BRANCH  28  29
ATOM     29  O   UNL     1     122.965 119.661 117.304  1.00  0.00    -0.393 OA
ATOM     30  H   UNL     1     123.491 120.409 116.917  1.00  0.00     0.210 HD
ENDBRANCH  28  29
ENDBRANCH   1  10
TORSDOF 5
ENDMDL
MODEL 9
REMARK VINA RESULT:    -6.343      4.009      8.893
REMARK INTER + INTRA:          -8.974
REMARK INTER:                  -7.925
REMARK INTRA:                  -1.049
REMARK UNBOUND:                -0.962
REMARK SMILES CC(C)[C@@H](C)C=C[C@H](C)[C@@H]1CC[C@@H]2C3=CC=C4C[C@@H](O)CC[C@]4(C)[C@@H]3CC[C@@]21C
REMARK SMILES IDX 8 1 9 2 7 3 6 4 4 5 5 6 2 7 1 8 3 9 10 10 11 11 28 12 12 13
REMARK SMILES IDX 13 14 27 15 29 16 14 17 26 18 25 19 15 20 23 21 16 22 17 23
REMARK SMILES IDX 22 24 24 25 18 26 21 27 19 28 20 29
REMARK H PARENT 20 30
REMARK Flexibility Score: inf
ROOT
ATOM      1  C   UNL     1     115.493 123.987 123.975  1.00  0.00     0.012 C 
ATOM      2  C   UNL     1     115.168 125.473 124.178  1.00  0.00     0.012 C 
ENDROOT
BRANCH   1   3
ATOM      3  C   UNL     1     114.255 123.154 124.245  1.00  0.00    -0.028 C 
ATOM      4  C   UNL     1     114.312 121.845 124.547  1.00  0.00    -0.028 C 
BRANCH   4   5
ATOM      5  C   UNL     1     113.060 121.022 124.761  1.00  0.00     0.011 C 
ATOM      6  C   UNL     1     113.374 119.838 125.686  1.00  0.00     0.012 C 
BRANCH   5   7
ATOM      7  C   UNL     1     112.416 120.568 123.419  1.00  0.00    -0.011 C 
ATOM      8  C   UNL     1     111.243 119.588 123.601  1.00  0.00     0.008 C 
ATOM      9  C   UNL     1     113.466 119.961 122.476  1.00  0.00     0.008 C 
ENDBRANCH   5   7
ENDBRANCH   4   5
ENDBRANCH   1   3
BRANCH   1  10
ATOM     10  C   UNL     1     116.089 123.654 122.563  1.00  0.00     0.002 C 
ATOM     11  C   UNL     1     114.996 123.161 121.602  1.00  0.00     0.005 C 
ATOM     12  C   UNL     1     117.237 122.600 122.424  1.00  0.00    -0.023 C 
ATOM     13  C   UNL     1     115.695 122.363 120.505  1.00  0.00     0.009 C 
ATOM     14  C   UNL     1     117.170 122.284 120.903  1.00  0.00     0.021 C 
ATOM     15  C   UNL     1     117.027 121.328 123.332  1.00  0.00     0.008 C 
ATOM     16  C   UNL     1     118.626 123.227 122.723  1.00  0.00     0.012 C 
ATOM     17  C   UNL     1     117.810 120.974 120.486  1.00  0.00    -0.063 C 
ATOM     18  C   UNL     1     116.939 119.991 122.587  1.00  0.00     0.009 C 
ATOM     19  C   UNL     1     118.020 119.872 121.496  1.00  0.00     0.025 C 
ATOM     20  C   UNL     1     118.312 120.853 119.253  1.00  0.00    -0.000 C 
ATOM     21  C   UNL     1     118.123 118.428 120.854  1.00  0.00    -0.005 C 
ATOM     22  C   UNL     1     118.913 119.603 118.786  1.00  0.00    -0.000 C 
ATOM     23  C   UNL     1     118.842 118.469 119.503  1.00  0.00    -0.061 C 
ATOM     24  C   UNL     1     116.725 117.794 120.582  1.00  0.00     0.014 C 
ATOM     25  C   UNL     1     118.930 117.537 121.839  1.00  0.00     0.017 C 
ATOM     26  C   UNL     1     119.014 117.160 118.771  1.00  0.00     0.063 C 
ATOM     27  C   UNL     1     116.792 116.461 119.798  1.00  0.00     0.033 C 
ATOM     28  C   UNL     1     117.621 116.573 118.499  1.00  0.00     0.118 C 
BRANCH  28  29
ATOM     29  O   UNL     1     117.765 115.306 117.913  1.00  0.00    -0.393 OA
ATOM     30  H   UNL     1     117.131 114.701 118.381  1.00  0.00     0.210 HD
ENDBRANCH  28  29
ENDBRANCH   1  10
TORSDOF 5
ENDMDL
