MODEL 1
REMARK VINA RESULT:    -5.447      0.000      0.000
REMARK INTER + INTRA:         -11.446
REMARK INTER:                 -10.542
REMARK INTRA:                  -0.904
REMARK UNBOUND:                -0.904
REMARK SMILES CCCCCCCCCCCCCCCCCC(=O)[O-]
REMARK SMILES IDX 10 1 11 2 12 3 13 4 14 5 15 6 16 7 17 8 18 9 19 10 20 11
REMARK SMILES IDX 9 12 8 13 7 14 6 15 5 16 4 17 3 18 2 19 1 20
REMARK H PARENT
REMARK Flexibility Score: inf
ROOT
ATOM      1  C   UNL     1       5.017  56.605  21.164  1.00  0.00     0.000 C 
ENDROOT
BRANCH   1   2
ATOM      2  C   UNL     1       4.461  57.904  20.546  1.00  0.00     0.000 C 
BRANCH   2   3
ATOM      3  C   UNL     1       3.061  58.321  21.041  1.00  0.00     0.000 C 
BRANCH   3   4
ATOM      4  C   UNL     1       2.825  59.839  21.127  1.00  0.00     0.000 C 
BRANCH   4   5
ATOM      5  C   UNL     1       2.721  60.506  19.743  1.00  0.00     0.000 C 
BRANCH   5   6
ATOM      6  C   UNL     1       1.289  60.955  19.413  1.00  0.00     0.000 C 
BRANCH   6   7
ATOM      7  C   UNL     1       0.810  60.447  18.042  1.00  0.00     0.006 C 
BRANCH   7   8
ATOM      8  C   UNL     1       1.894  59.643  17.312  1.00  0.00     0.053 C 
BRANCH   8   9
ATOM      9  C   UNL     1       1.550  59.423  15.870  1.00  0.00     0.041 C 
ATOM     10  O   UNL     1       2.349  59.781  14.965  1.00  0.00    -0.550 OA
ATOM     11  O   UNL     1       0.331  58.851  15.525  1.00  0.00    -0.550 OA
ENDBRANCH   8   9
ENDBRANCH   7   8
ENDBRANCH   6   7
ENDBRANCH   5   6
ENDBRANCH   4   5
ENDBRANCH   3   4
ENDBRANCH   2   3
ENDBRANCH   1   2
BRANCH   1  12
ATOM     12  C   UNL     1       6.552  56.502  21.193  1.00  0.00     0.000 C 
BRANCH  12  13
ATOM     13  C   UNL     1       7.184  56.618  19.795  1.00  0.00    -0.000 C 
BRANCH  13  14
ATOM     14  C   UNL     1       7.361  55.250  19.114  1.00  0.00    -0.000 C 
BRANCH  14  15
ATOM     15  C   UNL     1       7.700  54.134  20.115  1.00  0.00    -0.000 C 
BRANCH  15  16
ATOM     16  C   UNL     1       9.076  54.329  20.772  1.00  0.00    -0.000 C 
BRANCH  16  17
ATOM     17  C   UNL     1       9.491  53.133  21.647  1.00  0.00    -0.000 C 
BRANCH  17  18
ATOM     18  C   UNL     1      10.353  53.551  22.848  1.00  0.00    -0.000 C 
BRANCH  18  19
ATOM     19  C   UNL     1       9.779  54.764  23.593  1.00  0.00    -0.003 C 
ATOM     20  C   UNL     1       9.172  54.352  24.931  1.00  0.00     0.004 C 
ENDBRANCH  18  19
ENDBRANCH  17  18
ENDBRANCH  16  17
ENDBRANCH  15  16
ENDBRANCH  14  15
ENDBRANCH  13  14
ENDBRANCH  12  13
ENDBRANCH   1  12
TORSDOF 16
ENDMDL
MODEL 2
REMARK VINA RESULT:    -5.429      4.813      9.585
REMARK INTER + INTRA:         -11.411
REMARK INTER:                 -10.391
REMARK INTRA:                  -1.020
REMARK UNBOUND:                -0.904
REMARK SMILES CCCCCCCCCCCCCCCCCC(=O)[O-]
REMARK SMILES IDX 10 1 11 2 12 3 13 4 14 5 15 6 16 7 17 8 18 9 19 10 20 11
REMARK SMILES IDX 9 12 8 13 7 14 6 15 5 16 4 17 3 18 2 19 1 20
REMARK H PARENT
REMARK Flexibility Score: inf
ROOT
ATOM      1  C   UNL     1       5.356  56.563  21.250  1.00  0.00     0.000 C 
ENDROOT
BRANCH   1   2
ATOM      2  C   UNL     1       6.889  56.446  21.135  1.00  0.00     0.000 C 
BRANCH   2   3
ATOM      3  C   UNL     1       7.414  56.037  19.745  1.00  0.00     0.000 C 
BRANCH   3   4
ATOM      4  C   UNL     1       7.973  54.606  19.653  1.00  0.00     0.000 C 
BRANCH   4   5
ATOM      5  C   UNL     1       8.235  53.979  21.034  1.00  0.00     0.000 C 
BRANCH   5   6
ATOM      6  C   UNL     1       9.692  53.520  21.205  1.00  0.00     0.000 C 
BRANCH   6   7
ATOM      7  C   UNL     1      10.273  53.893  22.580  1.00  0.00     0.006 C 
BRANCH   7   8
ATOM      8  C   UNL     1       9.309  54.764  23.398  1.00  0.00     0.053 C 
BRANCH   8   9
ATOM      9  C   UNL     1       8.972  54.135  24.716  1.00  0.00     0.041 C 
ATOM     10  O   UNL     1       7.826  53.653  24.914  1.00  0.00    -0.550 OA
ATOM     11  O   UNL     1       9.915  54.108  25.736  1.00  0.00    -0.550 OA
ENDBRANCH   8   9
ENDBRANCH   7   8
ENDBRANCH   6   7
ENDBRANCH   5   6
ENDBRANCH   4   5
ENDBRANCH   3   4
ENDBRANCH   2   3
ENDBRANCH   1   2
BRANCH   1  12
ATOM     12  C   UNL     1       4.715  57.636  20.350  1.00  0.00     0.000 C 
BRANCH  12  13
ATOM     13  C   UNL     1       3.372  58.148  20.898  1.00  0.00    -0.000 C 
BRANCH  13  14
ATOM     14  C   UNL     1       3.050  59.577  20.427  1.00  0.00    -0.000 C 
BRANCH  14  15
ATOM     15  C   UNL     1       2.313  60.397  21.498  1.00  0.00    -0.000 C 
BRANCH  15  16
ATOM     16  C   UNL     1       1.345  59.542  22.333  1.00  0.00    -0.000 C 
BRANCH  16  17
ATOM     17  C   UNL     1       0.230  60.377  22.988  1.00  0.00    -0.000 C 
BRANCH  17  18
ATOM     18  C   UNL     1      -0.566  59.582  24.035  1.00  0.00    -0.000 C 
BRANCH  18  19
ATOM     19  C   UNL     1      -0.024  58.160  24.232  1.00  0.00    -0.003 C 
ATOM     20  C   UNL     1      -0.266  57.672  25.658  1.00  0.00     0.004 C 
ENDBRANCH  18  19
ENDBRANCH  17  18
ENDBRANCH  16  17
ENDBRANCH  15  16
ENDBRANCH  14  15
ENDBRANCH  13  14
ENDBRANCH  12  13
ENDBRANCH   1  12
TORSDOF 16
ENDMDL
MODEL 3
REMARK VINA RESULT:    -5.380      0.970      1.458
REMARK INTER + INTRA:         -11.316
REMARK INTER:                 -10.233
REMARK INTRA:                  -1.083
REMARK UNBOUND:                -0.904
REMARK SMILES CCCCCCCCCCCCCCCCCC(=O)[O-]
REMARK SMILES IDX 10 1 11 2 12 3 13 4 14 5 15 6 16 7 17 8 18 9 19 10 20 11
REMARK SMILES IDX 9 12 8 13 7 14 6 15 5 16 4 17 3 18 2 19 1 20
REMARK H PARENT
REMARK Flexibility Score: inf
ROOT
ATOM      1  C   UNL     1       4.315  57.876  20.594  1.00  0.00     0.000 C 
ENDROOT
BRANCH   1   2
ATOM      2  C   UNL     1       3.101  58.343  21.423  1.00  0.00     0.000 C 
BRANCH   2   3
ATOM      3  C   UNL     1       2.772  59.846  21.317  1.00  0.00     0.000 C 
BRANCH   3   4
ATOM      4  C   UNL     1       2.726  60.404  19.883  1.00  0.00     0.000 C 
BRANCH   4   5
ATOM      5  C   UNL     1       1.377  61.063  19.544  1.00  0.00     0.000 C 
BRANCH   5   6
ATOM      6  C   UNL     1       0.834  60.623  18.174  1.00  0.00     0.000 C 
BRANCH   6   7
ATOM      7  C   UNL     1       1.794  59.675  17.434  1.00  0.00     0.006 C 
BRANCH   7   8
ATOM      8  C   UNL     1       1.272  59.294  16.042  1.00  0.00     0.053 C 
BRANCH   8   9
ATOM      9  C   UNL     1       1.963  60.064  14.958  1.00  0.00     0.041 C 
ATOM     10  O   UNL     1       2.957  59.570  14.364  1.00  0.00    -0.550 OA
ATOM     11  O   UNL     1       1.527  61.341  14.626  1.00  0.00    -0.550 OA
ENDBRANCH   8   9
ENDBRANCH   7   8
ENDBRANCH   6   7
ENDBRANCH   5   6
ENDBRANCH   4   5
ENDBRANCH   3   4
ENDBRANCH   2   3
ENDBRANCH   1   2
BRANCH   1  12
ATOM     12  C   UNL     1       5.039  56.632  21.140  1.00  0.00     0.000 C 
BRANCH  12  13
ATOM     13  C   UNL     1       6.561  56.685  20.922  1.00  0.00    -0.000 C 
BRANCH  13  14
ATOM     14  C   UNL     1       6.979  56.109  19.558  1.00  0.00    -0.000 C 
BRANCH  14  15
ATOM     15  C   UNL     1       7.653  54.732  19.682  1.00  0.00    -0.000 C 
BRANCH  15  16
ATOM     16  C   UNL     1       8.606  54.649  20.886  1.00  0.00    -0.000 C 
BRANCH  16  17
ATOM     17  C   UNL     1       8.269  53.480  21.829  1.00  0.00    -0.000 C 
BRANCH  17  18
ATOM     18  C   UNL     1       8.385  53.865  23.313  1.00  0.00    -0.000 C 
BRANCH  18  19
ATOM     19  C   UNL     1       9.482  54.908  23.567  1.00  0.00    -0.003 C 
ATOM     20  C   UNL     1      10.614  54.323  24.407  1.00  0.00     0.004 C 
ENDBRANCH  18  19
ENDBRANCH  17  18
ENDBRANCH  16  17
ENDBRANCH  15  16
ENDBRANCH  14  15
ENDBRANCH  13  14
ENDBRANCH  12  13
ENDBRANCH   1  12
TORSDOF 16
ENDMDL
MODEL 4
REMARK VINA RESULT:    -5.375      7.973     13.072
REMARK INTER + INTRA:         -11.306
REMARK INTER:                 -10.218
REMARK INTRA:                  -1.088
REMARK UNBOUND:                -0.904
REMARK SMILES CCCCCCCCCCCCCCCCCC(=O)[O-]
REMARK SMILES IDX 10 1 11 2 12 3 13 4 14 5 15 6 16 7 17 8 18 9 19 10 20 11
REMARK SMILES IDX 9 12 8 13 7 14 6 15 5 16 4 17 3 18 2 19 1 20
REMARK H PARENT
REMARK Flexibility Score: inf
ROOT
ATOM      1  C   UNL     1       9.910  51.245  22.316  1.00  0.00     0.000 C 
ENDROOT
BRANCH   1   2
ATOM      2  C   UNL     1      10.945  50.114  22.479  1.00  0.00     0.000 C 
BRANCH   2   3
ATOM      3  C   UNL     1      10.360  48.687  22.505  1.00  0.00     0.000 C 
BRANCH   3   4
ATOM      4  C   UNL     1      11.377  47.570  22.799  1.00  0.00     0.000 C 
BRANCH   4   5
ATOM      5  C   UNL     1      10.818  46.489  23.742  1.00  0.00     0.000 C 
BRANCH   5   6
ATOM      6  C   UNL     1      11.567  46.434  25.084  1.00  0.00     0.000 C 
BRANCH   6   7
ATOM      7  C   UNL     1      12.053  47.818  25.547  1.00  0.00     0.006 C 
BRANCH   7   8
ATOM      8  C   UNL     1      13.451  47.759  26.179  1.00  0.00     0.053 C 
BRANCH   8   9
ATOM      9  C   UNL     1      13.386  47.472  27.649  1.00  0.00     0.041 C 
ATOM     10  O   UNL     1      14.228  46.704  28.183  1.00  0.00    -0.550 OA
ATOM     11  O   UNL     1      12.375  48.029  28.422  1.00  0.00    -0.550 OA
ENDBRANCH   8   9
ENDBRANCH   7   8
ENDBRANCH   6   7
ENDBRANCH   5   6
ENDBRANCH   4   5
ENDBRANCH   3   4
ENDBRANCH   2   3
ENDBRANCH   1   2
BRANCH   1  12
ATOM     12  C   UNL     1      10.505  52.660  22.191  1.00  0.00     0.000 C 
BRANCH  12  13
ATOM     13  C   UNL     1       9.528  53.662  21.554  1.00  0.00    -0.000 C 
BRANCH  13  14
ATOM     14  C   UNL     1       8.064  53.196  21.644  1.00  0.00    -0.000 C 
BRANCH  14  15
ATOM     15  C   UNL     1       7.132  54.286  22.200  1.00  0.00    -0.000 C 
BRANCH  15  16
ATOM     16  C   UNL     1       6.234  54.902  21.115  1.00  0.00    -0.000 C 
BRANCH  16  17
ATOM     17  C   UNL     1       6.780  56.239  20.582  1.00  0.00    -0.000 C 
BRANCH  17  18
ATOM     18  C   UNL     1       7.377  56.114  19.172  1.00  0.00    -0.000 C 
BRANCH  18  19
ATOM     19  C   UNL     1       7.001  54.792  18.488  1.00  0.00    -0.003 C 
ATOM     20  C   UNL     1       6.857  54.975  16.980  1.00  0.00     0.004 C 
ENDBRANCH  18  19
ENDBRANCH  17  18
ENDBRANCH  16  17
ENDBRANCH  15  16
ENDBRANCH  14  15
ENDBRANCH  13  14
ENDBRANCH  12  13
ENDBRANCH   1  12
TORSDOF 16
ENDMDL
MODEL 5
REMARK VINA RESULT:    -5.279      4.363     10.020
REMARK INTER + INTRA:         -11.120
REMARK INTER:                 -10.228
REMARK INTRA:                  -0.892
REMARK UNBOUND:                -0.904
REMARK SMILES CCCCCCCCCCCCCCCCCC(=O)[O-]
REMARK SMILES IDX 10 1 11 2 12 3 13 4 14 5 15 6 16 7 17 8 18 9 19 10 20 11
REMARK SMILES IDX 9 12 8 13 7 14 6 15 5 16 4 17 3 18 2 19 1 20
REMARK H PARENT
REMARK Flexibility Score: inf
ROOT
ATOM      1  C   UNL     1       5.180  56.667  21.162  1.00  0.00     0.000 C 
ENDROOT
BRANCH   1   2
ATOM      2  C   UNL     1       6.674  56.489  20.828  1.00  0.00     0.000 C 
BRANCH   2   3
ATOM      3  C   UNL     1       6.974  55.573  19.624  1.00  0.00     0.000 C 
BRANCH   3   4
ATOM      4  C   UNL     1       7.918  54.394  19.920  1.00  0.00     0.000 C 
BRANCH   4   5
ATOM      5  C   UNL     1       8.820  54.645  21.142  1.00  0.00     0.000 C 
BRANCH   5   6
ATOM      6  C   UNL     1       9.965  53.625  21.248  1.00  0.00     0.000 C 
BRANCH   6   7
ATOM      7  C   UNL     1      10.300  53.260  22.704  1.00  0.00     0.006 C 
BRANCH   7   8
ATOM      8  C   UNL     1      10.058  54.432  23.665  1.00  0.00     0.053 C 
BRANCH   8   9
ATOM      9  C   UNL     1       9.240  54.020  24.851  1.00  0.00     0.041 C 
ATOM     10  O   UNL     1       9.716  54.111  26.013  1.00  0.00    -0.550 OA
ATOM     11  O   UNL     1       7.962  53.506  24.670  1.00  0.00    -0.550 OA
ENDBRANCH   8   9
ENDBRANCH   7   8
ENDBRANCH   6   7
ENDBRANCH   5   6
ENDBRANCH   4   5
ENDBRANCH   3   4
ENDBRANCH   2   3
ENDBRANCH   1   2
BRANCH   1  12
ATOM     12  C   UNL     1       4.498  57.869  20.483  1.00  0.00     0.000 C 
BRANCH  12  13
ATOM     13  C   UNL     1       3.105  58.169  21.062  1.00  0.00    -0.000 C 
BRANCH  13  14
ATOM     14  C   UNL     1       2.791  59.675  21.091  1.00  0.00    -0.000 C 
BRANCH  14  15
ATOM     15  C   UNL     1       1.349  59.967  21.538  1.00  0.00    -0.000 C 
BRANCH  15  16
ATOM     16  C   UNL     1       0.473  60.499  20.392  1.00  0.00    -0.000 C 
BRANCH  16  17
ATOM     17  C   UNL     1       1.291  60.865  19.141  1.00  0.00    -0.000 C 
BRANCH  17  18
ATOM     18  C   UNL     1       0.659  60.333  17.845  1.00  0.00    -0.000 C 
BRANCH  18  19
ATOM     19  C   UNL     1       1.667  59.585  16.962  1.00  0.00    -0.003 C 
ATOM     20  C   UNL     1       1.042  59.194  15.625  1.00  0.00     0.004 C 
ENDBRANCH  18  19
ENDBRANCH  17  18
ENDBRANCH  16  17
ENDBRANCH  15  16
ENDBRANCH  14  15
ENDBRANCH  13  14
ENDBRANCH  12  13
ENDBRANCH   1  12
TORSDOF 16
ENDMDL
MODEL 6
REMARK VINA RESULT:    -5.235      1.412      1.953
REMARK INTER + INTRA:         -11.036
REMARK INTER:                 -10.134
REMARK INTRA:                  -0.902
REMARK UNBOUND:                -0.904
REMARK SMILES CCCCCCCCCCCCCCCCCC(=O)[O-]
REMARK SMILES IDX 10 1 11 2 12 3 13 4 14 5 15 6 16 7 17 8 18 9 19 10 20 11
REMARK SMILES IDX 9 12 8 13 7 14 6 15 5 16 4 17 3 18 2 19 1 20
REMARK H PARENT
REMARK Flexibility Score: inf
ROOT
ATOM      1  C   UNL     1       5.079  56.983  21.232  1.00  0.00     0.000 C 
ENDROOT
BRANCH   1   2
ATOM      2  C   UNL     1       4.268  58.064  20.490  1.00  0.00     0.000 C 
BRANCH   2   3
ATOM      3  C   UNL     1       2.958  58.493  21.181  1.00  0.00     0.000 C 
BRANCH   3   4
ATOM      4  C   UNL     1       1.921  59.159  20.259  1.00  0.00     0.000 C 
BRANCH   4   5
ATOM      5  C   UNL     1       2.523  59.618  18.919  1.00  0.00     0.000 C 
BRANCH   5   6
ATOM      6  C   UNL     1       1.447  59.928  17.865  1.00  0.00     0.000 C 
BRANCH   6   7
ATOM      7  C   UNL     1       1.884  59.542  16.442  1.00  0.00     0.006 C 
BRANCH   7   8
ATOM      8  C   UNL     1       0.710  59.033  15.594  1.00  0.00     0.053 C 
BRANCH   8   9
ATOM      9  C   UNL     1      -0.384  60.052  15.488  1.00  0.00     0.041 C 
ATOM     10  O   UNL     1      -1.523  59.813  15.969  1.00  0.00    -0.550 OA
ATOM     11  O   UNL     1      -0.153  61.254  14.830  1.00  0.00    -0.550 OA
ENDBRANCH   8   9
ENDBRANCH   7   8
ENDBRANCH   6   7
ENDBRANCH   5   6
ENDBRANCH   4   5
ENDBRANCH   3   4
ENDBRANCH   2   3
ENDBRANCH   1   2
BRANCH   1  12
ATOM     12  C   UNL     1       5.851  56.008  20.325  1.00  0.00     0.000 C 
BRANCH  12  13
ATOM     13  C   UNL     1       7.358  56.311  20.269  1.00  0.00    -0.000 C 
BRANCH  13  14
ATOM     14  C   UNL     1       8.207  55.193  20.898  1.00  0.00    -0.000 C 
BRANCH  14  15
ATOM     15  C   UNL     1       7.416  53.887  21.082  1.00  0.00    -0.000 C 
BRANCH  15  16
ATOM     16  C   UNL     1       7.061  53.615  22.554  1.00  0.00    -0.000 C 
BRANCH  16  17
ATOM     17  C   UNL     1       8.224  52.981  23.337  1.00  0.00    -0.000 C 
BRANCH  17  18
ATOM     18  C   UNL     1       8.207  53.357  24.827  1.00  0.00    -0.000 C 
BRANCH  18  19
ATOM     19  C   UNL     1       9.367  54.284  25.215  1.00  0.00    -0.003 C 
ATOM     20  C   UNL     1      10.486  54.227  24.179  1.00  0.00     0.004 C 
ENDBRANCH  18  19
ENDBRANCH  17  18
ENDBRANCH  16  17
ENDBRANCH  15  16
ENDBRANCH  14  15
ENDBRANCH  13  14
ENDBRANCH  12  13
ENDBRANCH   1  12
TORSDOF 16
ENDMDL
MODEL 7
REMARK VINA RESULT:    -5.188      4.446     10.093
REMARK INTER + INTRA:         -10.945
REMARK INTER:                  -9.916
REMARK INTRA:                  -1.029
REMARK UNBOUND:                -0.904
REMARK SMILES CCCCCCCCCCCCCCCCCC(=O)[O-]
REMARK SMILES IDX 10 1 11 2 12 3 13 4 14 5 15 6 16 7 17 8 18 9 19 10 20 11
REMARK SMILES IDX 9 12 8 13 7 14 6 15 5 16 4 17 3 18 2 19 1 20
REMARK H PARENT
REMARK Flexibility Score: inf
ROOT
ATOM      1  C   UNL     1       4.185  57.753  20.505  1.00  0.00     0.000 C 
ENDROOT
BRANCH   1   2
ATOM      2  C   UNL     1       5.295  56.976  21.241  1.00  0.00     0.000 C 
BRANCH   2   3
ATOM      3  C   UNL     1       5.404  55.482  20.875  1.00  0.00     0.000 C 
BRANCH   3   4
ATOM      4  C   UNL     1       6.538  54.718  21.582  1.00  0.00     0.000 C 
BRANCH   4   5
ATOM      5  C   UNL     1       7.922  55.346  21.339  1.00  0.00     0.000 C 
BRANCH   5   6
ATOM      6  C   UNL     1       8.990  54.297  20.988  1.00  0.00     0.000 C 
BRANCH   6   7
ATOM      7  C   UNL     1       9.375  53.418  22.190  1.00  0.00     0.006 C 
BRANCH   7   8
ATOM      8  C   UNL     1       9.959  54.241  23.346  1.00  0.00     0.053 C 
BRANCH   8   9
ATOM      9  C   UNL     1       9.221  54.003  24.629  1.00  0.00     0.041 C 
ATOM     10  O   UNL     1       8.018  53.634  24.609  1.00  0.00    -0.550 OA
ATOM     11  O   UNL     1       9.856  54.217  25.846  1.00  0.00    -0.550 OA
ENDBRANCH   8   9
ENDBRANCH   7   8
ENDBRANCH   6   7
ENDBRANCH   5   6
ENDBRANCH   4   5
ENDBRANCH   3   4
ENDBRANCH   2   3
ENDBRANCH   1   2
BRANCH   1  12
ATOM     12  C   UNL     1       3.235  58.552  21.416  1.00  0.00     0.000 C 
BRANCH  12  13
ATOM     13  C   UNL     1       2.848  59.917  20.821  1.00  0.00    -0.000 C 
BRANCH  13  14
ATOM     14  C   UNL     1       1.360  59.991  20.438  1.00  0.00    -0.000 C 
BRANCH  14  15
ATOM     15  C   UNL     1       1.151  60.357  18.959  1.00  0.00    -0.000 C 
BRANCH  15  16
ATOM     16  C   UNL     1       1.930  59.435  18.008  1.00  0.00    -0.000 C 
BRANCH  16  17
ATOM     17  C   UNL     1       1.900  59.926  16.549  1.00  0.00    -0.000 C 
BRANCH  17  18
ATOM     18  C   UNL     1       0.768  59.284  15.732  1.00  0.00    -0.000 C 
BRANCH  18  19
ATOM     19  C   UNL     1      -0.375  60.265  15.435  1.00  0.00    -0.003 C 
ATOM     20  C   UNL     1      -1.554  60.037  16.377  1.00  0.00     0.004 C 
ENDBRANCH  18  19
ENDBRANCH  17  18
ENDBRANCH  16  17
ENDBRANCH  15  16
ENDBRANCH  14  15
ENDBRANCH  13  14
ENDBRANCH  12  13
ENDBRANCH   1  12
TORSDOF 16
ENDMDL
MODEL 8
REMARK VINA RESULT:    -5.187      7.637     12.582
REMARK INTER + INTRA:         -10.942
REMARK INTER:                  -9.617
REMARK INTRA:                  -1.325
REMARK UNBOUND:                -0.904
REMARK SMILES CCCCCCCCCCCCCCCCCC(=O)[O-]
REMARK SMILES IDX 10 1 11 2 12 3 13 4 14 5 15 6 16 7 17 8 18 9 19 10 20 11
REMARK SMILES IDX 9 12 8 13 7 14 6 15 5 16 4 17 3 18 2 19 1 20
REMARK H PARENT
REMARK Flexibility Score: inf
ROOT
ATOM      1  C   UNL     1      10.598  52.688  22.000  1.00  0.00     0.000 C 
ENDROOT
BRANCH   1   2
ATOM      2  C   UNL     1       9.891  51.325  22.146  1.00  0.00     0.000 C 
BRANCH   2   3
ATOM      3  C   UNL     1      10.747  50.204  22.769  1.00  0.00     0.000 C 
BRANCH   3   4
ATOM      4  C   UNL     1      10.311  48.773  22.408  1.00  0.00     0.000 C 
BRANCH   4   5
ATOM      5  C   UNL     1      10.971  47.706  23.300  1.00  0.00     0.000 C 
BRANCH   5   6
ATOM      6  C   UNL     1      12.406  48.082  23.704  1.00  0.00     0.000 C 
BRANCH   6   7
ATOM      7  C   UNL     1      12.619  48.051  25.228  1.00  0.00     0.006 C 
BRANCH   7   8
ATOM      8  C   UNL     1      13.155  46.696  25.710  1.00  0.00     0.053 C 
BRANCH   8   9
ATOM      9  C   UNL     1      12.135  45.947  26.512  1.00  0.00     0.041 C 
ATOM     10  O   UNL     1      11.247  45.267  25.934  1.00  0.00    -0.550 OA
ATOM     11  O   UNL     1      12.146  46.027  27.900  1.00  0.00    -0.550 OA
ENDBRANCH   8   9
ENDBRANCH   7   8
ENDBRANCH   6   7
ENDBRANCH   5   6
ENDBRANCH   4   5
ENDBRANCH   3   4
ENDBRANCH   2   3
ENDBRANCH   1   2
BRANCH   1  12
ATOM     12  C   UNL     1       9.736  53.912  22.360  1.00  0.00     0.000 C 
BRANCH  12  13
ATOM     13  C   UNL     1       8.873  53.685  23.613  1.00  0.00    -0.000 C 
BRANCH  13  14
ATOM     14  C   UNL     1       7.373  53.595  23.285  1.00  0.00    -0.000 C 
BRANCH  14  15
ATOM     15  C   UNL     1       7.079  53.849  21.798  1.00  0.00    -0.000 C 
BRANCH  15  16
ATOM     16  C   UNL     1       6.181  55.076  21.575  1.00  0.00    -0.000 C 
BRANCH  16  17
ATOM     17  C   UNL     1       6.928  56.245  20.907  1.00  0.00    -0.000 C 
BRANCH  17  18
ATOM     18  C   UNL     1       7.878  55.778  19.792  1.00  0.00    -0.000 C 
BRANCH  18  19
ATOM     19  C   UNL     1       7.152  55.538  18.461  1.00  0.00    -0.003 C 
ATOM     20  C   UNL     1       7.154  54.057  18.093  1.00  0.00     0.004 C 
ENDBRANCH  18  19
ENDBRANCH  17  18
ENDBRANCH  16  17
ENDBRANCH  15  16
ENDBRANCH  14  15
ENDBRANCH  13  14
ENDBRANCH  12  13
ENDBRANCH   1  12
TORSDOF 16
ENDMDL
MODEL 9
REMARK VINA RESULT:    -5.153      6.874     11.799
REMARK INTER + INTRA:         -10.877
REMARK INTER:                  -9.836
REMARK INTRA:                  -1.041
REMARK UNBOUND:                -0.904
REMARK SMILES CCCCCCCCCCCCCCCCCC(=O)[O-]
REMARK SMILES IDX 10 1 11 2 12 3 13 4 14 5 15 6 16 7 17 8 18 9 19 10 20 11
REMARK SMILES IDX 9 12 8 13 7 14 6 15 5 16 4 17 3 18 2 19 1 20
REMARK H PARENT
REMARK Flexibility Score: inf
ROOT
ATOM      1  C   UNL     1      10.348  53.240  21.901  1.00  0.00     0.000 C 
ENDROOT
BRANCH   1   2
ATOM      2  C   UNL     1       9.922  51.776  21.672  1.00  0.00     0.000 C 
BRANCH   2   3
ATOM      3  C   UNL     1      10.286  50.801  22.810  1.00  0.00     0.000 C 
BRANCH   3   4
ATOM      4  C   UNL     1      10.452  49.332  22.383  1.00  0.00     0.000 C 
BRANCH   4   5
ATOM      5  C   UNL     1      11.596  48.620  23.127  1.00  0.00     0.000 C 
BRANCH   5   6
ATOM      6  C   UNL     1      11.653  47.115  22.818  1.00  0.00     0.000 C 
BRANCH   6   7
ATOM      7  C   UNL     1      11.173  46.251  23.996  1.00  0.00     0.006 C 
BRANCH   7   8
ATOM      8  C   UNL     1      10.219  45.136  23.545  1.00  0.00     0.053 C 
BRANCH   8   9
ATOM      9  C   UNL     1       8.839  45.325  24.100  1.00  0.00     0.041 C 
ATOM     10  O   UNL     1       8.469  44.679  25.115  1.00  0.00    -0.550 OA
ATOM     11  O   UNL     1       7.952  46.194  23.476  1.00  0.00    -0.550 OA
ENDBRANCH   8   9
ENDBRANCH   7   8
ENDBRANCH   6   7
ENDBRANCH   5   6
ENDBRANCH   4   5
ENDBRANCH   3   4
ENDBRANCH   2   3
ENDBRANCH   1   2
BRANCH   1  12
ATOM     12  C   UNL     1      10.268  53.722  23.361  1.00  0.00     0.000 C 
BRANCH  12  13
ATOM     13  C   UNL     1       9.033  54.599  23.632  1.00  0.00    -0.000 C 
BRANCH  13  14
ATOM     14  C   UNL     1       7.717  53.807  23.538  1.00  0.00    -0.000 C 
BRANCH  14  15
ATOM     15  C   UNL     1       6.913  54.153  22.274  1.00  0.00    -0.000 C 
BRANCH  15  16
ATOM     16  C   UNL     1       7.483  55.369  21.526  1.00  0.00    -0.000 C 
BRANCH  16  17
ATOM     17  C   UNL     1       6.595  55.813  20.350  1.00  0.00    -0.000 C 
BRANCH  17  18
ATOM     18  C   UNL     1       7.410  56.170  19.097  1.00  0.00    -0.000 C 
BRANCH  18  19
ATOM     19  C   UNL     1       6.977  55.366  17.863  1.00  0.00    -0.003 C 
ATOM     20  C   UNL     1       6.937  53.871  18.167  1.00  0.00     0.004 C 
ENDBRANCH  18  19
ENDBRANCH  17  18
ENDBRANCH  16  17
ENDBRANCH  15  16
ENDBRANCH  14  15
ENDBRANCH  13  14
ENDBRANCH  12  13
ENDBRANCH   1  12
TORSDOF 16
ENDMDL
