MODEL 1
REMARK VINA RESULT:    -3.255      0.000      0.000
REMARK INTER + INTRA:          -5.129
REMARK INTER:                  -4.777
REMARK INTRA:                  -0.351
REMARK UNBOUND:                -0.351
REMARK SMILES O=C([O-])CCCCCCCC(=O)[O-]
REMARK SMILES IDX 7 1 6 2 5 3 4 4 2 5 1 6 3 7 8 8 9 9 10 10 11 11 12 12 13 13
REMARK H PARENT
REMARK Flexibility Score: inf
ROOT
ATOM      1  C   UNL     1       7.238  -6.678   4.284  1.00  0.00     0.000 C 
ENDROOT
BRANCH   1   2
ATOM      2  C   UNL     1       5.809  -6.139   4.130  1.00  0.00     0.000 C 
BRANCH   2   3
ATOM      3  C   UNL     1       5.012  -6.314   5.431  1.00  0.00     0.006 C 
BRANCH   3   4
ATOM      4  C   UNL     1       5.701  -7.273   6.409  1.00  0.00     0.053 C 
BRANCH   4   5
ATOM      5  C   UNL     1       4.975  -8.579   6.514  1.00  0.00     0.041 C 
ATOM      6  O   UNL     1       4.761  -9.269   5.481  1.00  0.00    -0.550 OA
ATOM      7  O   UNL     1       4.506  -9.019   7.745  1.00  0.00    -0.550 OA
ENDBRANCH   4   5
ENDBRANCH   3   4
ENDBRANCH   2   3
ENDBRANCH   1   2
BRANCH   1   8
ATOM      8  C   UNL     1       8.242  -5.802   3.526  1.00  0.00     0.000 C 
BRANCH   8   9
ATOM      9  C   UNL     1       9.486  -5.526   4.378  1.00  0.00     0.006 C 
BRANCH   9  10
ATOM     10  C   UNL     1      10.762  -5.641   3.541  1.00  0.00     0.053 C 
BRANCH  10  11
ATOM     11  C   UNL     1      11.857  -6.273   4.340  1.00  0.00     0.041 C 
ATOM     12  O   UNL     1      12.957  -6.558   3.794  1.00  0.00    -0.550 OA
ATOM     13  O   UNL     1      11.683  -6.504   5.698  1.00  0.00    -0.550 OA
ENDBRANCH  10  11
ENDBRANCH   9  10
ENDBRANCH   8   9
ENDBRANCH   1   8
TORSDOF 8
ENDMDL
MODEL 2
REMARK VINA RESULT:    -3.210      3.755      5.267
REMARK INTER + INTRA:          -5.063
REMARK INTER:                  -4.146
REMARK INTRA:                  -0.917
REMARK UNBOUND:                -0.351
REMARK SMILES O=C([O-])CCCCCCCC(=O)[O-]
REMARK SMILES IDX 7 1 6 2 5 3 4 4 2 5 1 6 3 7 8 8 9 9 10 10 11 11 12 12 13 13
REMARK H PARENT
REMARK Flexibility Score: inf
ROOT
ATOM      1  C   UNL     1       2.978  -8.346   4.357  1.00  0.00     0.000 C 
ENDROOT
BRANCH   1   2
ATOM      2  C   UNL     1       3.843  -8.057   3.123  1.00  0.00     0.000 C 
BRANCH   2   3
ATOM      3  C   UNL     1       4.007  -6.545   2.909  1.00  0.00     0.006 C 
BRANCH   3   4
ATOM      4  C   UNL     1       3.317  -5.726   4.008  1.00  0.00     0.053 C 
BRANCH   4   5
ATOM      5  C   UNL     1       4.065  -4.465   4.316  1.00  0.00     0.041 C 
ATOM      6  O   UNL     1       4.886  -3.997   3.483  1.00  0.00    -0.550 OA
ATOM      7  O   UNL     1       3.881  -3.825   5.535  1.00  0.00    -0.550 OA
ENDBRANCH   4   5
ENDBRANCH   3   4
ENDBRANCH   2   3
ENDBRANCH   1   2
BRANCH   1   8
ATOM      8  C   UNL     1       3.785  -9.080   5.435  1.00  0.00     0.000 C 
BRANCH   8   9
ATOM      9  C   UNL     1       5.251  -9.237   5.014  1.00  0.00     0.006 C 
BRANCH   9  10
ATOM     10  C   UNL     1       6.190  -8.617   6.052  1.00  0.00     0.053 C 
BRANCH  10  11
ATOM     11  C   UNL     1       6.217  -7.128   5.912  1.00  0.00     0.041 C 
ATOM     12  O   UNL     1       5.607  -6.403   6.743  1.00  0.00    -0.550 OA
ATOM     13  O   UNL     1       6.953  -6.538   4.894  1.00  0.00    -0.550 OA
ENDBRANCH  10  11
ENDBRANCH   9  10
ENDBRANCH   8   9
ENDBRANCH   1   8
TORSDOF 8
ENDMDL
MODEL 3
REMARK VINA RESULT:    -3.192      4.116      5.262
REMARK INTER + INTRA:          -5.036
REMARK INTER:                  -4.476
REMARK INTRA:                  -0.561
REMARK UNBOUND:                -0.351
REMARK SMILES O=C([O-])CCCCCCCC(=O)[O-]
REMARK SMILES IDX 7 1 6 2 5 3 4 4 2 5 1 6 3 7 8 8 9 9 10 10 11 11 12 12 13 13
REMARK H PARENT
REMARK Flexibility Score: inf
ROOT
ATOM      1  C   UNL     1       6.451  -6.274   3.958  1.00  0.00     0.000 C 
ENDROOT
BRANCH   1   2
ATOM      2  C   UNL     1       6.752  -7.186   5.155  1.00  0.00     0.000 C 
BRANCH   2   3
ATOM      3  C   UNL     1       5.649  -7.080   6.218  1.00  0.00     0.006 C 
BRANCH   3   4
ATOM      4  C   UNL     1       5.373  -8.424   6.904  1.00  0.00     0.053 C 
BRANCH   4   5
ATOM      5  C   UNL     1       4.048  -8.993   6.502  1.00  0.00     0.041 C 
ATOM      6  O   UNL     1       3.306  -9.538   7.362  1.00  0.00    -0.550 OA
ATOM      7  O   UNL     1       3.645  -8.951   5.172  1.00  0.00    -0.550 OA
ENDBRANCH   4   5
ENDBRANCH   3   4
ENDBRANCH   2   3
ENDBRANCH   1   2
BRANCH   1   8
ATOM      8  C   UNL     1       5.312  -6.844   3.104  1.00  0.00     0.000 C 
BRANCH   8   9
ATOM      9  C   UNL     1       4.047  -5.986   3.230  1.00  0.00     0.006 C 
BRANCH   9  10
ATOM     10  C   UNL     1       4.400  -4.503   3.365  1.00  0.00     0.053 C 
BRANCH  10  11
ATOM     11  C   UNL     1       3.643  -3.885   4.497  1.00  0.00     0.041 C 
ATOM     12  O   UNL     1       2.601  -3.213   4.271  1.00  0.00    -0.550 OA
ATOM     13  O   UNL     1       4.059  -4.090   5.806  1.00  0.00    -0.550 OA
ENDBRANCH  10  11
ENDBRANCH   9  10
ENDBRANCH   8   9
ENDBRANCH   1   8
TORSDOF 8
ENDMDL
MODEL 4
REMARK VINA RESULT:    -3.131      4.164      5.967
REMARK INTER + INTRA:          -4.947
REMARK INTER:                  -4.301
REMARK INTRA:                  -0.646
REMARK UNBOUND:                -0.351
REMARK SMILES O=C([O-])CCCCCCCC(=O)[O-]
REMARK SMILES IDX 7 1 6 2 5 3 4 4 2 5 1 6 3 7 8 8 9 9 10 10 11 11 12 12 13 13
REMARK H PARENT
REMARK Flexibility Score: inf
ROOT
ATOM      1  C   UNL     1       6.874  -6.535   5.114  1.00  0.00     0.000 C 
ENDROOT
BRANCH   1   2
ATOM      2  C   UNL     1       6.167  -6.721   3.765  1.00  0.00     0.000 C 
BRANCH   2   3
ATOM      3  C   UNL     1       5.423  -5.442   3.353  1.00  0.00     0.006 C 
BRANCH   3   4
ATOM      4  C   UNL     1       3.956  -5.455   3.801  1.00  0.00     0.053 C 
BRANCH   4   5
ATOM      5  C   UNL     1       3.612  -4.247   4.616  1.00  0.00     0.041 C 
ATOM      6  O   UNL     1       2.875  -3.346   4.134  1.00  0.00    -0.550 OA
ATOM      7  O   UNL     1       4.132  -4.098   5.897  1.00  0.00    -0.550 OA
ENDBRANCH   4   5
ENDBRANCH   3   4
ENDBRANCH   2   3
ENDBRANCH   1   2
BRANCH   1   8
ATOM      8  C   UNL     1       5.982  -6.996   6.272  1.00  0.00     0.000 C 
BRANCH   8   9
ATOM      9  C   UNL     1       5.829  -8.522   6.275  1.00  0.00     0.006 C 
BRANCH   9  10
ATOM     10  C   UNL     1       4.356  -8.926   6.378  1.00  0.00     0.053 C 
BRANCH  10  11
ATOM     11  C   UNL     1       3.792  -9.204   5.021  1.00  0.00     0.041 C 
ATOM     12  O   UNL     1       2.772  -8.583   4.619  1.00  0.00    -0.550 OA
ATOM     13  O   UNL     1       4.421 -10.113   4.180  1.00  0.00    -0.550 OA
ENDBRANCH  10  11
ENDBRANCH   9  10
ENDBRANCH   8   9
ENDBRANCH   1   8
TORSDOF 8
ENDMDL
MODEL 5
REMARK VINA RESULT:    -3.067      0.822      6.254
REMARK INTER + INTRA:          -4.852
REMARK INTER:                  -4.469
REMARK INTRA:                  -0.383
REMARK UNBOUND:                -0.351
REMARK SMILES O=C([O-])CCCCCCCC(=O)[O-]
REMARK SMILES IDX 7 1 6 2 5 3 4 4 2 5 1 6 3 7 8 8 9 9 10 10 11 11 12 12 13 13
REMARK H PARENT
REMARK Flexibility Score: inf
ROOT
ATOM      1  C   UNL     1       7.984  -6.165   4.630  1.00  0.00     0.000 C 
ENDROOT
BRANCH   1   2
ATOM      2  C   UNL     1       9.040  -5.198   4.078  1.00  0.00     0.000 C 
BRANCH   2   3
ATOM      3  C   UNL     1      10.000  -5.920   3.121  1.00  0.00     0.006 C 
BRANCH   3   4
ATOM      4  C   UNL     1      11.466  -5.555   3.385  1.00  0.00     0.053 C 
BRANCH   4   5
ATOM      5  C   UNL     1      12.132  -6.546   4.289  1.00  0.00     0.041 C 
ATOM      6  O   UNL     1      11.974  -6.471   5.537  1.00  0.00    -0.550 OA
ATOM      7  O   UNL     1      12.956  -7.531   3.758  1.00  0.00    -0.550 OA
ENDBRANCH   4   5
ENDBRANCH   3   4
ENDBRANCH   2   3
ENDBRANCH   1   2
BRANCH   1   8
ATOM      8  C   UNL     1       6.741  -6.193   3.732  1.00  0.00     0.000 C 
BRANCH   8   9
ATOM      9  C   UNL     1       5.501  -6.627   4.522  1.00  0.00     0.006 C 
BRANCH   9  10
ATOM     10  C   UNL     1       5.843  -6.865   5.995  1.00  0.00     0.053 C 
BRANCH  10  11
ATOM     11  C   UNL     1       5.592  -8.291   6.369  1.00  0.00     0.041 C 
ATOM     12  O   UNL     1       6.044  -9.223   5.651  1.00  0.00    -0.550 OA
ATOM     13  O   UNL     1       4.901  -8.593   7.535  1.00  0.00    -0.550 OA
ENDBRANCH  10  11
ENDBRANCH   9  10
ENDBRANCH   8   9
ENDBRANCH   1   8
TORSDOF 8
ENDMDL
MODEL 6
REMARK VINA RESULT:    -3.038      4.099      8.798
REMARK INTER + INTRA:          -4.810
REMARK INTER:                  -4.643
REMARK INTRA:                  -0.167
REMARK UNBOUND:                -0.351
REMARK SMILES O=C([O-])CCCCCCCC(=O)[O-]
REMARK SMILES IDX 7 1 6 2 5 3 4 4 2 5 1 6 3 7 8 8 9 9 10 10 11 11 12 12 13 13
REMARK H PARENT
REMARK Flexibility Score: inf
ROOT
ATOM      1  C   UNL     1      14.398  -5.310   4.690  1.00  0.00     0.000 C 
ENDROOT
BRANCH   1   2
ATOM      2  C   UNL     1      15.750  -5.663   4.055  1.00  0.00     0.000 C 
BRANCH   2   3
ATOM      3  C   UNL     1      16.707  -6.262   5.096  1.00  0.00     0.006 C 
BRANCH   3   4
ATOM      4  C   UNL     1      17.416  -7.520   4.577  1.00  0.00     0.053 C 
BRANCH   4   5
ATOM      5  C   UNL     1      17.519  -8.577   5.632  1.00  0.00     0.041 C 
ATOM      6  O   UNL     1      17.713  -8.255   6.834  1.00  0.00    -0.550 OA
ATOM      7  O   UNL     1      17.435  -9.920   5.284  1.00  0.00    -0.550 OA
ENDBRANCH   4   5
ENDBRANCH   3   4
ENDBRANCH   2   3
ENDBRANCH   1   2
BRANCH   1   8
ATOM      8  C   UNL     1      13.347  -5.009   3.615  1.00  0.00     0.000 C 
BRANCH   8   9
ATOM      9  C   UNL     1      12.054  -5.790   3.876  1.00  0.00     0.006 C 
BRANCH   9  10
ATOM     10  C   UNL     1      10.919  -5.291   2.978  1.00  0.00     0.053 C 
BRANCH  10  11
ATOM     11  C   UNL     1       9.635  -5.229   3.741  1.00  0.00     0.041 C 
ATOM     12  O   UNL     1       9.515  -5.848   4.832  1.00  0.00    -0.550 OA
ATOM     13  O   UNL     1       8.585  -4.448   3.274  1.00  0.00    -0.550 OA
ENDBRANCH  10  11
ENDBRANCH   9  10
ENDBRANCH   8   9
ENDBRANCH   1   8
TORSDOF 8
ENDMDL
MODEL 7
REMARK VINA RESULT:    -3.027      4.495      5.381
REMARK INTER + INTRA:          -4.794
REMARK INTER:                  -4.163
REMARK INTRA:                  -0.631
REMARK UNBOUND:                -0.351
REMARK SMILES O=C([O-])CCCCCCCC(=O)[O-]
REMARK SMILES IDX 7 1 6 2 5 3 4 4 2 5 1 6 3 7 8 8 9 9 10 10 11 11 12 12 13 13
REMARK H PARENT
REMARK Flexibility Score: inf
ROOT
ATOM      1  C   UNL     1       5.554  -6.913   6.418  1.00  0.00     0.000 C 
ENDROOT
BRANCH   1   2
ATOM      2  C   UNL     1       5.488  -8.442   6.537  1.00  0.00     0.000 C 
BRANCH   2   3
ATOM      3  C   UNL     1       4.070  -8.955   6.244  1.00  0.00     0.006 C 
BRANCH   3   4
ATOM      4  C   UNL     1       3.955  -9.576   4.846  1.00  0.00     0.053 C 
BRANCH   4   5
ATOM      5  C   UNL     1       2.782  -9.035   4.090  1.00  0.00     0.041 C 
ATOM      6  O   UNL     1       2.269  -9.703   3.153  1.00  0.00    -0.550 OA
ATOM      7  O   UNL     1       2.273  -7.778   4.398  1.00  0.00    -0.550 OA
ENDBRANCH   4   5
ENDBRANCH   3   4
ENDBRANCH   2   3
ENDBRANCH   1   2
BRANCH   1   8
ATOM      8  C   UNL     1       6.341  -6.492   5.171  1.00  0.00     0.000 C 
BRANCH   8   9
ATOM      9  C   UNL     1       5.409  -6.315   3.967  1.00  0.00     0.006 C 
BRANCH   9  10
ATOM     10  C   UNL     1       5.151  -4.833   3.684  1.00  0.00     0.053 C 
BRANCH  10  11
ATOM     11  C   UNL     1       3.893  -4.382   4.356  1.00  0.00     0.041 C 
ATOM     12  O   UNL     1       2.779  -4.539   3.788  1.00  0.00    -0.550 OA
ATOM     13  O   UNL     1       3.944  -3.833   5.631  1.00  0.00    -0.550 OA
ENDBRANCH  10  11
ENDBRANCH   9  10
ENDBRANCH   8   9
ENDBRANCH   1   8
TORSDOF 8
ENDMDL
MODEL 8
REMARK VINA RESULT:    -2.947      3.557      4.888
REMARK INTER + INTRA:          -4.676
REMARK INTER:                  -4.049
REMARK INTRA:                  -0.628
REMARK UNBOUND:                -0.351
REMARK SMILES O=C([O-])CCCCCCCC(=O)[O-]
REMARK SMILES IDX 7 1 6 2 5 3 4 4 2 5 1 6 3 7 8 8 9 9 10 10 11 11 12 12 13 13
REMARK H PARENT
REMARK Flexibility Score: inf
ROOT
ATOM      1  C   UNL     1       7.242  -6.755   4.239  1.00  0.00     0.000 C 
ENDROOT
BRANCH   1   2
ATOM      2  C   UNL     1       6.604  -7.996   3.602  1.00  0.00     0.000 C 
BRANCH   2   3
ATOM      3  C   UNL     1       6.185  -9.011   4.676  1.00  0.00     0.006 C 
BRANCH   3   4
ATOM      4  C   UNL     1       4.824  -8.670   5.296  1.00  0.00     0.053 C 
BRANCH   4   5
ATOM      5  C   UNL     1       4.955  -8.239   6.724  1.00  0.00     0.041 C 
ATOM      6  O   UNL     1       5.460  -7.119   7.003  1.00  0.00    -0.550 OA
ATOM      7  O   UNL     1       4.550  -9.085   7.749  1.00  0.00    -0.550 OA
ENDBRANCH   4   5
ENDBRANCH   3   4
ENDBRANCH   2   3
ENDBRANCH   1   2
BRANCH   1   8
ATOM      8  C   UNL     1       7.051  -5.520   3.350  1.00  0.00     0.000 C 
BRANCH   8   9
ATOM      9  C   UNL     1       5.598  -5.403   2.875  1.00  0.00     0.006 C 
BRANCH   9  10
ATOM     10  C   UNL     1       4.891  -4.227   3.554  1.00  0.00     0.053 C 
BRANCH  10  11
ATOM     11  C   UNL     1       3.993  -4.716   4.646  1.00  0.00     0.041 C 
ATOM     12  O   UNL     1       4.094  -4.241   5.810  1.00  0.00    -0.550 OA
ATOM     13  O   UNL     1       3.013  -5.660   4.371  1.00  0.00    -0.550 OA
ENDBRANCH  10  11
ENDBRANCH   9  10
ENDBRANCH   8   9
ENDBRANCH   1   8
TORSDOF 8
ENDMDL
MODEL 9
REMARK VINA RESULT:    -2.892      2.749      3.852
REMARK INTER + INTRA:          -4.596
REMARK INTER:                  -3.902
REMARK INTRA:                  -0.694
REMARK UNBOUND:                -0.351
REMARK SMILES O=C([O-])CCCCCCCC(=O)[O-]
REMARK SMILES IDX 7 1 6 2 5 3 4 4 2 5 1 6 3 7 8 8 9 9 10 10 11 11 12 12 13 13
REMARK H PARENT
REMARK Flexibility Score: inf
ROOT
ATOM      1  C   UNL     1       3.538  -6.874   3.473  1.00  0.00     0.000 C 
ENDROOT
BRANCH   1   2
ATOM      2  C   UNL     1       3.466  -7.953   4.561  1.00  0.00     0.000 C 
BRANCH   2   3
ATOM      3  C   UNL     1       4.610  -8.967   4.407  1.00  0.00     0.006 C 
BRANCH   3   4
ATOM      4  C   UNL     1       5.835  -8.592   5.250  1.00  0.00     0.053 C 
BRANCH   4   5
ATOM      5  C   UNL     1       5.445  -7.942   6.541  1.00  0.00     0.041 C 
ATOM      6  O   UNL     1       4.931  -8.627   7.465  1.00  0.00    -0.550 OA
ATOM      7  O   UNL     1       5.619  -6.574   6.714  1.00  0.00    -0.550 OA
ENDBRANCH   4   5
ENDBRANCH   3   4
ENDBRANCH   2   3
ENDBRANCH   1   2
BRANCH   1   8
ATOM      8  C   UNL     1       3.640  -5.475   4.091  1.00  0.00     0.000 C 
BRANCH   8   9
ATOM      9  C   UNL     1       4.881  -4.735   3.578  1.00  0.00     0.006 C 
BRANCH   9  10
ATOM     10  C   UNL     1       5.877  -5.708   2.942  1.00  0.00     0.053 C 
BRANCH  10  11
ATOM     11  C   UNL     1       7.281  -5.305   3.261  1.00  0.00     0.041 C 
ATOM     12  O   UNL     1       8.060  -6.115   3.832  1.00  0.00    -0.550 OA
ATOM     13  O   UNL     1       7.747  -4.051   2.886  1.00  0.00    -0.550 OA
ENDBRANCH  10  11
ENDBRANCH   9  10
ENDBRANCH   8   9
ENDBRANCH   1   8
TORSDOF 8
ENDMDL
