MODEL 1
REMARK VINA RESULT:    -4.207      0.000      0.000
REMARK INTER + INTRA:          -4.996
REMARK INTER:                  -4.699
REMARK INTRA:                  -0.297
REMARK UNBOUND:                -0.297
REMARK SMILES CC(=O)c1ccc(O)cc1O
REMARK SMILES IDX 4 1 10 2 9 3 7 4 6 5 5 6 2 7 1 8 3 9 11 10 8 12
REMARK H PARENT 11 11 8 13
REMARK Flexibility Score: inf
ROOT
ATOM      1  C   UNL     1       0.812 -25.096 -46.304  1.00  0.00     0.059 A 
ATOM      2  C   UNL     1       0.905 -26.310 -47.022  1.00  0.00     0.130 A 
ATOM      3  C   UNL     1      -0.246 -26.877 -47.592  1.00  0.00     0.093 A 
ATOM      4  C   UNL     1      -1.490 -26.261 -47.443  1.00  0.00     0.119 A 
ATOM      5  C   UNL     1      -1.591 -25.070 -46.718  1.00  0.00     0.047 A 
ATOM      6  C   UNL     1      -0.453 -24.494 -46.151  1.00  0.00     0.019 A 
ENDROOT
BRANCH   1   7
ATOM      7  C   UNL     1       1.996 -24.436 -45.691  1.00  0.00     0.163 C 
ATOM      8  C   UNL     1       2.076 -24.123 -44.228  1.00  0.00     0.093 C 
ATOM      9  O   UNL     1       2.977 -24.124 -46.421  1.00  0.00    -0.294 OA
ENDBRANCH   1   7
BRANCH   2  10
ATOM     10  O   UNL     1       2.126 -26.972 -47.156  1.00  0.00    -0.507 OA
ATOM     11  H   UNL     1       2.948 -26.686 -46.637  1.00  0.00     0.293 HD
ENDBRANCH   2  10
BRANCH   4  12
ATOM     12  O   UNL     1      -2.619 -26.843 -48.016  1.00  0.00    -0.508 OA
ATOM     13  H   UNL     1      -3.337 -26.282 -48.458  1.00  0.00     0.293 HD
ENDBRANCH   4  12
TORSDOF 3
ENDMDL
MODEL 2
REMARK VINA RESULT:    -4.188     14.400     15.762
REMARK INTER + INTRA:          -4.974
REMARK INTER:                  -4.701
REMARK INTRA:                  -0.274
REMARK UNBOUND:                -0.297
REMARK SMILES CC(=O)c1ccc(O)cc1O
REMARK SMILES IDX 4 1 10 2 9 3 7 4 6 5 5 6 2 7 1 8 3 9 11 10 8 12
REMARK H PARENT 11 11 8 13
REMARK Flexibility Score: inf
ROOT
ATOM      1  C   UNL     1       0.652 -10.601 -41.470  1.00  0.00     0.059 A 
ATOM      2  C   UNL     1       1.404 -11.751 -41.805  1.00  0.00     0.130 A 
ATOM      3  C   UNL     1       2.180 -11.765 -42.975  1.00  0.00     0.093 A 
ATOM      4  C   UNL     1       2.204 -10.657 -43.824  1.00  0.00     0.119 A 
ATOM      5  C   UNL     1       1.449  -9.524 -43.508  1.00  0.00     0.047 A 
ATOM      6  C   UNL     1       0.678  -9.497 -42.345  1.00  0.00     0.019 A 
ENDROOT
BRANCH   1   7
ATOM      7  C   UNL     1      -0.175 -10.517 -40.237  1.00  0.00     0.163 C 
ATOM      8  C   UNL     1      -0.456  -9.219 -39.542  1.00  0.00     0.093 C 
ATOM      9  O   UNL     1      -0.666 -11.572 -39.748  1.00  0.00    -0.294 OA
ENDBRANCH   1   7
BRANCH   2  10
ATOM     10  O   UNL     1       1.371 -12.889 -40.998  1.00  0.00    -0.507 OA
ATOM     11  H   UNL     1       1.995 -13.672 -41.153  1.00  0.00     0.293 HD
ENDBRANCH   2  10
BRANCH   4  12
ATOM     12  O   UNL     1       2.980 -10.694 -44.981  1.00  0.00    -0.508 OA
ATOM     13  H   UNL     1       3.566 -11.490 -45.201  1.00  0.00     0.293 HD
ENDBRANCH   4  12
TORSDOF 3
ENDMDL
MODEL 3
REMARK VINA RESULT:    -4.176      1.166      3.936
REMARK INTER + INTRA:          -4.960
REMARK INTER:                  -4.683
REMARK INTRA:                  -0.277
REMARK UNBOUND:                -0.297
REMARK SMILES CC(=O)c1ccc(O)cc1O
REMARK SMILES IDX 4 1 10 2 9 3 7 4 6 5 5 6 2 7 1 8 3 9 11 10 8 12
REMARK H PARENT 11 11 8 13
REMARK Flexibility Score: inf
ROOT
ATOM      1  C   UNL     1      -0.451 -25.161 -46.336  1.00  0.00     0.059 A 
ATOM      2  C   UNL     1       0.503 -25.990 -46.971  1.00  0.00     0.130 A 
ATOM      3  C   UNL     1       1.872 -25.693 -46.861  1.00  0.00     0.093 A 
ATOM      4  C   UNL     1       2.301 -24.576 -46.142  1.00  0.00     0.119 A 
ATOM      5  C   UNL     1       1.361 -23.744 -45.527  1.00  0.00     0.047 A 
ATOM      6  C   UNL     1      -0.002 -24.031 -45.625  1.00  0.00     0.019 A 
ENDROOT
BRANCH   1   7
ATOM      7  C   UNL     1      -1.913 -25.431 -46.400  1.00  0.00     0.163 C 
ATOM      8  C   UNL     1      -2.852 -25.045 -45.298  1.00  0.00     0.093 C 
ATOM      9  O   UNL     1      -2.392 -26.004 -47.417  1.00  0.00    -0.294 OA
ENDBRANCH   1   7
BRANCH   2  10
ATOM     10  O   UNL     1       0.105 -27.090 -47.729  1.00  0.00    -0.507 OA
ATOM     11  H   UNL     1      -0.833 -27.468 -47.671  1.00  0.00     0.293 HD
ENDBRANCH   2  10
BRANCH   4  12
ATOM     12  O   UNL     1       3.663 -24.300 -46.048  1.00  0.00    -0.508 OA
ATOM     13  H   UNL     1       4.254 -24.260 -46.870  1.00  0.00     0.293 HD
ENDBRANCH   4  12
TORSDOF 3
ENDMDL
MODEL 4
REMARK VINA RESULT:    -4.162      1.577      2.293
REMARK INTER + INTRA:          -4.945
REMARK INTER:                  -4.653
REMARK INTRA:                  -0.292
REMARK UNBOUND:                -0.297
REMARK SMILES CC(=O)c1ccc(O)cc1O
REMARK SMILES IDX 4 1 10 2 9 3 7 4 6 5 5 6 2 7 1 8 3 9 11 10 8 12
REMARK H PARENT 11 11 8 13
REMARK Flexibility Score: inf
ROOT
ATOM      1  C   UNL     1       0.071 -25.395 -46.302  1.00  0.00     0.059 A 
ATOM      2  C   UNL     1      -0.939 -25.944 -47.127  1.00  0.00     0.130 A 
ATOM      3  C   UNL     1      -2.291 -25.756 -46.798  1.00  0.00     0.093 A 
ATOM      4  C   UNL     1      -2.651 -25.044 -45.652  1.00  0.00     0.119 A 
ATOM      5  C   UNL     1      -1.658 -24.515 -44.823  1.00  0.00     0.047 A 
ATOM      6  C   UNL     1      -0.310 -24.691 -45.143  1.00  0.00     0.019 A 
ENDROOT
BRANCH   1   7
ATOM      7  C   UNL     1       1.520 -25.544 -46.604  1.00  0.00     0.163 C 
ATOM      8  C   UNL     1       2.513 -24.452 -46.348  1.00  0.00     0.093 C 
ATOM      9  O   UNL     1       1.941 -26.628 -47.095  1.00  0.00    -0.294 OA
ENDBRANCH   1   7
BRANCH   2  10
ATOM     10  O   UNL     1      -0.612 -26.693 -48.257  1.00  0.00    -0.507 OA
ATOM     11  H   UNL     1       0.336 -27.004 -48.436  1.00  0.00     0.293 HD
ENDBRANCH   2  10
BRANCH   4  12
ATOM     12  O   UNL     1      -3.999 -24.871 -45.345  1.00  0.00    -0.508 OA
ATOM     13  H   UNL     1      -4.638 -24.428 -45.994  1.00  0.00     0.293 HD
ENDBRANCH   4  12
TORSDOF 3
ENDMDL
MODEL 5
REMARK VINA RESULT:    -4.068     14.755     16.051
REMARK INTER + INTRA:          -4.840
REMARK INTER:                  -4.561
REMARK INTRA:                  -0.279
REMARK UNBOUND:                -0.297
REMARK SMILES CC(=O)c1ccc(O)cc1O
REMARK SMILES IDX 4 1 10 2 9 3 7 4 6 5 5 6 2 7 1 8 3 9 11 10 8 12
REMARK H PARENT 11 11 8 13
REMARK Flexibility Score: inf
ROOT
ATOM      1  C   UNL     1      -0.451 -10.412 -42.138  1.00  0.00     0.059 A 
ATOM      2  C   UNL     1      -0.038 -11.594 -41.479  1.00  0.00     0.130 A 
ATOM      3  C   UNL     1       1.327 -11.823 -41.243  1.00  0.00     0.093 A 
ATOM      4  C   UNL     1       2.286 -10.901 -41.667  1.00  0.00     0.119 A 
ATOM      5  C   UNL     1       1.885  -9.740 -42.335  1.00  0.00     0.047 A 
ATOM      6  C   UNL     1       0.530  -9.499 -42.571  1.00  0.00     0.019 A 
ENDROOT
BRANCH   1   7
ATOM      7  C   UNL     1      -1.882 -10.103 -42.403  1.00  0.00     0.163 C 
ATOM      8  C   UNL     1      -2.408  -8.700 -42.448  1.00  0.00     0.093 C 
ATOM      9  O   UNL     1      -2.693 -11.049 -42.600  1.00  0.00    -0.294 OA
ENDBRANCH   1   7
BRANCH   2  10
ATOM     10  O   UNL     1      -0.967 -12.552 -41.077  1.00  0.00    -0.507 OA
ATOM     11  H   UNL     1      -0.849 -13.087 -40.225  1.00  0.00     0.293 HD
ENDBRANCH   2  10
BRANCH   4  12
ATOM     12  O   UNL     1       3.635 -11.150 -41.423  1.00  0.00    -0.508 OA
ATOM     13  H   UNL     1       4.051 -10.974 -40.516  1.00  0.00     0.293 HD
ENDBRANCH   4  12
TORSDOF 3
ENDMDL
MODEL 6
REMARK VINA RESULT:    -4.006      1.780      2.121
REMARK INTER + INTRA:          -4.771
REMARK INTER:                  -4.469
REMARK INTRA:                  -0.302
REMARK UNBOUND:                -0.297
REMARK SMILES CC(=O)c1ccc(O)cc1O
REMARK SMILES IDX 4 1 10 2 9 3 7 4 6 5 5 6 2 7 1 8 3 9 11 10 8 12
REMARK H PARENT 11 11 8 13
REMARK Flexibility Score: inf
ROOT
ATOM      1  C   UNL     1       0.214 -24.029 -45.426  1.00  0.00     0.059 A 
ATOM      2  C   UNL     1       1.195 -24.883 -45.980  1.00  0.00     0.130 A 
ATOM      3  C   UNL     1       0.833 -25.826 -46.956  1.00  0.00     0.093 A 
ATOM      4  C   UNL     1      -0.494 -25.940 -47.375  1.00  0.00     0.119 A 
ATOM      5  C   UNL     1      -1.472 -25.110 -46.817  1.00  0.00     0.047 A 
ATOM      6  C   UNL     1      -1.122 -24.166 -45.850  1.00  0.00     0.019 A 
ENDROOT
BRANCH   1   7
ATOM      7  C   UNL     1       0.537 -22.998 -44.402  1.00  0.00     0.163 C 
ATOM      8  C   UNL     1      -0.029 -21.611 -44.449  1.00  0.00     0.093 C 
ATOM      9  O   UNL     1       1.313 -23.293 -43.452  1.00  0.00    -0.294 OA
ENDBRANCH   1   7
BRANCH   2  10
ATOM     10  O   UNL     1       2.522 -24.821 -45.555  1.00  0.00    -0.507 OA
ATOM     11  H   UNL     1       3.228 -25.454 -45.914  1.00  0.00     0.293 HD
ENDBRANCH   2  10
BRANCH   4  12
ATOM     12  O   UNL     1      -0.831 -26.884 -48.343  1.00  0.00    -0.508 OA
ATOM     13  H   UNL     1      -1.098 -27.828 -48.092  1.00  0.00     0.293 HD
ENDBRANCH   4  12
TORSDOF 3
ENDMDL
MODEL 7
REMARK VINA RESULT:    -3.979      1.732      4.517
REMARK INTER + INTRA:          -4.741
REMARK INTER:                  -4.483
REMARK INTRA:                  -0.258
REMARK UNBOUND:                -0.297
REMARK SMILES CC(=O)c1ccc(O)cc1O
REMARK SMILES IDX 4 1 10 2 9 3 7 4 6 5 5 6 2 7 1 8 3 9 11 10 8 12
REMARK H PARENT 11 11 8 13
REMARK Flexibility Score: inf
ROOT
ATOM      1  C   UNL     1      -0.433 -25.188 -46.297  1.00  0.00     0.059 A 
ATOM      2  C   UNL     1       0.039 -24.009 -45.673  1.00  0.00     0.130 A 
ATOM      3  C   UNL     1       1.413 -23.721 -45.671  1.00  0.00     0.093 A 
ATOM      4  C   UNL     1       2.324 -24.597 -46.265  1.00  0.00     0.119 A 
ATOM      5  C   UNL     1       1.865 -25.772 -46.867  1.00  0.00     0.047 A 
ATOM      6  C   UNL     1       0.501 -26.067 -46.880  1.00  0.00     0.019 A 
ENDROOT
BRANCH   1   7
ATOM      7  C   UNL     1      -1.877 -25.542 -46.349  1.00  0.00     0.163 C 
ATOM      8  C   UNL     1      -2.448 -26.445 -47.400  1.00  0.00     0.093 C 
ATOM      9  O   UNL     1      -2.661 -25.071 -45.479  1.00  0.00    -0.294 OA
ENDBRANCH   1   7
BRANCH   2  10
ATOM     10  O   UNL     1      -0.840 -23.134 -45.037  1.00  0.00    -0.507 OA
ATOM     11  H   UNL     1      -1.733 -23.445 -44.672  1.00  0.00     0.293 HD
ENDBRANCH   2  10
BRANCH   4  12
ATOM     12  O   UNL     1       3.684 -24.290 -46.249  1.00  0.00    -0.508 OA
ATOM     13  H   UNL     1       4.374 -24.924 -46.634  1.00  0.00     0.293 HD
ENDBRANCH   4  12
TORSDOF 3
ENDMDL
MODEL 8
REMARK VINA RESULT:    -3.799     16.134     17.717
REMARK INTER + INTRA:          -4.539
REMARK INTER:                  -4.238
REMARK INTRA:                  -0.301
REMARK UNBOUND:                -0.297
REMARK SMILES CC(=O)c1ccc(O)cc1O
REMARK SMILES IDX 4 1 10 2 9 3 7 4 6 5 5 6 2 7 1 8 3 9 11 10 8 12
REMARK H PARENT 11 11 8 13
REMARK Flexibility Score: inf
ROOT
ATOM      1  C   UNL     1       8.550 -10.963 -40.126  1.00  0.00     0.059 A 
ATOM      2  C   UNL     1       7.328 -11.453 -39.609  1.00  0.00     0.130 A 
ATOM      3  C   UNL     1       7.255 -12.761 -39.105  1.00  0.00     0.093 A 
ATOM      4  C   UNL     1       8.376 -13.593 -39.123  1.00  0.00     0.119 A 
ATOM      5  C   UNL     1       9.582 -13.121 -39.649  1.00  0.00     0.047 A 
ATOM      6  C   UNL     1       9.668 -11.819 -40.149  1.00  0.00     0.019 A 
ENDROOT
BRANCH   1   7
ATOM      7  C   UNL     1       8.696  -9.581 -40.658  1.00  0.00     0.163 C 
ATOM      8  C   UNL     1       9.724  -8.623 -40.138  1.00  0.00     0.093 C 
ATOM      9  O   UNL     1       7.933  -9.192 -41.585  1.00  0.00    -0.294 OA
ENDBRANCH   1   7
BRANCH   2  10
ATOM     10  O   UNL     1       6.180 -10.661 -39.612  1.00  0.00    -0.507 OA
ATOM     11  H   UNL     1       5.774 -10.312 -40.473  1.00  0.00     0.293 HD
ENDBRANCH   2  10
BRANCH   4  12
ATOM     12  O   UNL     1       8.280 -14.889 -38.619  1.00  0.00    -0.508 OA
ATOM     13  H   UNL     1       8.936 -15.612 -38.889  1.00  0.00     0.293 HD
ENDBRANCH   4  12
TORSDOF 3
ENDMDL
MODEL 9
REMARK VINA RESULT:    -3.763     15.485     17.075
REMARK INTER + INTRA:          -4.500
REMARK INTER:                  -4.236
REMARK INTRA:                  -0.264
REMARK UNBOUND:                -0.297
REMARK SMILES CC(=O)c1ccc(O)cc1O
REMARK SMILES IDX 4 1 10 2 9 3 7 4 6 5 5 6 2 7 1 8 3 9 11 10 8 12
REMARK H PARENT 11 11 8 13
REMARK Flexibility Score: inf
ROOT
ATOM      1  C   UNL     1      -0.787  -9.592 -39.326  1.00  0.00     0.059 A 
ATOM      2  C   UNL     1      -1.023 -10.981 -39.203  1.00  0.00     0.130 A 
ATOM      3  C   UNL     1      -1.137 -11.776 -40.354  1.00  0.00     0.093 A 
ATOM      4  C   UNL     1      -1.035 -11.206 -41.625  1.00  0.00     0.119 A 
ATOM      5  C   UNL     1      -0.820  -9.831 -41.753  1.00  0.00     0.047 A 
ATOM      6  C   UNL     1      -0.700  -9.030 -40.615  1.00  0.00     0.019 A 
ENDROOT
BRANCH   1   7
ATOM      7  C   UNL     1      -0.640  -8.698 -38.145  1.00  0.00     0.163 C 
ATOM      8  C   UNL     1      -0.895  -7.223 -38.216  1.00  0.00     0.093 C 
ATOM      9  O   UNL     1      -0.290  -9.190 -37.037  1.00  0.00    -0.294 OA
ENDBRANCH   1   7
BRANCH   2  10
ATOM     10  O   UNL     1      -1.169 -11.575 -37.949  1.00  0.00    -0.507 OA
ATOM     11  H   UNL     1      -0.622 -11.276 -37.150  1.00  0.00     0.293 HD
ENDBRANCH   2  10
BRANCH   4  12
ATOM     12  O   UNL     1      -1.153 -12.015 -42.753  1.00  0.00    -0.508 OA
ATOM     13  H   UNL     1      -0.926 -13.002 -42.723  1.00  0.00     0.293 HD
ENDBRANCH   4  12
TORSDOF 3
ENDMDL
