MODEL 1
REMARK VINA RESULT:    -4.913      0.000      0.000
REMARK INTER + INTRA:          -4.913
REMARK INTER:                  -4.913
REMARK INTRA:                   0.000
REMARK UNBOUND:                 0.000
REMARK SMILES C[C@H]1CCC=C2CC[C@H]3[C@H](C3(C)C)[C@@]21C
REMARK SMILES IDX 1 1 2 2 3 3 4 4 5 5 6 6 14 7 10 8 9 9 11 10 12 11 13 12 8 13
REMARK SMILES IDX 7 14 15 15
REMARK H PARENT
REMARK Flexibility Score: inf
ROOT
ATOM      1  C   UNL     1     136.954 133.573 138.167  1.00  0.00     0.008 C 
ATOM      2  C   UNL     1     137.378 133.940 136.733  1.00  0.00    -0.004 C 
ATOM      3  C   UNL     1     138.795 134.537 136.739  1.00  0.00     0.008 C 
ATOM      4  C   UNL     1     139.153 135.077 135.355  1.00  0.00     0.027 C 
ATOM      5  C   UNL     1     138.835 134.108 134.248  1.00  0.00    -0.027 C 
ATOM      6  C   UNL     1     137.905 133.131 134.358  1.00  0.00    -0.068 C 
ATOM      7  C   UNL     1     137.259 132.761 135.695  1.00  0.00    -0.005 C 
ATOM      8  C   UNL     1     135.757 132.348 135.533  1.00  0.00     0.009 C 
ATOM      9  C   UNL     1     135.208 132.049 134.119  1.00  0.00    -0.000 C 
ATOM     10  C   UNL     1     134.674 133.257 134.917  1.00  0.00    -0.028 C 
ATOM     11  C   UNL     1     133.265 133.063 135.489  1.00  0.00     0.012 C 
ATOM     12  C   UNL     1     134.991 134.687 134.434  1.00  0.00     0.012 C 
ATOM     13  C   UNL     1     136.076 132.341 132.875  1.00  0.00     0.009 C 
ATOM     14  C   UNL     1     137.572 132.288 133.154  1.00  0.00     0.031 C 
ATOM     15  C   UNL     1     138.009 131.504 136.212  1.00  0.00     0.017 C 
ENDROOT
TORSDOF 0
ENDMDL
MODEL 2
REMARK VINA RESULT:    -4.913      4.990      7.269
REMARK INTER + INTRA:          -4.913
REMARK INTER:                  -4.913
REMARK INTRA:                   0.000
REMARK UNBOUND:                 0.000
REMARK SMILES C[C@H]1CCC=C2CC[C@H]3[C@H](C3(C)C)[C@@]21C
REMARK SMILES IDX 1 1 2 2 3 3 4 4 5 5 6 6 14 7 10 8 9 9 11 10 12 11 13 12 8 13
REMARK SMILES IDX 7 14 15 15
REMARK H PARENT
REMARK Flexibility Score: inf
ROOT
ATOM      1  C   UNL     1     135.605 138.620 137.926  1.00  0.00     0.008 C 
ATOM      2  C   UNL     1     135.285 138.415 136.434  1.00  0.00    -0.004 C 
ATOM      3  C   UNL     1     133.880 137.809 136.275  1.00  0.00     0.008 C 
ATOM      4  C   UNL     1     133.625 137.427 134.818  1.00  0.00     0.027 C 
ATOM      5  C   UNL     1     134.002 138.518 133.851  1.00  0.00    -0.027 C 
ATOM      6  C   UNL     1     134.907 139.484 134.135  1.00  0.00    -0.068 C 
ATOM      7  C   UNL     1     135.455 139.705 135.547  1.00  0.00    -0.005 C 
ATOM      8  C   UNL     1     136.958 140.146 135.536  1.00  0.00     0.009 C 
ATOM      9  C   UNL     1     137.597 140.608 134.206  1.00  0.00    -0.000 C 
ATOM     10  C   UNL     1     138.094 139.321 134.897  1.00  0.00    -0.028 C 
ATOM     11  C   UNL     1     139.458 139.460 135.584  1.00  0.00     0.012 C 
ATOM     12  C   UNL     1     137.833 137.954 134.235  1.00  0.00     0.012 C 
ATOM     13  C   UNL     1     136.819 140.452 132.880  1.00  0.00     0.009 C 
ATOM     14  C   UNL     1     135.307 140.461 133.059  1.00  0.00     0.031 C 
ATOM     15  C   UNL     1     134.652 140.889 136.149  1.00  0.00     0.017 C 
ENDROOT
TORSDOF 0
ENDMDL
MODEL 3
REMARK VINA RESULT:    -4.894      2.925      5.008
REMARK INTER + INTRA:          -4.894
REMARK INTER:                  -4.894
REMARK INTRA:                   0.000
REMARK UNBOUND:                 0.000
REMARK SMILES C[C@H]1CCC=C2CC[C@H]3[C@H](C3(C)C)[C@@]21C
REMARK SMILES IDX 1 1 2 2 3 3 4 4 5 5 6 6 14 7 10 8 9 9 11 10 12 11 13 12 8 13
REMARK SMILES IDX 7 14 15 15
REMARK H PARENT
REMARK Flexibility Score: inf
ROOT
ATOM      1  C   UNL     1     138.766 136.772 138.131  1.00  0.00     0.008 C 
ATOM      2  C   UNL     1     138.440 137.180 136.683  1.00  0.00    -0.004 C 
ATOM      3  C   UNL     1     137.804 138.580 136.661  1.00  0.00     0.008 C 
ATOM      4  C   UNL     1     137.305 138.918 135.257  1.00  0.00     0.027 C 
ATOM      5  C   UNL     1     138.321 138.622 134.187  1.00  0.00    -0.027 C 
ATOM      6  C   UNL     1     139.318 137.719 134.336  1.00  0.00    -0.068 C 
ATOM      7  C   UNL     1     139.657 137.089 135.689  1.00  0.00    -0.005 C 
ATOM      8  C   UNL     1     140.116 135.598 135.548  1.00  0.00     0.009 C 
ATOM      9  C   UNL     1     140.480 135.052 134.149  1.00  0.00    -0.000 C 
ATOM     10  C   UNL     1     139.260 134.489 134.906  1.00  0.00    -0.028 C 
ATOM     11  C   UNL     1     139.471 133.088 135.492  1.00  0.00     0.012 C 
ATOM     12  C   UNL     1     137.840 134.764 134.371  1.00  0.00     0.012 C 
ATOM     13  C   UNL     1     140.210 135.907 132.891  1.00  0.00     0.009 C 
ATOM     14  C   UNL     1     140.211 137.405 133.164  1.00  0.00     0.031 C 
ATOM     15  C   UNL     1     140.875 137.875 136.246  1.00  0.00     0.017 C 
ENDROOT
TORSDOF 0
ENDMDL
MODEL 4
REMARK VINA RESULT:    -4.874      2.773      5.024
REMARK INTER + INTRA:          -4.874
REMARK INTER:                  -4.874
REMARK INTRA:                   0.000
REMARK UNBOUND:                 0.000
REMARK SMILES C[C@H]1CCC=C2CC[C@H]3[C@H](C3(C)C)[C@@]21C
REMARK SMILES IDX 1 1 2 2 3 3 4 4 5 5 6 6 14 7 10 8 9 9 11 10 12 11 13 12 8 13
REMARK SMILES IDX 7 14 15 15
REMARK H PARENT
REMARK Flexibility Score: inf
ROOT
ATOM      1  C   UNL     1     137.174 136.005 137.755  1.00  0.00     0.008 C 
ATOM      2  C   UNL     1     138.353 135.527 136.887  1.00  0.00    -0.004 C 
ATOM      3  C   UNL     1     138.517 134.004 137.015  1.00  0.00     0.008 C 
ATOM      4  C   UNL     1     139.793 133.543 136.311  1.00  0.00     0.027 C 
ATOM      5  C   UNL     1     139.944 134.125 134.931  1.00  0.00    -0.027 C 
ATOM      6  C   UNL     1     139.350 135.276 134.539  1.00  0.00    -0.068 C 
ATOM      7  C   UNL     1     138.274 135.970 135.378  1.00  0.00    -0.005 C 
ATOM      8  C   UNL     1     138.363 137.531 135.279  1.00  0.00     0.009 C 
ATOM      9  C   UNL     1     139.234 138.166 134.171  1.00  0.00    -0.000 C 
ATOM     10  C   UNL     1     139.614 138.350 135.655  1.00  0.00    -0.028 C 
ATOM     11  C   UNL     1     139.327 139.749 136.211  1.00  0.00     0.012 C 
ATOM     12  C   UNL     1     140.890 137.680 136.201  1.00  0.00     0.012 C 
ATOM     13  C   UNL     1     140.151 137.275 133.303  1.00  0.00     0.009 C 
ATOM     14  C   UNL     1     139.659 135.840 133.176  1.00  0.00     0.031 C 
ATOM     15  C   UNL     1     136.908 135.565 134.763  1.00  0.00     0.017 C 
ENDROOT
TORSDOF 0
ENDMDL
MODEL 5
REMARK VINA RESULT:    -4.842      2.982      5.078
REMARK INTER + INTRA:          -4.842
REMARK INTER:                  -4.842
REMARK INTRA:                   0.000
REMARK UNBOUND:                 0.000
REMARK SMILES C[C@H]1CCC=C2CC[C@H]3[C@H](C3(C)C)[C@@]21C
REMARK SMILES IDX 1 1 2 2 3 3 4 4 5 5 6 6 14 7 10 8 9 9 11 10 12 11 13 12 8 13
REMARK SMILES IDX 7 14 15 15
REMARK H PARENT
REMARK Flexibility Score: inf
ROOT
ATOM      1  C   UNL     1     133.400 135.671 138.284  1.00  0.00     0.008 C 
ATOM      2  C   UNL     1     133.899 135.216 136.900  1.00  0.00    -0.004 C 
ATOM      3  C   UNL     1     134.514 133.810 136.999  1.00  0.00     0.008 C 
ATOM      4  C   UNL     1     135.180 133.424 135.679  1.00  0.00     0.027 C 
ATOM      5  C   UNL     1     134.309 133.697 134.482  1.00  0.00    -0.027 C 
ATOM      6  C   UNL     1     133.313 134.613 134.478  1.00  0.00    -0.068 C 
ATOM      7  C   UNL     1     132.816 135.287 135.759  1.00  0.00    -0.005 C 
ATOM      8  C   UNL     1     132.398 136.778 135.519  1.00  0.00     0.009 C 
ATOM      9  C   UNL     1     132.218 137.284 134.069  1.00  0.00    -0.000 C 
ATOM     10  C   UNL     1     133.342 137.859 134.956  1.00  0.00    -0.028 C 
ATOM     11  C   UNL     1     133.078 139.279 135.470  1.00  0.00     0.012 C 
ATOM     12  C   UNL     1     134.813 137.554 134.612  1.00  0.00     0.012 C 
ATOM     13  C   UNL     1     132.633 136.388 132.881  1.00  0.00     0.009 C 
ATOM     14  C   UNL     1     132.577 134.900 133.195  1.00  0.00     0.031 C 
ATOM     15  C   UNL     1     131.529 134.530 136.183  1.00  0.00     0.017 C 
ENDROOT
TORSDOF 0
ENDMDL
MODEL 6
REMARK VINA RESULT:    -4.842      4.696      5.969
REMARK INTER + INTRA:          -4.842
REMARK INTER:                  -4.842
REMARK INTRA:                   0.000
REMARK UNBOUND:                 0.000
REMARK SMILES C[C@H]1CCC=C2CC[C@H]3[C@H](C3(C)C)[C@@]21C
REMARK SMILES IDX 1 1 2 2 3 3 4 4 5 5 6 6 14 7 10 8 9 9 11 10 12 11 13 12 8 13
REMARK SMILES IDX 7 14 15 15
REMARK H PARENT
REMARK Flexibility Score: inf
ROOT
ATOM      1  C   UNL     1     136.644 137.206 137.846  1.00  0.00     0.008 C 
ATOM      2  C   UNL     1     137.108 138.371 136.953  1.00  0.00    -0.004 C 
ATOM      3  C   UNL     1     138.632 138.543 137.061  1.00  0.00     0.008 C 
ATOM      4  C   UNL     1     139.080 139.809 136.331  1.00  0.00     0.027 C 
ATOM      5  C   UNL     1     138.484 139.933 134.954  1.00  0.00    -0.027 C 
ATOM      6  C   UNL     1     137.332 139.327 134.585  1.00  0.00    -0.068 C 
ATOM      7  C   UNL     1     136.650 138.264 135.450  1.00  0.00    -0.005 C 
ATOM      8  C   UNL     1     135.088 138.344 135.365  1.00  0.00     0.009 C 
ATOM      9  C   UNL     1     134.438 139.194 134.248  1.00  0.00    -0.000 C 
ATOM     10  C   UNL     1     134.268 139.599 135.727  1.00  0.00    -0.028 C 
ATOM     11  C   UNL     1     132.876 139.316 136.303  1.00  0.00     0.012 C 
ATOM     12  C   UNL     1     134.939 140.887 136.244  1.00  0.00     0.012 C 
ATOM     13  C   UNL     1     135.316 140.098 133.355  1.00  0.00     0.009 C 
ATOM     14  C   UNL     1     136.752 139.609 133.223  1.00  0.00     0.031 C 
ATOM     15  C   UNL     1     137.055 136.888 134.855  1.00  0.00     0.017 C 
ENDROOT
TORSDOF 0
ENDMDL
MODEL 7
REMARK VINA RESULT:    -4.810      4.777      7.126
REMARK INTER + INTRA:          -4.810
REMARK INTER:                  -4.810
REMARK INTRA:                   0.000
REMARK UNBOUND:                 0.000
REMARK SMILES C[C@H]1CCC=C2CC[C@H]3[C@H](C3(C)C)[C@@]21C
REMARK SMILES IDX 1 1 2 2 3 3 4 4 5 5 6 6 14 7 10 8 9 9 11 10 12 11 13 12 8 13
REMARK SMILES IDX 7 14 15 15
REMARK H PARENT
REMARK Flexibility Score: inf
ROOT
ATOM      1  C   UNL     1     133.860 138.121 137.402  1.00  0.00     0.008 C 
ATOM      2  C   UNL     1     134.394 138.422 135.990  1.00  0.00    -0.004 C 
ATOM      3  C   UNL     1     133.221 138.653 135.022  1.00  0.00     0.008 C 
ATOM      4  C   UNL     1     133.730 138.765 133.585  1.00  0.00     0.027 C 
ATOM      5  C   UNL     1     134.908 139.693 133.451  1.00  0.00    -0.027 C 
ATOM      6  C   UNL     1     135.742 139.989 134.474  1.00  0.00    -0.068 C 
ATOM      7  C   UNL     1     135.432 139.605 135.923  1.00  0.00    -0.005 C 
ATOM      8  C   UNL     1     136.723 139.221 136.722  1.00  0.00     0.009 C 
ATOM      9  C   UNL     1     138.107 139.566 136.126  1.00  0.00    -0.000 C 
ATOM     10  C   UNL     1     137.690 138.093 136.311  1.00  0.00    -0.028 C 
ATOM     11  C   UNL     1     138.386 137.381 137.477  1.00  0.00     0.012 C 
ATOM     12  C   UNL     1     137.433 137.214 135.070  1.00  0.00     0.012 C 
ATOM     13  C   UNL     1     138.214 140.104 134.682  1.00  0.00     0.009 C 
ATOM     14  C   UNL     1     136.963 140.833 134.211  1.00  0.00     0.031 C 
ATOM     15  C   UNL     1     134.853 140.876 136.601  1.00  0.00     0.017 C 
ENDROOT
TORSDOF 0
ENDMDL
MODEL 8
REMARK VINA RESULT:    -4.787      1.570      2.907
REMARK INTER + INTRA:          -4.787
REMARK INTER:                  -4.787
REMARK INTRA:                   0.000
REMARK UNBOUND:                 0.000
REMARK SMILES C[C@H]1CCC=C2CC[C@H]3[C@H](C3(C)C)[C@@]21C
REMARK SMILES IDX 1 1 2 2 3 3 4 4 5 5 6 6 14 7 10 8 9 9 11 10 12 11 13 12 8 13
REMARK SMILES IDX 7 14 15 15
REMARK H PARENT
REMARK Flexibility Score: inf
ROOT
ATOM      1  C   UNL     1     137.426 131.870 136.030  1.00  0.00     0.008 C 
ATOM      2  C   UNL     1     136.940 133.034 135.146  1.00  0.00    -0.004 C 
ATOM      3  C   UNL     1     137.949 133.291 134.014  1.00  0.00     0.008 C 
ATOM      4  C   UNL     1     137.576 134.559 133.245  1.00  0.00     0.027 C 
ATOM      5  C   UNL     1     136.118 134.612 132.875  1.00  0.00    -0.027 C 
ATOM      6  C   UNL     1     135.155 133.935 133.543  1.00  0.00    -0.068 C 
ATOM      7  C   UNL     1     135.480 132.861 134.583  1.00  0.00    -0.005 C 
ATOM      8  C   UNL     1     134.454 132.854 135.767  1.00  0.00     0.009 C 
ATOM      9  C   UNL     1     133.128 133.636 135.617  1.00  0.00    -0.000 C 
ATOM     10  C   UNL     1     134.170 134.072 136.669  1.00  0.00    -0.028 C 
ATOM     11  C   UNL     1     133.788 133.730 138.114  1.00  0.00     0.012 C 
ATOM     12  C   UNL     1     134.917 135.408 136.490  1.00  0.00     0.012 C 
ATOM     13  C   UNL     1     132.910 134.562 134.400  1.00  0.00     0.009 C 
ATOM     14  C   UNL     1     133.710 134.148 133.172  1.00  0.00     0.031 C 
ATOM     15  C   UNL     1     135.333 131.493 133.863  1.00  0.00     0.017 C 
ENDROOT
TORSDOF 0
ENDMDL
MODEL 9
REMARK VINA RESULT:    -4.732      1.314      3.929
REMARK INTER + INTRA:          -4.732
REMARK INTER:                  -4.732
REMARK INTRA:                   0.000
REMARK UNBOUND:                 0.000
REMARK SMILES C[C@H]1CCC=C2CC[C@H]3[C@H](C3(C)C)[C@@]21C
REMARK SMILES IDX 1 1 2 2 3 3 4 4 5 5 6 6 14 7 10 8 9 9 11 10 12 11 13 12 8 13
REMARK SMILES IDX 7 14 15 15
REMARK H PARENT
REMARK Flexibility Score: inf
ROOT
ATOM      1  C   UNL     1     135.993 135.767 137.434  1.00  0.00     0.008 C 
ATOM      2  C   UNL     1     135.466 134.497 136.741  1.00  0.00    -0.004 C 
ATOM      3  C   UNL     1     133.955 134.350 136.991  1.00  0.00     0.008 C 
ATOM      4  C   UNL     1     133.458 133.002 136.470  1.00  0.00     0.027 C 
ATOM      5  C   UNL     1     133.944 132.695 135.079  1.00  0.00    -0.027 C 
ATOM      6  C   UNL     1     135.061 133.240 134.544  1.00  0.00    -0.068 C 
ATOM      7  C   UNL     1     135.803 134.404 135.205  1.00  0.00    -0.005 C 
ATOM      8  C   UNL     1     137.354 134.304 135.009  1.00  0.00     0.009 C 
ATOM      9  C   UNL     1     137.918 133.312 133.966  1.00  0.00    -0.000 C 
ATOM     10  C   UNL     1     138.206 133.103 135.467  1.00  0.00    -0.028 C 
ATOM     11  C   UNL     1     139.638 133.451 135.890  1.00  0.00     0.012 C 
ATOM     12  C   UNL     1     137.584 131.898 136.200  1.00  0.00     0.012 C 
ATOM     13  C   UNL     1     136.976 132.303 133.272  1.00  0.00     0.009 C 
ATOM     14  C   UNL     1     135.532 132.778 133.189  1.00  0.00     0.031 C 
ATOM     15  C   UNL     1     135.346 135.692 134.469  1.00  0.00     0.017 C 
ENDROOT
TORSDOF 0
ENDMDL
