MODEL 1
REMARK VINA RESULT:    -4.485      0.000      0.000
REMARK INTER + INTRA:         -11.443
REMARK INTER:                  -9.729
REMARK INTRA:                  -1.715
REMARK UNBOUND:                -1.715
REMARK SMILES CCCCCCCCCCCCCCCCCCCCCC(=O)[O-]
REMARK SMILES IDX 12 1 11 2 10 3 9 4 8 5 7 6 6 7 5 8 4 9 3 10 2 11 1 12 13 13
REMARK SMILES IDX 14 14 15 15 16 16 17 17 18 18 19 19 20 20 21 21 22 22 23 23
REMARK SMILES IDX 24 24
REMARK H PARENT
REMARK Flexibility Score: inf
ROOT
ATOM      1  C   UNL     1      43.612  64.266  54.364  1.00  0.00     0.000 C 
ENDROOT
BRANCH   1   2
ATOM      2  C   UNL     1      43.600  64.157  55.901  1.00  0.00     0.000 C 
BRANCH   2   3
ATOM      3  C   UNL     1      42.838  65.296  56.603  1.00  0.00     0.000 C 
BRANCH   3   4
ATOM      4  C   UNL     1      41.987  64.790  57.783  1.00  0.00    -0.000 C 
BRANCH   4   5
ATOM      5  C   UNL     1      40.575  64.363  57.355  1.00  0.00    -0.000 C 
BRANCH   5   6
ATOM      6  C   UNL     1      39.938  65.336  56.348  1.00  0.00    -0.000 C 
BRANCH   6   7
ATOM      7  C   UNL     1      39.091  64.622  55.280  1.00  0.00    -0.000 C 
BRANCH   7   8
ATOM      8  C   UNL     1      38.262  63.442  55.833  1.00  0.00    -0.000 C 
BRANCH   8   9
ATOM      9  C   UNL     1      36.795  63.829  56.089  1.00  0.00    -0.000 C 
BRANCH   9  10
ATOM     10  C   UNL     1      36.143  64.499  54.860  1.00  0.00    -0.000 C 
BRANCH  10  11
ATOM     11  C   UNL     1      35.135  65.603  55.223  1.00  0.00    -0.003 C 
ATOM     12  C   UNL     1      34.977  66.654  54.126  1.00  0.00     0.004 C 
ENDBRANCH  10  11
ENDBRANCH   9  10
ENDBRANCH   8   9
ENDBRANCH   7   8
ENDBRANCH   6   7
ENDBRANCH   5   6
ENDBRANCH   4   5
ENDBRANCH   3   4
ENDBRANCH   2   3
ENDBRANCH   1   2
BRANCH   1  13
ATOM     13  C   UNL     1      42.853  65.504  53.854  1.00  0.00     0.000 C 
BRANCH  13  14
ATOM     14  C   UNL     1      43.637  66.254  52.756  1.00  0.00     0.000 C 
BRANCH  14  15
ATOM     15  C   UNL     1      44.749  65.413  52.104  1.00  0.00     0.000 C 
BRANCH  15  16
ATOM     16  C   UNL     1      45.120  65.906  50.695  1.00  0.00     0.000 C 
BRANCH  16  17
ATOM     17  C   UNL     1      44.527  67.289  50.381  1.00  0.00     0.000 C 
BRANCH  17  18
ATOM     18  C   UNL     1      43.828  67.335  49.012  1.00  0.00     0.000 C 
BRANCH  18  19
ATOM     19  C   UNL     1      42.302  67.495  49.124  1.00  0.00     0.000 C 
BRANCH  19  20
ATOM     20  C   UNL     1      41.546  67.522  47.781  1.00  0.00     0.006 C 
BRANCH  20  21
ATOM     21  C   UNL     1      40.612  66.317  47.561  1.00  0.00     0.053 C 
BRANCH  21  22
ATOM     22  C   UNL     1      41.304  65.162  46.900  1.00  0.00     0.041 C 
ATOM     23  O   UNL     1      42.470  65.297  46.442  1.00  0.00    -0.550 OA
ATOM     24  O   UNL     1      40.647  63.947  46.753  1.00  0.00    -0.550 OA
ENDBRANCH  21  22
ENDBRANCH  20  21
ENDBRANCH  19  20
ENDBRANCH  18  19
ENDBRANCH  17  18
ENDBRANCH  16  17
ENDBRANCH  15  16
ENDBRANCH  14  15
ENDBRANCH  13  14
ENDBRANCH   1  13
TORSDOF 20
ENDMDL
MODEL 2
REMARK VINA RESULT:    -4.433      1.653      2.552
REMARK INTER + INTRA:         -11.330
REMARK INTER:                  -9.937
REMARK INTRA:                  -1.393
REMARK UNBOUND:                -1.715
REMARK SMILES CCCCCCCCCCCCCCCCCCCCCC(=O)[O-]
REMARK SMILES IDX 12 1 11 2 10 3 9 4 8 5 7 6 6 7 5 8 4 9 3 10 2 11 1 12 13 13
REMARK SMILES IDX 14 14 15 15 16 16 17 17 18 18 19 19 20 20 21 21 22 22 23 23
REMARK SMILES IDX 24 24
REMARK H PARENT
REMARK Flexibility Score: inf
ROOT
ATOM      1  C   UNL     1      43.586  64.372  54.487  1.00  0.00     0.000 C 
ENDROOT
BRANCH   1   2
ATOM      2  C   UNL     1      43.294  64.382  55.999  1.00  0.00     0.000 C 
BRANCH   2   3
ATOM      3  C   UNL     1      42.198  65.379  56.419  1.00  0.00     0.000 C 
BRANCH   3   4
ATOM      4  C   UNL     1      40.892  64.675  56.828  1.00  0.00    -0.000 C 
BRANCH   4   5
ATOM      5  C   UNL     1      39.832  64.699  55.717  1.00  0.00    -0.000 C 
BRANCH   5   6
ATOM      6  C   UNL     1      38.458  65.181  56.215  1.00  0.00    -0.000 C 
BRANCH   6   7
ATOM      7  C   UNL     1      37.851  64.254  57.282  1.00  0.00    -0.000 C 
BRANCH   7   8
ATOM      8  C   UNL     1      36.459  63.702  56.905  1.00  0.00    -0.000 C 
BRANCH   8   9
ATOM      9  C   UNL     1      36.475  62.941  55.567  1.00  0.00    -0.000 C 
BRANCH   9  10
ATOM     10  C   UNL     1      36.190  61.434  55.748  1.00  0.00    -0.000 C 
BRANCH  10  11
ATOM     11  C   UNL     1      37.441  60.550  55.605  1.00  0.00    -0.003 C 
ATOM     12  C   UNL     1      37.167  59.075  55.896  1.00  0.00     0.004 C 
ENDBRANCH  10  11
ENDBRANCH   9  10
ENDBRANCH   8   9
ENDBRANCH   7   8
ENDBRANCH   6   7
ENDBRANCH   5   6
ENDBRANCH   4   5
ENDBRANCH   3   4
ENDBRANCH   2   3
ENDBRANCH   1   2
BRANCH   1  13
ATOM     13  C   UNL     1      42.870  65.513  53.740  1.00  0.00     0.000 C 
BRANCH  13  14
ATOM     14  C   UNL     1      43.806  66.234  52.746  1.00  0.00     0.000 C 
BRANCH  14  15
ATOM     15  C   UNL     1      44.787  65.293  52.025  1.00  0.00     0.000 C 
BRANCH  15  16
ATOM     16  C   UNL     1      45.294  65.869  50.692  1.00  0.00     0.000 C 
BRANCH  16  17
ATOM     17  C   UNL     1      44.695  67.251  50.384  1.00  0.00     0.000 C 
BRANCH  17  18
ATOM     18  C   UNL     1      43.748  67.227  49.172  1.00  0.00     0.000 C 
BRANCH  18  19
ATOM     19  C   UNL     1      44.184  66.225  48.091  1.00  0.00     0.000 C 
BRANCH  19  20
ATOM     20  C   UNL     1      43.347  66.252  46.796  1.00  0.00     0.006 C 
BRANCH  20  21
ATOM     21  C   UNL     1      42.068  65.398  46.857  1.00  0.00     0.053 C 
BRANCH  21  22
ATOM     22  C   UNL     1      40.821  66.229  46.942  1.00  0.00     0.041 C 
ATOM     23  O   UNL     1      40.639  67.184  46.141  1.00  0.00    -0.550 OA
ATOM     24  O   UNL     1      39.879  65.974  47.930  1.00  0.00    -0.550 OA
ENDBRANCH  21  22
ENDBRANCH  20  21
ENDBRANCH  19  20
ENDBRANCH  18  19
ENDBRANCH  17  18
ENDBRANCH  16  17
ENDBRANCH  15  16
ENDBRANCH  14  15
ENDBRANCH  13  14
ENDBRANCH   1  13
TORSDOF 20
ENDMDL
MODEL 3
REMARK VINA RESULT:    -4.424      3.338      8.480
REMARK INTER + INTRA:         -11.310
REMARK INTER:                  -9.271
REMARK INTRA:                  -2.039
REMARK UNBOUND:                -1.715
REMARK SMILES CCCCCCCCCCCCCCCCCCCCCC(=O)[O-]
REMARK SMILES IDX 12 1 11 2 10 3 9 4 8 5 7 6 6 7 5 8 4 9 3 10 2 11 1 12 13 13
REMARK SMILES IDX 14 14 15 15 16 16 17 17 18 18 19 19 20 20 21 21 22 22 23 23
REMARK SMILES IDX 24 24
REMARK H PARENT
REMARK Flexibility Score: inf
ROOT
ATOM      1  C   UNL     1      44.730  65.439  52.156  1.00  0.00     0.000 C 
ENDROOT
BRANCH   1   2
ATOM      2  C   UNL     1      45.141  66.007  50.784  1.00  0.00     0.000 C 
BRANCH   2   3
ATOM      3  C   UNL     1      44.464  67.345  50.432  1.00  0.00     0.000 C 
BRANCH   3   4
ATOM      4  C   UNL     1      43.646  67.261  49.131  1.00  0.00    -0.000 C 
BRANCH   4   5
ATOM      5  C   UNL     1      44.297  66.351  48.079  1.00  0.00    -0.000 C 
BRANCH   5   6
ATOM      6  C   UNL     1      44.375  67.008  46.690  1.00  0.00    -0.000 C 
BRANCH   6   7
ATOM      7  C   UNL     1      43.601  66.227  45.614  1.00  0.00    -0.000 C 
BRANCH   7   8
ATOM      8  C   UNL     1      43.234  64.788  46.037  1.00  0.00    -0.000 C 
BRANCH   8   9
ATOM      9  C   UNL     1      41.723  64.616  46.271  1.00  0.00    -0.000 C 
BRANCH   9  10
ATOM     10  C   UNL     1      40.986  65.969  46.359  1.00  0.00    -0.000 C 
BRANCH  10  11
ATOM     11  C   UNL     1      40.240  66.179  47.688  1.00  0.00    -0.003 C 
ATOM     12  C   UNL     1      39.371  67.435  47.694  1.00  0.00     0.004 C 
ENDBRANCH  10  11
ENDBRANCH   9  10
ENDBRANCH   8   9
ENDBRANCH   7   8
ENDBRANCH   6   7
ENDBRANCH   5   6
ENDBRANCH   4   5
ENDBRANCH   3   4
ENDBRANCH   2   3
ENDBRANCH   1   2
BRANCH   1  13
ATOM     13  C   UNL     1      43.615  66.263  52.826  1.00  0.00     0.000 C 
BRANCH  13  14
ATOM     14  C   UNL     1      42.909  65.477  53.952  1.00  0.00     0.000 C 
BRANCH  14  15
ATOM     15  C   UNL     1      43.638  64.184  54.357  1.00  0.00     0.000 C 
BRANCH  15  16
ATOM     16  C   UNL     1      43.694  63.984  55.880  1.00  0.00     0.000 C 
BRANCH  16  17
ATOM     17  C   UNL     1      43.037  65.142  56.650  1.00  0.00     0.000 C 
BRANCH  17  18
ATOM     18  C   UNL     1      41.857  64.677  57.521  1.00  0.00     0.000 C 
BRANCH  18  19
ATOM     19  C   UNL     1      40.706  65.697  57.562  1.00  0.00     0.000 C 
BRANCH  19  20
ATOM     20  C   UNL     1      39.770  65.677  56.338  1.00  0.00     0.006 C 
BRANCH  20  21
ATOM     21  C   UNL     1      39.612  64.289  55.690  1.00  0.00     0.053 C 
BRANCH  21  22
ATOM     22  C   UNL     1      38.461  63.513  56.260  1.00  0.00     0.041 C 
ATOM     23  O   UNL     1      37.371  63.440  55.633  1.00  0.00    -0.550 OA
ATOM     24  O   UNL     1      38.579  62.904  57.503  1.00  0.00    -0.550 OA
ENDBRANCH  21  22
ENDBRANCH  20  21
ENDBRANCH  19  20
ENDBRANCH  18  19
ENDBRANCH  17  18
ENDBRANCH  16  17
ENDBRANCH  15  16
ENDBRANCH  14  15
ENDBRANCH  13  14
ENDBRANCH   1  13
TORSDOF 20
ENDMDL
MODEL 4
REMARK VINA RESULT:    -4.402      3.498      6.425
REMARK INTER + INTRA:         -11.263
REMARK INTER:                  -8.456
REMARK INTRA:                  -2.807
REMARK UNBOUND:                -1.715
REMARK SMILES CCCCCCCCCCCCCCCCCCCCCC(=O)[O-]
REMARK SMILES IDX 12 1 11 2 10 3 9 4 8 5 7 6 6 7 5 8 4 9 3 10 2 11 1 12 13 13
REMARK SMILES IDX 14 14 15 15 16 16 17 17 18 18 19 19 20 20 21 21 22 22 23 23
REMARK SMILES IDX 24 24
REMARK H PARENT
REMARK Flexibility Score: inf
ROOT
ATOM      1  C   UNL     1      42.439  68.107  48.171  1.00  0.00     0.000 C 
ENDROOT
BRANCH   1   2
ATOM      2  C   UNL     1      43.822  67.990  48.839  1.00  0.00     0.000 C 
BRANCH   2   3
ATOM      3  C   UNL     1      44.302  66.540  49.037  1.00  0.00     0.000 C 
BRANCH   3   4
ATOM      4  C   UNL     1      44.737  66.261  50.487  1.00  0.00    -0.000 C 
BRANCH   4   5
ATOM      5  C   UNL     1      45.085  67.543  51.259  1.00  0.00    -0.000 C 
BRANCH   5   6
ATOM      6  C   UNL     1      44.242  67.718  52.534  1.00  0.00    -0.000 C 
BRANCH   6   7
ATOM      7  C   UNL     1      42.862  67.046  52.435  1.00  0.00    -0.000 C 
BRANCH   7   8
ATOM      8  C   UNL     1      42.547  66.099  53.613  1.00  0.00    -0.000 C 
BRANCH   8   9
ATOM      9  C   UNL     1      43.498  64.891  53.662  1.00  0.00    -0.000 C 
BRANCH   9  10
ATOM     10  C   UNL     1      43.540  64.235  55.059  1.00  0.00    -0.000 C 
BRANCH  10  11
ATOM     11  C   UNL     1      42.526  64.832  56.050  1.00  0.00    -0.003 C 
ATOM     12  C   UNL     1      43.155  65.226  57.385  1.00  0.00     0.004 C 
ENDBRANCH  10  11
ENDBRANCH   9  10
ENDBRANCH   8   9
ENDBRANCH   7   8
ENDBRANCH   6   7
ENDBRANCH   5   6
ENDBRANCH   4   5
ENDBRANCH   3   4
ENDBRANCH   2   3
ENDBRANCH   1   2
BRANCH   1  13
ATOM     13  C   UNL     1      41.290  67.738  49.127  1.00  0.00     0.000 C 
BRANCH  13  14
ATOM     14  C   UNL     1      40.196  66.903  48.427  1.00  0.00     0.000 C 
BRANCH  14  15
ATOM     15  C   UNL     1      40.547  66.512  46.980  1.00  0.00     0.000 C 
BRANCH  15  16
ATOM     16  C   UNL     1      40.969  65.040  46.847  1.00  0.00     0.000 C 
BRANCH  16  17
ATOM     17  C   UNL     1      41.914  64.805  45.656  1.00  0.00     0.000 C 
BRANCH  17  18
ATOM     18  C   UNL     1      43.397  64.935  46.044  1.00  0.00     0.000 C 
BRANCH  18  19
ATOM     19  C   UNL     1      44.164  65.927  45.154  1.00  0.00     0.000 C 
BRANCH  19  20
ATOM     20  C   UNL     1      43.303  67.038  44.520  1.00  0.00     0.006 C 
BRANCH  20  21
ATOM     21  C   UNL     1      43.530  67.223  43.008  1.00  0.00     0.053 C 
BRANCH  21  22
ATOM     22  C   UNL     1      43.236  65.979  42.223  1.00  0.00     0.041 C 
ATOM     23  O   UNL     1      42.054  65.557  42.120  1.00  0.00    -0.550 OA
ATOM     24  O   UNL     1      44.273  65.263  41.638  1.00  0.00    -0.550 OA
ENDBRANCH  21  22
ENDBRANCH  20  21
ENDBRANCH  19  20
ENDBRANCH  18  19
ENDBRANCH  17  18
ENDBRANCH  16  17
ENDBRANCH  15  16
ENDBRANCH  14  15
ENDBRANCH  13  14
ENDBRANCH   1  13
TORSDOF 20
ENDMDL
MODEL 5
REMARK VINA RESULT:    -4.343      3.078      9.101
REMARK INTER + INTRA:         -11.136
REMARK INTER:                  -8.545
REMARK INTRA:                  -2.591
REMARK UNBOUND:                -1.715
REMARK SMILES CCCCCCCCCCCCCCCCCCCCCC(=O)[O-]
REMARK SMILES IDX 12 1 11 2 10 3 9 4 8 5 7 6 6 7 5 8 4 9 3 10 2 11 1 12 13 13
REMARK SMILES IDX 14 14 15 15 16 16 17 17 18 18 19 19 20 20 21 21 22 22 23 23
REMARK SMILES IDX 24 24
REMARK H PARENT
REMARK Flexibility Score: inf
ROOT
ATOM      1  C   UNL     1      44.463  66.116  49.334  1.00  0.00     0.000 C 
ENDROOT
BRANCH   1   2
ATOM      2  C   UNL     1      43.844  67.471  48.939  1.00  0.00     0.000 C 
BRANCH   2   3
ATOM      3  C   UNL     1      42.312  67.439  48.787  1.00  0.00     0.000 C 
BRANCH   3   4
ATOM      4  C   UNL     1      41.851  67.943  47.407  1.00  0.00    -0.000 C 
BRANCH   4   5
ATOM      5  C   UNL     1      40.794  67.031  46.766  1.00  0.00    -0.000 C 
BRANCH   5   6
ATOM      6  C   UNL     1      40.839  65.593  47.311  1.00  0.00    -0.000 C 
BRANCH   6   7
ATOM      7  C   UNL     1      41.402  64.585  46.294  1.00  0.00    -0.000 C 
BRANCH   7   8
ATOM      8  C   UNL     1      42.933  64.675  46.113  1.00  0.00    -0.000 C 
BRANCH   8   9
ATOM      9  C   UNL     1      43.331  65.018  44.667  1.00  0.00    -0.000 C 
BRANCH   9  10
ATOM     10  C   UNL     1      43.685  66.511  44.495  1.00  0.00    -0.000 C 
BRANCH  10  11
ATOM     11  C   UNL     1      42.878  67.211  43.388  1.00  0.00    -0.003 C 
ATOM     12  C   UNL     1      41.527  66.550  43.123  1.00  0.00     0.004 C 
ENDBRANCH  10  11
ENDBRANCH   9  10
ENDBRANCH   8   9
ENDBRANCH   7   8
ENDBRANCH   6   7
ENDBRANCH   5   6
ENDBRANCH   4   5
ENDBRANCH   3   4
ENDBRANCH   2   3
ENDBRANCH   1   2
BRANCH   1  13
ATOM     13  C   UNL     1      45.426  66.233  50.530  1.00  0.00     0.000 C 
BRANCH  13  14
ATOM     14  C   UNL     1      44.817  65.652  51.824  1.00  0.00     0.000 C 
BRANCH  14  15
ATOM     15  C   UNL     1      43.920  66.642  52.587  1.00  0.00     0.000 C 
BRANCH  15  16
ATOM     16  C   UNL     1      42.945  65.945  53.549  1.00  0.00     0.000 C 
BRANCH  16  17
ATOM     17  C   UNL     1      43.443  64.557  53.986  1.00  0.00     0.000 C 
BRANCH  17  18
ATOM     18  C   UNL     1      43.430  64.379  55.514  1.00  0.00     0.000 C 
BRANCH  18  19
ATOM     19  C   UNL     1      42.764  65.555  56.248  1.00  0.00     0.000 C 
BRANCH  19  20
ATOM     20  C   UNL     1      41.704  65.158  57.294  1.00  0.00     0.006 C 
BRANCH  20  21
ATOM     21  C   UNL     1      40.647  64.167  56.773  1.00  0.00     0.053 C 
BRANCH  21  22
ATOM     22  C   UNL     1      39.708  64.790  55.784  1.00  0.00     0.041 C 
ATOM     23  O   UNL     1      39.867  64.601  54.549  1.00  0.00    -0.550 OA
ATOM     24  O   UNL     1      38.680  65.615  56.224  1.00  0.00    -0.550 OA
ENDBRANCH  21  22
ENDBRANCH  20  21
ENDBRANCH  19  20
ENDBRANCH  18  19
ENDBRANCH  17  18
ENDBRANCH  16  17
ENDBRANCH  15  16
ENDBRANCH  14  15
ENDBRANCH  13  14
ENDBRANCH   1  13
TORSDOF 20
ENDMDL
MODEL 6
REMARK VINA RESULT:    -4.338      3.427      8.667
REMARK INTER + INTRA:         -11.125
REMARK INTER:                  -9.314
REMARK INTRA:                  -1.811
REMARK UNBOUND:                -1.715
REMARK SMILES CCCCCCCCCCCCCCCCCCCCCC(=O)[O-]
REMARK SMILES IDX 12 1 11 2 10 3 9 4 8 5 7 6 6 7 5 8 4 9 3 10 2 11 1 12 13 13
REMARK SMILES IDX 14 14 15 15 16 16 17 17 18 18 19 19 20 20 21 21 22 22 23 23
REMARK SMILES IDX 24 24
REMARK H PARENT
REMARK Flexibility Score: inf
ROOT
ATOM      1  C   UNL     1      45.150  65.955  50.675  1.00  0.00     0.000 C 
ENDROOT
BRANCH   1   2
ATOM      2  C   UNL     1      44.785  67.433  50.913  1.00  0.00     0.000 C 
BRANCH   2   3
ATOM      3  C   UNL     1      43.970  68.068  49.771  1.00  0.00     0.000 C 
BRANCH   3   4
ATOM      4  C   UNL     1      42.454  67.891  49.965  1.00  0.00    -0.000 C 
BRANCH   4   5
ATOM      5  C   UNL     1      41.673  67.972  48.644  1.00  0.00    -0.000 C 
BRANCH   5   6
ATOM      6  C   UNL     1      40.203  67.546  48.794  1.00  0.00    -0.000 C 
BRANCH   6   7
ATOM      7  C   UNL     1      39.841  66.329  47.924  1.00  0.00    -0.000 C 
BRANCH   7   8
ATOM      8  C   UNL     1      40.772  66.139  46.707  1.00  0.00    -0.000 C 
BRANCH   8   9
ATOM      9  C   UNL     1      41.429  64.748  46.686  1.00  0.00    -0.000 C 
BRANCH   9  10
ATOM     10  C   UNL     1      42.832  64.772  46.042  1.00  0.00    -0.000 C 
BRANCH  10  11
ATOM     11  C   UNL     1      43.861  65.592  46.840  1.00  0.00    -0.003 C 
ATOM     12  C   UNL     1      44.219  66.917  46.171  1.00  0.00     0.004 C 
ENDBRANCH  10  11
ENDBRANCH   9  10
ENDBRANCH   8   9
ENDBRANCH   7   8
ENDBRANCH   6   7
ENDBRANCH   5   6
ENDBRANCH   4   5
ENDBRANCH   3   4
ENDBRANCH   2   3
ENDBRANCH   1   2
BRANCH   1  13
ATOM     13  C   UNL     1      45.092  65.118  51.966  1.00  0.00     0.000 C 
BRANCH  13  14
ATOM     14  C   UNL     1      43.921  65.540  52.880  1.00  0.00     0.000 C 
BRANCH  14  15
ATOM     15  C   UNL     1      43.605  64.524  53.992  1.00  0.00     0.000 C 
BRANCH  15  16
ATOM     16  C   UNL     1      42.742  65.120  55.116  1.00  0.00     0.000 C 
BRANCH  16  17
ATOM     17  C   UNL     1      43.253  64.735  56.515  1.00  0.00     0.000 C 
BRANCH  17  18
ATOM     18  C   UNL     1      42.137  64.742  57.574  1.00  0.00     0.000 C 
BRANCH  18  19
ATOM     19  C   UNL     1      41.572  63.340  57.857  1.00  0.00     0.000 C 
BRANCH  19  20
ATOM     20  C   UNL     1      40.034  63.239  57.842  1.00  0.00     0.006 C 
BRANCH  20  21
ATOM     21  C   UNL     1      39.376  63.845  56.589  1.00  0.00     0.053 C 
BRANCH  21  22
ATOM     22  C   UNL     1      38.240  63.011  56.073  1.00  0.00     0.041 C 
ATOM     23  O   UNL     1      38.374  61.765  55.943  1.00  0.00    -0.550 OA
ATOM     24  O   UNL     1      37.047  63.615  55.697  1.00  0.00    -0.550 OA
ENDBRANCH  21  22
ENDBRANCH  20  21
ENDBRANCH  19  20
ENDBRANCH  18  19
ENDBRANCH  17  18
ENDBRANCH  16  17
ENDBRANCH  15  16
ENDBRANCH  14  15
ENDBRANCH  13  14
ENDBRANCH   1  13
TORSDOF 20
ENDMDL
MODEL 7
REMARK VINA RESULT:    -4.309      1.795      2.724
REMARK INTER + INTRA:         -11.063
REMARK INTER:                  -9.475
REMARK INTRA:                  -1.587
REMARK UNBOUND:                -1.715
REMARK SMILES CCCCCCCCCCCCCCCCCCCCCC(=O)[O-]
REMARK SMILES IDX 12 1 11 2 10 3 9 4 8 5 7 6 6 7 5 8 4 9 3 10 2 11 1 12 13 13
REMARK SMILES IDX 14 14 15 15 16 16 17 17 18 18 19 19 20 20 21 21 22 22 23 23
REMARK SMILES IDX 24 24
REMARK H PARENT
REMARK Flexibility Score: inf
ROOT
ATOM      1  C   UNL     1      43.786  66.182  52.966  1.00  0.00     0.000 C 
ENDROOT
BRANCH   1   2
ATOM      2  C   UNL     1      42.743  65.345  53.730  1.00  0.00     0.000 C 
BRANCH   2   3
ATOM      3  C   UNL     1      43.354  64.284  54.664  1.00  0.00     0.000 C 
BRANCH   3   4
ATOM      4  C   UNL     1      43.337  64.724  56.139  1.00  0.00    -0.000 C 
BRANCH   4   5
ATOM      5  C   UNL     1      42.262  65.782  56.430  1.00  0.00    -0.000 C 
BRANCH   5   6
ATOM      6  C   UNL     1      41.063  65.215  57.207  1.00  0.00    -0.000 C 
BRANCH   6   7
ATOM      7  C   UNL     1      39.729  65.388  56.460  1.00  0.00    -0.000 C 
BRANCH   7   8
ATOM      8  C   UNL     1      39.201  64.084  55.823  1.00  0.00    -0.000 C 
BRANCH   8   9
ATOM      9  C   UNL     1      38.207  63.349  56.739  1.00  0.00    -0.000 C 
BRANCH   9  10
ATOM     10  C   UNL     1      38.492  61.833  56.815  1.00  0.00    -0.000 C 
BRANCH  10  11
ATOM     11  C   UNL     1      37.560  60.987  55.930  1.00  0.00    -0.003 C 
ATOM     12  C   UNL     1      36.198  61.638  55.702  1.00  0.00     0.004 C 
ENDBRANCH  10  11
ENDBRANCH   9  10
ENDBRANCH   8   9
ENDBRANCH   7   8
ENDBRANCH   6   7
ENDBRANCH   5   6
ENDBRANCH   4   5
ENDBRANCH   3   4
ENDBRANCH   2   3
ENDBRANCH   1   2
BRANCH   1  13
ATOM     13  C   UNL     1      44.764  65.311  52.157  1.00  0.00     0.000 C 
BRANCH  13  14
ATOM     14  C   UNL     1      45.178  65.981  50.829  1.00  0.00     0.000 C 
BRANCH  14  15
ATOM     15  C   UNL     1      44.606  67.398  50.646  1.00  0.00     0.000 C 
BRANCH  15  16
ATOM     16  C   UNL     1      43.605  67.493  49.483  1.00  0.00     0.000 C 
BRANCH  16  17
ATOM     17  C   UNL     1      42.199  67.905  49.950  1.00  0.00     0.000 C 
BRANCH  17  18
ATOM     18  C   UNL     1      41.115  67.594  48.904  1.00  0.00     0.000 C 
BRANCH  18  19
ATOM     19  C   UNL     1      41.679  66.932  47.636  1.00  0.00     0.000 C 
BRANCH  19  20
ATOM     20  C   UNL     1      40.750  65.898  46.969  1.00  0.00     0.006 C 
BRANCH  20  21
ATOM     21  C   UNL     1      41.464  64.611  46.517  1.00  0.00     0.053 C 
BRANCH  21  22
ATOM     22  C   UNL     1      42.606  64.882  45.582  1.00  0.00     0.041 C 
ATOM     23  O   UNL     1      42.421  65.549  44.530  1.00  0.00    -0.550 OA
ATOM     24  O   UNL     1      43.866  64.364  45.853  1.00  0.00    -0.550 OA
ENDBRANCH  21  22
ENDBRANCH  20  21
ENDBRANCH  19  20
ENDBRANCH  18  19
ENDBRANCH  17  18
ENDBRANCH  16  17
ENDBRANCH  15  16
ENDBRANCH  14  15
ENDBRANCH  13  14
ENDBRANCH   1  13
TORSDOF 20
ENDMDL
MODEL 8
REMARK VINA RESULT:    -4.246      4.025      7.826
REMARK INTER + INTRA:         -10.925
REMARK INTER:                  -8.927
REMARK INTRA:                  -1.999
REMARK UNBOUND:                -1.715
REMARK SMILES CCCCCCCCCCCCCCCCCCCCCC(=O)[O-]
REMARK SMILES IDX 12 1 11 2 10 3 9 4 8 5 7 6 6 7 5 8 4 9 3 10 2 11 1 12 13 13
REMARK SMILES IDX 14 14 15 15 16 16 17 17 18 18 19 19 20 20 21 21 22 22 23 23
REMARK SMILES IDX 24 24
REMARK H PARENT
REMARK Flexibility Score: inf
ROOT
ATOM      1  C   UNL     1      40.342  65.949  47.275  1.00  0.00     0.000 C 
ENDROOT
BRANCH   1   2
ATOM      2  C   UNL     1      40.247  67.383  47.830  1.00  0.00     0.000 C 
BRANCH   2   3
ATOM      3  C   UNL     1      41.066  67.612  49.114  1.00  0.00     0.000 C 
BRANCH   3   4
ATOM      4  C   UNL     1      42.499  68.088  48.816  1.00  0.00    -0.000 C 
BRANCH   4   5
ATOM      5  C   UNL     1      43.532  66.954  48.913  1.00  0.00    -0.000 C 
BRANCH   5   6
ATOM      6  C   UNL     1      44.412  67.055  50.170  1.00  0.00    -0.000 C 
BRANCH   6   7
ATOM      7  C   UNL     1      45.392  65.878  50.310  1.00  0.00    -0.000 C 
BRANCH   7   8
ATOM      8  C   UNL     1      45.211  65.072  51.616  1.00  0.00    -0.000 C 
BRANCH   8   9
ATOM      9  C   UNL     1      44.203  65.731  52.573  1.00  0.00    -0.000 C 
BRANCH   9  10
ATOM     10  C   UNL     1      43.702  64.753  53.658  1.00  0.00    -0.000 C 
BRANCH  10  11
ATOM     11  C   UNL     1      42.698  65.384  54.638  1.00  0.00    -0.003 C 
ATOM     12  C   UNL     1      42.988  65.039  56.097  1.00  0.00     0.004 C 
ENDBRANCH  10  11
ENDBRANCH   9  10
ENDBRANCH   8   9
ENDBRANCH   7   8
ENDBRANCH   6   7
ENDBRANCH   5   6
ENDBRANCH   4   5
ENDBRANCH   3   4
ENDBRANCH   2   3
ENDBRANCH   1   2
BRANCH   1  13
ATOM     13  C   UNL     1      41.310  65.841  46.082  1.00  0.00     0.000 C 
BRANCH  13  14
ATOM     14  C   UNL     1      42.106  64.518  46.098  1.00  0.00     0.000 C 
BRANCH  14  15
ATOM     15  C   UNL     1      43.626  64.708  45.957  1.00  0.00     0.000 C 
BRANCH  15  16
ATOM     16  C   UNL     1      44.001  66.033  45.273  1.00  0.00     0.000 C 
BRANCH  16  17
ATOM     17  C   UNL     1      44.283  65.859  43.771  1.00  0.00     0.000 C 
BRANCH  17  18
ATOM     18  C   UNL     1      43.443  66.809  42.899  1.00  0.00     0.000 C 
BRANCH  18  19
ATOM     19  C   UNL     1      42.394  66.070  42.051  1.00  0.00     0.000 C 
BRANCH  19  20
ATOM     20  C   UNL     1      42.919  64.839  41.287  1.00  0.00     0.006 C 
BRANCH  20  21
ATOM     21  C   UNL     1      43.721  65.181  40.018  1.00  0.00     0.053 C 
BRANCH  21  22
ATOM     22  C   UNL     1      45.197  64.971  40.193  1.00  0.00     0.041 C 
ATOM     23  O   UNL     1      45.694  63.820  40.069  1.00  0.00    -0.550 OA
ATOM     24  O   UNL     1      46.017  66.039  40.533  1.00  0.00    -0.550 OA
ENDBRANCH  21  22
ENDBRANCH  20  21
ENDBRANCH  19  20
ENDBRANCH  18  19
ENDBRANCH  17  18
ENDBRANCH  16  17
ENDBRANCH  15  16
ENDBRANCH  14  15
ENDBRANCH  13  14
ENDBRANCH   1  13
TORSDOF 20
ENDMDL
MODEL 9
REMARK VINA RESULT:    -4.220      1.659      3.546
REMARK INTER + INTRA:         -10.869
REMARK INTER:                  -8.979
REMARK INTRA:                  -1.890
REMARK UNBOUND:                -1.715
REMARK SMILES CCCCCCCCCCCCCCCCCCCCCC(=O)[O-]
REMARK SMILES IDX 12 1 11 2 10 3 9 4 8 5 7 6 6 7 5 8 4 9 3 10 2 11 1 12 13 13
REMARK SMILES IDX 14 14 15 15 16 16 17 17 18 18 19 19 20 20 21 21 22 22 23 23
REMARK SMILES IDX 24 24
REMARK H PARENT
REMARK Flexibility Score: inf
ROOT
ATOM      1  C   UNL     1      44.645  65.479  52.058  1.00  0.00     0.000 C 
ENDROOT
BRANCH   1   2
ATOM      2  C   UNL     1      43.619  66.348  52.808  1.00  0.00     0.000 C 
BRANCH   2   3
ATOM      3  C   UNL     1      42.909  65.620  53.965  1.00  0.00     0.000 C 
BRANCH   3   4
ATOM      4  C   UNL     1      43.589  64.286  54.321  1.00  0.00    -0.000 C 
BRANCH   4   5
ATOM      5  C   UNL     1      43.575  63.998  55.830  1.00  0.00    -0.000 C 
BRANCH   5   6
ATOM      6  C   UNL     1      42.839  65.081  56.636  1.00  0.00    -0.000 C 
BRANCH   6   7
ATOM      7  C   UNL     1      42.049  64.508  57.826  1.00  0.00    -0.000 C 
BRANCH   7   8
ATOM      8  C   UNL     1      40.520  64.500  57.609  1.00  0.00    -0.000 C 
BRANCH   8   9
ATOM      9  C   UNL     1      40.106  65.263  56.338  1.00  0.00    -0.000 C 
BRANCH   9  10
ATOM     10  C   UNL     1      39.168  64.433  55.436  1.00  0.00    -0.000 C 
BRANCH  10  11
ATOM     11  C   UNL     1      38.592  63.186  56.129  1.00  0.00    -0.003 C 
ATOM     12  C   UNL     1      37.080  63.053  55.964  1.00  0.00     0.004 C 
ENDBRANCH  10  11
ENDBRANCH   9  10
ENDBRANCH   8   9
ENDBRANCH   7   8
ENDBRANCH   6   7
ENDBRANCH   5   6
ENDBRANCH   4   5
ENDBRANCH   3   4
ENDBRANCH   2   3
ENDBRANCH   1   2
BRANCH   1  13
ATOM     13  C   UNL     1      45.205  66.177  50.804  1.00  0.00     0.000 C 
BRANCH  13  14
ATOM     14  C   UNL     1      44.461  67.493  50.492  1.00  0.00     0.000 C 
BRANCH  14  15
ATOM     15  C   UNL     1      43.737  67.489  49.134  1.00  0.00     0.000 C 
BRANCH  15  16
ATOM     16  C   UNL     1      42.207  67.462  49.275  1.00  0.00     0.000 C 
BRANCH  16  17
ATOM     17  C   UNL     1      41.491  67.517  47.915  1.00  0.00     0.000 C 
BRANCH  17  18
ATOM     18  C   UNL     1      40.305  66.540  47.832  1.00  0.00     0.000 C 
BRANCH  18  19
ATOM     19  C   UNL     1      40.698  65.168  47.260  1.00  0.00     0.000 C 
BRANCH  19  20
ATOM     20  C   UNL     1      41.442  65.210  45.911  1.00  0.00     0.006 C 
BRANCH  20  21
ATOM     21  C   UNL     1      42.915  64.767  45.990  1.00  0.00     0.053 C 
BRANCH  21  22
ATOM     22  C   UNL     1      43.829  65.653  45.196  1.00  0.00     0.041 C 
ATOM     23  O   UNL     1      44.139  65.350  44.014  1.00  0.00    -0.550 OA
ATOM     24  O   UNL     1      44.370  66.793  45.776  1.00  0.00    -0.550 OA
ENDBRANCH  21  22
ENDBRANCH  20  21
ENDBRANCH  19  20
ENDBRANCH  18  19
ENDBRANCH  17  18
ENDBRANCH  16  17
ENDBRANCH  15  16
ENDBRANCH  14  15
ENDBRANCH  13  14
ENDBRANCH   1  13
TORSDOF 20
ENDMDL
