MODEL 1
REMARK VINA RESULT:    -6.120      0.000      0.000
REMARK INTER + INTRA:          -8.087
REMARK INTER:                  -7.730
REMARK INTRA:                  -0.357
REMARK UNBOUND:                -0.357
REMARK SMILES COc1cc(O)c2c(=O)c(OC)c(-c3ccc(O)c(O)c3)oc2c1
REMARK SMILES IDX 3 1 4 2 5 3 7 4 23 5 24 6 22 7 13 8 10 9 8 10 9 11 2 12 1 13
REMARK SMILES IDX 6 14 14 16 21 17 15 18 19 19 16 20 17 21 20 22 18 24 11 26
REMARK SMILES IDX 12 27
REMARK H PARENT 6 15 20 23 18 25
REMARK Flexibility Score: inf
ROOT
ATOM      1  C   UNL     1      33.534   4.379  52.338  1.00  0.00     0.126 A 
ATOM      2  C   UNL     1      32.904   3.717  53.403  1.00  0.00     0.093 A 
ATOM      3  C   UNL     1      31.667   4.152  53.895  1.00  0.00     0.134 A 
ATOM      4  C   UNL     1      31.068   5.331  53.359  1.00  0.00     0.111 A 
ATOM      5  C   UNL     1      31.703   5.970  52.266  1.00  0.00     0.146 A 
ATOM      6  C   UNL     1      32.917   5.491  51.768  1.00  0.00     0.094 A 
ATOM      7  O   UNL     1      31.163   7.038  51.697  1.00  0.00    -0.452 OA
ATOM      8  C   UNL     1      30.027   7.590  52.104  1.00  0.00     0.180 A 
ATOM      9  C   UNL     1      29.357   7.080  53.231  1.00  0.00     0.210 A 
ATOM     10  C   UNL     1      29.899   5.942  53.875  1.00  0.00     0.239 A 
ATOM     11  O   UNL     1      29.365   5.507  54.926  1.00  0.00    -0.285 OA
ENDROOT
BRANCH   1  12
ATOM     12  O   UNL     1      34.765   3.958  51.811  1.00  0.00    -0.496 OA
ATOM     13  C   UNL     1      35.232   4.273  50.504  1.00  0.00     0.278 C 
ENDBRANCH   1  12
BRANCH   3  14
ATOM     14  O   UNL     1      31.076   3.360  54.883  1.00  0.00    -0.507 OA
ATOM     15  H   UNL     1      30.164   2.935  54.806  1.00  0.00     0.293 HD
ENDBRANCH   3  14
BRANCH   8  16
ATOM     16  C   UNL     1      29.519   8.760  51.351  1.00  0.00     0.025 A 
ATOM     17  C   UNL     1      28.621   8.565  50.292  1.00  0.00     0.062 A 
ATOM     18  C   UNL     1      29.873  10.069  51.714  1.00  0.00     0.016 A 
ATOM     19  C   UNL     1      28.104   9.652  49.575  1.00  0.00     0.158 A 
ATOM     20  C   UNL     1      29.363  11.159  51.006  1.00  0.00     0.051 A 
ATOM     21  C   UNL     1      28.484  10.967  49.934  1.00  0.00     0.157 A 
BRANCH  19  22
ATOM     22  O   UNL     1      27.224   9.382  48.525  1.00  0.00    -0.504 OA
ATOM     23  H   UNL     1      27.514   9.036  47.621  1.00  0.00     0.293 HD
ENDBRANCH  19  22
BRANCH  21  24
ATOM     24  O   UNL     1      28.013  12.098  49.265  1.00  0.00    -0.504 OA
ATOM     25  H   UNL     1      27.269  12.082  48.583  1.00  0.00     0.293 HD
ENDBRANCH  21  24
ENDBRANCH   8  16
BRANCH   9  26
ATOM     26  O   UNL     1      28.203   7.755  53.682  1.00  0.00    -0.490 OA
ATOM     27  C   UNL     1      26.875   7.581  53.201  1.00  0.00     0.278 C 
ENDBRANCH   9  26
TORSDOF 6
ENDMDL
MODEL 2
REMARK VINA RESULT:    -6.022      3.761      7.347
REMARK INTER + INTRA:          -7.963
REMARK INTER:                  -7.494
REMARK INTRA:                  -0.469
REMARK UNBOUND:                -0.357
REMARK SMILES COc1cc(O)c2c(=O)c(OC)c(-c3ccc(O)c(O)c3)oc2c1
REMARK SMILES IDX 3 1 4 2 5 3 7 4 23 5 24 6 22 7 13 8 10 9 8 10 9 11 2 12 1 13
REMARK SMILES IDX 6 14 14 16 21 17 15 18 19 19 16 20 17 21 20 22 18 24 11 26
REMARK SMILES IDX 12 27
REMARK H PARENT 6 15 20 23 18 25
REMARK Flexibility Score: inf
ROOT
ATOM      1  C   UNL     1      29.472  15.333  52.694  1.00  0.00     0.126 A 
ATOM      2  C   UNL     1      30.019  14.946  53.928  1.00  0.00     0.093 A 
ATOM      3  C   UNL     1      30.337  13.608  54.191  1.00  0.00     0.134 A 
ATOM      4  C   UNL     1      30.035  12.606  53.221  1.00  0.00     0.111 A 
ATOM      5  C   UNL     1      29.511  13.017  51.972  1.00  0.00     0.146 A 
ATOM      6  C   UNL     1      29.239  14.363  51.720  1.00  0.00     0.094 A 
ATOM      7  O   UNL     1      29.261  12.132  51.016  1.00  0.00    -0.452 OA
ATOM      8  C   UNL     1      29.459  10.827  51.156  1.00  0.00     0.180 A 
ATOM      9  C   UNL     1      29.903  10.307  52.386  1.00  0.00     0.210 A 
ATOM     10  C   UNL     1      30.179  11.213  53.436  1.00  0.00     0.239 A 
ATOM     11  O   UNL     1      30.507  10.774  54.568  1.00  0.00    -0.285 OA
ENDROOT
BRANCH   1  12
ATOM     12  O   UNL     1      29.156  16.667  52.394  1.00  0.00    -0.496 OA
ATOM     13  C   UNL     1      27.859  17.125  52.030  1.00  0.00     0.278 C 
ENDBRANCH   1  12
BRANCH   3  14
ATOM     14  O   UNL     1      30.976  13.347  55.406  1.00  0.00    -0.507 OA
ATOM     15  H   UNL     1      31.426  14.046  55.978  1.00  0.00     0.293 HD
ENDBRANCH   3  14
BRANCH   8  16
ATOM     16  C   UNL     1      29.171   9.957  49.993  1.00  0.00     0.025 A 
ATOM     17  C   UNL     1      30.194   9.661  49.080  1.00  0.00     0.062 A 
ATOM     18  C   UNL     1      27.907   9.372  49.815  1.00  0.00     0.016 A 
ATOM     19  C   UNL     1      29.961   8.822  47.982  1.00  0.00     0.158 A 
ATOM     20  C   UNL     1      27.665   8.535  48.724  1.00  0.00     0.051 A 
ATOM     21  C   UNL     1      28.678   8.255  47.799  1.00  0.00     0.157 A 
BRANCH  19  22
ATOM     22  O   UNL     1      31.023   8.582  47.108  1.00  0.00    -0.504 OA
ATOM     23  H   UNL     1      31.938   8.270  47.403  1.00  0.00     0.293 HD
ENDBRANCH  19  22
BRANCH  21  24
ATOM     24  O   UNL     1      28.370   7.414  46.728  1.00  0.00    -0.504 OA
ATOM     25  H   UNL     1      29.048   6.841  46.247  1.00  0.00     0.293 HD
ENDBRANCH  21  24
ENDBRANCH   8  16
BRANCH   9  26
ATOM     26  O   UNL     1      30.010   8.906  52.515  1.00  0.00    -0.490 OA
ATOM     27  C   UNL     1      29.058   8.032  53.112  1.00  0.00     0.278 C 
ENDBRANCH   9  26
TORSDOF 6
ENDMDL
MODEL 3
REMARK VINA RESULT:    -5.964      1.466      1.977
REMARK INTER + INTRA:          -7.889
REMARK INTER:                  -7.455
REMARK INTRA:                  -0.434
REMARK UNBOUND:                -0.357
REMARK SMILES COc1cc(O)c2c(=O)c(OC)c(-c3ccc(O)c(O)c3)oc2c1
REMARK SMILES IDX 3 1 4 2 5 3 7 4 23 5 24 6 22 7 13 8 10 9 8 10 9 11 2 12 1 13
REMARK SMILES IDX 6 14 14 16 21 17 15 18 19 19 16 20 17 21 20 22 18 24 11 26
REMARK SMILES IDX 12 27
REMARK H PARENT 6 15 20 23 18 25
REMARK Flexibility Score: inf
ROOT
ATOM      1  C   UNL     1      34.134   3.626  53.144  1.00  0.00     0.126 A 
ATOM      2  C   UNL     1      33.422   3.123  54.243  1.00  0.00     0.093 A 
ATOM      3  C   UNL     1      32.187   3.668  54.617  1.00  0.00     0.134 A 
ATOM      4  C   UNL     1      31.675   4.802  53.918  1.00  0.00     0.111 A 
ATOM      5  C   UNL     1      32.392   5.279  52.794  1.00  0.00     0.146 A 
ATOM      6  C   UNL     1      33.602   4.691  52.418  1.00  0.00     0.094 A 
ATOM      7  O   UNL     1      31.934   6.296  52.078  1.00  0.00    -0.452 OA
ATOM      8  C   UNL     1      30.810   6.943  52.359  1.00  0.00     0.180 A 
ATOM      9  C   UNL     1      30.063   6.599  53.501  1.00  0.00     0.210 A 
ATOM     10  C   UNL     1      30.515   5.521  54.298  1.00  0.00     0.239 A 
ATOM     11  O   UNL     1      29.911   5.237  55.363  1.00  0.00    -0.285 OA
ENDROOT
BRANCH   1  12
ATOM     12  O   UNL     1      35.366   3.092  52.735  1.00  0.00    -0.496 OA
ATOM     13  C   UNL     1      36.317   2.499  53.612  1.00  0.00     0.278 C 
ENDBRANCH   1  12
BRANCH   3  14
ATOM     14  O   UNL     1      31.510   3.025  55.657  1.00  0.00    -0.507 OA
ATOM     15  H   UNL     1      30.530   2.784  55.639  1.00  0.00     0.293 HD
ENDBRANCH   3  14
BRANCH   8  16
ATOM     16  C   UNL     1      30.399   8.039  51.452  1.00  0.00     0.025 A 
ATOM     17  C   UNL     1      30.936   9.322  51.629  1.00  0.00     0.062 A 
ATOM     18  C   UNL     1      29.525   7.807  50.377  1.00  0.00     0.016 A 
ATOM     19  C   UNL     1      30.585  10.375  50.775  1.00  0.00     0.158 A 
ATOM     20  C   UNL     1      29.170   8.850  49.520  1.00  0.00     0.051 A 
ATOM     21  C   UNL     1      29.687  10.137  49.708  1.00  0.00     0.157 A 
BRANCH  19  22
ATOM     22  O   UNL     1      31.149  11.629  51.020  1.00  0.00    -0.504 OA
ATOM     23  H   UNL     1      31.496  11.926  51.920  1.00  0.00     0.293 HD
ENDBRANCH  19  22
BRANCH  21  24
ATOM     24  O   UNL     1      29.288  11.137  48.819  1.00  0.00    -0.504 OA
ATOM     25  H   UNL     1      29.343  11.053  47.814  1.00  0.00     0.293 HD
ENDBRANCH  21  24
ENDBRANCH   8  16
BRANCH   9  26
ATOM     26  O   UNL     1      28.925   7.374  53.810  1.00  0.00    -0.490 OA
ATOM     27  C   UNL     1      27.592   7.139  53.368  1.00  0.00     0.278 C 
ENDBRANCH   9  26
TORSDOF 6
ENDMDL
MODEL 4
REMARK VINA RESULT:    -5.908      0.591      1.403
REMARK INTER + INTRA:          -7.820
REMARK INTER:                  -7.454
REMARK INTRA:                  -0.365
REMARK UNBOUND:                -0.357
REMARK SMILES COc1cc(O)c2c(=O)c(OC)c(-c3ccc(O)c(O)c3)oc2c1
REMARK SMILES IDX 3 1 4 2 5 3 7 4 23 5 24 6 22 7 13 8 10 9 8 10 9 11 2 12 1 13
REMARK SMILES IDX 6 14 14 16 21 17 15 18 19 19 16 20 17 21 20 22 18 24 11 26
REMARK SMILES IDX 12 27
REMARK H PARENT 6 15 20 23 18 25
REMARK Flexibility Score: inf
ROOT
ATOM      1  C   UNL     1      33.516   4.291  52.303  1.00  0.00     0.126 A 
ATOM      2  C   UNL     1      32.919   3.658  53.405  1.00  0.00     0.093 A 
ATOM      3  C   UNL     1      31.701   4.112  53.927  1.00  0.00     0.134 A 
ATOM      4  C   UNL     1      31.089   5.280  53.381  1.00  0.00     0.111 A 
ATOM      5  C   UNL     1      31.689   5.887  52.252  1.00  0.00     0.146 A 
ATOM      6  C   UNL     1      32.884   5.391  51.726  1.00  0.00     0.094 A 
ATOM      7  O   UNL     1      31.134   6.943  51.674  1.00  0.00    -0.452 OA
ATOM      8  C   UNL     1      30.015   7.510  52.104  1.00  0.00     0.180 A 
ATOM      9  C   UNL     1      29.381   7.032  53.266  1.00  0.00     0.210 A 
ATOM     10  C   UNL     1      29.940   5.908  53.920  1.00  0.00     0.239 A 
ATOM     11  O   UNL     1      29.439   5.503  54.999  1.00  0.00    -0.285 OA
ENDROOT
BRANCH   1  12
ATOM     12  O   UNL     1      34.727   3.851  51.747  1.00  0.00    -0.496 OA
ATOM     13  C   UNL     1      35.260   4.314  50.511  1.00  0.00     0.278 C 
ENDBRANCH   1  12
BRANCH   3  14
ATOM     14  O   UNL     1      31.140   3.348  54.954  1.00  0.00    -0.507 OA
ATOM     15  H   UNL     1      30.402   2.671  54.826  1.00  0.00     0.293 HD
ENDBRANCH   3  14
BRANCH   8  16
ATOM     16  C   UNL     1      29.486   8.663  51.339  1.00  0.00     0.025 A 
ATOM     17  C   UNL     1      30.039   9.937  51.539  1.00  0.00     0.062 A 
ATOM     18  C   UNL     1      28.482   8.499  50.373  1.00  0.00     0.016 A 
ATOM     19  C   UNL     1      29.578  11.045  50.815  1.00  0.00     0.158 A 
ATOM     20  C   UNL     1      28.015   9.596  49.647  1.00  0.00     0.051 A 
ATOM     21  C   UNL     1      28.549  10.873  49.859  1.00  0.00     0.157 A 
BRANCH  19  22
ATOM     22  O   UNL     1      30.166  12.284  51.076  1.00  0.00    -0.504 OA
ATOM     23  H   UNL     1      30.263  13.019  50.389  1.00  0.00     0.293 HD
ENDBRANCH  19  22
BRANCH  21  24
ATOM     24  O   UNL     1      28.036  11.929  49.104  1.00  0.00    -0.504 OA
ATOM     25  H   UNL     1      27.100  12.293  49.204  1.00  0.00     0.293 HD
ENDBRANCH  21  24
ENDBRANCH   8  16
BRANCH   9  26
ATOM     26  O   UNL     1      28.245   7.724  53.737  1.00  0.00    -0.490 OA
ATOM     27  C   UNL     1      26.896   7.515  53.334  1.00  0.00     0.278 C 
ENDBRANCH   9  26
TORSDOF 6
ENDMDL
MODEL 5
REMARK VINA RESULT:    -5.615      1.981      7.087
REMARK INTER + INTRA:          -7.449
REMARK INTER:                  -6.984
REMARK INTRA:                  -0.465
REMARK UNBOUND:                -0.357
REMARK SMILES COc1cc(O)c2c(=O)c(OC)c(-c3ccc(O)c(O)c3)oc2c1
REMARK SMILES IDX 3 1 4 2 5 3 7 4 23 5 24 6 22 7 13 8 10 9 8 10 9 11 2 12 1 13
REMARK SMILES IDX 6 14 14 16 21 17 15 18 19 19 16 20 17 21 20 22 18 24 11 26
REMARK SMILES IDX 12 27
REMARK H PARENT 6 15 20 23 18 25
REMARK Flexibility Score: inf
ROOT
ATOM      1  C   UNL     1      28.223   8.934  49.014  1.00  0.00     0.126 A 
ATOM      2  C   UNL     1      28.592  10.279  49.180  1.00  0.00     0.093 A 
ATOM      3  C   UNL     1      29.490  10.665  50.183  1.00  0.00     0.134 A 
ATOM      4  C   UNL     1      29.985   9.692  51.101  1.00  0.00     0.111 A 
ATOM      5  C   UNL     1      29.627   8.336  50.901  1.00  0.00     0.146 A 
ATOM      6  C   UNL     1      28.761   7.972  49.868  1.00  0.00     0.094 A 
ATOM      7  O   UNL     1      30.102   7.385  51.694  1.00  0.00    -0.452 OA
ATOM      8  C   UNL     1      30.911   7.621  52.718  1.00  0.00     0.180 A 
ATOM      9  C   UNL     1      31.265   8.942  53.050  1.00  0.00     0.210 A 
ATOM     10  C   UNL     1      30.779   9.991  52.234  1.00  0.00     0.239 A 
ATOM     11  O   UNL     1      31.018  11.185  52.548  1.00  0.00    -0.285 OA
ENDROOT
BRANCH   1  12
ATOM     12  O   UNL     1      27.338   8.513  48.010  1.00  0.00    -0.496 OA
ATOM     13  C   UNL     1      27.742   7.953  46.765  1.00  0.00     0.278 C 
ENDBRANCH   1  12
BRANCH   3  14
ATOM     14  O   UNL     1      29.872  12.009  50.192  1.00  0.00    -0.507 OA
ATOM     15  H   UNL     1      30.117  12.528  51.023  1.00  0.00     0.293 HD
ENDBRANCH   3  14
BRANCH   8  16
ATOM     16  C   UNL     1      31.394   6.458  53.498  1.00  0.00     0.025 A 
ATOM     17  C   UNL     1      32.666   5.928  53.233  1.00  0.00     0.062 A 
ATOM     18  C   UNL     1      30.630   5.911  54.540  1.00  0.00     0.016 A 
ATOM     19  C   UNL     1      33.162   4.843  53.968  1.00  0.00     0.158 A 
ATOM     20  C   UNL     1      31.116   4.831  55.279  1.00  0.00     0.051 A 
ATOM     21  C   UNL     1      32.374   4.284  55.002  1.00  0.00     0.157 A 
BRANCH  19  22
ATOM     22  O   UNL     1      34.430   4.359  53.640  1.00  0.00    -0.504 OA
ATOM     23  H   UNL     1      34.769   4.258  52.694  1.00  0.00     0.293 HD
ENDBRANCH  19  22
BRANCH  21  24
ATOM     24  O   UNL     1      32.800   3.201  55.774  1.00  0.00    -0.504 OA
ATOM     25  H   UNL     1      32.409   2.961  56.674  1.00  0.00     0.293 HD
ENDBRANCH  21  24
ENDBRANCH   8  16
BRANCH   9  26
ATOM     26  O   UNL     1      32.053   9.150  54.202  1.00  0.00    -0.490 OA
ATOM     27  C   UNL     1      33.447   9.438  54.236  1.00  0.00     0.278 C 
ENDBRANCH   9  26
TORSDOF 6
ENDMDL
MODEL 6
REMARK VINA RESULT:    -5.521      1.711      6.821
REMARK INTER + INTRA:          -7.330
REMARK INTER:                  -6.874
REMARK INTRA:                  -0.456
REMARK UNBOUND:                -0.357
REMARK SMILES COc1cc(O)c2c(=O)c(OC)c(-c3ccc(O)c(O)c3)oc2c1
REMARK SMILES IDX 3 1 4 2 5 3 7 4 23 5 24 6 22 7 13 8 10 9 8 10 9 11 2 12 1 13
REMARK SMILES IDX 6 14 14 16 21 17 15 18 19 19 16 20 17 21 20 22 18 24 11 26
REMARK SMILES IDX 12 27
REMARK H PARENT 6 15 20 23 18 25
REMARK Flexibility Score: inf
ROOT
ATOM      1  C   UNL     1      27.784   8.764  49.169  1.00  0.00     0.126 A 
ATOM      2  C   UNL     1      27.497   9.936  49.886  1.00  0.00     0.093 A 
ATOM      3  C   UNL     1      28.026  10.151  51.165  1.00  0.00     0.134 A 
ATOM      4  C   UNL     1      28.812   9.133  51.784  1.00  0.00     0.111 A 
ATOM      5  C   UNL     1      29.116   7.971  51.036  1.00  0.00     0.146 A 
ATOM      6  C   UNL     1      28.608   7.799  49.747  1.00  0.00     0.094 A 
ATOM      7  O   UNL     1      29.885   7.018  51.545  1.00  0.00    -0.452 OA
ATOM      8  C   UNL     1      30.401   7.067  52.766  1.00  0.00     0.180 A 
ATOM      9  C   UNL     1      30.095   8.143  53.620  1.00  0.00     0.210 A 
ATOM     10  C   UNL     1      29.275   9.182  53.122  1.00  0.00     0.239 A 
ATOM     11  O   UNL     1      28.924  10.119  53.884  1.00  0.00    -0.285 OA
ENDROOT
BRANCH   1  12
ATOM     12  O   UNL     1      27.282   8.526  47.881  1.00  0.00    -0.496 OA
ATOM     13  C   UNL     1      28.069   8.090  46.778  1.00  0.00     0.278 C 
ENDBRANCH   1  12
BRANCH   3  14
ATOM     14  O   UNL     1      27.767  11.395  51.746  1.00  0.00    -0.507 OA
ATOM     15  H   UNL     1      28.291  12.236  51.555  1.00  0.00     0.293 HD
ENDBRANCH   3  14
BRANCH   8  16
ATOM     16  C   UNL     1      31.274   5.949  53.192  1.00  0.00     0.025 A 
ATOM     17  C   UNL     1      30.719   4.866  53.891  1.00  0.00     0.062 A 
ATOM     18  C   UNL     1      32.637   5.920  52.860  1.00  0.00     0.016 A 
ATOM     19  C   UNL     1      31.512   3.782  54.289  1.00  0.00     0.158 A 
ATOM     20  C   UNL     1      33.436   4.844  53.251  1.00  0.00     0.051 A 
ATOM     21  C   UNL     1      32.890   3.772  53.968  1.00  0.00     0.157 A 
BRANCH  19  22
ATOM     22  O   UNL     1      30.894   2.746  54.993  1.00  0.00    -0.504 OA
ATOM     23  H   UNL     1      31.386   1.950  55.373  1.00  0.00     0.293 HD
ENDBRANCH  19  22
BRANCH  21  24
ATOM     24  O   UNL     1      33.743   2.729  54.334  1.00  0.00    -0.504 OA
ATOM     25  H   UNL     1      34.189   2.107  53.675  1.00  0.00     0.293 HD
ENDBRANCH  21  24
ENDBRANCH   8  16
BRANCH   9  26
ATOM     26  O   UNL     1      30.592   8.106  54.940  1.00  0.00    -0.490 OA
ATOM     27  C   UNL     1      29.876   7.714  56.107  1.00  0.00     0.278 C 
ENDBRANCH   9  26
TORSDOF 6
ENDMDL
MODEL 7
REMARK VINA RESULT:    -5.401      4.555      5.887
REMARK INTER + INTRA:          -7.179
REMARK INTER:                  -6.678
REMARK INTRA:                  -0.501
REMARK UNBOUND:                -0.357
REMARK SMILES COc1cc(O)c2c(=O)c(OC)c(-c3ccc(O)c(O)c3)oc2c1
REMARK SMILES IDX 3 1 4 2 5 3 7 4 23 5 24 6 22 7 13 8 10 9 8 10 9 11 2 12 1 13
REMARK SMILES IDX 6 14 14 16 21 17 15 18 19 19 16 20 17 21 20 22 18 24 11 26
REMARK SMILES IDX 12 27
REMARK H PARENT 6 15 20 23 18 25
REMARK Flexibility Score: inf
ROOT
ATOM      1  C   UNL     1      33.527  11.441  55.176  1.00  0.00     0.126 A 
ATOM      2  C   UNL     1      32.770  12.456  55.782  1.00  0.00     0.093 A 
ATOM      3  C   UNL     1      31.506  12.808  55.291  1.00  0.00     0.134 A 
ATOM      4  C   UNL     1      31.006  12.179  54.112  1.00  0.00     0.111 A 
ATOM      5  C   UNL     1      31.769  11.137  53.531  1.00  0.00     0.146 A 
ATOM      6  C   UNL     1      33.009  10.779  54.064  1.00  0.00     0.094 A 
ATOM      7  O   UNL     1      31.326  10.484  52.466  1.00  0.00    -0.452 OA
ATOM      8  C   UNL     1      30.175  10.757  51.865  1.00  0.00     0.180 A 
ATOM      9  C   UNL     1      29.378  11.827  52.316  1.00  0.00     0.210 A 
ATOM     10  C   UNL     1      29.813  12.555  53.449  1.00  0.00     0.239 A 
ATOM     11  O   UNL     1      29.161  13.560  53.831  1.00  0.00    -0.285 OA
ENDROOT
BRANCH   1  12
ATOM     12  O   UNL     1      34.789  11.055  55.652  1.00  0.00    -0.496 OA
ATOM     13  C   UNL     1      35.732  10.292  54.908  1.00  0.00     0.278 C 
ENDBRANCH   1  12
BRANCH   3  14
ATOM     14  O   UNL     1      30.792  13.754  56.031  1.00  0.00    -0.507 OA
ATOM     15  H   UNL     1      30.827  13.841  57.036  1.00  0.00     0.293 HD
ENDBRANCH   3  14
BRANCH   8  16
ATOM     16  C   UNL     1      29.786   9.923  50.705  1.00  0.00     0.025 A 
ATOM     17  C   UNL     1      30.343  10.188  49.445  1.00  0.00     0.062 A 
ATOM     18  C   UNL     1      28.915   8.832  50.851  1.00  0.00     0.016 A 
ATOM     19  C   UNL     1      30.014   9.403  48.332  1.00  0.00     0.158 A 
ATOM     20  C   UNL     1      28.581   8.044  49.748  1.00  0.00     0.051 A 
ATOM     21  C   UNL     1      29.118   8.319  48.484  1.00  0.00     0.157 A 
BRANCH  19  22
ATOM     22  O   UNL     1      30.597   9.733  47.107  1.00  0.00    -0.504 OA
ATOM     23  H   UNL     1      30.886  10.667  46.852  1.00  0.00     0.293 HD
ENDBRANCH  19  22
BRANCH  21  24
ATOM     24  O   UNL     1      28.740   7.496  47.422  1.00  0.00    -0.504 OA
ATOM     25  H   UNL     1      28.201   7.810  46.628  1.00  0.00     0.293 HD
ENDBRANCH  21  24
ENDBRANCH   8  16
BRANCH   9  26
ATOM     26  O   UNL     1      28.209  12.137  51.590  1.00  0.00    -0.490 OA
ATOM     27  C   UNL     1      26.875  11.779  51.934  1.00  0.00     0.278 C 
ENDBRANCH   9  26
TORSDOF 6
ENDMDL
MODEL 8
REMARK VINA RESULT:    -5.377     10.953     13.513
REMARK INTER + INTRA:          -7.148
REMARK INTER:                  -6.661
REMARK INTRA:                  -0.487
REMARK UNBOUND:                -0.357
REMARK SMILES COc1cc(O)c2c(=O)c(OC)c(-c3ccc(O)c(O)c3)oc2c1
REMARK SMILES IDX 3 1 4 2 5 3 7 4 23 5 24 6 22 7 13 8 10 9 8 10 9 11 2 12 1 13
REMARK SMILES IDX 6 14 14 16 21 17 15 18 19 19 16 20 17 21 20 22 18 24 11 26
REMARK SMILES IDX 12 27
REMARK H PARENT 6 15 20 23 18 25
REMARK Flexibility Score: inf
ROOT
ATOM      1  C   UNL     1      39.200   1.525  54.264  1.00  0.00     0.126 A 
ATOM      2  C   UNL     1      39.751   0.488  53.494  1.00  0.00     0.093 A 
ATOM      3  C   UNL     1      40.994   0.634  52.866  1.00  0.00     0.134 A 
ATOM      4  C   UNL     1      41.683   1.881  52.945  1.00  0.00     0.111 A 
ATOM      5  C   UNL     1      41.128   2.906  53.749  1.00  0.00     0.146 A 
ATOM      6  C   UNL     1      39.905   2.720  54.398  1.00  0.00     0.094 A 
ATOM      7  O   UNL     1      41.753   4.065  53.899  1.00  0.00    -0.452 OA
ATOM      8  C   UNL     1      42.906   4.357  53.311  1.00  0.00     0.180 A 
ATOM      9  C   UNL     1      43.503   3.437  52.428  1.00  0.00     0.210 A 
ATOM     10  C   UNL     1      42.869   2.187  52.234  1.00  0.00     0.239 A 
ATOM     11  O   UNL     1      43.338   1.374  51.398  1.00  0.00    -0.285 OA
ENDROOT
BRANCH   1  12
ATOM     12  O   UNL     1      37.965   1.403  54.918  1.00  0.00    -0.496 OA
ATOM     13  C   UNL     1      37.756   0.657  56.112  1.00  0.00     0.278 C 
ENDBRANCH   1  12
BRANCH   3  14
ATOM     14  O   UNL     1      41.500  -0.494  52.215  1.00  0.00    -0.507 OA
ATOM     15  H   UNL     1      41.768  -1.350  52.678  1.00  0.00     0.293 HD
ENDBRANCH   3  14
BRANCH   8  16
ATOM     16  C   UNL     1      43.512   5.678  53.596  1.00  0.00     0.025 A 
ATOM     17  C   UNL     1      43.053   6.812  52.910  1.00  0.00     0.062 A 
ATOM     18  C   UNL     1      44.497   5.830  54.584  1.00  0.00     0.016 A 
ATOM     19  C   UNL     1      43.588   8.080  53.173  1.00  0.00     0.158 A 
ATOM     20  C   UNL     1      45.037   7.089  54.854  1.00  0.00     0.051 A 
ATOM     21  C   UNL     1      44.597   8.220  54.155  1.00  0.00     0.157 A 
BRANCH  19  22
ATOM     22  O   UNL     1      43.092   9.161  52.442  1.00  0.00    -0.504 OA
ATOM     23  H   UNL     1      43.639   9.973  52.192  1.00  0.00     0.293 HD
ENDBRANCH  19  22
BRANCH  21  24
ATOM     24  O   UNL     1      45.180   9.449  54.468  1.00  0.00    -0.504 OA
ATOM     25  H   UNL     1      45.404   9.745  55.408  1.00  0.00     0.293 HD
ENDBRANCH  21  24
ENDBRANCH   8  16
BRANCH   9  26
ATOM     26  O   UNL     1      44.680   3.828  51.756  1.00  0.00    -0.490 OA
ATOM     27  C   UNL     1      46.011   3.439  52.078  1.00  0.00     0.278 C 
ENDBRANCH   9  26
TORSDOF 6
ENDMDL
MODEL 9
REMARK VINA RESULT:    -5.302      2.560      7.818
REMARK INTER + INTRA:          -7.053
REMARK INTER:                  -6.570
REMARK INTRA:                  -0.483
REMARK UNBOUND:                -0.357
REMARK SMILES COc1cc(O)c2c(=O)c(OC)c(-c3ccc(O)c(O)c3)oc2c1
REMARK SMILES IDX 3 1 4 2 5 3 7 4 23 5 24 6 22 7 13 8 10 9 8 10 9 11 2 12 1 13
REMARK SMILES IDX 6 14 14 16 21 17 15 18 19 19 16 20 17 21 20 22 18 24 11 26
REMARK SMILES IDX 12 27
REMARK H PARENT 6 15 20 23 18 25
REMARK Flexibility Score: inf
ROOT
ATOM      1  C   UNL     1      29.477  14.347  52.810  1.00  0.00     0.126 A 
ATOM      2  C   UNL     1      28.530  14.712  51.840  1.00  0.00     0.093 A 
ATOM      3  C   UNL     1      27.875  13.745  51.067  1.00  0.00     0.134 A 
ATOM      4  C   UNL     1      28.225  12.369  51.213  1.00  0.00     0.111 A 
ATOM      5  C   UNL     1      29.159  12.016  52.216  1.00  0.00     0.146 A 
ATOM      6  C   UNL     1      29.769  12.998  53.000  1.00  0.00     0.094 A 
ATOM      7  O   UNL     1      29.480  10.747  52.429  1.00  0.00    -0.452 OA
ATOM      8  C   UNL     1      28.981   9.738  51.728  1.00  0.00     0.180 A 
ATOM      9  C   UNL     1      28.103   9.987  50.655  1.00  0.00     0.210 A 
ATOM     10  C   UNL     1      27.735  11.327  50.389  1.00  0.00     0.239 A 
ATOM     11  O   UNL     1      27.012  11.588  49.394  1.00  0.00    -0.285 OA
ENDROOT
BRANCH   1  12
ATOM     12  O   UNL     1      30.138  15.291  53.611  1.00  0.00    -0.496 OA
ATOM     13  C   UNL     1      30.452  16.617  53.199  1.00  0.00     0.278 C 
ENDBRANCH   1  12
BRANCH   3  14
ATOM     14  O   UNL     1      26.875  14.206  50.207  1.00  0.00    -0.507 OA
ATOM     15  H   UNL     1      25.918  14.374  50.481  1.00  0.00     0.293 HD
ENDBRANCH   3  14
BRANCH   8  16
ATOM     16  C   UNL     1      29.400   8.366  52.097  1.00  0.00     0.025 A 
ATOM     17  C   UNL     1      30.573   7.830  51.547  1.00  0.00     0.062 A 
ATOM     18  C   UNL     1      28.678   7.611  53.035  1.00  0.00     0.016 A 
ATOM     19  C   UNL     1      31.010   6.544  51.893  1.00  0.00     0.158 A 
ATOM     20  C   UNL     1      29.105   6.329  53.386  1.00  0.00     0.051 A 
ATOM     21  C   UNL     1      30.263   5.782  52.822  1.00  0.00     0.157 A 
BRANCH  19  22
ATOM     22  O   UNL     1      32.180   6.071  51.296  1.00  0.00    -0.504 OA
ATOM     23  H   UNL     1      32.198   5.496  50.466  1.00  0.00     0.293 HD
ENDBRANCH  19  22
BRANCH  21  24
ATOM     24  O   UNL     1      30.634   4.494  53.212  1.00  0.00    -0.504 OA
ATOM     25  H   UNL     1      30.059   3.675  53.076  1.00  0.00     0.293 HD
ENDBRANCH  21  24
ENDBRANCH   8  16
BRANCH   9  26
ATOM     26  O   UNL     1      27.671   8.890  49.881  1.00  0.00    -0.490 OA
ATOM     27  C   UNL     1      28.209   8.465  48.634  1.00  0.00     0.278 C 
ENDBRANCH   9  26
TORSDOF 6
ENDMDL
