MODEL 1
REMARK VINA RESULT:    20.995      0.000      0.000
REMARK INTER + INTRA:          28.663
REMARK INTER:                  28.973
REMARK INTRA:                  -0.310
REMARK UNBOUND:                -0.310
REMARK SMILES CC[C@H](CC[C@@H](C)[C@H]1CC[C@H]2[C@H]3CC=C4C[C@@H](O)CC[C@]4(C)[C@@H]3CC[C@]12C)C(C)C
REMARK SMILES IDX 5 1 4 2 3 3 2 4 1 5 28 6 29 7 30 8 6 9 7 10 8 11 9 12 26 13
REMARK SMILES IDX 10 14 11 15 25 16 27 17 12 18 24 19 23 20 13 21 21 22 14 23
REMARK SMILES IDX 15 24 20 25 22 26 16 27 19 28 17 29 18 30
REMARK H PARENT 18 31
REMARK Flexibility Score: inf
ROOT
ATOM      1  C   UNL     1      29.124  32.020  24.014  1.00  0.00     0.004 C 
ENDROOT
BRANCH   1   2
ATOM      2  C   UNL     1      28.829  33.394  24.648  1.00  0.00     0.004 C 
BRANCH   2   3
ATOM      3  C   UNL     1      28.279  34.415  23.608  1.00  0.00    -0.009 C 
BRANCH   3   4
ATOM      4  C   UNL     1      28.558  33.891  22.171  1.00  0.00     0.000 C 
ATOM      5  C   UNL     1      29.120  34.950  21.222  1.00  0.00     0.004 C 
ENDBRANCH   3   4
BRANCH   3   6
ATOM      6  C   UNL     1      26.770  34.767  23.846  1.00  0.00    -0.014 C 
ATOM      7  C   UNL     1      26.280  35.865  22.888  1.00  0.00     0.007 C 
ATOM      8  C   UNL     1      26.442  35.141  25.298  1.00  0.00     0.007 C 
ENDBRANCH   3   6
ENDBRANCH   2   3
ENDBRANCH   1   2
BRANCH   1   9
ATOM      9  C   UNL     1      29.108  30.875  25.069  1.00  0.00    -0.011 C 
ATOM     10  C   UNL     1      28.928  31.502  26.468  1.00  0.00     0.008 C 
BRANCH   9  11
ATOM     11  C   UNL     1      27.988  29.826  24.752  1.00  0.00    -0.002 C 
ATOM     12  C   UNL     1      28.395  28.847  23.612  1.00  0.00     0.005 C 
ATOM     13  C   UNL     1      27.508  28.878  25.903  1.00  0.00    -0.026 C 
ATOM     14  C   UNL     1      27.711  27.501  23.891  1.00  0.00     0.005 C 
ATOM     15  C   UNL     1      26.794  27.800  25.066  1.00  0.00    -0.001 C 
ATOM     16  C   UNL     1      26.465  29.517  26.889  1.00  0.00     0.007 C 
ATOM     17  C   UNL     1      28.739  28.302  26.678  1.00  0.00     0.012 C 
ATOM     18  C   UNL     1      26.126  26.639  25.857  1.00  0.00     0.000 C 
ATOM     19  C   UNL     1      25.267  28.590  27.263  1.00  0.00     0.005 C 
ATOM     20  C   UNL     1      25.667  27.092  27.269  1.00  0.00     0.003 C 
ATOM     21  C   UNL     1      26.918  25.337  26.014  1.00  0.00     0.031 C 
ATOM     22  C   UNL     1      24.617  26.080  27.867  1.00  0.00    -0.008 C 
ATOM     23  C   UNL     1      26.042  24.308  26.691  1.00  0.00    -0.027 C 
ATOM     24  C   UNL     1      25.001  24.625  27.509  1.00  0.00    -0.065 C 
ATOM     25  C   UNL     1      23.184  26.355  27.322  1.00  0.00     0.014 C 
ATOM     26  C   UNL     1      24.625  26.231  29.412  1.00  0.00     0.016 C 
ATOM     27  C   UNL     1      24.023  23.534  27.894  1.00  0.00     0.063 C 
ATOM     28  C   UNL     1      22.162  25.262  27.697  1.00  0.00     0.033 C 
ATOM     29  C   UNL     1      22.648  23.859  27.286  1.00  0.00     0.118 C 
BRANCH  29  30
ATOM     30  O   UNL     1      21.707  22.881  27.646  1.00  0.00    -0.393 OA
ATOM     31  H   UNL     1      22.205  22.054  27.873  1.00  0.00     0.210 HD
ENDBRANCH  29  30
ENDBRANCH   9  11
ENDBRANCH   1   9
TORSDOF 7
ENDMDL
MODEL 2
REMARK VINA RESULT:    21.149      3.055      8.377
REMARK INTER + INTRA:          28.875
REMARK INTER:                  27.919
REMARK INTRA:                   0.956
REMARK UNBOUND:                -0.310
REMARK SMILES CC[C@H](CC[C@@H](C)[C@H]1CC[C@H]2[C@H]3CC=C4C[C@@H](O)CC[C@]4(C)[C@@H]3CC[C@]12C)C(C)C
REMARK SMILES IDX 5 1 4 2 3 3 2 4 1 5 28 6 29 7 30 8 6 9 7 10 8 11 9 12 26 13
REMARK SMILES IDX 10 14 11 15 25 16 27 17 12 18 24 19 23 20 13 21 21 22 14 23
REMARK SMILES IDX 15 24 20 25 22 26 16 27 19 28 17 29 18 30
REMARK H PARENT 18 31
REMARK Flexibility Score: inf
ROOT
ATOM      1  C   UNL     1      25.261  24.135  28.504  1.00  0.00     0.004 C 
ENDROOT
BRANCH   1   2
ATOM      2  C   UNL     1      24.469  25.431  28.236  1.00  0.00     0.004 C 
BRANCH   2   3
ATOM      3  C   UNL     1      22.945  25.255  28.507  1.00  0.00    -0.009 C 
BRANCH   3   4
ATOM      4  C   UNL     1      22.360  26.587  29.054  1.00  0.00     0.000 C 
ATOM      5  C   UNL     1      22.918  27.837  28.372  1.00  0.00     0.004 C 
ENDBRANCH   3   4
BRANCH   3   6
ATOM      6  C   UNL     1      22.167  24.717  27.257  1.00  0.00    -0.014 C 
ATOM      7  C   UNL     1      20.823  25.438  27.065  1.00  0.00     0.007 C 
ATOM      8  C   UNL     1      21.961  23.196  27.262  1.00  0.00     0.007 C 
ENDBRANCH   3   6
ENDBRANCH   2   3
ENDBRANCH   1   2
BRANCH   1   9
ATOM      9  C   UNL     1      26.252  23.807  27.349  1.00  0.00    -0.011 C 
ATOM     10  C   UNL     1      25.436  23.427  26.096  1.00  0.00     0.008 C 
BRANCH   9  11
ATOM     11  C   UNL     1      27.218  25.010  27.073  1.00  0.00    -0.002 C 
ATOM     12  C   UNL     1      28.602  24.549  26.529  1.00  0.00     0.005 C 
ATOM     13  C   UNL     1      26.765  26.109  26.054  1.00  0.00    -0.026 C 
ATOM     14  C   UNL     1      29.124  25.653  25.598  1.00  0.00     0.005 C 
ATOM     15  C   UNL     1      28.123  26.782  25.781  1.00  0.00    -0.001 C 
ATOM     16  C   UNL     1      25.783  27.187  26.642  1.00  0.00     0.007 C 
ATOM     17  C   UNL     1      26.169  25.443  24.769  1.00  0.00     0.012 C 
ATOM     18  C   UNL     1      28.113  27.990  24.801  1.00  0.00     0.000 C 
ATOM     19  C   UNL     1      26.109  28.657  26.235  1.00  0.00     0.005 C 
ATOM     20  C   UNL     1      26.758  28.746  24.830  1.00  0.00     0.003 C 
ATOM     21  C   UNL     1      28.472  27.722  23.337  1.00  0.00     0.031 C 
ATOM     22  C   UNL     1      26.906  30.185  24.206  1.00  0.00    -0.008 C 
ATOM     23  C   UNL     1      28.533  29.037  22.596  1.00  0.00    -0.027 C 
ATOM     24  C   UNL     1      27.851  30.152  22.981  1.00  0.00    -0.065 C 
ATOM     25  C   UNL     1      27.484  31.199  25.239  1.00  0.00     0.014 C 
ATOM     26  C   UNL     1      25.504  30.658  23.740  1.00  0.00     0.016 C 
ATOM     27  C   UNL     1      28.209  31.478  22.344  1.00  0.00     0.063 C 
ATOM     28  C   UNL     1      27.858  32.562  24.622  1.00  0.00     0.033 C 
ATOM     29  C   UNL     1      28.806  32.403  23.418  1.00  0.00     0.118 C 
BRANCH  29  30
ATOM     30  O   UNL     1      29.125  33.655  22.867  1.00  0.00    -0.393 OA
ATOM     31  H   UNL     1      28.358  33.940  22.306  1.00  0.00     0.210 HD
ENDBRANCH  29  30
ENDBRANCH   9  11
ENDBRANCH   1   9
TORSDOF 7
ENDMDL
MODEL 3
REMARK VINA RESULT:    21.444      3.102      8.373
REMARK INTER + INTRA:          29.283
REMARK INTER:                  26.949
REMARK INTRA:                   2.334
REMARK UNBOUND:                -0.310
REMARK SMILES CC[C@H](CC[C@@H](C)[C@H]1CC[C@H]2[C@H]3CC=C4C[C@@H](O)CC[C@]4(C)[C@@H]3CC[C@]12C)C(C)C
REMARK SMILES IDX 5 1 4 2 3 3 2 4 1 5 28 6 29 7 30 8 6 9 7 10 8 11 9 12 26 13
REMARK SMILES IDX 10 14 11 15 25 16 27 17 12 18 24 19 23 20 13 21 21 22 14 23
REMARK SMILES IDX 15 24 20 25 22 26 16 27 19 28 17 29 18 30
REMARK H PARENT 18 31
REMARK Flexibility Score: inf
ROOT
ATOM      1  C   UNL     1      24.069  23.164  25.790  1.00  0.00     0.004 C 
ENDROOT
BRANCH   1   2
ATOM      2  C   UNL     1      25.540  22.877  25.426  1.00  0.00     0.004 C 
BRANCH   2   3
ATOM      3  C   UNL     1      26.015  23.710  24.198  1.00  0.00    -0.009 C 
BRANCH   3   4
ATOM      4  C   UNL     1      27.555  23.904  24.269  1.00  0.00     0.000 C 
ATOM      5  C   UNL     1      28.182  23.421  25.577  1.00  0.00     0.004 C 
ENDBRANCH   3   4
BRANCH   3   6
ATOM      6  C   UNL     1      25.540  23.099  22.835  1.00  0.00    -0.014 C 
ATOM      7  C   UNL     1      26.083  23.890  21.633  1.00  0.00     0.007 C 
ATOM      8  C   UNL     1      24.018  22.939  22.723  1.00  0.00     0.007 C 
ENDBRANCH   3   6
ENDBRANCH   2   3
ENDBRANCH   1   2
BRANCH   1   9
ATOM      9  C   UNL     1      23.938  23.880  27.167  1.00  0.00    -0.011 C 
ATOM     10  C   UNL     1      25.046  23.349  28.102  1.00  0.00     0.008 C 
BRANCH   9  11
ATOM     11  C   UNL     1      24.008  25.436  27.006  1.00  0.00    -0.002 C 
ATOM     12  C   UNL     1      23.690  26.186  28.333  1.00  0.00     0.005 C 
ATOM     13  C   UNL     1      25.356  26.076  26.531  1.00  0.00    -0.026 C 
ATOM     14  C   UNL     1      24.499  27.492  28.332  1.00  0.00     0.005 C 
ATOM     15  C   UNL     1      25.103  27.540  26.938  1.00  0.00    -0.001 C 
ATOM     16  C   UNL     1      25.597  26.024  24.979  1.00  0.00     0.007 C 
ATOM     17  C   UNL     1      26.558  25.448  27.311  1.00  0.00     0.012 C 
ATOM     18  C   UNL     1      26.233  28.556  26.605  1.00  0.00     0.000 C 
ATOM     19  C   UNL     1      26.149  27.345  24.359  1.00  0.00     0.005 C 
ATOM     20  C   UNL     1      27.044  28.128  25.353  1.00  0.00     0.003 C 
ATOM     21  C   UNL     1      27.229  28.902  27.717  1.00  0.00     0.031 C 
ATOM     22  C   UNL     1      27.856  29.346  24.769  1.00  0.00    -0.008 C 
ATOM     23  C   UNL     1      28.150  29.996  27.229  1.00  0.00    -0.027 C 
ATOM     24  C   UNL     1      28.428  30.217  25.914  1.00  0.00    -0.065 C 
ATOM     25  C   UNL     1      26.961  30.251  23.870  1.00  0.00     0.014 C 
ATOM     26  C   UNL     1      29.037  28.786  23.933  1.00  0.00     0.016 C 
ATOM     27  C   UNL     1      29.123  31.505  25.526  1.00  0.00     0.063 C 
ATOM     28  C   UNL     1      27.640  31.573  23.455  1.00  0.00     0.033 C 
ATOM     29  C   UNL     1      28.162  32.354  24.676  1.00  0.00     0.118 C 
BRANCH  29  30
ATOM     30  O   UNL     1      28.784  33.547  24.274  1.00  0.00    -0.393 OA
ATOM     31  H   UNL     1      29.091  33.425  23.338  1.00  0.00     0.210 HD
ENDBRANCH  29  30
ENDBRANCH   9  11
ENDBRANCH   1   9
TORSDOF 7
ENDMDL
MODEL 4
REMARK VINA RESULT:    23.663      2.365      4.090
REMARK INTER + INTRA:          32.344
REMARK INTER:                  30.470
REMARK INTRA:                   1.874
REMARK UNBOUND:                -0.310
REMARK SMILES CC[C@H](CC[C@@H](C)[C@H]1CC[C@H]2[C@H]3CC=C4C[C@@H](O)CC[C@]4(C)[C@@H]3CC[C@]12C)C(C)C
REMARK SMILES IDX 5 1 4 2 3 3 2 4 1 5 28 6 29 7 30 8 6 9 7 10 8 11 9 12 26 13
REMARK SMILES IDX 10 14 11 15 25 16 27 17 12 18 24 19 23 20 13 21 21 22 14 23
REMARK SMILES IDX 15 24 20 25 22 26 16 27 19 28 17 29 18 30
REMARK H PARENT 18 31
REMARK Flexibility Score: inf
ROOT
ATOM      1  C   UNL     1      27.910  34.239  23.392  1.00  0.00     0.004 C 
ENDROOT
BRANCH   1   2
ATOM      2  C   UNL     1      28.733  35.408  22.812  1.00  0.00     0.004 C 
BRANCH   2   3
ATOM      3  C   UNL     1      27.970  36.159  21.681  1.00  0.00    -0.009 C 
BRANCH   3   4
ATOM      4  C   UNL     1      28.210  35.435  20.327  1.00  0.00     0.000 C 
ATOM      5  C   UNL     1      29.125  36.199  19.369  1.00  0.00     0.004 C 
ENDBRANCH   3   4
BRANCH   3   6
ATOM      6  C   UNL     1      26.449  36.355  22.005  1.00  0.00    -0.014 C 
ATOM      7  C   UNL     1      26.057  35.692  23.336  1.00  0.00     0.007 C 
ATOM      8  C   UNL     1      25.511  35.891  20.882  1.00  0.00     0.007 C 
ENDBRANCH   3   6
ENDBRANCH   2   3
ENDBRANCH   1   2
BRANCH   1   9
ATOM      9  C   UNL     1      28.181  32.904  22.635  1.00  0.00    -0.011 C 
ATOM     10  C   UNL     1      29.119  33.198  21.446  1.00  0.00     0.008 C 
BRANCH   9  11
ATOM     11  C   UNL     1      28.777  31.819  23.595  1.00  0.00    -0.002 C 
ATOM     12  C   UNL     1      28.987  32.356  25.041  1.00  0.00     0.005 C 
ATOM     13  C   UNL     1      27.976  30.490  23.804  1.00  0.00    -0.026 C 
ATOM     14  C   UNL     1      28.792  31.176  26.006  1.00  0.00     0.005 C 
ATOM     15  C   UNL     1      28.663  29.975  25.083  1.00  0.00    -0.001 C 
ATOM     16  C   UNL     1      28.170  29.420  22.669  1.00  0.00     0.007 C 
ATOM     17  C   UNL     1      26.460  30.801  24.035  1.00  0.00     0.012 C 
ATOM     18  C   UNL     1      28.163  28.609  25.635  1.00  0.00     0.000 C 
ATOM     19  C   UNL     1      28.376  27.960  23.176  1.00  0.00     0.005 C 
ATOM     20  C   UNL     1      27.627  27.691  24.505  1.00  0.00     0.003 C 
ATOM     21  C   UNL     1      27.121  28.634  26.758  1.00  0.00     0.031 C 
ATOM     22  C   UNL     1      27.554  26.193  24.989  1.00  0.00    -0.008 C 
ATOM     23  C   UNL     1      26.878  27.221  27.234  1.00  0.00    -0.027 C 
ATOM     24  C   UNL     1      27.082  26.119  26.461  1.00  0.00    -0.065 C 
ATOM     25  C   UNL     1      28.942  25.492  24.888  1.00  0.00     0.014 C 
ATOM     26  C   UNL     1      26.527  25.445  24.098  1.00  0.00     0.016 C 
ATOM     27  C   UNL     1      27.086  24.758  27.124  1.00  0.00     0.063 C 
ATOM     28  C   UNL     1      28.981  24.101  25.554  1.00  0.00     0.033 C 
ATOM     29  C   UNL     1      28.496  24.153  27.015  1.00  0.00     0.118 C 
BRANCH  29  30
ATOM     30  O   UNL     1      28.531  22.876  27.597  1.00  0.00    -0.393 OA
ATOM     31  H   UNL     1      28.920  22.969  28.504  1.00  0.00     0.210 HD
ENDBRANCH  29  30
ENDBRANCH   9  11
ENDBRANCH   1   9
TORSDOF 7
ENDMDL
MODEL 5
REMARK VINA RESULT:    23.766      2.463      4.455
REMARK INTER + INTRA:          32.487
REMARK INTER:                  28.235
REMARK INTRA:                   4.251
REMARK UNBOUND:                -0.310
REMARK SMILES CC[C@H](CC[C@@H](C)[C@H]1CC[C@H]2[C@H]3CC=C4C[C@@H](O)CC[C@]4(C)[C@@H]3CC[C@]12C)C(C)C
REMARK SMILES IDX 5 1 4 2 3 3 2 4 1 5 28 6 29 7 30 8 6 9 7 10 8 11 9 12 26 13
REMARK SMILES IDX 10 14 11 15 25 16 27 17 12 18 24 19 23 20 13 21 21 22 14 23
REMARK SMILES IDX 15 24 20 25 22 26 16 27 19 28 17 29 18 30
REMARK H PARENT 18 31
REMARK Flexibility Score: inf
ROOT
ATOM      1  C   UNL     1      27.357  34.214  23.593  1.00  0.00     0.004 C 
ENDROOT
BRANCH   1   2
ATOM      2  C   UNL     1      27.388  35.611  22.942  1.00  0.00     0.004 C 
BRANCH   2   3
ATOM      3  C   UNL     1      26.761  35.609  21.516  1.00  0.00    -0.009 C 
BRANCH   3   4
ATOM      4  C   UNL     1      25.727  36.765  21.404  1.00  0.00     0.000 C 
ATOM      5  C   UNL     1      24.364  36.439  22.016  1.00  0.00     0.004 C 
ENDBRANCH   3   4
BRANCH   3   6
ATOM      6  C   UNL     1      27.841  35.646  20.381  1.00  0.00    -0.014 C 
ATOM      7  C   UNL     1      28.211  34.235  19.896  1.00  0.00     0.007 C 
ATOM      8  C   UNL     1      29.106  36.431  20.753  1.00  0.00     0.007 C 
ENDBRANCH   3   6
ENDBRANCH   2   3
ENDBRANCH   1   2
BRANCH   1   9
ATOM      9  C   UNL     1      28.069  33.144  22.713  1.00  0.00    -0.011 C 
ATOM     10  C   UNL     1      29.114  33.855  21.827  1.00  0.00     0.008 C 
BRANCH   9  11
ATOM     11  C   UNL     1      28.718  32.024  23.596  1.00  0.00    -0.002 C 
ATOM     12  C   UNL     1      28.982  32.496  25.056  1.00  0.00     0.005 C 
ATOM     13  C   UNL     1      27.942  30.675  23.775  1.00  0.00    -0.026 C 
ATOM     14  C   UNL     1      28.842  31.270  25.971  1.00  0.00     0.005 C 
ATOM     15  C   UNL     1      28.688  30.111  24.999  1.00  0.00    -0.001 C 
ATOM     16  C   UNL     1      28.100  29.662  22.584  1.00  0.00     0.007 C 
ATOM     17  C   UNL     1      26.433  30.955  24.083  1.00  0.00     0.012 C 
ATOM     18  C   UNL     1      28.227  28.715  25.508  1.00  0.00     0.000 C 
ATOM     19  C   UNL     1      28.344  28.182  23.014  1.00  0.00     0.005 C 
ATOM     20  C   UNL     1      27.654  27.843  24.359  1.00  0.00     0.003 C 
ATOM     21  C   UNL     1      27.233  28.674  26.673  1.00  0.00     0.031 C 
ATOM     22  C   UNL     1      27.619  26.323  24.776  1.00  0.00    -0.008 C 
ATOM     23  C   UNL     1      27.026  27.238  27.092  1.00  0.00    -0.027 C 
ATOM     24  C   UNL     1      27.210  26.175  26.261  1.00  0.00    -0.065 C 
ATOM     25  C   UNL     1      29.010  25.646  24.584  1.00  0.00     0.014 C 
ATOM     26  C   UNL     1      26.564  25.603  23.895  1.00  0.00     0.016 C 
ATOM     27  C   UNL     1      27.257  24.785  26.859  1.00  0.00     0.063 C 
ATOM     28  C   UNL     1      29.092  24.227  25.182  1.00  0.00     0.033 C 
ATOM     29  C   UNL     1      28.669  24.205  26.664  1.00  0.00     0.118 C 
BRANCH  29  30
ATOM     30  O   UNL     1      28.743  22.903  27.183  1.00  0.00    -0.393 OA
ATOM     31  H   UNL     1      29.371  22.920  27.950  1.00  0.00     0.210 HD
ENDBRANCH  29  30
ENDBRANCH   9  11
ENDBRANCH   1   9
TORSDOF 7
ENDMDL
