MODEL 1
REMARK VINA RESULT:    -7.426      0.000      0.000
REMARK INTER + INTRA:         -11.858
REMARK INTER:                 -10.900
REMARK INTRA:                  -0.958
REMARK UNBOUND:                -0.958
REMARK SMILES Cc1cc2c(C(C)C)c(O)c(O)c(C=O)c2c(O)c1-c1c(C)cc2c(C(C)C)c(O)c(O)c(C=O)c2c1O
REMARK SMILES IDX 1 1 2 2 3 3 4 4 16 5 13 6 11 7 9 8 5 9 17 10 19 11 20 12
REMARK SMILES IDX 37 13 21 14 36 15 23 16 22 17 24 18 33 19 25 20 31 21 29 22
REMARK SMILES IDX 38 23 34 25 35 26 26 27 27 28 28 29 32 30 30 32 18 34 6 36
REMARK SMILES IDX 7 37 8 38 14 39 15 40 10 41 12 43
REMARK H PARENT 38 24 32 31 30 33 18 35 10 42 12 44
REMARK Flexibility Score: inf
ROOT
ATOM      1  C   UNL     1      32.722  -2.942  74.796  1.00  0.00     0.045 C 
ATOM      2  C   UNL     1      33.114  -2.562  76.204  1.00  0.00    -0.039 A 
ATOM      3  C   UNL     1      32.182  -2.690  77.234  1.00  0.00     0.013 A 
ATOM      4  C   UNL     1      32.483  -2.324  78.564  1.00  0.00    -0.006 A 
ATOM      5  C   UNL     1      33.811  -1.903  78.878  1.00  0.00     0.039 A 
ATOM      6  C   UNL     1      34.152  -1.661  80.244  1.00  0.00     0.072 A 
ATOM      7  C   UNL     1      33.204  -1.901  81.259  1.00  0.00     0.169 A 
ATOM      8  C   UNL     1      31.905  -2.307  80.936  1.00  0.00     0.162 A 
ATOM      9  C   UNL     1      31.493  -2.408  79.591  1.00  0.00     0.008 A 
ATOM     10  C   UNL     1      34.764  -1.777  77.820  1.00  0.00     0.132 A 
ATOM     11  C   UNL     1      34.404  -2.091  76.491  1.00  0.00     0.031 A 
ENDROOT
BRANCH  11  12
ATOM     12  C   UNL     1      35.398  -1.959  75.393  1.00  0.00     0.031 A 
ATOM     13  C   UNL     1      35.375  -0.829  74.549  1.00  0.00     0.132 A 
ATOM     14  C   UNL     1      36.384  -2.945  75.221  1.00  0.00    -0.039 A 
ATOM     15  C   UNL     1      36.294  -0.718  73.463  1.00  0.00     0.039 A 
ATOM     16  C   UNL     1      37.339  -2.795  74.215  1.00  0.00     0.013 A 
ATOM     17  C   UNL     1      36.479  -4.125  76.159  1.00  0.00     0.045 C 
ATOM     18  C   UNL     1      37.294  -1.723  73.296  1.00  0.00    -0.006 A 
ATOM     19  C   UNL     1      36.279   0.394  72.569  1.00  0.00     0.072 A 
ATOM     20  C   UNL     1      38.253  -1.613  72.242  1.00  0.00     0.008 A 
ATOM     21  C   UNL     1      37.344   0.580  71.666  1.00  0.00     0.169 A 
ATOM     22  C   UNL     1      38.338  -0.395  71.534  1.00  0.00     0.162 A 
BRANCH  13  23
ATOM     23  O   UNL     1      34.468   0.202  74.816  1.00  0.00    -0.507 OA
ATOM     24  H   UNL     1      34.352   1.020  74.231  1.00  0.00     0.293 HD
ENDBRANCH  13  23
BRANCH  19  25
ATOM     25  C   UNL     1      35.157   1.354  72.519  1.00  0.00     0.264 C 
ATOM     26  O   UNL     1      34.481   1.487  71.463  1.00  0.00    -0.298 OA
ENDBRANCH  19  25
BRANCH  20  27
ATOM     27  C   UNL     1      39.208  -2.768  71.887  1.00  0.00     0.017 C 
ATOM     28  C   UNL     1      38.440  -3.946  71.283  1.00  0.00     0.012 C 
ATOM     29  C   UNL     1      40.096  -3.223  73.061  1.00  0.00     0.012 C 
ENDBRANCH  20  27
BRANCH  21  30
ATOM     30  O   UNL     1      37.429   1.719  70.856  1.00  0.00    -0.504 OA
ATOM     31  H   UNL     1      36.767   1.944  70.124  1.00  0.00     0.293 HD
ENDBRANCH  21  30
BRANCH  22  32
ATOM     32  O   UNL     1      39.419  -0.156  70.683  1.00  0.00    -0.504 OA
ATOM     33  H   UNL     1      39.423   0.579  69.986  1.00  0.00     0.293 HD
ENDBRANCH  22  32
ENDBRANCH  11  12
BRANCH  10  34
ATOM     34  O   UNL     1      36.070  -1.350  78.085  1.00  0.00    -0.507 OA
ATOM     35  H   UNL     1      36.831  -1.401  77.420  1.00  0.00     0.293 HD
ENDBRANCH  10  34
BRANCH   9  36
ATOM     36  C   UNL     1      30.003  -2.627  79.267  1.00  0.00     0.017 C 
ATOM     37  C   UNL     1      29.519  -3.975  79.807  1.00  0.00     0.012 C 
ATOM     38  C   UNL     1      29.088  -1.478  79.732  1.00  0.00     0.012 C 
ENDBRANCH   9  36
BRANCH   6  39
ATOM     39  C   UNL     1      35.488  -1.176  80.645  1.00  0.00     0.264 C 
ATOM     40  O   UNL     1      36.310  -1.949  81.204  1.00  0.00    -0.298 OA
ENDBRANCH   6  39
BRANCH   8  41
ATOM     41  O   UNL     1      31.011  -2.613  81.965  1.00  0.00    -0.504 OA
ATOM     42  H   UNL     1      30.306  -3.335  81.888  1.00  0.00     0.293 HD
ENDBRANCH   8  41
BRANCH   7  43
ATOM     43  O   UNL     1      33.512  -1.713  82.612  1.00  0.00    -0.504 OA
ATOM     44  H   UNL     1      32.938  -1.187  83.258  1.00  0.00     0.293 HD
ENDBRANCH   7  43
TORSDOF 11
ENDMDL
MODEL 2
REMARK VINA RESULT:    -7.302      7.623     12.336
REMARK INTER + INTRA:         -11.675
REMARK INTER:                 -10.885
REMARK INTRA:                  -0.790
REMARK UNBOUND:                -0.958
REMARK SMILES Cc1cc2c(C(C)C)c(O)c(O)c(C=O)c2c(O)c1-c1c(C)cc2c(C(C)C)c(O)c(O)c(C=O)c2c1O
REMARK SMILES IDX 1 1 2 2 3 3 4 4 16 5 13 6 11 7 9 8 5 9 17 10 19 11 20 12
REMARK SMILES IDX 37 13 21 14 36 15 23 16 22 17 24 18 33 19 25 20 31 21 29 22
REMARK SMILES IDX 38 23 34 25 35 26 26 27 27 28 28 29 32 30 30 32 18 34 6 36
REMARK SMILES IDX 7 37 8 38 14 39 15 40 10 41 12 43
REMARK H PARENT 38 24 32 31 30 33 18 35 10 42 12 44
REMARK Flexibility Score: inf
ROOT
ATOM      1  C   UNL     1      24.068   0.879  81.843  1.00  0.00     0.045 C 
ATOM      2  C   UNL     1      23.826  -0.069  82.993  1.00  0.00    -0.039 A 
ATOM      3  C   UNL     1      22.903   0.272  83.981  1.00  0.00     0.013 A 
ATOM      4  C   UNL     1      22.654  -0.561  85.093  1.00  0.00    -0.006 A 
ATOM      5  C   UNL     1      23.298  -1.836  85.155  1.00  0.00     0.039 A 
ATOM      6  C   UNL     1      22.947  -2.734  86.209  1.00  0.00     0.072 A 
ATOM      7  C   UNL     1      21.935  -2.383  87.125  1.00  0.00     0.169 A 
ATOM      8  C   UNL     1      21.318  -1.130  87.056  1.00  0.00     0.162 A 
ATOM      9  C   UNL     1      21.748  -0.162  86.124  1.00  0.00     0.008 A 
ATOM     10  C   UNL     1      24.240  -2.183  84.137  1.00  0.00     0.132 A 
ATOM     11  C   UNL     1      24.509  -1.291  83.075  1.00  0.00     0.031 A 
ENDROOT
BRANCH  11  12
ATOM     12  C   UNL     1      25.490  -1.656  82.019  1.00  0.00     0.031 A 
ATOM     13  C   UNL     1      25.040  -2.111  80.762  1.00  0.00     0.132 A 
ATOM     14  C   UNL     1      26.866  -1.512  82.264  1.00  0.00    -0.039 A 
ATOM     15  C   UNL     1      25.974  -2.510  79.760  1.00  0.00     0.039 A 
ATOM     16  C   UNL     1      27.780  -1.818  81.255  1.00  0.00     0.013 A 
ATOM     17  C   UNL     1      27.370  -0.955  83.573  1.00  0.00     0.045 C 
ATOM     18  C   UNL     1      27.371  -2.359  80.015  1.00  0.00    -0.006 A 
ATOM     19  C   UNL     1      25.557  -3.005  78.489  1.00  0.00     0.072 A 
ATOM     20  C   UNL     1      28.327  -2.711  79.013  1.00  0.00     0.008 A 
ATOM     21  C   UNL     1      26.500  -3.160  77.454  1.00  0.00     0.169 A 
ATOM     22  C   UNL     1      27.864  -2.977  77.706  1.00  0.00     0.162 A 
BRANCH  13  23
ATOM     23  O   UNL     1      23.667  -2.125  80.493  1.00  0.00    -0.507 OA
ATOM     24  H   UNL     1      23.154  -1.335  80.123  1.00  0.00     0.293 HD
ENDBRANCH  13  23
BRANCH  19  25
ATOM     25  C   UNL     1      24.162  -3.409  78.216  1.00  0.00     0.264 C 
ATOM     26  O   UNL     1      23.425  -2.695  77.484  1.00  0.00    -0.298 OA
ENDBRANCH  19  25
BRANCH  20  27
ATOM     27  C   UNL     1      29.835  -2.772  79.313  1.00  0.00     0.017 C 
ATOM     28  C   UNL     1      30.128  -3.761  80.444  1.00  0.00     0.012 C 
ATOM     29  C   UNL     1      30.470  -1.397  79.594  1.00  0.00     0.012 C 
ENDBRANCH  20  27
BRANCH  21  30
ATOM     30  O   UNL     1      26.115  -3.529  76.159  1.00  0.00    -0.504 OA
ATOM     31  H   UNL     1      26.747  -3.912  75.468  1.00  0.00     0.293 HD
ENDBRANCH  21  30
BRANCH  22  32
ATOM     32  O   UNL     1      28.772  -3.069  76.649  1.00  0.00    -0.504 OA
ATOM     33  H   UNL     1      29.758  -2.857  76.747  1.00  0.00     0.293 HD
ENDBRANCH  22  32
ENDBRANCH  11  12
BRANCH  10  34
ATOM     34  O   UNL     1      24.905  -3.414  84.174  1.00  0.00    -0.507 OA
ATOM     35  H   UNL     1      24.526  -4.274  83.797  1.00  0.00     0.293 HD
ENDBRANCH  10  34
BRANCH   9  36
ATOM     36  C   UNL     1      21.217   1.279  86.224  1.00  0.00     0.017 C 
ATOM     37  C   UNL     1      22.370   2.279  86.345  1.00  0.00     0.012 C 
ATOM     38  C   UNL     1      20.255   1.671  85.086  1.00  0.00     0.012 C 
ENDBRANCH   9  36
BRANCH   6  39
ATOM     39  C   UNL     1      23.603  -4.047  86.370  1.00  0.00     0.264 C 
ATOM     40  O   UNL     1      24.787  -4.125  86.791  1.00  0.00    -0.298 OA
ENDBRANCH   6  39
BRANCH   8  41
ATOM     41  O   UNL     1      20.266  -0.839  87.927  1.00  0.00    -0.504 OA
ATOM     42  H   UNL     1      19.373  -0.476  87.615  1.00  0.00     0.293 HD
ENDBRANCH   8  41
BRANCH   7  43
ATOM     43  O   UNL     1      21.536  -3.252  88.148  1.00  0.00    -0.504 OA
ATOM     44  H   UNL     1      21.079  -2.956  89.000  1.00  0.00     0.293 HD
ENDBRANCH   7  43
TORSDOF 11
ENDMDL
MODEL 3
REMARK VINA RESULT:    -7.234      1.508      8.988
REMARK INTER + INTRA:         -11.576
REMARK INTER:                 -11.219
REMARK INTRA:                  -0.357
REMARK UNBOUND:                -0.958
REMARK SMILES Cc1cc2c(C(C)C)c(O)c(O)c(C=O)c2c(O)c1-c1c(C)cc2c(C(C)C)c(O)c(O)c(C=O)c2c1O
REMARK SMILES IDX 1 1 2 2 3 3 4 4 16 5 13 6 11 7 9 8 5 9 17 10 19 11 20 12
REMARK SMILES IDX 37 13 21 14 36 15 23 16 22 17 24 18 33 19 25 20 31 21 29 22
REMARK SMILES IDX 38 23 34 25 35 26 26 27 27 28 28 29 32 30 30 32 18 34 6 36
REMARK SMILES IDX 7 37 8 38 14 39 15 40 10 41 12 43
REMARK H PARENT 38 24 32 31 30 33 18 35 10 42 12 44
REMARK Flexibility Score: inf
ROOT
ATOM      1  C   UNL     1      33.755   1.101  75.906  1.00  0.00     0.045 C 
ATOM      2  C   UNL     1      34.698   0.141  75.221  1.00  0.00    -0.039 A 
ATOM      3  C   UNL     1      35.444   0.576  74.126  1.00  0.00     0.013 A 
ATOM      4  C   UNL     1      36.321  -0.284  73.428  1.00  0.00    -0.006 A 
ATOM      5  C   UNL     1      36.519  -1.610  73.921  1.00  0.00     0.039 A 
ATOM      6  C   UNL     1      37.504  -2.437  73.297  1.00  0.00     0.072 A 
ATOM      7  C   UNL     1      38.303  -1.917  72.259  1.00  0.00     0.169 A 
ATOM      8  C   UNL     1      38.092  -0.619  71.782  1.00  0.00     0.162 A 
ATOM      9  C   UNL     1      37.029   0.168  72.272  1.00  0.00     0.008 A 
ATOM     10  C   UNL     1      35.755  -2.050  75.047  1.00  0.00     0.132 A 
ATOM     11  C   UNL     1      34.840  -1.178  75.676  1.00  0.00     0.031 A 
ENDROOT
BRANCH  11  12
ATOM     12  C   UNL     1      34.047  -1.639  76.846  1.00  0.00     0.031 A 
ATOM     13  C   UNL     1      34.617  -1.627  78.137  1.00  0.00     0.132 A 
ATOM     14  C   UNL     1      32.716  -2.053  76.669  1.00  0.00    -0.039 A 
ATOM     15  C   UNL     1      33.880  -2.114  79.258  1.00  0.00     0.039 A 
ATOM     16  C   UNL     1      31.965  -2.447  77.777  1.00  0.00     0.013 A 
ATOM     17  C   UNL     1      32.059  -2.003  75.311  1.00  0.00     0.045 C 
ATOM     18  C   UNL     1      32.527  -2.531  79.070  1.00  0.00    -0.006 A 
ATOM     19  C   UNL     1      34.435  -2.147  80.572  1.00  0.00     0.072 A 
ATOM     20  C   UNL     1      31.754  -2.983  80.184  1.00  0.00     0.008 A 
ATOM     21  C   UNL     1      33.600  -2.409  81.677  1.00  0.00     0.169 A 
ATOM     22  C   UNL     1      32.267  -2.784  81.484  1.00  0.00     0.162 A 
BRANCH  13  23
ATOM     23  O   UNL     1      35.897  -1.091  78.311  1.00  0.00    -0.507 OA
ATOM     24  H   UNL     1      36.637  -1.156  77.624  1.00  0.00     0.293 HD
ENDBRANCH  13  23
BRANCH  19  25
ATOM     25  C   UNL     1      35.877  -1.956  80.827  1.00  0.00     0.264 C 
ATOM     26  O   UNL     1      36.314  -0.833  81.195  1.00  0.00    -0.298 OA
ENDBRANCH  19  25
BRANCH  20  27
ATOM     27  C   UNL     1      30.376  -3.643  80.002  1.00  0.00     0.017 C 
ATOM     28  C   UNL     1      30.185  -4.123  78.561  1.00  0.00     0.012 C 
ATOM     29  C   UNL     1      29.198  -2.760  80.458  1.00  0.00     0.012 C 
ENDBRANCH  20  27
BRANCH  21  30
ATOM     30  O   UNL     1      34.078  -2.334  82.991  1.00  0.00    -0.504 OA
ATOM     31  H   UNL     1      33.503  -2.474  83.812  1.00  0.00     0.293 HD
ENDBRANCH  21  30
BRANCH  22  32
ATOM     32  O   UNL     1      31.443  -2.972  82.595  1.00  0.00    -0.504 OA
ATOM     33  H   UNL     1      30.563  -2.485  82.719  1.00  0.00     0.293 HD
ENDBRANCH  22  32
ENDBRANCH  11  12
BRANCH  10  34
ATOM     34  O   UNL     1      35.909  -3.348  75.547  1.00  0.00    -0.507 OA
ATOM     35  H   UNL     1      36.680  -3.644  76.131  1.00  0.00     0.293 HD
ENDBRANCH  10  34
BRANCH   9  36
ATOM     36  C   UNL     1      36.677   1.493  71.571  1.00  0.00     0.017 C 
ATOM     37  C   UNL     1      35.324   1.392  70.860  1.00  0.00     0.012 C 
ATOM     38  C   UNL     1      36.731   2.723  72.497  1.00  0.00     0.012 C 
ENDBRANCH   9  36
BRANCH   6  39
ATOM     39  C   UNL     1      37.733  -3.834  73.716  1.00  0.00     0.264 C 
ATOM     40  O   UNL     1      38.693  -4.125  74.478  1.00  0.00    -0.298 OA
ENDBRANCH   6  39
BRANCH   8  41
ATOM     41  O   UNL     1      38.949  -0.104  70.807  1.00  0.00    -0.504 OA
ATOM     42  H   UNL     1      38.647   0.117  69.866  1.00  0.00     0.293 HD
ENDBRANCH   8  41
BRANCH   7  43
ATOM     43  O   UNL     1      39.303  -2.682  71.648  1.00  0.00    -0.504 OA
ATOM     44  H   UNL     1      40.119  -2.294  71.193  1.00  0.00     0.293 HD
ENDBRANCH   7  43
TORSDOF 11
ENDMDL
MODEL 4
REMARK VINA RESULT:    -6.289      7.766     12.568
REMARK INTER + INTRA:         -10.189
REMARK INTER:                 -10.590
REMARK INTRA:                   0.401
REMARK UNBOUND:                -0.958
REMARK SMILES Cc1cc2c(C(C)C)c(O)c(O)c(C=O)c2c(O)c1-c1c(C)cc2c(C(C)C)c(O)c(O)c(C=O)c2c1O
REMARK SMILES IDX 1 1 2 2 3 3 4 4 16 5 13 6 11 7 9 8 5 9 17 10 19 11 20 12
REMARK SMILES IDX 37 13 21 14 36 15 23 16 22 17 24 18 33 19 25 20 31 21 29 22
REMARK SMILES IDX 38 23 34 25 35 26 26 27 27 28 28 29 32 30 30 32 18 34 6 36
REMARK SMILES IDX 7 37 8 38 14 39 15 40 10 41 12 43
REMARK H PARENT 38 24 32 31 30 33 18 35 10 42 12 44
REMARK Flexibility Score: inf
ROOT
ATOM      1  C   UNL     1      25.666  -4.123  84.492  1.00  0.00     0.045 C 
ATOM      2  C   UNL     1      24.710  -2.954  84.501  1.00  0.00    -0.039 A 
ATOM      3  C   UNL     1      23.854  -2.776  85.588  1.00  0.00     0.013 A 
ATOM      4  C   UNL     1      22.921  -1.718  85.639  1.00  0.00    -0.006 A 
ATOM      5  C   UNL     1      22.922  -0.747  84.591  1.00  0.00     0.039 A 
ATOM      6  C   UNL     1      22.072   0.395  84.708  1.00  0.00     0.072 A 
ATOM      7  C   UNL     1      21.300   0.581  85.872  1.00  0.00     0.169 A 
ATOM      8  C   UNL     1      21.303  -0.381  86.887  1.00  0.00     0.162 A 
ATOM      9  C   UNL     1      22.013  -1.591  86.736  1.00  0.00     0.008 A 
ATOM     10  C   UNL     1      23.805  -0.932  83.481  1.00  0.00     0.132 A 
ATOM     11  C   UNL     1      24.678  -2.041  83.437  1.00  0.00     0.031 A 
ENDROOT
BRANCH  11  12
ATOM     12  C   UNL     1      25.594  -2.229  82.281  1.00  0.00     0.031 A 
ATOM     13  C   UNL     1      25.088  -2.677  81.043  1.00  0.00     0.132 A 
ATOM     14  C   UNL     1      26.959  -1.925  82.415  1.00  0.00    -0.039 A 
ATOM     15  C   UNL     1      25.967  -2.906  79.942  1.00  0.00     0.039 A 
ATOM     16  C   UNL     1      27.806  -2.065  81.314  1.00  0.00     0.013 A 
ATOM     17  C   UNL     1      27.512  -1.372  83.706  1.00  0.00     0.045 C 
ATOM     18  C   UNL     1      27.353  -2.593  80.085  1.00  0.00    -0.006 A 
ATOM     19  C   UNL     1      25.496  -3.389  78.685  1.00  0.00     0.072 A 
ATOM     20  C   UNL     1      28.247  -2.775  78.985  1.00  0.00     0.008 A 
ATOM     21  C   UNL     1      26.352  -3.375  77.566  1.00  0.00     0.169 A 
ATOM     22  C   UNL     1      27.700  -3.035  77.709  1.00  0.00     0.162 A 
BRANCH  13  23
ATOM     23  O   UNL     1      23.708  -2.850  80.893  1.00  0.00    -0.507 OA
ATOM     24  H   UNL     1      23.139  -3.420  81.506  1.00  0.00     0.293 HD
ENDBRANCH  13  23
BRANCH  19  25
ATOM     25  C   UNL     1      24.141  -3.951  78.510  1.00  0.00     0.264 C 
ATOM     26  O   UNL     1      23.301  -3.367  77.775  1.00  0.00    -0.298 OA
ENDBRANCH  19  25
BRANCH  20  27
ATOM     27  C   UNL     1      29.773  -2.660  79.150  1.00  0.00     0.017 C 
ATOM     28  C   UNL     1      30.317  -3.803  80.010  1.00  0.00     0.012 C 
ATOM     29  C   UNL     1      30.241  -1.291  79.679  1.00  0.00     0.012 C 
ENDBRANCH  20  27
BRANCH  21  30
ATOM     30  O   UNL     1      25.895  -3.728  76.289  1.00  0.00    -0.504 OA
ATOM     31  H   UNL     1      26.501  -3.876  75.492  1.00  0.00     0.293 HD
ENDBRANCH  21  30
BRANCH  22  32
ATOM     32  O   UNL     1      28.511  -2.961  76.575  1.00  0.00    -0.504 OA
ATOM     33  H   UNL     1      28.261  -3.384  75.689  1.00  0.00     0.293 HD
ENDBRANCH  22  32
ENDBRANCH  11  12
BRANCH  10  34
ATOM     34  O   UNL     1      23.823  -0.013  82.426  1.00  0.00    -0.507 OA
ATOM     35  H   UNL     1      24.353  -0.138  81.573  1.00  0.00     0.293 HD
ENDBRANCH  10  34
BRANCH   9  36
ATOM     36  C   UNL     1      21.811  -2.724  87.759  1.00  0.00     0.017 C 
ATOM     37  C   UNL     1      20.391  -2.698  88.330  1.00  0.00     0.012 C 
ATOM     38  C   UNL     1      22.171  -4.122  87.220  1.00  0.00     0.012 C 
ENDBRANCH   9  36
BRANCH   6  39
ATOM     39  C   UNL     1      21.980   1.416  83.645  1.00  0.00     0.264 C 
ATOM     40  O   UNL     1      20.982   1.455  82.878  1.00  0.00    -0.298 OA
ENDBRANCH   6  39
BRANCH   8  41
ATOM     41  O   UNL     1      20.590  -0.134  88.063  1.00  0.00    -0.504 OA
ATOM     42  H   UNL     1      20.930  -0.391  88.981  1.00  0.00     0.293 HD
ENDBRANCH   8  41
BRANCH   7  43
ATOM     43  O   UNL     1      20.484   1.706  86.041  1.00  0.00    -0.504 OA
ATOM     44  H   UNL     1      20.831   2.644  86.185  1.00  0.00     0.293 HD
ENDBRANCH   7  43
TORSDOF 11
ENDMDL
MODEL 5
REMARK VINA RESULT:    -6.193      7.330     15.191
REMARK INTER + INTRA:         -10.048
REMARK INTER:                  -9.437
REMARK INTRA:                  -0.611
REMARK UNBOUND:                -0.958
REMARK SMILES Cc1cc2c(C(C)C)c(O)c(O)c(C=O)c2c(O)c1-c1c(C)cc2c(C(C)C)c(O)c(O)c(C=O)c2c1O
REMARK SMILES IDX 1 1 2 2 3 3 4 4 16 5 13 6 11 7 9 8 5 9 17 10 19 11 20 12
REMARK SMILES IDX 37 13 21 14 36 15 23 16 22 17 24 18 33 19 25 20 31 21 29 22
REMARK SMILES IDX 38 23 34 25 35 26 26 27 27 28 28 29 32 30 30 32 18 34 6 36
REMARK SMILES IDX 7 37 8 38 14 39 15 40 10 41 12 43
REMARK H PARENT 38 24 32 31 30 33 18 35 10 42 12 44
REMARK Flexibility Score: inf
ROOT
ATOM      1  C   UNL     1      27.232  -2.661  84.513  1.00  0.00     0.045 C 
ATOM      2  C   UNL     1      26.869  -2.380  83.075  1.00  0.00    -0.039 A 
ATOM      3  C   UNL     1      27.849  -2.479  82.088  1.00  0.00     0.013 A 
ATOM      4  C   UNL     1      27.575  -2.201  80.731  1.00  0.00    -0.006 A 
ATOM      5  C   UNL     1      26.231  -1.905  80.347  1.00  0.00     0.039 A 
ATOM      6  C   UNL     1      25.928  -1.755  78.959  1.00  0.00     0.072 A 
ATOM      7  C   UNL     1      26.933  -1.964  77.993  1.00  0.00     0.169 A 
ATOM      8  C   UNL     1      28.246  -2.247  78.384  1.00  0.00     0.162 A 
ATOM      9  C   UNL     1      28.610  -2.251  79.747  1.00  0.00     0.008 A 
ATOM     10  C   UNL     1      25.229  -1.809  81.362  1.00  0.00     0.132 A 
ATOM     11  C   UNL     1      25.558  -2.031  82.718  1.00  0.00     0.031 A 
ENDROOT
BRANCH  11  12
ATOM     12  C   UNL     1      24.513  -1.930  83.770  1.00  0.00     0.031 A 
ATOM     13  C   UNL     1      24.466  -0.801  84.615  1.00  0.00     0.132 A 
ATOM     14  C   UNL     1      23.549  -2.944  83.897  1.00  0.00    -0.039 A 
ATOM     15  C   UNL     1      23.496  -0.719  85.659  1.00  0.00     0.039 A 
ATOM     16  C   UNL     1      22.546  -2.824  84.860  1.00  0.00     0.013 A 
ATOM     17  C   UNL     1      23.531  -4.124  82.955  1.00  0.00     0.045 C 
ATOM     18  C   UNL     1      22.519  -1.753  85.781  1.00  0.00    -0.006 A 
ATOM     19  C   UNL     1      23.439   0.392  86.554  1.00  0.00     0.072 A 
ATOM     20  C   UNL     1      21.511  -1.673  86.791  1.00  0.00     0.008 A 
ATOM     21  C   UNL     1      22.329   0.544  87.408  1.00  0.00     0.169 A 
ATOM     22  C   UNL     1      21.359  -0.459  87.495  1.00  0.00     0.162 A 
BRANCH  13  23
ATOM     23  O   UNL     1      25.353   0.257  84.390  1.00  0.00    -0.507 OA
ATOM     24  H   UNL     1      25.426   0.758  83.513  1.00  0.00     0.293 HD
ENDBRANCH  13  23
BRANCH  19  25
ATOM     25  C   UNL     1      24.529   1.384  86.655  1.00  0.00     0.264 C 
ATOM     26  O   UNL     1      25.575   1.114  87.303  1.00  0.00    -0.298 OA
ENDBRANCH  19  25
BRANCH  20  27
ATOM     27  C   UNL     1      20.576  -2.856  87.102  1.00  0.00     0.017 C 
ATOM     28  C   UNL     1      21.313  -3.944  87.885  1.00  0.00     0.012 C 
ATOM     29  C   UNL     1      19.875  -3.438  85.859  1.00  0.00     0.012 C 
ENDBRANCH  20  27
BRANCH  21  30
ATOM     30  O   UNL     1      22.175   1.679  88.215  1.00  0.00    -0.504 OA
ATOM     31  H   UNL     1      22.878   2.015  88.860  1.00  0.00     0.293 HD
ENDBRANCH  21  30
BRANCH  22  32
ATOM     32  O   UNL     1      20.234  -0.254  88.297  1.00  0.00    -0.504 OA
ATOM     33  H   UNL     1      20.006  -0.842  89.090  1.00  0.00     0.293 HD
ENDBRANCH  22  32
ENDBRANCH  11  12
BRANCH  10  34
ATOM     34  O   UNL     1      23.905  -1.503  81.028  1.00  0.00    -0.507 OA
ATOM     35  H   UNL     1      23.099  -1.992  81.396  1.00  0.00     0.293 HD
ENDBRANCH  10  34
BRANCH   9  36
ATOM     36  C   UNL     1      30.098  -2.331  80.136  1.00  0.00     0.017 C 
ATOM     37  C   UNL     1      30.702  -3.672  79.709  1.00  0.00     0.012 C 
ATOM     38  C   UNL     1      30.942  -1.149  79.623  1.00  0.00     0.012 C 
ENDBRANCH   9  36
BRANCH   6  39
ATOM     39  C   UNL     1      24.575  -1.401  78.486  1.00  0.00     0.264 C 
ATOM     40  O   UNL     1      23.911  -2.206  77.782  1.00  0.00    -0.298 OA
ENDBRANCH   6  39
BRANCH   8  41
ATOM     41  O   UNL     1      29.203  -2.526  77.406  1.00  0.00    -0.504 OA
ATOM     42  H   UNL     1      29.941  -1.880  77.154  1.00  0.00     0.293 HD
ENDBRANCH   8  41
BRANCH   7  43
ATOM     43  O   UNL     1      26.667  -1.865  76.623  1.00  0.00    -0.504 OA
ATOM     44  H   UNL     1      26.845  -1.039  76.067  1.00  0.00     0.293 HD
ENDBRANCH   7  43
TORSDOF 11
ENDMDL
MODEL 6
REMARK VINA RESULT:    -6.022     15.692     17.958
REMARK INTER + INTRA:          -9.796
REMARK INTER:                  -9.048
REMARK INTRA:                  -0.748
REMARK UNBOUND:                -0.958
REMARK SMILES Cc1cc2c(C(C)C)c(O)c(O)c(C=O)c2c(O)c1-c1c(C)cc2c(C(C)C)c(O)c(O)c(C=O)c2c1O
REMARK SMILES IDX 1 1 2 2 3 3 4 4 16 5 13 6 11 7 9 8 5 9 17 10 19 11 20 12
REMARK SMILES IDX 37 13 21 14 36 15 23 16 22 17 24 18 33 19 25 20 31 21 29 22
REMARK SMILES IDX 38 23 34 25 35 26 26 27 27 28 28 29 32 30 30 32 18 34 6 36
REMARK SMILES IDX 7 37 8 38 14 39 15 40 10 41 12 43
REMARK H PARENT 38 24 32 31 30 33 18 35 10 42 12 44
REMARK Flexibility Score: inf
ROOT
ATOM      1  C   UNL     1      28.127  15.878  81.329  1.00  0.00     0.045 C 
ATOM      2  C   UNL     1      27.429  15.022  80.300  1.00  0.00    -0.039 A 
ATOM      3  C   UNL     1      26.036  15.037  80.226  1.00  0.00     0.013 A 
ATOM      4  C   UNL     1      25.327  14.238  79.302  1.00  0.00    -0.006 A 
ATOM      5  C   UNL     1      26.065  13.466  78.352  1.00  0.00     0.039 A 
ATOM      6  C   UNL     1      25.351  12.763  77.334  1.00  0.00     0.072 A 
ATOM      7  C   UNL     1      23.951  12.891  77.240  1.00  0.00     0.169 A 
ATOM      8  C   UNL     1      23.242  13.645  78.181  1.00  0.00     0.162 A 
ATOM      9  C   UNL     1      23.898  14.226  79.285  1.00  0.00     0.008 A 
ATOM     10  C   UNL     1      27.492  13.457  78.430  1.00  0.00     0.132 A 
ATOM     11  C   UNL     1      28.161  14.221  79.412  1.00  0.00     0.031 A 
ENDROOT
BRANCH  11  12
ATOM     12  C   UNL     1      29.646  14.209  79.489  1.00  0.00     0.031 A 
ATOM     13  C   UNL     1      30.296  13.479  80.506  1.00  0.00     0.132 A 
ATOM     14  C   UNL     1      30.401  14.895  78.523  1.00  0.00    -0.039 A 
ATOM     15  C   UNL     1      31.719  13.502  80.617  1.00  0.00     0.039 A 
ATOM     16  C   UNL     1      31.795  14.846  78.577  1.00  0.00     0.013 A 
ATOM     17  C   UNL     1      29.732  15.619  77.379  1.00  0.00     0.045 C 
ATOM     18  C   UNL     1      32.480  14.200  79.630  1.00  0.00    -0.006 A 
ATOM     19  C   UNL     1      32.409  12.803  81.652  1.00  0.00     0.072 A 
ATOM     20  C   UNL     1      33.908  14.203  79.694  1.00  0.00     0.008 A 
ATOM     21  C   UNL     1      33.809  12.658  81.584  1.00  0.00     0.169 A 
ATOM     22  C   UNL     1      34.542  13.319  80.594  1.00  0.00     0.162 A 
BRANCH  13  23
ATOM     23  O   UNL     1      29.532  12.699  81.380  1.00  0.00    -0.507 OA
ATOM     24  H   UNL     1      29.851  12.388  82.289  1.00  0.00     0.293 HD
ENDBRANCH  13  23
BRANCH  19  25
ATOM     25  C   UNL     1      31.715  12.251  82.833  1.00  0.00     0.264 C 
ATOM     26  O   UNL     1      32.257  12.302  83.970  1.00  0.00    -0.298 OA
ENDBRANCH  19  25
BRANCH  20  27
ATOM     27  C   UNL     1      34.760  15.112  78.791  1.00  0.00     0.017 C 
ATOM     28  C   UNL     1      35.610  14.281  77.826  1.00  0.00     0.012 C 
ATOM     29  C   UNL     1      35.624  16.125  79.566  1.00  0.00     0.012 C 
ENDBRANCH  20  27
BRANCH  21  30
ATOM     30  O   UNL     1      34.512  11.880  82.513  1.00  0.00    -0.504 OA
ATOM     31  H   UNL     1      34.754  10.909  82.370  1.00  0.00     0.293 HD
ENDBRANCH  21  30
BRANCH  22  32
ATOM     32  O   UNL     1      35.920  13.104  80.506  1.00  0.00    -0.504 OA
ATOM     33  H   UNL     1      36.606  13.787  80.805  1.00  0.00     0.293 HD
ENDBRANCH  22  32
ENDBRANCH  11  12
BRANCH  10  34
ATOM     34  O   UNL     1      28.249  12.699  77.529  1.00  0.00    -0.507 OA
ATOM     35  H   UNL     1      27.870  12.259  76.700  1.00  0.00     0.293 HD
ENDBRANCH  10  34
BRANCH   9  36
ATOM     36  C   UNL     1      23.068  14.847  80.423  1.00  0.00     0.017 C 
ATOM     37  C   UNL     1      22.294  16.073  79.929  1.00  0.00     0.012 C 
ATOM     38  C   UNL     1      22.135  13.847  81.132  1.00  0.00     0.012 C 
ENDBRANCH   9  36
BRANCH   6  39
ATOM     39  C   UNL     1      26.037  11.904  76.347  1.00  0.00     0.264 C 
ATOM     40  O   UNL     1      26.254  12.319  75.178  1.00  0.00    -0.298 OA
ENDBRANCH   6  39
BRANCH   8  41
ATOM     41  O   UNL     1      21.865  13.817  78.017  1.00  0.00    -0.504 OA
ATOM     42  H   UNL     1      21.221  13.046  77.895  1.00  0.00     0.293 HD
ENDBRANCH   8  41
BRANCH   7  43
ATOM     43  O   UNL     1      23.220  12.248  76.233  1.00  0.00    -0.504 OA
ATOM     44  H   UNL     1      22.785  11.341  76.337  1.00  0.00     0.293 HD
ENDBRANCH   7  43
TORSDOF 11
ENDMDL
MODEL 7
REMARK VINA RESULT:    -5.918     15.470     18.485
REMARK INTER + INTRA:          -9.645
REMARK INTER:                  -8.828
REMARK INTRA:                  -0.817
REMARK UNBOUND:                -0.958
REMARK SMILES Cc1cc2c(C(C)C)c(O)c(O)c(C=O)c2c(O)c1-c1c(C)cc2c(C(C)C)c(O)c(O)c(C=O)c2c1O
REMARK SMILES IDX 1 1 2 2 3 3 4 4 16 5 13 6 11 7 9 8 5 9 17 10 19 11 20 12
REMARK SMILES IDX 37 13 21 14 36 15 23 16 22 17 24 18 33 19 25 20 31 21 29 22
REMARK SMILES IDX 38 23 34 25 35 26 26 27 27 28 28 29 32 30 30 32 18 34 6 36
REMARK SMILES IDX 7 37 8 38 14 39 15 40 10 41 12 43
REMARK H PARENT 38 24 32 31 30 33 18 35 10 42 12 44
REMARK Flexibility Score: inf
ROOT
ATOM      1  C   UNL     1      30.120  15.926  77.638  1.00  0.00     0.045 C 
ATOM      2  C   UNL     1      30.775  15.030  78.660  1.00  0.00    -0.039 A 
ATOM      3  C   UNL     1      32.164  15.038  78.791  1.00  0.00     0.013 A 
ATOM      4  C   UNL     1      32.834  14.202  79.710  1.00  0.00    -0.006 A 
ATOM      5  C   UNL     1      32.058  13.396  80.599  1.00  0.00     0.039 A 
ATOM      6  C   UNL     1      32.730  12.651  81.617  1.00  0.00     0.072 A 
ATOM      7  C   UNL     1      34.125  12.772  81.772  1.00  0.00     0.169 A 
ATOM      8  C   UNL     1      34.873  13.560  80.890  1.00  0.00     0.162 A 
ATOM      9  C   UNL     1      34.261  14.185  79.784  1.00  0.00     0.008 A 
ATOM     10  C   UNL     1      30.635  13.394  80.464  1.00  0.00     0.132 A 
ATOM     11  C   UNL     1      30.007  14.197  79.487  1.00  0.00     0.031 A 
ENDROOT
BRANCH  11  12
ATOM     12  C   UNL     1      28.526  14.191  79.350  1.00  0.00     0.031 A 
ATOM     13  C   UNL     1      27.916  13.498  78.284  1.00  0.00     0.132 A 
ATOM     14  C   UNL     1      27.734  14.848  80.307  1.00  0.00    -0.039 A 
ATOM     15  C   UNL     1      26.499  13.528  78.117  1.00  0.00     0.039 A 
ATOM     16  C   UNL     1      26.344  14.805  80.195  1.00  0.00     0.013 A 
ATOM     17  C   UNL     1      28.358  15.532  81.499  1.00  0.00     0.045 C 
ATOM     18  C   UNL     1      25.701  14.196  79.095  1.00  0.00    -0.006 A 
ATOM     19  C   UNL     1      25.850  12.865  77.033  1.00  0.00     0.072 A 
ATOM     20  C   UNL     1      24.277  14.205  78.974  1.00  0.00     0.008 A 
ATOM     21  C   UNL     1      24.449  12.722  77.040  1.00  0.00     0.169 A 
ATOM     22  C   UNL     1      23.677  13.353  78.021  1.00  0.00     0.162 A 
BRANCH  13  23
ATOM     23  O   UNL     1      28.714  12.743  77.417  1.00  0.00    -0.507 OA
ATOM     24  H   UNL     1      29.330  13.145  76.721  1.00  0.00     0.293 HD
ENDBRANCH  13  23
BRANCH  19  25
ATOM     25  C   UNL     1      26.590  12.350  75.863  1.00  0.00     0.264 C 
ATOM     26  O   UNL     1      26.288  12.733  74.701  1.00  0.00    -0.298 OA
ENDBRANCH  19  25
BRANCH  20  27
ATOM     27  C   UNL     1      23.390  15.086  79.872  1.00  0.00     0.017 C 
ATOM     28  C   UNL     1      22.503  14.227  80.776  1.00  0.00     0.012 C 
ATOM     29  C   UNL     1      22.557  16.125  79.096  1.00  0.00     0.012 C 
ENDBRANCH  20  27
BRANCH  21  30
ATOM     30  O   UNL     1      23.782  11.977  76.059  1.00  0.00    -0.504 OA
ATOM     31  H   UNL     1      22.779  11.849  76.028  1.00  0.00     0.293 HD
ENDBRANCH  21  30
BRANCH  22  32
ATOM     32  O   UNL     1      22.297  13.139  78.047  1.00  0.00    -0.504 OA
ATOM     33  H   UNL     1      21.673  13.470  77.321  1.00  0.00     0.293 HD
ENDBRANCH  22  32
ENDBRANCH  11  12
BRANCH  10  34
ATOM     34  O   UNL     1      29.843  12.603  81.304  1.00  0.00    -0.507 OA
ATOM     35  H   UNL     1      29.158  12.972  81.951  1.00  0.00     0.293 HD
ENDBRANCH  10  34
BRANCH   9  36
ATOM     36  C   UNL     1      35.138  14.848  78.705  1.00  0.00     0.017 C 
ATOM     37  C   UNL     1      35.792  16.125  79.241  1.00  0.00     0.012 C 
ATOM     38  C   UNL     1      36.184  13.903  78.084  1.00  0.00     0.012 C 
ENDBRANCH   9  36
BRANCH   6  39
ATOM     39  C   UNL     1      32.004  11.757  82.541  1.00  0.00     0.264 C 
ATOM     40  O   UNL     1      31.890  12.052  83.760  1.00  0.00    -0.298 OA
ENDBRANCH   6  39
BRANCH   8  41
ATOM     41  O   UNL     1      36.242  13.723  81.115  1.00  0.00    -0.504 OA
ATOM     42  H   UNL     1      36.949  13.173  80.643  1.00  0.00     0.293 HD
ENDBRANCH   8  41
BRANCH   7  43
ATOM     43  O   UNL     1      34.814  12.089  82.781  1.00  0.00    -0.504 OA
ATOM     44  H   UNL     1      35.818  12.112  82.901  1.00  0.00     0.293 HD
ENDBRANCH   7  43
TORSDOF 11
ENDMDL
MODEL 8
REMARK VINA RESULT:    -5.883     15.740     18.303
REMARK INTER + INTRA:          -9.592
REMARK INTER:                  -9.271
REMARK INTRA:                  -0.321
REMARK UNBOUND:                -0.958
REMARK SMILES Cc1cc2c(C(C)C)c(O)c(O)c(C=O)c2c(O)c1-c1c(C)cc2c(C(C)C)c(O)c(O)c(C=O)c2c1O
REMARK SMILES IDX 1 1 2 2 3 3 4 4 16 5 13 6 11 7 9 8 5 9 17 10 19 11 20 12
REMARK SMILES IDX 37 13 21 14 36 15 23 16 22 17 24 18 33 19 25 20 31 21 29 22
REMARK SMILES IDX 38 23 34 25 35 26 26 27 27 28 28 29 32 30 30 32 18 34 6 36
REMARK SMILES IDX 7 37 8 38 14 39 15 40 10 41 12 43
REMARK H PARENT 38 24 32 31 30 33 18 35 10 42 12 44
REMARK Flexibility Score: inf
ROOT
ATOM      1  C   UNL     1      32.882  16.019  77.847  1.00  0.00     0.045 C 
ATOM      2  C   UNL     1      33.324  15.246  79.066  1.00  0.00    -0.039 A 
ATOM      3  C   UNL     1      34.625  15.403  79.544  1.00  0.00     0.013 A 
ATOM      4  C   UNL     1      35.103  14.686  80.663  1.00  0.00    -0.006 A 
ATOM      5  C   UNL     1      34.195  13.850  81.383  1.00  0.00     0.039 A 
ATOM      6  C   UNL     1      34.641  13.229  82.590  1.00  0.00     0.072 A 
ATOM      7  C   UNL     1      35.932  13.500  83.085  1.00  0.00     0.169 A 
ATOM      8  C   UNL     1      36.812  14.316  82.366  1.00  0.00     0.162 A 
ATOM      9  C   UNL     1      36.458  14.820  81.097  1.00  0.00     0.008 A 
ATOM     10  C   UNL     1      32.861  13.695  80.892  1.00  0.00     0.132 A 
ATOM     11  C   UNL     1      32.442  14.380  79.730  1.00  0.00     0.031 A 
ENDROOT
BRANCH  11  12
ATOM     12  C   UNL     1      31.054  14.216  79.223  1.00  0.00     0.031 A 
ATOM     13  C   UNL     1      29.992  14.924  79.825  1.00  0.00     0.132 A 
ATOM     14  C   UNL     1      30.807  13.383  78.119  1.00  0.00    -0.039 A 
ATOM     15  C   UNL     1      28.650  14.735  79.376  1.00  0.00     0.039 A 
ATOM     16  C   UNL     1      29.509  13.266  77.622  1.00  0.00     0.013 A 
ATOM     17  C   UNL     1      31.937  12.676  77.408  1.00  0.00     0.045 C 
ATOM     18  C   UNL     1      28.408  13.888  78.252  1.00  0.00    -0.006 A 
ATOM     19  C   UNL     1      27.548  15.408  79.981  1.00  0.00     0.072 A 
ATOM     20  C   UNL     1      27.079  13.716  77.756  1.00  0.00     0.008 A 
ATOM     21  C   UNL     1      26.283  15.378  79.360  1.00  0.00     0.169 A 
ATOM     22  C   UNL     1      26.065  14.571  78.239  1.00  0.00     0.162 A 
BRANCH  13  23
ATOM     23  O   UNL     1      30.275  15.846  80.838  1.00  0.00    -0.507 OA
ATOM     24  H   UNL     1      29.662  16.033  81.622  1.00  0.00     0.293 HD
ENDBRANCH  13  23
BRANCH  19  25
ATOM     25  C   UNL     1      27.664  16.115  81.274  1.00  0.00     0.264 C 
ATOM     26  O   UNL     1      26.974  15.749  82.262  1.00  0.00    -0.298 OA
ENDBRANCH  19  25
BRANCH  20  27
ATOM     27  C   UNL     1      26.738  12.655  76.695  1.00  0.00     0.017 C 
ATOM     28  C   UNL     1      26.533  13.301  75.322  1.00  0.00     0.012 C 
ATOM     29  C   UNL     1      25.544  11.757  77.073  1.00  0.00     0.012 C 
ENDBRANCH  20  27
BRANCH  21  30
ATOM     30  O   UNL     1      25.204  16.121  79.856  1.00  0.00    -0.504 OA
ATOM     31  H   UNL     1      25.143  17.130  79.809  1.00  0.00     0.293 HD
ENDBRANCH  21  30
BRANCH  22  32
ATOM     32  O   UNL     1      24.823  14.610  77.601  1.00  0.00    -0.504 OA
ATOM     33  H   UNL     1      24.056  13.994  77.845  1.00  0.00     0.293 HD
ENDBRANCH  22  32
ENDBRANCH  11  12
BRANCH  10  34
ATOM     34  O   UNL     1      31.949  12.870  81.559  1.00  0.00    -0.507 OA
ATOM     35  H   UNL     1      32.212  12.064  82.111  1.00  0.00     0.293 HD
ENDBRANCH  10  34
BRANCH   9  36
ATOM     36  C   UNL     1      37.524  15.514  80.230  1.00  0.00     0.017 C 
ATOM     37  C   UNL     1      38.642  16.096  81.100  1.00  0.00     0.012 C 
ATOM     38  C   UNL     1      38.094  14.623  79.110  1.00  0.00     0.012 C 
ENDBRANCH   9  36
BRANCH   6  39
ATOM     39  C   UNL     1      33.780  12.313  83.364  1.00  0.00     0.264 C 
ATOM     40  O   UNL     1      33.187  12.712  84.400  1.00  0.00    -0.298 OA
ENDBRANCH   6  39
BRANCH   8  41
ATOM     41  O   UNL     1      38.056  14.629  82.918  1.00  0.00    -0.504 OA
ATOM     42  H   UNL     1      38.924  14.216  82.597  1.00  0.00     0.293 HD
ENDBRANCH   8  41
BRANCH   7  43
ATOM     43  O   UNL     1      36.392  12.942  84.284  1.00  0.00    -0.504 OA
ATOM     44  H   UNL     1      37.279  13.169  84.714  1.00  0.00     0.293 HD
ENDBRANCH   7  43
TORSDOF 11
ENDMDL
MODEL 9
REMARK VINA RESULT:    -5.833      3.426     10.428
REMARK INTER + INTRA:          -9.520
REMARK INTER:                  -8.957
REMARK INTRA:                  -0.563
REMARK UNBOUND:                -0.958
REMARK SMILES Cc1cc2c(C(C)C)c(O)c(O)c(C=O)c2c(O)c1-c1c(C)cc2c(C(C)C)c(O)c(O)c(C=O)c2c1O
REMARK SMILES IDX 1 1 2 2 3 3 4 4 16 5 13 6 11 7 9 8 5 9 17 10 19 11 20 12
REMARK SMILES IDX 37 13 21 14 36 15 23 16 22 17 24 18 33 19 25 20 31 21 29 22
REMARK SMILES IDX 38 23 34 25 35 26 26 27 27 28 28 29 32 30 30 32 18 34 6 36
REMARK SMILES IDX 7 37 8 38 14 39 15 40 10 41 12 43
REMARK H PARENT 38 24 32 31 30 33 18 35 10 42 12 44
REMARK Flexibility Score: inf
ROOT
ATOM      1  C   UNL     1      29.286  -4.000  77.618  1.00  0.00     0.045 C 
ATOM      2  C   UNL     1      30.501  -3.120  77.781  1.00  0.00    -0.039 A 
ATOM      3  C   UNL     1      31.497  -3.137  76.805  1.00  0.00     0.013 A 
ATOM      4  C   UNL     1      32.668  -2.355  76.917  1.00  0.00    -0.006 A 
ATOM      5  C   UNL     1      32.788  -1.450  78.015  1.00  0.00     0.039 A 
ATOM      6  C   UNL     1      33.909  -0.564  78.059  1.00  0.00     0.072 A 
ATOM      7  C   UNL     1      34.835  -0.549  76.996  1.00  0.00     0.169 A 
ATOM      8  C   UNL     1      34.708  -1.446  75.931  1.00  0.00     0.162 A 
ATOM      9  C   UNL     1      33.702  -2.435  75.933  1.00  0.00     0.008 A 
ATOM     10  C   UNL     1      31.763  -1.433  79.011  1.00  0.00     0.132 A 
ATOM     11  C   UNL     1      30.637  -2.278  78.895  1.00  0.00     0.031 A 
ENDROOT
BRANCH  11  12
ATOM     12  C   UNL     1      29.573  -2.258  79.934  1.00  0.00     0.031 A 
ATOM     13  C   UNL     1      28.335  -1.637  79.666  1.00  0.00     0.132 A 
ATOM     14  C   UNL     1      29.791  -2.891  81.169  1.00  0.00    -0.039 A 
ATOM     15  C   UNL     1      27.327  -1.570  80.674  1.00  0.00     0.039 A 
ATOM     16  C   UNL     1      28.773  -2.904  82.124  1.00  0.00     0.013 A 
ATOM     17  C   UNL     1      31.078  -3.629  81.451  1.00  0.00     0.045 C 
ATOM     18  C   UNL     1      27.555  -2.218  81.926  1.00  0.00    -0.006 A 
ATOM     19  C   UNL     1      26.075  -0.922  80.451  1.00  0.00     0.072 A 
ATOM     20  C   UNL     1      26.544  -2.201  82.937  1.00  0.00     0.008 A 
ATOM     21  C   UNL     1      25.029  -1.085  81.379  1.00  0.00     0.169 A 
ATOM     22  C   UNL     1      25.252  -1.750  82.589  1.00  0.00     0.162 A 
BRANCH  13  23
ATOM     23  O   UNL     1      28.091  -1.126  78.387  1.00  0.00    -0.507 OA
ATOM     24  H   UNL     1      28.803  -1.019  77.675  1.00  0.00     0.293 HD
ENDBRANCH  13  23
BRANCH  19  25
ATOM     25  C   UNL     1      25.837  -0.040  79.290  1.00  0.00     0.264 C 
ATOM     26  O   UNL     1      25.040  -0.390  78.379  1.00  0.00    -0.298 OA
ENDBRANCH  19  25
BRANCH  20  27
ATOM     27  C   UNL     1      26.819  -2.691  84.370  1.00  0.00     0.017 C 
ATOM     28  C   UNL     1      26.317  -4.125  84.563  1.00  0.00     0.012 C 
ATOM     29  C   UNL     1      26.270  -1.755  85.464  1.00  0.00     0.012 C 
ENDBRANCH  20  27
BRANCH  21  30
ATOM     30  O   UNL     1      23.749  -0.566  81.141  1.00  0.00    -0.504 OA
ATOM     31  H   UNL     1      23.417   0.313  81.515  1.00  0.00     0.293 HD
ENDBRANCH  21  30
BRANCH  22  32
ATOM     32  O   UNL     1      24.182  -1.958  83.462  1.00  0.00    -0.504 OA
ATOM     33  H   UNL     1      23.860  -1.257  84.119  1.00  0.00     0.293 HD
ENDBRANCH  22  32
ENDBRANCH  11  12
BRANCH  10  34
ATOM     34  O   UNL     1      31.854  -0.573  80.112  1.00  0.00    -0.507 OA
ATOM     35  H   UNL     1      32.416   0.269  80.129  1.00  0.00     0.293 HD
ENDBRANCH  10  34
BRANCH   9  36
ATOM     36  C   UNL     1      33.729  -3.550  74.871  1.00  0.00     0.017 C 
ATOM     37  C   UNL     1      33.042  -3.093  73.581  1.00  0.00     0.012 C 
ATOM     38  C   UNL     1      35.136  -4.108  74.588  1.00  0.00     0.012 C 
ENDBRANCH   9  36
BRANCH   6  39
ATOM     39  C   UNL     1      34.130   0.365  79.184  1.00  0.00     0.264 C 
ATOM     40  O   UNL     1      35.245   0.411  79.767  1.00  0.00    -0.298 OA
ENDBRANCH   6  39
BRANCH   8  41
ATOM     41  O   UNL     1      35.595  -1.357  74.855  1.00  0.00    -0.504 OA
ATOM     42  H   UNL     1      35.826  -0.482  74.400  1.00  0.00     0.293 HD
ENDBRANCH   8  41
BRANCH   7  43
ATOM     43  O   UNL     1      35.924   0.330  76.983  1.00  0.00    -0.504 OA
ATOM     44  H   UNL     1      36.799   0.145  76.510  1.00  0.00     0.293 HD
ENDBRANCH   7  43
TORSDOF 11
ENDMDL
