MODEL 1
REMARK VINA RESULT:    -7.418      0.000      0.000
REMARK INTER + INTRA:          -8.102
REMARK INTER:                  -7.852
REMARK INTRA:                  -0.250
REMARK UNBOUND:                -0.250
REMARK SMILES O=c1cc(-c2ccccc2)oc2ccccc12
REMARK SMILES IDX 4 1 3 2 2 3 1 4 17 5 16 6 15 7 14 8 13 9 12 10 11 11 5 12
REMARK SMILES IDX 8 13 7 14 9 15 6 16 10 17
REMARK H PARENT
REMARK Flexibility Score: inf
ROOT
ATOM      1  C   UNL     1       2.437  29.966  16.800  1.00  0.00     0.138 A 
ATOM      2  C   UNL     1       1.258  30.138  17.555  1.00  0.00     0.100 A 
ATOM      3  C   UNL     1       1.204  29.661  18.866  1.00  0.00     0.193 A 
ATOM      4  O   UNL     1       0.150  29.815  19.542  1.00  0.00    -0.289 OA
ATOM      5  C   UNL     1       2.322  29.016  19.412  1.00  0.00     0.065 A 
ATOM      6  C   UNL     1       2.334  28.512  20.726  1.00  0.00     0.016 A 
ATOM      7  C   UNL     1       3.477  27.877  21.222  1.00  0.00     0.001 A 
ATOM      8  C   UNL     1       4.611  27.740  20.416  1.00  0.00     0.004 A 
ATOM      9  C   UNL     1       4.608  28.239  19.109  1.00  0.00     0.048 A 
ATOM     10  C   UNL     1       3.470  28.876  18.603  1.00  0.00     0.138 A 
ATOM     11  O   UNL     1       3.476  29.346  17.361  1.00  0.00    -0.456 OA
ENDROOT
BRANCH   1  12
ATOM     12  C   UNL     1       2.578  30.446  15.390  1.00  0.00     0.017 A 
ATOM     13  C   UNL     1       2.790  31.431  12.753  1.00  0.00     0.000 A 
ATOM     14  C   UNL     1       3.386  30.218  13.096  1.00  0.00     0.001 A 
ATOM     15  C   UNL     1       2.088  32.156  13.716  1.00  0.00     0.001 A 
ATOM     16  C   UNL     1       3.284  29.725  14.401  1.00  0.00     0.012 A 
ATOM     17  C   UNL     1       1.982  31.671  15.022  1.00  0.00     0.012 A 
ENDBRANCH   1  12
TORSDOF 1
ENDMDL
MODEL 2
REMARK VINA RESULT:    -7.077     13.348     14.733
REMARK INTER + INTRA:          -7.741
REMARK INTER:                  -7.498
REMARK INTRA:                  -0.243
REMARK UNBOUND:                -0.250
REMARK SMILES O=c1cc(-c2ccccc2)oc2ccccc12
REMARK SMILES IDX 4 1 3 2 2 3 1 4 17 5 16 6 15 7 14 8 13 9 12 10 11 11 5 12
REMARK SMILES IDX 8 13 7 14 9 15 6 16 10 17
REMARK H PARENT
REMARK Flexibility Score: inf
ROOT
ATOM      1  C   UNL     1      -6.653  20.700  22.701  1.00  0.00     0.138 A 
ATOM      2  C   UNL     1      -6.690  19.654  23.646  1.00  0.00     0.100 A 
ATOM      3  C   UNL     1      -6.410  18.347  23.240  1.00  0.00     0.193 A 
ATOM      4  O   UNL     1      -6.442  17.412  24.085  1.00  0.00    -0.289 OA
ATOM      5  C   UNL     1      -6.098  18.095  21.896  1.00  0.00     0.065 A 
ATOM      6  C   UNL     1      -5.806  16.803  21.421  1.00  0.00     0.016 A 
ATOM      7  C   UNL     1      -5.500  16.607  20.070  1.00  0.00     0.001 A 
ATOM      8  C   UNL     1      -5.483  17.691  19.188  1.00  0.00     0.004 A 
ATOM      9  C   UNL     1      -5.772  18.978  19.653  1.00  0.00     0.048 A 
ATOM     10  C   UNL     1      -6.078  19.187  21.002  1.00  0.00     0.138 A 
ATOM     11  O   UNL     1      -6.351  20.413  21.434  1.00  0.00    -0.456 OA
ENDROOT
BRANCH   1  12
ATOM     12  C   UNL     1      -6.939  22.125  23.053  1.00  0.00     0.017 A 
ATOM     13  C   UNL     1      -7.540  24.821  23.637  1.00  0.00     0.000 A 
ATOM     14  C   UNL     1      -6.657  24.110  24.449  1.00  0.00     0.001 A 
ATOM     15  C   UNL     1      -8.125  24.198  22.535  1.00  0.00     0.001 A 
ATOM     16  C   UNL     1      -6.356  22.774  24.164  1.00  0.00     0.012 A 
ATOM     17  C   UNL     1      -7.829  22.863  22.244  1.00  0.00     0.012 A 
ENDBRANCH   1  12
TORSDOF 1
ENDMDL
MODEL 3
REMARK VINA RESULT:    -7.059      1.198      2.407
REMARK INTER + INTRA:          -7.721
REMARK INTER:                  -7.473
REMARK INTRA:                  -0.248
REMARK UNBOUND:                -0.250
REMARK SMILES O=c1cc(-c2ccccc2)oc2ccccc12
REMARK SMILES IDX 4 1 3 2 2 3 1 4 17 5 16 6 15 7 14 8 13 9 12 10 11 11 5 12
REMARK SMILES IDX 8 13 7 14 9 15 6 16 10 17
REMARK H PARENT
REMARK Flexibility Score: inf
ROOT
ATOM      1  C   UNL     1       2.858  29.899  16.366  1.00  0.00     0.138 A 
ATOM      2  C   UNL     1       3.987  29.287  16.948  1.00  0.00     0.100 A 
ATOM      3  C   UNL     1       3.919  28.823  18.263  1.00  0.00     0.193 A 
ATOM      4  O   UNL     1       4.929  28.275  18.783  1.00  0.00    -0.289 OA
ATOM      5  C   UNL     1       2.728  28.974  18.987  1.00  0.00     0.065 A 
ATOM      6  C   UNL     1       2.593  28.529  20.315  1.00  0.00     0.016 A 
ATOM      7  C   UNL     1       1.381  28.704  20.992  1.00  0.00     0.001 A 
ATOM      8  C   UNL     1       0.301  29.322  20.353  1.00  0.00     0.004 A 
ATOM      9  C   UNL     1       0.428  29.766  19.033  1.00  0.00     0.048 A 
ATOM     10  C   UNL     1       1.635  29.596  18.346  1.00  0.00     0.138 A 
ATOM     11  O   UNL     1       1.746  30.022  17.093  1.00  0.00    -0.456 OA
ENDROOT
BRANCH   1  12
ATOM     12  C   UNL     1       2.846  30.423  14.965  1.00  0.00     0.017 A 
ATOM     13  C   UNL     1       2.772  31.491  12.353  1.00  0.00     0.000 A 
ATOM     14  C   UNL     1       3.405  30.271  12.592  1.00  0.00     0.001 A 
ATOM     15  C   UNL     1       2.176  32.181  13.407  1.00  0.00     0.001 A 
ATOM     16  C   UNL     1       3.444  29.737  13.884  1.00  0.00     0.012 A 
ATOM     17  C   UNL     1       2.211  31.655  14.701  1.00  0.00     0.012 A 
ENDBRANCH   1  12
TORSDOF 1
ENDMDL
MODEL 4
REMARK VINA RESULT:    -6.843     13.226     14.214
REMARK INTER + INTRA:          -7.493
REMARK INTER:                  -7.245
REMARK INTRA:                  -0.248
REMARK UNBOUND:                -0.250
REMARK SMILES O=c1cc(-c2ccccc2)oc2ccccc12
REMARK SMILES IDX 4 1 3 2 2 3 1 4 17 5 16 6 15 7 14 8 13 9 12 10 11 11 5 12
REMARK SMILES IDX 8 13 7 14 9 15 6 16 10 17
REMARK H PARENT
REMARK Flexibility Score: inf
ROOT
ATOM      1  C   UNL     1      -5.933  20.278  22.114  1.00  0.00     0.138 A 
ATOM      2  C   UNL     1      -5.232  20.479  23.321  1.00  0.00     0.100 A 
ATOM      3  C   UNL     1      -5.429  21.657  24.045  1.00  0.00     0.193 A 
ATOM      4  O   UNL     1      -4.802  21.836  25.125  1.00  0.00    -0.289 OA
ATOM      5  C   UNL     1      -6.320  22.624  23.559  1.00  0.00     0.065 A 
ATOM      6  C   UNL     1      -6.565  23.831  24.239  1.00  0.00     0.016 A 
ATOM      7  C   UNL     1      -7.465  24.762  23.710  1.00  0.00     0.001 A 
ATOM      8  C   UNL     1      -8.125  24.497  22.506  1.00  0.00     0.004 A 
ATOM      9  C   UNL     1      -7.888  23.299  21.825  1.00  0.00     0.048 A 
ATOM     10  C   UNL     1      -6.990  22.361  22.345  1.00  0.00     0.138 A 
ATOM     11  O   UNL     1      -6.771  21.226  21.690  1.00  0.00    -0.456 OA
ENDROOT
BRANCH   1  12
ATOM     12  C   UNL     1      -5.780  19.047  21.279  1.00  0.00     0.017 A 
ATOM     13  C   UNL     1      -5.487  16.669  19.785  1.00  0.00     0.000 A 
ATOM     14  C   UNL     1      -5.572  17.899  19.132  1.00  0.00     0.001 A 
ATOM     15  C   UNL     1      -5.546  16.617  21.177  1.00  0.00     0.001 A 
ATOM     16  C   UNL     1      -5.717  19.080  19.867  1.00  0.00     0.012 A 
ATOM     17  C   UNL     1      -5.691  17.793  21.919  1.00  0.00     0.012 A 
ENDBRANCH   1  12
TORSDOF 1
ENDMDL
MODEL 5
REMARK VINA RESULT:    -6.813     12.619     14.345
REMARK INTER + INTRA:          -7.462
REMARK INTER:                  -7.233
REMARK INTRA:                  -0.229
REMARK UNBOUND:                -0.250
REMARK SMILES O=c1cc(-c2ccccc2)oc2ccccc12
REMARK SMILES IDX 4 1 3 2 2 3 1 4 17 5 16 6 15 7 14 8 13 9 12 10 11 11 5 12
REMARK SMILES IDX 8 13 7 14 9 15 6 16 10 17
REMARK H PARENT
REMARK Flexibility Score: inf
ROOT
ATOM      1  C   UNL     1      -6.256  21.386  22.390  1.00  0.00     0.138 A 
ATOM      2  C   UNL     1      -5.488  21.478  21.211  1.00  0.00     0.100 A 
ATOM      3  C   UNL     1      -5.093  20.311  20.553  1.00  0.00     0.193 A 
ATOM      4  O   UNL     1      -4.406  20.394  19.498  1.00  0.00    -0.289 OA
ATOM      5  C   UNL     1      -5.465  19.065  21.075  1.00  0.00     0.065 A 
ATOM      6  C   UNL     1      -5.101  17.852  20.462  1.00  0.00     0.016 A 
ATOM      7  C   UNL     1      -5.500  16.635  21.025  1.00  0.00     0.001 A 
ATOM      8  C   UNL     1      -6.261  16.619  22.198  1.00  0.00     0.004 A 
ATOM      9  C   UNL     1      -6.627  17.820  22.813  1.00  0.00     0.048 A 
ATOM     10  C   UNL     1      -6.235  19.043  22.259  1.00  0.00     0.138 A 
ATOM     11  O   UNL     1      -6.587  20.178  22.850  1.00  0.00    -0.456 OA
ENDROOT
BRANCH   1  12
ATOM     12  C   UNL     1      -6.720  22.585  23.156  1.00  0.00     0.017 A 
ATOM     13  C   UNL     1      -7.650  24.872  24.523  1.00  0.00     0.000 A 
ATOM     14  C   UNL     1      -6.715  24.030  25.125  1.00  0.00     0.001 A 
ATOM     15  C   UNL     1      -8.124  24.582  23.244  1.00  0.00     0.001 A 
ATOM     16  C   UNL     1      -6.251  22.895  24.452  1.00  0.00     0.012 A 
ATOM     17  C   UNL     1      -7.665  23.450  22.565  1.00  0.00     0.012 A 
ENDBRANCH   1  12
TORSDOF 1
ENDMDL
MODEL 6
REMARK VINA RESULT:    -6.726     12.947     13.455
REMARK INTER + INTRA:          -7.370
REMARK INTER:                  -7.104
REMARK INTRA:                  -0.265
REMARK UNBOUND:                -0.250
REMARK SMILES O=c1cc(-c2ccccc2)oc2ccccc12
REMARK SMILES IDX 4 1 3 2 2 3 1 4 17 5 16 6 15 7 14 8 13 9 12 10 11 11 5 12
REMARK SMILES IDX 8 13 7 14 9 15 6 16 10 17
REMARK H PARENT
REMARK Flexibility Score: inf
ROOT
ATOM      1  C   UNL     1      -5.331  21.324  22.634  1.00  0.00     0.138 A 
ATOM      2  C   UNL     1      -5.296  20.821  21.317  1.00  0.00     0.100 A 
ATOM      3  C   UNL     1      -4.406  19.794  20.994  1.00  0.00     0.193 A 
ATOM      4  O   UNL     1      -4.375  19.344  19.816  1.00  0.00    -0.289 OA
ATOM      5  C   UNL     1      -3.560  19.278  21.985  1.00  0.00     0.065 A 
ATOM      6  C   UNL     1      -2.641  18.244  21.728  1.00  0.00     0.016 A 
ATOM      7  C   UNL     1      -1.820  17.765  22.754  1.00  0.00     0.001 A 
ATOM      8  C   UNL     1      -1.908  18.312  24.038  1.00  0.00     0.004 A 
ATOM      9  C   UNL     1      -2.818  19.340  24.302  1.00  0.00     0.048 A 
ATOM     10  C   UNL     1      -3.645  19.826  23.284  1.00  0.00     0.138 A 
ATOM     11  O   UNL     1      -4.507  20.802  23.544  1.00  0.00    -0.456 OA
ENDROOT
BRANCH   1  12
ATOM     12  C   UNL     1      -6.252  22.421  23.062  1.00  0.00     0.017 A 
ATOM     13  C   UNL     1      -8.034  24.490  23.781  1.00  0.00     0.000 A 
ATOM     14  C   UNL     1      -7.060  24.061  24.683  1.00  0.00     0.001 A 
ATOM     15  C   UNL     1      -8.125  23.895  22.523  1.00  0.00     0.001 A 
ATOM     16  C   UNL     1      -6.174  23.037  24.332  1.00  0.00     0.012 A 
ATOM     17  C   UNL     1      -7.244  22.871  22.165  1.00  0.00     0.012 A 
ENDBRANCH   1  12
TORSDOF 1
ENDMDL
MODEL 7
REMARK VINA RESULT:    -6.697      3.569      5.400
REMARK INTER + INTRA:          -7.339
REMARK INTER:                  -7.085
REMARK INTRA:                  -0.254
REMARK UNBOUND:                -0.250
REMARK SMILES O=c1cc(-c2ccccc2)oc2ccccc12
REMARK SMILES IDX 4 1 3 2 2 3 1 4 17 5 16 6 15 7 14 8 13 9 12 10 11 11 5 12
REMARK SMILES IDX 8 13 7 14 9 15 6 16 10 17
REMARK H PARENT
REMARK Flexibility Score: inf
ROOT
ATOM      1  C   UNL     1       5.528  28.939  14.206  1.00  0.00     0.138 A 
ATOM      2  C   UNL     1       4.693  29.699  13.361  1.00  0.00     0.100 A 
ATOM      3  C   UNL     1       3.485  30.198  13.852  1.00  0.00     0.193 A 
ATOM      4  O   UNL     1       2.739  30.878  13.096  1.00  0.00    -0.289 OA
ATOM      5  C   UNL     1       3.119  29.935  15.179  1.00  0.00     0.065 A 
ATOM      6  C   UNL     1       1.917  30.408  15.737  1.00  0.00     0.016 A 
ATOM      7  C   UNL     1       1.601  30.117  17.068  1.00  0.00     0.001 A 
ATOM      8  C   UNL     1       2.476  29.356  17.849  1.00  0.00     0.004 A 
ATOM      9  C   UNL     1       3.673  28.883  17.302  1.00  0.00     0.048 A 
ATOM     10  C   UNL     1       4.000  29.168  15.972  1.00  0.00     0.138 A 
ATOM     11  O   UNL     1       5.139  28.714  15.462  1.00  0.00    -0.456 OA
ENDROOT
BRANCH   1  12
ATOM     12  C   UNL     1       6.836  28.368  13.759  1.00  0.00     0.017 A 
ATOM     13  C   UNL     1       9.290  27.212  12.977  1.00  0.00     0.000 A 
ATOM     14  C   UNL     1       8.894  28.439  12.445  1.00  0.00     0.001 A 
ATOM     15  C   UNL     1       8.472  26.558  13.897  1.00  0.00     0.001 A 
ATOM     16  C   UNL     1       7.679  29.016  12.829  1.00  0.00     0.012 A 
ATOM     17  C   UNL     1       7.256  27.128  14.286  1.00  0.00     0.012 A 
ENDBRANCH   1  12
TORSDOF 1
ENDMDL
MODEL 8
REMARK VINA RESULT:    -6.598      3.426      5.891
REMARK INTER + INTRA:          -7.234
REMARK INTER:                  -6.972
REMARK INTRA:                  -0.261
REMARK UNBOUND:                -0.250
REMARK SMILES O=c1cc(-c2ccccc2)oc2ccccc12
REMARK SMILES IDX 4 1 3 2 2 3 1 4 17 5 16 6 15 7 14 8 13 9 12 10 11 11 5 12
REMARK SMILES IDX 8 13 7 14 9 15 6 16 10 17
REMARK H PARENT
REMARK Flexibility Score: inf
ROOT
ATOM      1  C   UNL     1       5.537  29.004  14.432  1.00  0.00     0.138 A 
ATOM      2  C   UNL     1       4.977  28.633  15.672  1.00  0.00     0.100 A 
ATOM      3  C   UNL     1       3.815  29.264  16.121  1.00  0.00     0.193 A 
ATOM      4  O   UNL     1       3.314  28.930  17.230  1.00  0.00    -0.289 OA
ATOM      5  C   UNL     1       3.223  30.260  15.333  1.00  0.00     0.065 A 
ATOM      6  C   UNL     1       2.053  30.935  15.726  1.00  0.00     0.016 A 
ATOM      7  C   UNL     1       1.503  31.921  14.900  1.00  0.00     0.001 A 
ATOM      8  C   UNL     1       2.112  32.240  13.683  1.00  0.00     0.004 A 
ATOM      9  C   UNL     1       3.276  31.574  13.285  1.00  0.00     0.048 A 
ATOM     10  C   UNL     1       3.834  30.585  14.102  1.00  0.00     0.138 A 
ATOM     11  O   UNL     1       4.939  29.958  13.716  1.00  0.00    -0.456 OA
ENDROOT
BRANCH   1  12
ATOM     12  C   UNL     1       6.779  28.380  13.879  1.00  0.00     0.017 A 
ATOM     13  C   UNL     1       9.108  27.124  12.897  1.00  0.00     0.000 A 
ATOM     14  C   UNL     1       8.721  28.368  12.398  1.00  0.00     0.001 A 
ATOM     15  C   UNL     1       8.343  26.503  13.883  1.00  0.00     0.001 A 
ATOM     16  C   UNL     1       7.567  28.994  12.881  1.00  0.00     0.012 A 
ATOM     17  C   UNL     1       7.189  27.122  14.371  1.00  0.00     0.012 A 
ENDBRANCH   1  12
TORSDOF 1
ENDMDL
MODEL 9
REMARK VINA RESULT:    -6.592      1.325      6.251
REMARK INTER + INTRA:          -7.228
REMARK INTER:                  -6.962
REMARK INTRA:                  -0.265
REMARK UNBOUND:                -0.250
REMARK SMILES O=c1cc(-c2ccccc2)oc2ccccc12
REMARK SMILES IDX 4 1 3 2 2 3 1 4 17 5 16 6 15 7 14 8 13 9 12 10 11 11 5 12
REMARK SMILES IDX 8 13 7 14 9 15 6 16 10 17
REMARK H PARENT
REMARK Flexibility Score: inf
ROOT
ATOM      1  C   UNL     1       3.453  29.190  17.214  1.00  0.00     0.138 A 
ATOM      2  C   UNL     1       4.460  28.816  16.300  1.00  0.00     0.100 A 
ATOM      3  C   UNL     1       4.502  29.413  15.038  1.00  0.00     0.193 A 
ATOM      4  O   UNL     1       5.403  29.080  14.221  1.00  0.00    -0.289 OA
ATOM      5  C   UNL     1       3.540  30.375  14.697  1.00  0.00     0.065 A 
ATOM      6  C   UNL     1       3.526  31.014  13.444  1.00  0.00     0.016 A 
ATOM      7  C   UNL     1       2.544  31.967  13.156  1.00  0.00     0.001 A 
ATOM      8  C   UNL     1       1.573  32.288  14.110  1.00  0.00     0.004 A 
ATOM      9  C   UNL     1       1.581  31.657  15.359  1.00  0.00     0.048 A 
ATOM     10  C   UNL     1       2.559  30.703  15.658  1.00  0.00     0.138 A 
ATOM     11  O   UNL     1       2.559  30.109  16.846  1.00  0.00    -0.456 OA
ENDROOT
BRANCH   1  12
ATOM     12  C   UNL     1       3.336  28.600  18.583  1.00  0.00     0.017 A 
ATOM     13  C   UNL     1       3.049  27.556  21.190  1.00  0.00     0.000 A 
ATOM     14  C   UNL     1       3.946  26.970  20.297  1.00  0.00     0.001 A 
ATOM     15  C   UNL     1       2.295  28.659  20.792  1.00  0.00     0.001 A 
ATOM     16  C   UNL     1       4.093  27.483  19.004  1.00  0.00     0.012 A 
ATOM     17  C   UNL     1       2.435  29.178  19.502  1.00  0.00     0.012 A 
ENDBRANCH   1  12
TORSDOF 1
ENDMDL
