MODEL 1
REMARK VINA RESULT:    -3.821      0.000      0.000
REMARK INTER + INTRA:          -5.273
REMARK INTER:                  -4.938
REMARK INTRA:                  -0.335
REMARK UNBOUND:                -0.335
REMARK SMILES CCCCCCC(=O)[O-]
REMARK SMILES IDX 5 1 6 2 7 3 8 4 9 5 4 6 3 7 2 8 1 9
REMARK H PARENT
REMARK Flexibility Score: inf
ROOT
ATOM      1  C   UNL     1     -38.029  18.863 -27.767  1.00  0.00     0.006 C 
ENDROOT
BRANCH   1   2
ATOM      2  C   UNL     1     -38.203  20.120 -28.624  1.00  0.00     0.053 C 
BRANCH   2   3
ATOM      3  C   UNL     1     -39.654  20.435 -28.805  1.00  0.00     0.041 C 
ATOM      4  O   UNL     1     -40.533  19.668 -28.330  1.00  0.00    -0.550 OA
ATOM      5  O   UNL     1     -40.038  21.603 -29.453  1.00  0.00    -0.550 OA
ENDBRANCH   2   3
ENDBRANCH   1   2
BRANCH   1   6
ATOM      6  C   UNL     1     -36.791  18.066 -28.206  1.00  0.00     0.000 C 
BRANCH   6   7
ATOM      7  C   UNL     1     -36.774  17.770 -29.717  1.00  0.00    -0.000 C 
BRANCH   7   8
ATOM      8  C   UNL     1     -37.822  16.744 -30.186  1.00  0.00    -0.003 C 
ATOM      9  C   UNL     1     -38.927  17.367 -31.037  1.00  0.00     0.004 C 
ENDBRANCH   7   8
ENDBRANCH   6   7
ENDBRANCH   1   6
TORSDOF 5
ENDMDL
MODEL 2
REMARK VINA RESULT:    -3.771      1.208      1.998
REMARK INTER + INTRA:          -5.208
REMARK INTER:                  -4.781
REMARK INTRA:                  -0.427
REMARK UNBOUND:                -0.335
REMARK SMILES CCCCCCC(=O)[O-]
REMARK SMILES IDX 5 1 6 2 7 3 8 4 9 5 4 6 3 7 2 8 1 9
REMARK H PARENT
REMARK Flexibility Score: inf
ROOT
ATOM      1  C   UNL     1     -37.591  21.138 -30.296  1.00  0.00     0.006 C 
ENDROOT
BRANCH   1   2
ATOM      2  C   UNL     1     -38.159  20.987 -28.881  1.00  0.00     0.053 C 
BRANCH   2   3
ATOM      3  C   UNL     1     -39.646  20.838 -28.925  1.00  0.00     0.041 C 
ATOM      4  O   UNL     1     -40.356  21.728 -29.464  1.00  0.00    -0.550 OA
ATOM      5  O   UNL     1     -40.247  19.692 -28.418  1.00  0.00    -0.550 OA
ENDBRANCH   2   3
ENDBRANCH   1   2
BRANCH   1   6
ATOM      6  C   UNL     1     -37.542  19.782 -31.016  1.00  0.00     0.000 C 
BRANCH   6   7
ATOM      7  C   UNL     1     -36.884  18.677 -30.169  1.00  0.00    -0.000 C 
BRANCH   7   8
ATOM      8  C   UNL     1     -37.686  17.365 -30.082  1.00  0.00    -0.003 C 
ATOM      9  C   UNL     1     -38.928  17.365 -30.971  1.00  0.00     0.004 C 
ENDBRANCH   7   8
ENDBRANCH   6   7
ENDBRANCH   1   6
TORSDOF 5
ENDMDL
MODEL 3
REMARK VINA RESULT:    -3.750      2.391      4.061
REMARK INTER + INTRA:          -5.181
REMARK INTER:                  -4.811
REMARK INTRA:                  -0.370
REMARK UNBOUND:                -0.335
REMARK SMILES CCCCCCC(=O)[O-]
REMARK SMILES IDX 5 1 6 2 7 3 8 4 9 5 4 6 3 7 2 8 1 9
REMARK H PARENT
REMARK Flexibility Score: inf
ROOT
ATOM      1  C   UNL     1     -37.892  19.894 -30.995  1.00  0.00     0.006 C 
ENDROOT
BRANCH   1   2
ATOM      2  C   UNL     1     -37.136  18.748 -30.315  1.00  0.00     0.053 C 
BRANCH   2   3
ATOM      3  C   UNL     1     -37.950  17.494 -30.341  1.00  0.00     0.041 C 
ATOM      4  O   UNL     1     -39.020  17.446 -31.003  1.00  0.00    -0.550 OA
ATOM      5  O   UNL     1     -37.502  16.359 -29.675  1.00  0.00    -0.550 OA
ENDBRANCH   2   3
ENDBRANCH   1   2
BRANCH   1   6
ATOM      6  C   UNL     1     -37.695  21.212 -30.233  1.00  0.00     0.000 C 
BRANCH   6   7
ATOM      7  C   UNL     1     -38.486  21.266 -28.913  1.00  0.00    -0.000 C 
BRANCH   7   8
ATOM      8  C   UNL     1     -39.966  20.858 -29.029  1.00  0.00    -0.003 C 
ATOM      9  C   UNL     1     -40.319  19.639 -28.179  1.00  0.00     0.004 C 
ENDBRANCH   7   8
ENDBRANCH   6   7
ENDBRANCH   1   6
TORSDOF 5
ENDMDL
MODEL 4
REMARK VINA RESULT:    -3.737      1.560      1.973
REMARK INTER + INTRA:          -5.164
REMARK INTER:                  -4.846
REMARK INTRA:                  -0.317
REMARK UNBOUND:                -0.335
REMARK SMILES CCCCCCC(=O)[O-]
REMARK SMILES IDX 5 1 6 2 7 3 8 4 9 5 4 6 3 7 2 8 1 9
REMARK H PARENT
REMARK Flexibility Score: inf
ROOT
ATOM      1  C   UNL     1     -39.499  19.831 -28.501  1.00  0.00     0.006 C 
ENDROOT
BRANCH   1   2
ATOM      2  C   UNL     1     -39.249  20.923 -29.545  1.00  0.00     0.053 C 
BRANCH   2   3
ATOM      3  C   UNL     1     -38.765  22.177 -28.889  1.00  0.00     0.041 C 
ATOM      4  O   UNL     1     -39.588  23.047 -28.501  1.00  0.00    -0.550 OA
ATOM      5  O   UNL     1     -37.408  22.362 -28.657  1.00  0.00    -0.550 OA
ENDBRANCH   2   3
ENDBRANCH   1   2
BRANCH   1   6
ATOM      6  C   UNL     1     -38.229  19.003 -28.257  1.00  0.00     0.000 C 
BRANCH   6   7
ATOM      7  C   UNL     1     -37.493  18.636 -29.559  1.00  0.00    -0.000 C 
BRANCH   7   8
ATOM      8  C   UNL     1     -37.814  17.235 -30.110  1.00  0.00    -0.003 C 
ATOM      9  C   UNL     1     -38.970  17.236 -31.110  1.00  0.00     0.004 C 
ENDBRANCH   7   8
ENDBRANCH   6   7
ENDBRANCH   1   6
TORSDOF 5
ENDMDL
MODEL 5
REMARK VINA RESULT:    -3.732      2.324      3.813
REMARK INTER + INTRA:          -5.157
REMARK INTER:                  -4.882
REMARK INTRA:                  -0.275
REMARK UNBOUND:                -0.335
REMARK SMILES CCCCCCC(=O)[O-]
REMARK SMILES IDX 5 1 6 2 7 3 8 4 9 5 4 6 3 7 2 8 1 9
REMARK H PARENT
REMARK Flexibility Score: inf
ROOT
ATOM      1  C   UNL     1     -36.735  18.054 -28.002  1.00  0.00     0.006 C 
ENDROOT
BRANCH   1   2
ATOM      2  C   UNL     1     -36.588  17.843 -29.512  1.00  0.00     0.053 C 
BRANCH   2   3
ATOM      3  C   UNL     1     -37.472  16.729 -29.974  1.00  0.00     0.041 C 
ATOM      4  O   UNL     1     -37.255  15.548 -29.595  1.00  0.00    -0.550 OA
ATOM      5  O   UNL     1     -38.569  17.001 -30.783  1.00  0.00    -0.550 OA
ENDBRANCH   2   3
ENDBRANCH   1   2
BRANCH   1   6
ATOM      6  C   UNL     1     -37.912  18.990 -27.690  1.00  0.00     0.000 C 
BRANCH   6   7
ATOM      7  C   UNL     1     -38.140  20.051 -28.781  1.00  0.00    -0.000 C 
BRANCH   7   8
ATOM      8  C   UNL     1     -39.602  20.507 -28.944  1.00  0.00    -0.003 C 
ATOM      9  C   UNL     1     -40.586  19.657 -28.141  1.00  0.00     0.004 C 
ENDBRANCH   7   8
ENDBRANCH   6   7
ENDBRANCH   1   6
TORSDOF 5
ENDMDL
MODEL 6
REMARK VINA RESULT:    -3.711      1.148      2.333
REMARK INTER + INTRA:          -5.131
REMARK INTER:                  -4.800
REMARK INTRA:                  -0.331
REMARK UNBOUND:                -0.335
REMARK SMILES CCCCCCC(=O)[O-]
REMARK SMILES IDX 5 1 6 2 7 3 8 4 9 5 4 6 3 7 2 8 1 9
REMARK H PARENT
REMARK Flexibility Score: inf
ROOT
ATOM      1  C   UNL     1     -38.266  19.481 -30.801  1.00  0.00     0.006 C 
ENDROOT
BRANCH   1   2
ATOM      2  C   UNL     1     -38.214  20.080 -29.392  1.00  0.00     0.053 C 
BRANCH   2   3
ATOM      3  C   UNL     1     -39.584  20.474 -28.938  1.00  0.00     0.041 C 
ATOM      4  O   UNL     1     -40.081  21.571 -29.304  1.00  0.00    -0.550 OA
ATOM      5  O   UNL     1     -40.333  19.606 -28.154  1.00  0.00    -0.550 OA
ENDBRANCH   2   3
ENDBRANCH   1   2
BRANCH   1   6
ATOM      6  C   UNL     1     -38.415  17.954 -30.743  1.00  0.00     0.000 C 
BRANCH   6   7
ATOM      7  C   UNL     1     -37.597  17.314 -29.606  1.00  0.00    -0.000 C 
BRANCH   7   8
ATOM      8  C   UNL     1     -36.318  16.586 -30.059  1.00  0.00    -0.003 C 
ATOM      9  C   UNL     1     -35.075  17.472 -30.005  1.00  0.00     0.004 C 
ENDBRANCH   7   8
ENDBRANCH   6   7
ENDBRANCH   1   6
TORSDOF 5
ENDMDL
MODEL 7
REMARK VINA RESULT:    -3.544      2.438      4.205
REMARK INTER + INTRA:          -4.914
REMARK INTER:                  -4.607
REMARK INTRA:                  -0.307
REMARK UNBOUND:                -0.335
REMARK SMILES CCCCCCC(=O)[O-]
REMARK SMILES IDX 5 1 6 2 7 3 8 4 9 5 4 6 3 7 2 8 1 9
REMARK H PARENT
REMARK Flexibility Score: inf
ROOT
ATOM      1  C   UNL     1     -37.469  18.805 -28.343  1.00  0.00     0.006 C 
ENDROOT
BRANCH   1   2
ATOM      2  C   UNL     1     -37.198  18.478 -29.815  1.00  0.00     0.053 C 
BRANCH   2   3
ATOM      3  C   UNL     1     -37.822  17.170 -30.185  1.00  0.00     0.041 C 
ATOM      4  O   UNL     1     -38.764  17.131 -31.020  1.00  0.00    -0.550 OA
ATOM      5  O   UNL     1     -37.329  15.987 -29.648  1.00  0.00    -0.550 OA
ENDBRANCH   2   3
ENDBRANCH   1   2
BRANCH   1   6
ATOM      6  C   UNL     1     -38.861  19.430 -28.167  1.00  0.00     0.000 C 
BRANCH   6   7
ATOM      7  C   UNL     1     -39.221  20.419 -29.290  1.00  0.00    -0.000 C 
BRANCH   7   8
ATOM      8  C   UNL     1     -39.174  21.904 -28.884  1.00  0.00    -0.003 C 
ATOM      9  C   UNL     1     -37.752  22.457 -28.808  1.00  0.00     0.004 C 
ENDBRANCH   7   8
ENDBRANCH   6   7
ENDBRANCH   1   6
TORSDOF 5
ENDMDL
MODEL 8
REMARK VINA RESULT:    -3.531      2.544      4.176
REMARK INTER + INTRA:          -4.897
REMARK INTER:                  -4.572
REMARK INTRA:                  -0.325
REMARK UNBOUND:                -0.335
REMARK SMILES CCCCCCC(=O)[O-]
REMARK SMILES IDX 5 1 6 2 7 3 8 4 9 5 4 6 3 7 2 8 1 9
REMARK H PARENT
REMARK Flexibility Score: inf
ROOT
ATOM      1  C   UNL     1     -38.696  18.156 -30.293  1.00  0.00     0.006 C 
ENDROOT
BRANCH   1   2
ATOM      2  C   UNL     1     -37.640  17.089 -29.989  1.00  0.00     0.053 C 
BRANCH   2   3
ATOM      3  C   UNL     1     -36.697  17.571 -28.933  1.00  0.00     0.041 C 
ATOM      4  O   UNL     1     -35.481  17.757 -29.206  1.00  0.00    -0.550 OA
ATOM      5  O   UNL     1     -37.168  17.864 -27.659  1.00  0.00    -0.550 OA
ENDBRANCH   2   3
ENDBRANCH   1   2
BRANCH   1   6
ATOM      6  C   UNL     1     -38.099  19.296 -31.132  1.00  0.00     0.000 C 
BRANCH   6   7
ATOM      7  C   UNL     1     -38.168  20.662 -30.424  1.00  0.00    -0.000 C 
BRANCH   7   8
ATOM      8  C   UNL     1     -39.170  20.735 -29.257  1.00  0.00    -0.003 C 
ATOM      9  C   UNL     1     -40.160  21.891 -29.392  1.00  0.00     0.004 C 
ENDBRANCH   7   8
ENDBRANCH   6   7
ENDBRANCH   1   6
TORSDOF 5
ENDMDL
MODEL 9
REMARK VINA RESULT:    -3.489      2.134      2.824
REMARK INTER + INTRA:          -4.843
REMARK INTER:                  -4.395
REMARK INTRA:                  -0.448
REMARK UNBOUND:                -0.335
REMARK SMILES CCCCCCC(=O)[O-]
REMARK SMILES IDX 5 1 6 2 7 3 8 4 9 5 4 6 3 7 2 8 1 9
REMARK H PARENT
REMARK Flexibility Score: inf
ROOT
ATOM      1  C   UNL     1     -38.196  19.366 -28.193  1.00  0.00     0.006 C 
ENDROOT
BRANCH   1   2
ATOM      2  C   UNL     1     -39.254  18.959 -29.223  1.00  0.00     0.053 C 
BRANCH   2   3
ATOM      3  C   UNL     1     -38.608  18.590 -30.521  1.00  0.00     0.041 C 
ATOM      4  O   UNL     1     -38.779  17.442 -31.009  1.00  0.00    -0.550 OA
ATOM      5  O   UNL     1     -37.859  19.530 -31.218  1.00  0.00    -0.550 OA
ENDBRANCH   2   3
ENDBRANCH   1   2
BRANCH   1   6
ATOM      6  C   UNL     1     -37.260  18.191 -27.874  1.00  0.00     0.000 C 
BRANCH   6   7
ATOM      7  C   UNL     1     -35.778  18.604 -27.816  1.00  0.00    -0.000 C 
BRANCH   7   8
ATOM      8  C   UNL     1     -35.077  18.691 -29.184  1.00  0.00    -0.003 C 
ATOM      9  C   UNL     1     -35.116  17.376 -29.961  1.00  0.00     0.004 C 
ENDBRANCH   7   8
ENDBRANCH   6   7
ENDBRANCH   1   6
TORSDOF 5
ENDMDL
