MODEL 1
REMARK VINA RESULT:    -5.387      0.000      0.000
REMARK INTER + INTRA:          -9.142
REMARK INTER:                  -8.379
REMARK INTRA:                  -0.764
REMARK UNBOUND:                -0.764
REMARK SMILES COc1cc(CNC(=O)CCCCC=CC(C)C)ccc1O
REMARK SMILES IDX 11 1 12 2 13 3 14 4 15 5 16 6 17 7 18 8 10 9 8 10 9 11 7 12
REMARK SMILES IDX 6 14 5 15 4 16 19 17 3 18 20 19 21 20 2 21 1 22 22 23
REMARK H PARENT 7 13 22 24
REMARK Flexibility Score: inf
ROOT
ATOM      1  C   UNL     1       8.916  -3.640  -6.555  1.00  0.00     0.010 C 
ENDROOT
BRANCH   1   2
ATOM      2  C   UNL     1       9.191  -2.158  -6.247  1.00  0.00     0.005 C 
BRANCH   2   3
ATOM      3  C   UNL     1       9.047  -1.237  -7.472  1.00  0.00     0.027 C 
BRANCH   3   4
ATOM      4  C   UNL     1       8.136  -0.065  -7.185  1.00  0.00    -0.031 C 
ATOM      5  C   UNL     1       8.543   1.163  -6.802  1.00  0.00    -0.028 C 
BRANCH   5   6
ATOM      6  C   UNL     1       9.988   1.592  -6.656  1.00  0.00     0.005 C 
ATOM      7  C   UNL     1      10.369   1.666  -5.174  1.00  0.00     0.012 C 
ATOM      8  C   UNL     1      10.209   2.946  -7.337  1.00  0.00     0.012 C 
ENDBRANCH   5   6
ENDBRANCH   3   4
ENDBRANCH   2   3
ENDBRANCH   1   2
BRANCH   1   9
ATOM      9  C   UNL     1       7.967  -4.287  -5.534  1.00  0.00     0.100 C 
BRANCH   9  10
ATOM     10  C   UNL     1       8.740  -4.886  -4.395  1.00  0.00     0.220 C 
ATOM     11  O   UNL     1       9.389  -5.952  -4.580  1.00  0.00    -0.275 OA
ATOM     12  N   UNL     1       8.733  -4.258  -3.104  1.00  0.00    -0.352 N 
ATOM     13  H   UNL     1       8.172  -3.386  -2.959  1.00  0.00     0.163 HD
BRANCH  12  14
ATOM     14  C   UNL     1       9.456  -4.804  -1.958  1.00  0.00     0.151 C 
BRANCH  14  15
ATOM     15  C   UNL     1       8.508  -5.536  -1.042  1.00  0.00    -0.025 A 
ATOM     16  C   UNL     1       8.070  -4.942   0.153  1.00  0.00     0.056 A 
ATOM     17  C   UNL     1       8.024  -6.802  -1.401  1.00  0.00     0.009 A 
ATOM     18  C   UNL     1       7.155  -5.610   0.989  1.00  0.00     0.160 A 
ATOM     19  C   UNL     1       7.117  -7.467  -0.576  1.00  0.00     0.050 A 
ATOM     20  C   UNL     1       6.680  -6.875   0.616  1.00  0.00     0.157 A 
BRANCH  18  21
ATOM     21  O   UNL     1       6.694  -5.049   2.192  1.00  0.00    -0.493 OA
ATOM     22  C   UNL     1       7.332  -3.978   2.878  1.00  0.00     0.278 C 
ENDBRANCH  18  21
BRANCH  20  23
ATOM     23  O   UNL     1       5.770  -7.535   1.438  1.00  0.00    -0.504 OA
ATOM     24  H   UNL     1       5.897  -8.505   1.694  1.00  0.00     0.293 HD
ENDBRANCH  20  23
ENDBRANCH  14  15
ENDBRANCH  12  14
ENDBRANCH   9  10
ENDBRANCH   1   9
TORSDOF 10
ENDMDL
MODEL 2
REMARK VINA RESULT:    -5.350      1.115      2.207
REMARK INTER + INTRA:          -9.084
REMARK INTER:                  -8.073
REMARK INTRA:                  -1.012
REMARK UNBOUND:                -0.764
REMARK SMILES COc1cc(CNC(=O)CCCCC=CC(C)C)ccc1O
REMARK SMILES IDX 11 1 12 2 13 3 14 4 15 5 16 6 17 7 18 8 10 9 8 10 9 11 7 12
REMARK SMILES IDX 6 14 5 15 4 16 19 17 3 18 20 19 21 20 2 21 1 22 22 23
REMARK H PARENT 7 13 22 24
REMARK Flexibility Score: inf
ROOT
ATOM      1  C   UNL     1       9.038  -3.379  -6.554  1.00  0.00     0.010 C 
ENDROOT
BRANCH   1   2
ATOM      2  C   UNL     1       9.522  -1.981  -6.131  1.00  0.00     0.005 C 
BRANCH   2   3
ATOM      3  C   UNL     1       9.420  -0.929  -7.251  1.00  0.00     0.027 C 
BRANCH   3   4
ATOM      4  C   UNL     1       8.405   0.142  -6.920  1.00  0.00    -0.031 C 
ATOM      5  C   UNL     1       7.222   0.313  -7.546  1.00  0.00    -0.028 C 
BRANCH   5   6
ATOM      6  C   UNL     1       6.685  -0.578  -8.646  1.00  0.00     0.005 C 
ATOM      7  C   UNL     1       5.874   0.250  -9.646  1.00  0.00     0.012 C 
ATOM      8  C   UNL     1       5.824  -1.695  -8.047  1.00  0.00     0.012 C 
ENDBRANCH   5   6
ENDBRANCH   3   4
ENDBRANCH   2   3
ENDBRANCH   1   2
BRANCH   1   9
ATOM      9  C   UNL     1       8.073  -4.002  -5.534  1.00  0.00     0.100 C 
BRANCH   9  10
ATOM     10  C   UNL     1       8.832  -4.726  -4.459  1.00  0.00     0.220 C 
ATOM     11  O   UNL     1       9.465  -5.777  -4.749  1.00  0.00    -0.275 OA
ATOM     12  N   UNL     1       8.827  -4.233  -3.110  1.00  0.00    -0.352 N 
ATOM     13  H   UNL     1       8.278  -3.372  -2.879  1.00  0.00     0.163 HD
BRANCH  12  14
ATOM     14  C   UNL     1       9.535  -4.905  -2.023  1.00  0.00     0.151 C 
BRANCH  14  15
ATOM     15  C   UNL     1       8.557  -5.601  -1.113  1.00  0.00    -0.025 A 
ATOM     16  C   UNL     1       8.141  -4.995   0.084  1.00  0.00     0.056 A 
ATOM     17  C   UNL     1       8.021  -6.844  -1.478  1.00  0.00     0.009 A 
ATOM     18  C   UNL     1       7.198  -5.628   0.916  1.00  0.00     0.160 A 
ATOM     19  C   UNL     1       7.086  -7.475  -0.658  1.00  0.00     0.050 A 
ATOM     20  C   UNL     1       6.672  -6.871   0.536  1.00  0.00     0.157 A 
BRANCH  18  21
ATOM     21  O   UNL     1       6.758  -5.055   2.120  1.00  0.00    -0.493 OA
ATOM     22  C   UNL     1       7.244  -3.828   2.654  1.00  0.00     0.278 C 
ENDBRANCH  18  21
BRANCH  20  23
ATOM     23  O   UNL     1       5.733  -7.496   1.353  1.00  0.00    -0.504 OA
ATOM     24  H   UNL     1       5.060  -6.963   1.887  1.00  0.00     0.293 HD
ENDBRANCH  20  23
ENDBRANCH  14  15
ENDBRANCH  12  14
ENDBRANCH   9  10
ENDBRANCH   1   9
TORSDOF 10
ENDMDL
MODEL 3
REMARK VINA RESULT:    -5.325      5.943      8.698
REMARK INTER + INTRA:          -9.046
REMARK INTER:                  -7.539
REMARK INTRA:                  -1.507
REMARK UNBOUND:                -0.764
REMARK SMILES COc1cc(CNC(=O)CCCCC=CC(C)C)ccc1O
REMARK SMILES IDX 11 1 12 2 13 3 14 4 15 5 16 6 17 7 18 8 10 9 8 10 9 11 7 12
REMARK SMILES IDX 6 14 5 15 4 16 19 17 3 18 20 19 21 20 2 21 1 22 22 23
REMARK H PARENT 7 13 22 24
REMARK Flexibility Score: inf
ROOT
ATOM      1  C   UNL     1       7.757  -2.635  -7.724  1.00  0.00     0.010 C 
ENDROOT
BRANCH   1   2
ATOM      2  C   UNL     1       8.722  -1.867  -6.805  1.00  0.00     0.005 C 
BRANCH   2   3
ATOM      3  C   UNL     1       8.796  -0.360  -7.110  1.00  0.00     0.027 C 
BRANCH   3   4
ATOM      4  C   UNL     1       7.423   0.235  -7.324  1.00  0.00    -0.031 C 
ATOM      5  C   UNL     1       6.918   0.621  -8.514  1.00  0.00    -0.028 C 
BRANCH   5   6
ATOM      6  C   UNL     1       7.620   0.466  -9.847  1.00  0.00     0.005 C 
ATOM      7  C   UNL     1       7.876   1.840 -10.471  1.00  0.00     0.012 C 
ATOM      8  C   UNL     1       6.782  -0.405 -10.787  1.00  0.00     0.012 C 
ENDBRANCH   5   6
ENDBRANCH   3   4
ENDBRANCH   2   3
ENDBRANCH   1   2
BRANCH   1   9
ATOM      9  C   UNL     1       6.811  -3.560  -6.944  1.00  0.00     0.100 C 
BRANCH   9  10
ATOM     10  C   UNL     1       5.462  -3.615  -7.600  1.00  0.00     0.220 C 
ATOM     11  O   UNL     1       4.811  -4.695  -7.589  1.00  0.00    -0.275 OA
ATOM     12  N   UNL     1       4.921  -2.452  -8.247  1.00  0.00    -0.352 N 
ATOM     13  H   UNL     1       5.483  -1.568  -8.269  1.00  0.00     0.163 HD
BRANCH  12  14
ATOM     14  C   UNL     1       3.621  -2.452  -8.912  1.00  0.00     0.151 C 
BRANCH  14  15
ATOM     15  C   UNL     1       2.903  -1.152  -8.659  1.00  0.00    -0.025 A 
ATOM     16  C   UNL     1       1.743  -1.120  -7.868  1.00  0.00     0.056 A 
ATOM     17  C   UNL     1       3.415   0.046  -9.179  1.00  0.00     0.009 A 
ATOM     18  C   UNL     1       1.093   0.100  -7.599  1.00  0.00     0.160 A 
ATOM     19  C   UNL     1       2.776   1.257  -8.915  1.00  0.00     0.050 A 
ATOM     20  C   UNL     1       1.619   1.288  -8.126  1.00  0.00     0.157 A 
BRANCH  18  21
ATOM     21  O   UNL     1      -0.069   0.172  -6.814  1.00  0.00    -0.493 OA
ATOM     22  C   UNL     1      -1.182  -0.707  -6.938  1.00  0.00     0.278 C 
ENDBRANCH  18  21
BRANCH  20  23
ATOM     23  O   UNL     1       0.982   2.497  -7.856  1.00  0.00    -0.504 OA
ATOM     24  H   UNL     1       0.122   2.534  -7.325  1.00  0.00     0.293 HD
ENDBRANCH  20  23
ENDBRANCH  14  15
ENDBRANCH  12  14
ENDBRANCH   9  10
ENDBRANCH   1   9
TORSDOF 10
ENDMDL
MODEL 4
REMARK VINA RESULT:    -5.294      6.857      9.223
REMARK INTER + INTRA:          -8.998
REMARK INTER:                  -7.827
REMARK INTRA:                  -1.171
REMARK UNBOUND:                -0.764
REMARK SMILES COc1cc(CNC(=O)CCCCC=CC(C)C)ccc1O
REMARK SMILES IDX 11 1 12 2 13 3 14 4 15 5 16 6 17 7 18 8 10 9 8 10 9 11 7 12
REMARK SMILES IDX 6 14 5 15 4 16 19 17 3 18 20 19 21 20 2 21 1 22 22 23
REMARK H PARENT 7 13 22 24
REMARK Flexibility Score: inf
ROOT
ATOM      1  C   UNL     1       5.608  -3.479  -7.308  1.00  0.00     0.010 C 
ENDROOT
BRANCH   1   2
ATOM      2  C   UNL     1       7.016  -3.390  -7.922  1.00  0.00     0.005 C 
BRANCH   2   3
ATOM      3  C   UNL     1       7.282  -2.067  -8.664  1.00  0.00     0.027 C 
BRANCH   3   4
ATOM      4  C   UNL     1       6.526  -0.916  -8.041  1.00  0.00    -0.031 C 
ATOM      5  C   UNL     1       7.067   0.262  -7.669  1.00  0.00    -0.028 C 
BRANCH   5   6
ATOM      6  C   UNL     1       8.516   0.653  -7.870  1.00  0.00     0.005 C 
ATOM      7  C   UNL     1       9.097   1.213  -6.569  1.00  0.00     0.012 C 
ATOM      8  C   UNL     1       8.634   1.682  -8.998  1.00  0.00     0.012 C 
ENDBRANCH   5   6
ENDBRANCH   3   4
ENDBRANCH   2   3
ENDBRANCH   1   2
BRANCH   1   9
ATOM      9  C   UNL     1       4.695  -4.454  -8.066  1.00  0.00     0.100 C 
BRANCH   9  10
ATOM     10  C   UNL     1       3.668  -3.707  -8.866  1.00  0.00     0.220 C 
ATOM     11  O   UNL     1       3.962  -3.295 -10.021  1.00  0.00    -0.275 OA
ATOM     12  N   UNL     1       2.365  -3.451  -8.317  1.00  0.00    -0.352 N 
ATOM     13  H   UNL     1       2.143  -3.778  -7.347  1.00  0.00     0.163 HD
BRANCH  12  14
ATOM     14  C   UNL     1       1.333  -2.717  -9.045  1.00  0.00     0.151 C 
BRANCH  14  15
ATOM     15  C   UNL     1       1.284  -1.285  -8.579  1.00  0.00    -0.025 A 
ATOM     16  C   UNL     1       2.158  -0.328  -9.120  1.00  0.00     0.056 A 
ATOM     17  C   UNL     1       0.332  -0.888  -7.629  1.00  0.00     0.009 A 
ATOM     18  C   UNL     1       2.087   1.018  -8.714  1.00  0.00     0.160 A 
ATOM     19  C   UNL     1       0.256   0.444  -7.223  1.00  0.00     0.050 A 
ATOM     20  C   UNL     1       1.129   1.398  -7.763  1.00  0.00     0.157 A 
BRANCH  18  21
ATOM     21  O   UNL     1       2.944   2.002  -9.232  1.00  0.00    -0.493 OA
ATOM     22  C   UNL     1       3.974   1.756 -10.183  1.00  0.00     0.278 C 
ENDBRANCH  18  21
BRANCH  20  23
ATOM     23  O   UNL     1       1.052   2.730  -7.363  1.00  0.00    -0.504 OA
ATOM     24  H   UNL     1       1.654   3.099  -6.639  1.00  0.00     0.293 HD
ENDBRANCH  20  23
ENDBRANCH  14  15
ENDBRANCH  12  14
ENDBRANCH   9  10
ENDBRANCH   1   9
TORSDOF 10
ENDMDL
MODEL 5
REMARK VINA RESULT:    -5.194      1.139      2.007
REMARK INTER + INTRA:          -8.842
REMARK INTER:                  -8.158
REMARK INTRA:                  -0.684
REMARK UNBOUND:                -0.764
REMARK SMILES COc1cc(CNC(=O)CCCCC=CC(C)C)ccc1O
REMARK SMILES IDX 11 1 12 2 13 3 14 4 15 5 16 6 17 7 18 8 10 9 8 10 9 11 7 12
REMARK SMILES IDX 6 14 5 15 4 16 19 17 3 18 20 19 21 20 2 21 1 22 22 23
REMARK H PARENT 7 13 22 24
REMARK Flexibility Score: inf
ROOT
ATOM      1  C   UNL     1       8.446  -4.003  -5.810  1.00  0.00     0.010 C 
ENDROOT
BRANCH   1   2
ATOM      2  C   UNL     1       7.934  -3.010  -6.867  1.00  0.00     0.005 C 
BRANCH   2   3
ATOM      3  C   UNL     1       8.737  -1.698  -6.922  1.00  0.00     0.027 C 
BRANCH   3   4
ATOM      4  C   UNL     1       7.843  -0.507  -7.187  1.00  0.00    -0.031 C 
ATOM      5  C   UNL     1       8.240   0.782  -7.182  1.00  0.00    -0.028 C 
BRANCH   5   6
ATOM      6  C   UNL     1       9.665   1.249  -6.972  1.00  0.00     0.005 C 
ATOM      7  C   UNL     1       9.932   1.474  -5.481  1.00  0.00     0.012 C 
ATOM      8  C   UNL     1       9.921   2.535  -7.764  1.00  0.00     0.012 C 
ENDBRANCH   5   6
ENDBRANCH   3   4
ENDBRANCH   2   3
ENDBRANCH   1   2
BRANCH   1   9
ATOM      9  C   UNL     1       7.855  -5.409  -5.986  1.00  0.00     0.100 C 
BRANCH   9  10
ATOM     10  C   UNL     1       8.170  -6.270  -4.797  1.00  0.00     0.220 C 
ATOM     11  O   UNL     1       7.519  -7.335  -4.613  1.00  0.00    -0.275 OA
ATOM     12  N   UNL     1       9.197  -5.881  -3.871  1.00  0.00    -0.352 N 
ATOM     13  H   UNL     1       9.713  -4.983  -4.023  1.00  0.00     0.163 HD
BRANCH  12  14
ATOM     14  C   UNL     1       9.535  -6.673  -2.691  1.00  0.00     0.151 C 
BRANCH  14  15
ATOM     15  C   UNL     1       8.667  -6.273  -1.526  1.00  0.00    -0.025 A 
ATOM     16  C   UNL     1       7.778  -7.195  -0.948  1.00  0.00     0.056 A 
ATOM     17  C   UNL     1       8.771  -4.984  -0.983  1.00  0.00     0.009 A 
ATOM     18  C   UNL     1       6.995  -6.833   0.164  1.00  0.00     0.160 A 
ATOM     19  C   UNL     1       7.997  -4.621   0.120  1.00  0.00     0.050 A 
ATOM     20  C   UNL     1       7.111  -5.541   0.695  1.00  0.00     0.157 A 
BRANCH  18  21
ATOM     21  O   UNL     1       6.096  -7.727   0.769  1.00  0.00    -0.493 OA
ATOM     22  C   UNL     1       6.478  -8.805   1.617  1.00  0.00     0.278 C 
ENDBRANCH  18  21
BRANCH  20  23
ATOM     23  O   UNL     1       6.343  -5.182   1.799  1.00  0.00    -0.504 OA
ATOM     24  H   UNL     1       5.993  -4.240   1.916  1.00  0.00     0.293 HD
ENDBRANCH  20  23
ENDBRANCH  14  15
ENDBRANCH  12  14
ENDBRANCH   9  10
ENDBRANCH   1   9
TORSDOF 10
ENDMDL
MODEL 6
REMARK VINA RESULT:    -5.146      4.875      7.163
REMARK INTER + INTRA:          -8.768
REMARK INTER:                  -6.734
REMARK INTRA:                  -2.034
REMARK UNBOUND:                -0.764
REMARK SMILES COc1cc(CNC(=O)CCCCC=CC(C)C)ccc1O
REMARK SMILES IDX 11 1 12 2 13 3 14 4 15 5 16 6 17 7 18 8 10 9 8 10 9 11 7 12
REMARK SMILES IDX 6 14 5 15 4 16 19 17 3 18 20 19 21 20 2 21 1 22 22 23
REMARK H PARENT 7 13 22 24
REMARK Flexibility Score: inf
ROOT
ATOM      1  C   UNL     1       9.103  -5.284  -0.333  1.00  0.00     0.010 C 
ENDROOT
BRANCH   1   2
ATOM      2  C   UNL     1       8.807  -3.978  -1.090  1.00  0.00     0.005 C 
BRANCH   2   3
ATOM      3  C   UNL     1       8.755  -2.736  -0.181  1.00  0.00     0.027 C 
BRANCH   3   4
ATOM      4  C   UNL     1      10.117  -2.097  -0.030  1.00  0.00    -0.031 C 
ATOM      5  C   UNL     1      10.829  -2.042   1.114  1.00  0.00    -0.028 C 
BRANCH   5   6
ATOM      6  C   UNL     1      10.411  -2.667   2.428  1.00  0.00     0.005 C 
ATOM      7  C   UNL     1      10.495  -1.633   3.554  1.00  0.00     0.012 C 
ATOM      8  C   UNL     1      11.294  -3.878   2.742  1.00  0.00     0.012 C 
ENDBRANCH   5   6
ENDBRANCH   3   4
ENDBRANCH   2   3
ENDBRANCH   1   2
BRANCH   1   9
ATOM      9  C   UNL     1       7.853  -6.159  -0.156  1.00  0.00     0.100 C 
BRANCH   9  10
ATOM     10  C   UNL     1       7.230  -5.928   1.190  1.00  0.00     0.220 C 
ATOM     11  O   UNL     1       5.992  -6.121   1.341  1.00  0.00    -0.275 OA
ATOM     12  N   UNL     1       8.031  -5.480   2.294  1.00  0.00    -0.352 N 
ATOM     13  H   UNL     1       9.053  -5.301   2.149  1.00  0.00     0.163 HD
BRANCH  12  14
ATOM     14  C   UNL     1       7.475  -5.226   3.621  1.00  0.00     0.151 C 
BRANCH  14  15
ATOM     15  C   UNL     1       7.184  -3.758   3.793  1.00  0.00    -0.025 A 
ATOM     16  C   UNL     1       7.159  -3.181   5.074  1.00  0.00     0.056 A 
ATOM     17  C   UNL     1       6.976  -2.946   2.668  1.00  0.00     0.009 A 
ATOM     18  C   UNL     1       6.925  -1.802   5.233  1.00  0.00     0.160 A 
ATOM     19  C   UNL     1       6.744  -1.579   2.821  1.00  0.00     0.050 A 
ATOM     20  C   UNL     1       6.719  -1.005   4.098  1.00  0.00     0.157 A 
BRANCH  18  21
ATOM     21  O   UNL     1       6.892  -1.190   6.496  1.00  0.00    -0.493 OA
ATOM     22  C   UNL     1       7.800  -1.476   7.555  1.00  0.00     0.278 C 
ENDBRANCH  18  21
BRANCH  20  23
ATOM     23  O   UNL     1       6.494   0.361   4.252  1.00  0.00    -0.504 OA
ATOM     24  H   UNL     1       6.819   1.030   3.566  1.00  0.00     0.293 HD
ENDBRANCH  20  23
ENDBRANCH  14  15
ENDBRANCH  12  14
ENDBRANCH   9  10
ENDBRANCH   1   9
TORSDOF 10
ENDMDL
MODEL 7
REMARK VINA RESULT:    -5.127      1.861      2.867
REMARK INTER + INTRA:          -8.738
REMARK INTER:                  -7.950
REMARK INTRA:                  -0.788
REMARK UNBOUND:                -0.764
REMARK SMILES COc1cc(CNC(=O)CCCCC=CC(C)C)ccc1O
REMARK SMILES IDX 11 1 12 2 13 3 14 4 15 5 16 6 17 7 18 8 10 9 8 10 9 11 7 12
REMARK SMILES IDX 6 14 5 15 4 16 19 17 3 18 20 19 21 20 2 21 1 22 22 23
REMARK H PARENT 7 13 22 24
REMARK Flexibility Score: inf
ROOT
ATOM      1  C   UNL     1       6.060  -4.291  -7.220  1.00  0.00     0.010 C 
ENDROOT
BRANCH   1   2
ATOM      2  C   UNL     1       5.185  -3.107  -7.668  1.00  0.00     0.005 C 
BRANCH   2   3
ATOM      3  C   UNL     1       5.930  -2.090  -8.552  1.00  0.00     0.027 C 
BRANCH   3   4
ATOM      4  C   UNL     1       5.430  -0.681  -8.325  1.00  0.00    -0.031 C 
ATOM      5  C   UNL     1       6.210   0.411  -8.195  1.00  0.00    -0.028 C 
BRANCH   5   6
ATOM      6  C   UNL     1       7.719   0.419  -8.316  1.00  0.00     0.005 C 
ATOM      7  C   UNL     1       8.359   0.480  -6.926  1.00  0.00     0.012 C 
ATOM      8  C   UNL     1       8.174   1.606  -9.170  1.00  0.00     0.012 C 
ENDBRANCH   5   6
ENDBRANCH   3   4
ENDBRANCH   2   3
ENDBRANCH   1   2
BRANCH   1   9
ATOM      9  C   UNL     1       7.330  -3.839  -6.484  1.00  0.00     0.100 C 
BRANCH   9  10
ATOM     10  C   UNL     1       7.874  -4.952  -5.634  1.00  0.00     0.220 C 
ATOM     11  O   UNL     1       7.393  -6.112  -5.750  1.00  0.00    -0.275 OA
ATOM     12  N   UNL     1       8.926  -4.696  -4.690  1.00  0.00    -0.352 N 
ATOM     13  H   UNL     1       9.300  -3.723  -4.589  1.00  0.00     0.163 HD
BRANCH  12  14
ATOM     14  C   UNL     1       9.483  -5.736  -3.830  1.00  0.00     0.151 C 
BRANCH  14  15
ATOM     15  C   UNL     1       8.945  -5.600  -2.429  1.00  0.00    -0.025 A 
ATOM     16  C   UNL     1       8.455  -6.722  -1.741  1.00  0.00     0.056 A 
ATOM     17  C   UNL     1       8.968  -4.353  -1.786  1.00  0.00     0.009 A 
ATOM     18  C   UNL     1       7.987  -6.602  -0.418  1.00  0.00     0.160 A 
ATOM     19  C   UNL     1       8.506  -4.230  -0.476  1.00  0.00     0.050 A 
ATOM     20  C   UNL     1       8.017  -5.349   0.210  1.00  0.00     0.157 A 
BRANCH  18  21
ATOM     21  O   UNL     1       7.490  -7.700   0.302  1.00  0.00    -0.493 OA
ATOM     22  C   UNL     1       6.119  -8.080   0.350  1.00  0.00     0.278 C 
ENDBRANCH  18  21
BRANCH  20  23
ATOM     23  O   UNL     1       7.562  -5.228   1.520  1.00  0.00    -0.504 OA
ATOM     24  H   UNL     1       6.589  -5.040   1.726  1.00  0.00     0.293 HD
ENDBRANCH  20  23
ENDBRANCH  14  15
ENDBRANCH  12  14
ENDBRANCH   9  10
ENDBRANCH   1   9
TORSDOF 10
ENDMDL
MODEL 8
REMARK VINA RESULT:    -5.104      1.556      3.034
REMARK INTER + INTRA:          -8.702
REMARK INTER:                  -7.894
REMARK INTRA:                  -0.808
REMARK UNBOUND:                -0.764
REMARK SMILES COc1cc(CNC(=O)CCCCC=CC(C)C)ccc1O
REMARK SMILES IDX 11 1 12 2 13 3 14 4 15 5 16 6 17 7 18 8 10 9 8 10 9 11 7 12
REMARK SMILES IDX 6 14 5 15 4 16 19 17 3 18 20 19 21 20 2 21 1 22 22 23
REMARK H PARENT 7 13 22 24
REMARK Flexibility Score: inf
ROOT
ATOM      1  C   UNL     1       8.374  -3.732  -6.970  1.00  0.00     0.010 C 
ENDROOT
BRANCH   1   2
ATOM      2  C   UNL     1       8.917  -2.340  -6.605  1.00  0.00     0.005 C 
BRANCH   2   3
ATOM      3  C   UNL     1       8.753  -1.299  -7.728  1.00  0.00     0.027 C 
BRANCH   3   4
ATOM      4  C   UNL     1       7.973  -0.092  -7.260  1.00  0.00    -0.031 C 
ATOM      5  C   UNL     1       6.764   0.283  -7.727  1.00  0.00    -0.028 C 
BRANCH   5   6
ATOM      6  C   UNL     1       5.956  -0.480  -8.755  1.00  0.00     0.005 C 
ATOM      7  C   UNL     1       4.859   0.417  -9.336  1.00  0.00     0.012 C 
ATOM      8  C   UNL     1       5.346  -1.735  -8.123  1.00  0.00     0.012 C 
ENDBRANCH   5   6
ENDBRANCH   3   4
ENDBRANCH   2   3
ENDBRANCH   1   2
BRANCH   1   9
ATOM      9  C   UNL     1       7.607  -4.387  -5.812  1.00  0.00     0.100 C 
BRANCH   9  10
ATOM     10  C   UNL     1       8.552  -4.831  -4.733  1.00  0.00     0.220 C 
ATOM     11  O   UNL     1       9.206  -5.899  -4.883  1.00  0.00    -0.275 OA
ATOM     12  N   UNL     1       8.703  -4.053  -3.535  1.00  0.00    -0.352 N 
ATOM     13  H   UNL     1       8.136  -3.180  -3.413  1.00  0.00     0.163 HD
BRANCH  12  14
ATOM     14  C   UNL     1       9.597  -4.444  -2.448  1.00  0.00     0.151 C 
BRANCH  14  15
ATOM     15  C   UNL     1       8.811  -4.680  -1.183  1.00  0.00    -0.025 A 
ATOM     16  C   UNL     1       8.440  -5.981  -0.806  1.00  0.00     0.056 A 
ATOM     17  C   UNL     1       8.480  -3.600  -0.351  1.00  0.00     0.009 A 
ATOM     18  C   UNL     1       7.739  -6.205   0.394  1.00  0.00     0.160 A 
ATOM     19  C   UNL     1       7.786  -3.817   0.839  1.00  0.00     0.050 A 
ATOM     20  C   UNL     1       7.417  -5.115   1.215  1.00  0.00     0.157 A 
BRANCH  18  21
ATOM     21  O   UNL     1       7.351  -7.490   0.805  1.00  0.00    -0.493 OA
ATOM     22  C   UNL     1       6.157  -8.144   0.388  1.00  0.00     0.278 C 
ENDBRANCH  18  21
BRANCH  20  23
ATOM     23  O   UNL     1       6.729  -5.334   2.406  1.00  0.00    -0.504 OA
ATOM     24  H   UNL     1       7.209  -5.354   3.296  1.00  0.00     0.293 HD
ENDBRANCH  20  23
ENDBRANCH  14  15
ENDBRANCH  12  14
ENDBRANCH   9  10
ENDBRANCH   1   9
TORSDOF 10
ENDMDL
MODEL 9
REMARK VINA RESULT:    -5.092      7.066      8.811
REMARK INTER + INTRA:          -8.683
REMARK INTER:                  -7.097
REMARK INTRA:                  -1.586
REMARK UNBOUND:                -0.764
REMARK SMILES COc1cc(CNC(=O)CCCCC=CC(C)C)ccc1O
REMARK SMILES IDX 11 1 12 2 13 3 14 4 15 5 16 6 17 7 18 8 10 9 8 10 9 11 7 12
REMARK SMILES IDX 6 14 5 15 4 16 19 17 3 18 20 19 21 20 2 21 1 22 22 23
REMARK H PARENT 7 13 22 24
REMARK Flexibility Score: inf
ROOT
ATOM      1  C   UNL     1       9.411  -0.962  -9.842  1.00  0.00     0.010 C 
ENDROOT
BRANCH   1   2
ATOM      2  C   UNL     1       8.445  -1.827  -9.014  1.00  0.00     0.005 C 
BRANCH   2   3
ATOM      3  C   UNL     1       8.436  -1.478  -7.514  1.00  0.00     0.027 C 
BRANCH   3   4
ATOM      4  C   UNL     1       7.676  -0.199  -7.243  1.00  0.00    -0.031 C 
ATOM      5  C   UNL     1       8.235   0.989  -6.938  1.00  0.00    -0.028 C 
BRANCH   5   6
ATOM      6  C   UNL     1       9.724   1.258  -6.877  1.00  0.00     0.005 C 
ATOM      7  C   UNL     1      10.193   1.300  -5.419  1.00  0.00     0.012 C 
ATOM      8  C   UNL     1      10.053   2.575  -7.586  1.00  0.00     0.012 C 
ENDBRANCH   5   6
ENDBRANCH   3   4
ENDBRANCH   2   3
ENDBRANCH   1   2
BRANCH   1   9
ATOM      9  C   UNL     1       8.733  -0.331 -11.067  1.00  0.00     0.100 C 
BRANCH   9  10
ATOM     10  C   UNL     1       7.704   0.677 -10.644  1.00  0.00     0.220 C 
ATOM     11  O   UNL     1       8.067   1.853 -10.367  1.00  0.00    -0.275 OA
ATOM     12  N   UNL     1       6.321   0.304 -10.543  1.00  0.00    -0.352 N 
ATOM     13  H   UNL     1       6.037  -0.682 -10.753  1.00  0.00     0.163 HD
BRANCH  12  14
ATOM     14  C   UNL     1       5.281   1.240 -10.122  1.00  0.00     0.151 C 
BRANCH  14  15
ATOM     15  C   UNL     1       4.219   0.520  -9.330  1.00  0.00    -0.025 A 
ATOM     16  C   UNL     1       2.940   1.079  -9.180  1.00  0.00     0.056 A 
ATOM     17  C   UNL     1       4.492  -0.737  -8.771  1.00  0.00     0.009 A 
ATOM     18  C   UNL     1       1.936   0.390  -8.473  1.00  0.00     0.160 A 
ATOM     19  C   UNL     1       3.501  -1.424  -8.070  1.00  0.00     0.050 A 
ATOM     20  C   UNL     1       2.225  -0.866  -7.920  1.00  0.00     0.157 A 
BRANCH  18  21
ATOM     21  O   UNL     1       0.646   0.916  -8.301  1.00  0.00    -0.493 OA
ATOM     22  C   UNL     1       0.255   1.760  -7.224  1.00  0.00     0.278 C 
ENDBRANCH  18  21
BRANCH  20  23
ATOM     23  O   UNL     1       1.233  -1.553  -7.226  1.00  0.00    -0.504 OA
ATOM     24  H   UNL     1       1.453  -2.346  -6.638  1.00  0.00     0.293 HD
ENDBRANCH  20  23
ENDBRANCH  14  15
ENDBRANCH  12  14
ENDBRANCH   9  10
ENDBRANCH   1   9
TORSDOF 10
ENDMDL
