MODEL 1
REMARK VINA RESULT:    -4.491      0.000      0.000
REMARK INTER + INTRA:          -7.864
REMARK INTER:                  -6.854
REMARK INTRA:                  -1.010
REMARK UNBOUND:                -1.010
REMARK SMILES CCCCCCCCCCC(=O)[O-]
REMARK SMILES IDX 7 1 8 2 9 3 10 4 11 5 12 6 13 7 6 8 5 9 4 10 3 11 2 12 1 13
REMARK H PARENT
REMARK Flexibility Score: inf
ROOT
ATOM      1  C   UNL     1      62.764 -28.957  -1.517  1.00  0.00     0.000 C 
ENDROOT
BRANCH   1   2
ATOM      2  C   UNL     1      61.510 -28.835  -0.638  1.00  0.00     0.000 C 
BRANCH   2   3
ATOM      3  C   UNL     1      60.213 -28.797  -1.460  1.00  0.00     0.006 C 
BRANCH   3   4
ATOM      4  C   UNL     1      59.013 -28.453  -0.573  1.00  0.00     0.053 C 
BRANCH   4   5
ATOM      5  C   UNL     1      58.808 -29.509   0.466  1.00  0.00     0.041 C 
ATOM      6  O   UNL     1      58.554 -30.694   0.123  1.00  0.00    -0.550 OA
ATOM      7  O   UNL     1      58.947 -29.197   1.812  1.00  0.00    -0.550 OA
ENDBRANCH   4   5
ENDBRANCH   3   4
ENDBRANCH   2   3
ENDBRANCH   1   2
BRANCH   1   8
ATOM      8  C   UNL     1      63.623 -27.680  -1.504  1.00  0.00     0.000 C 
BRANCH   8   9
ATOM      9  C   UNL     1      63.563 -26.917  -2.837  1.00  0.00    -0.000 C 
BRANCH   9  10
ATOM     10  C   UNL     1      62.652 -25.680  -2.768  1.00  0.00    -0.000 C 
BRANCH  10  11
ATOM     11  C   UNL     1      61.400 -25.818  -3.651  1.00  0.00    -0.000 C 
BRANCH  11  12
ATOM     12  C   UNL     1      60.118 -25.381  -2.929  1.00  0.00    -0.003 C 
ATOM     13  C   UNL     1      58.890 -26.059  -3.530  1.00  0.00     0.004 C 
ENDBRANCH  11  12
ENDBRANCH  10  11
ENDBRANCH   9  10
ENDBRANCH   8   9
ENDBRANCH   1   8
TORSDOF 9
ENDMDL
MODEL 2
REMARK VINA RESULT:    -4.480      0.924      1.438
REMARK INTER + INTRA:          -7.847
REMARK INTER:                  -6.869
REMARK INTRA:                  -0.978
REMARK UNBOUND:                -1.010
REMARK SMILES CCCCCCCCCCC(=O)[O-]
REMARK SMILES IDX 7 1 8 2 9 3 10 4 11 5 12 6 13 7 6 8 5 9 4 10 3 11 2 12 1 13
REMARK H PARENT
REMARK Flexibility Score: inf
ROOT
ATOM      1  C   UNL     1      62.596 -28.247  -1.927  1.00  0.00     0.000 C 
ENDROOT
BRANCH   1   2
ATOM      2  C   UNL     1      62.706 -28.844  -0.516  1.00  0.00     0.000 C 
BRANCH   2   3
ATOM      3  C   UNL     1      61.335 -29.148   0.106  1.00  0.00     0.006 C 
BRANCH   3   4
ATOM      4  C   UNL     1      60.206 -28.844  -0.882  1.00  0.00     0.053 C 
BRANCH   4   5
ATOM      5  C   UNL     1      58.941 -29.523  -0.457  1.00  0.00     0.041 C 
ATOM      6  O   UNL     1      58.983 -30.505   0.331  1.00  0.00    -0.550 OA
ATOM      7  O   UNL     1      57.714 -29.042  -0.893  1.00  0.00    -0.550 OA
ENDBRANCH   4   5
ENDBRANCH   3   4
ENDBRANCH   2   3
ENDBRANCH   1   2
BRANCH   1   8
ATOM      8  C   UNL     1      63.523 -27.035  -2.131  1.00  0.00     0.000 C 
BRANCH   8   9
ATOM      9  C   UNL     1      62.842 -25.898  -2.909  1.00  0.00    -0.000 C 
BRANCH   9  10
ATOM     10  C   UNL     1      61.393 -26.237  -3.300  1.00  0.00    -0.000 C 
BRANCH  10  11
ATOM     11  C   UNL     1      60.378 -25.229  -2.736  1.00  0.00    -0.000 C 
BRANCH  11  12
ATOM     12  C   UNL     1      58.967 -25.821  -2.610  1.00  0.00    -0.003 C 
ATOM     13  C   UNL     1      58.752 -26.947  -3.618  1.00  0.00     0.004 C 
ENDBRANCH  11  12
ENDBRANCH  10  11
ENDBRANCH   9  10
ENDBRANCH   8   9
ENDBRANCH   1   8
TORSDOF 9
ENDMDL
MODEL 3
REMARK VINA RESULT:    -4.461      1.051      1.835
REMARK INTER + INTRA:          -7.819
REMARK INTER:                  -7.164
REMARK INTRA:                  -0.654
REMARK UNBOUND:                -1.010
REMARK SMILES CCCCCCCCCCC(=O)[O-]
REMARK SMILES IDX 7 1 8 2 9 3 10 4 11 5 12 6 13 7 6 8 5 9 4 10 3 11 2 12 1 13
REMARK H PARENT
REMARK Flexibility Score: inf
ROOT
ATOM      1  C   UNL     1      63.601 -27.785  -1.381  1.00  0.00     0.000 C 
ENDROOT
BRANCH   1   2
ATOM      2  C   UNL     1      62.799 -29.087  -1.235  1.00  0.00     0.000 C 
BRANCH   2   3
ATOM      3  C   UNL     1      61.694 -28.985  -0.174  1.00  0.00     0.006 C 
BRANCH   3   4
ATOM      4  C   UNL     1      60.316 -29.239  -0.793  1.00  0.00     0.053 C 
BRANCH   4   5
ATOM      5  C   UNL     1      59.395 -29.854   0.214  1.00  0.00     0.041 C 
ATOM      6  O   UNL     1      59.766 -29.995   1.409  1.00  0.00    -0.550 OA
ATOM      7  O   UNL     1      58.109 -30.226  -0.156  1.00  0.00    -0.550 OA
ENDBRANCH   4   5
ENDBRANCH   3   4
ENDBRANCH   2   3
ENDBRANCH   1   2
BRANCH   1   8
ATOM      8  C   UNL     1      63.435 -27.139  -2.769  1.00  0.00     0.000 C 
BRANCH   8   9
ATOM      9  C   UNL     1      62.573 -25.868  -2.727  1.00  0.00    -0.000 C 
BRANCH   9  10
ATOM     10  C   UNL     1      61.068 -26.173  -2.809  1.00  0.00    -0.000 C 
BRANCH  10  11
ATOM     11  C   UNL     1      60.278 -25.063  -3.523  1.00  0.00    -0.000 C 
BRANCH  11  12
ATOM     12  C   UNL     1      59.834 -25.472  -4.936  1.00  0.00    -0.003 C 
ATOM     13  C   UNL     1      60.908 -25.138  -5.967  1.00  0.00     0.004 C 
ENDBRANCH  11  12
ENDBRANCH  10  11
ENDBRANCH   9  10
ENDBRANCH   8   9
ENDBRANCH   1   8
TORSDOF 9
ENDMDL
MODEL 4
REMARK VINA RESULT:    -4.445      3.188      5.075
REMARK INTER + INTRA:          -7.794
REMARK INTER:                  -7.174
REMARK INTRA:                  -0.620
REMARK UNBOUND:                -1.010
REMARK SMILES CCCCCCCCCCC(=O)[O-]
REMARK SMILES IDX 7 1 8 2 9 3 10 4 11 5 12 6 13 7 6 8 5 9 4 10 3 11 2 12 1 13
REMARK H PARENT
REMARK Flexibility Score: inf
ROOT
ATOM      1  C   UNL     1      63.639 -26.893  -2.008  1.00  0.00     0.000 C 
ENDROOT
BRANCH   1   2
ATOM      2  C   UNL     1      62.889 -25.917  -2.927  1.00  0.00     0.000 C 
BRANCH   2   3
ATOM      3  C   UNL     1      61.392 -26.241  -3.039  1.00  0.00     0.006 C 
BRANCH   3   4
ATOM      4  C   UNL     1      60.623 -25.071  -3.660  1.00  0.00     0.053 C 
BRANCH   4   5
ATOM      5  C   UNL     1      60.121 -25.437  -5.021  1.00  0.00     0.041 C 
ATOM      6  O   UNL     1      60.871 -25.317  -6.026  1.00  0.00    -0.550 OA
ATOM      7  O   UNL     1      58.843 -25.957  -5.174  1.00  0.00    -0.550 OA
ENDBRANCH   4   5
ENDBRANCH   3   4
ENDBRANCH   2   3
ENDBRANCH   1   2
BRANCH   1   8
ATOM      8  C   UNL     1      62.997 -28.292  -1.981  1.00  0.00     0.000 C 
BRANCH   8   9
ATOM      9  C   UNL     1      63.000 -28.914  -0.575  1.00  0.00    -0.000 C 
BRANCH   9  10
ATOM     10  C   UNL     1      61.584 -29.056   0.008  1.00  0.00    -0.000 C 
BRANCH  10  11
ATOM     11  C   UNL     1      60.491 -28.994  -1.071  1.00  0.00    -0.000 C 
BRANCH  11  12
ATOM     12  C   UNL     1      59.075 -28.985  -0.477  1.00  0.00    -0.003 C 
ATOM     13  C   UNL     1      58.722 -30.345   0.119  1.00  0.00     0.004 C 
ENDBRANCH  11  12
ENDBRANCH  10  11
ENDBRANCH   9  10
ENDBRANCH   8   9
ENDBRANCH   1   8
TORSDOF 9
ENDMDL
MODEL 5
REMARK VINA RESULT:    -4.419      3.603      5.241
REMARK INTER + INTRA:          -7.754
REMARK INTER:                  -6.875
REMARK INTRA:                  -0.879
REMARK UNBOUND:                -1.010
REMARK SMILES CCCCCCCCCCC(=O)[O-]
REMARK SMILES IDX 7 1 8 2 9 3 10 4 11 5 12 6 13 7 6 8 5 9 4 10 3 11 2 12 1 13
REMARK H PARENT
REMARK Flexibility Score: inf
ROOT
ATOM      1  C   UNL     1      63.190 -26.250  -3.068  1.00  0.00     0.000 C 
ENDROOT
BRANCH   1   2
ATOM      2  C   UNL     1      61.819 -25.613  -2.798  1.00  0.00     0.000 C 
BRANCH   2   3
ATOM      3  C   UNL     1      60.761 -26.025  -3.833  1.00  0.00     0.006 C 
BRANCH   3   4
ATOM      4  C   UNL     1      60.982 -25.297  -5.162  1.00  0.00     0.053 C 
BRANCH   4   5
ATOM      5  C   UNL     1      59.727 -24.610  -5.598  1.00  0.00     0.041 C 
ATOM      6  O   UNL     1      59.053 -25.071  -6.558  1.00  0.00    -0.550 OA
ATOM      7  O   UNL     1      59.274 -23.489  -4.915  1.00  0.00    -0.550 OA
ENDBRANCH   4   5
ENDBRANCH   3   4
ENDBRANCH   2   3
ENDBRANCH   1   2
BRANCH   1   8
ATOM      8  C   UNL     1      63.674 -27.132  -1.902  1.00  0.00     0.000 C 
BRANCH   8   9
ATOM      9  C   UNL     1      62.953 -28.488  -1.851  1.00  0.00    -0.000 C 
BRANCH   9  10
ATOM     10  C   UNL     1      62.628 -28.929  -0.414  1.00  0.00    -0.000 C 
BRANCH  10  11
ATOM     11  C   UNL     1      61.116 -29.032  -0.155  1.00  0.00    -0.000 C 
BRANCH  11  12
ATOM     12  C   UNL     1      60.282 -28.764  -1.417  1.00  0.00    -0.003 C 
ATOM     13  C   UNL     1      58.917 -28.183  -1.059  1.00  0.00     0.004 C 
ENDBRANCH  11  12
ENDBRANCH  10  11
ENDBRANCH   9  10
ENDBRANCH   8   9
ENDBRANCH   1   8
TORSDOF 9
ENDMDL
MODEL 6
REMARK VINA RESULT:    -4.307      2.488      4.542
REMARK INTER + INTRA:          -7.583
REMARK INTER:                  -6.785
REMARK INTRA:                  -0.798
REMARK UNBOUND:                -1.010
REMARK SMILES CCCCCCCCCCC(=O)[O-]
REMARK SMILES IDX 7 1 8 2 9 3 10 4 11 5 12 6 13 7 6 8 5 9 4 10 3 11 2 12 1 13
REMARK H PARENT
REMARK Flexibility Score: inf
ROOT
ATOM      1  C   UNL     1      63.647 -26.937  -2.092  1.00  0.00     0.000 C 
ENDROOT
BRANCH   1   2
ATOM      2  C   UNL     1      62.975 -25.931  -3.039  1.00  0.00     0.000 C 
BRANCH   2   3
ATOM      3  C   UNL     1      61.464 -25.807  -2.793  1.00  0.00     0.006 C 
BRANCH   3   4
ATOM      4  C   UNL     1      60.690 -25.831  -4.115  1.00  0.00     0.053 C 
BRANCH   4   5
ATOM      5  C   UNL     1      59.232 -26.062  -3.865  1.00  0.00     0.041 C 
ATOM      6  O   UNL     1      58.756 -25.907  -2.709  1.00  0.00    -0.550 OA
ATOM      7  O   UNL     1      58.391 -26.399  -4.916  1.00  0.00    -0.550 OA
ENDBRANCH   4   5
ENDBRANCH   3   4
ENDBRANCH   2   3
ENDBRANCH   1   2
BRANCH   1   8
ATOM      8  C   UNL     1      62.874 -28.264  -1.991  1.00  0.00     0.000 C 
BRANCH   8   9
ATOM      9  C   UNL     1      62.783 -28.783  -0.547  1.00  0.00    -0.000 C 
BRANCH   9  10
ATOM     10  C   UNL     1      61.346 -29.158  -0.145  1.00  0.00    -0.000 C 
BRANCH  10  11
ATOM     11  C   UNL     1      60.320 -28.820  -1.239  1.00  0.00    -0.000 C 
BRANCH  11  12
ATOM     12  C   UNL     1      58.871 -28.978  -0.757  1.00  0.00    -0.003 C 
ATOM     13  C   UNL     1      58.713 -30.226   0.107  1.00  0.00     0.004 C 
ENDBRANCH  11  12
ENDBRANCH  10  11
ENDBRANCH   9  10
ENDBRANCH   8   9
ENDBRANCH   1   8
TORSDOF 9
ENDMDL
MODEL 7
REMARK VINA RESULT:    -4.255      2.418      3.064
REMARK INTER + INTRA:          -7.504
REMARK INTER:                  -6.508
REMARK INTRA:                  -0.997
REMARK UNBOUND:                -1.010
REMARK SMILES CCCCCCCCCCC(=O)[O-]
REMARK SMILES IDX 7 1 8 2 9 3 10 4 11 5 12 6 13 7 6 8 5 9 4 10 3 11 2 12 1 13
REMARK H PARENT
REMARK Flexibility Score: inf
ROOT
ATOM      1  C   UNL     1      61.177 -29.210  -0.276  1.00  0.00     0.000 C 
ENDROOT
BRANCH   1   2
ATOM      2  C   UNL     1      60.365 -28.826  -1.522  1.00  0.00     0.000 C 
BRANCH   2   3
ATOM      3  C   UNL     1      59.193 -27.887  -1.199  1.00  0.00     0.006 C 
BRANCH   3   4
ATOM      4  C   UNL     1      58.419 -27.520  -2.468  1.00  0.00     0.053 C 
BRANCH   4   5
ATOM      5  C   UNL     1      57.910 -26.115  -2.383  1.00  0.00     0.041 C 
ATOM      6  O   UNL     1      57.810 -25.414  -3.425  1.00  0.00    -0.550 OA
ATOM      7  O   UNL     1      57.502 -25.595  -1.163  1.00  0.00    -0.550 OA
ENDBRANCH   4   5
ENDBRANCH   3   4
ENDBRANCH   2   3
ENDBRANCH   1   2
BRANCH   1   8
ATOM      8  C   UNL     1      62.675 -28.888  -0.423  1.00  0.00     0.000 C 
BRANCH   8   9
ATOM      9  C   UNL     1      63.044 -28.440  -1.845  1.00  0.00    -0.000 C 
BRANCH   9  10
ATOM     10  C   UNL     1      63.672 -27.036  -1.876  1.00  0.00    -0.000 C 
BRANCH  10  11
ATOM     11  C   UNL     1      63.212 -26.210  -3.088  1.00  0.00    -0.000 C 
BRANCH  11  12
ATOM     12  C   UNL     1      61.730 -25.815  -3.004  1.00  0.00    -0.003 C 
ATOM     13  C   UNL     1      61.180 -25.450  -4.380  1.00  0.00     0.004 C 
ENDBRANCH  11  12
ENDBRANCH  10  11
ENDBRANCH   9  10
ENDBRANCH   8   9
ENDBRANCH   1   8
TORSDOF 9
ENDMDL
MODEL 8
REMARK VINA RESULT:    -4.221      3.631      5.683
REMARK INTER + INTRA:          -7.452
REMARK INTER:                  -6.355
REMARK INTRA:                  -1.097
REMARK UNBOUND:                -1.010
REMARK SMILES CCCCCCCCCCC(=O)[O-]
REMARK SMILES IDX 7 1 8 2 9 3 10 4 11 5 12 6 13 7 6 8 5 9 4 10 3 11 2 12 1 13
REMARK H PARENT
REMARK Flexibility Score: inf
ROOT
ATOM      1  C   UNL     1      59.917 -25.963  -2.349  1.00  0.00     0.000 C 
ENDROOT
BRANCH   1   2
ATOM      2  C   UNL     1      60.470 -24.916  -3.327  1.00  0.00     0.000 C 
BRANCH   2   3
ATOM      3  C   UNL     1      60.701 -25.485  -4.735  1.00  0.00     0.006 C 
BRANCH   3   4
ATOM      4  C   UNL     1      60.127 -24.551  -5.804  1.00  0.00     0.053 C 
BRANCH   4   5
ATOM      5  C   UNL     1      58.646 -24.410  -5.637  1.00  0.00     0.041 C 
ATOM      6  O   UNL     1      57.898 -25.418  -5.742  1.00  0.00    -0.550 OA
ATOM      7  O   UNL     1      58.097 -23.176  -5.317  1.00  0.00    -0.550 OA
ENDBRANCH   4   5
ENDBRANCH   3   4
ENDBRANCH   2   3
ENDBRANCH   1   2
BRANCH   1   8
ATOM      8  C   UNL     1      59.955 -27.391  -2.925  1.00  0.00     0.000 C 
BRANCH   8   9
ATOM      9  C   UNL     1      59.959 -28.468  -1.829  1.00  0.00    -0.000 C 
BRANCH   9  10
ATOM     10  C   UNL     1      61.238 -28.434  -0.975  1.00  0.00    -0.000 C 
BRANCH  10  11
ATOM     11  C   UNL     1      62.513 -28.623  -1.813  1.00  0.00    -0.000 C 
BRANCH  11  12
ATOM     12  C   UNL     1      63.535 -27.498  -1.593  1.00  0.00    -0.003 C 
ATOM     13  C   UNL     1      63.676 -26.631  -2.841  1.00  0.00     0.004 C 
ENDBRANCH  11  12
ENDBRANCH  10  11
ENDBRANCH   9  10
ENDBRANCH   8   9
ENDBRANCH   1   8
TORSDOF 9
ENDMDL
MODEL 9
REMARK VINA RESULT:    -4.204      1.965      3.793
REMARK INTER + INTRA:          -7.426
REMARK INTER:                  -6.495
REMARK INTRA:                  -0.932
REMARK UNBOUND:                -1.010
REMARK SMILES CCCCCCCCCCC(=O)[O-]
REMARK SMILES IDX 7 1 8 2 9 3 10 4 11 5 12 6 13 7 6 8 5 9 4 10 3 11 2 12 1 13
REMARK H PARENT
REMARK Flexibility Score: inf
ROOT
ATOM      1  C   UNL     1      61.655 -25.521  -4.127  1.00  0.00     0.000 C 
ENDROOT
BRANCH   1   2
ATOM      2  C   UNL     1      60.175 -25.911  -4.258  1.00  0.00     0.000 C 
BRANCH   2   3
ATOM      3  C   UNL     1      59.558 -26.351  -2.922  1.00  0.00     0.006 C 
BRANCH   3   4
ATOM      4  C   UNL     1      58.950 -27.752  -3.034  1.00  0.00     0.053 C 
BRANCH   4   5
ATOM      5  C   UNL     1      57.562 -27.767  -2.476  1.00  0.00     0.041 C 
ATOM      6  O   UNL     1      56.759 -26.836  -2.749  1.00  0.00    -0.550 OA
ATOM      7  O   UNL     1      57.139 -28.833  -1.693  1.00  0.00    -0.550 OA
ENDBRANCH   4   5
ENDBRANCH   3   4
ENDBRANCH   2   3
ENDBRANCH   1   2
BRANCH   1   8
ATOM      8  C   UNL     1      62.223 -25.816  -2.727  1.00  0.00     0.000 C 
BRANCH   8   9
ATOM      9  C   UNL     1      63.588 -26.521  -2.783  1.00  0.00    -0.000 C 
BRANCH   9  10
ATOM     10  C   UNL     1      63.635 -27.783  -1.903  1.00  0.00    -0.000 C 
BRANCH  10  11
ATOM     11  C   UNL     1      62.248 -28.418  -1.708  1.00  0.00    -0.000 C 
BRANCH  11  12
ATOM     12  C   UNL     1      62.035 -28.941  -0.280  1.00  0.00    -0.003 C 
ATOM     13  C   UNL     1      60.573 -29.306  -0.042  1.00  0.00     0.004 C 
ENDBRANCH  11  12
ENDBRANCH  10  11
ENDBRANCH   9  10
ENDBRANCH   8   9
ENDBRANCH   1   8
TORSDOF 9
ENDMDL
