MODEL 1
REMARK VINA RESULT:    -3.298      0.000      0.000
REMARK INTER + INTRA:          -3.588
REMARK INTER:                  -3.588
REMARK INTRA:                   0.000
REMARK UNBOUND:                 0.000
REMARK SMILES [NH3+]CC(=O)[O-]
REMARK SMILES IDX 2 1 1 2 3 6 4 7 5 8
REMARK H PARENT 1 3 1 4 1 5
REMARK Flexibility Score: inf
ROOT
ATOM      1  C   UNL     1     102.492  71.334  74.834  1.00  0.00     0.312 C 
ENDROOT
BRANCH   1   2
ATOM      2  N   UNL     1     102.181  72.683  74.364  1.00  0.00    -0.353 N 
ATOM      3  H   UNL     1     103.010  73.300  74.524  1.00  0.00     0.344 HD
ATOM      4  H   UNL     1     101.964  72.667  73.341  1.00  0.00     0.344 HD
ATOM      5  H   UNL     1     101.365  73.068  74.894  1.00  0.00     0.344 HD
ENDBRANCH   1   2
BRANCH   1   6
ATOM      6  C   UNL     1     101.259  70.486  74.858  1.00  0.00     0.096 C 
ATOM      7  O   UNL     1     100.451  70.569  75.821  1.00  0.00    -0.544 OA
ATOM      8  O   UNL     1     100.974  69.641  73.792  1.00  0.00    -0.544 OA
ENDBRANCH   1   6
TORSDOF 2
ENDMDL
MODEL 2
REMARK VINA RESULT:    -3.255      6.613      6.783
REMARK INTER + INTRA:          -3.541
REMARK INTER:                  -3.541
REMARK INTRA:                   0.000
REMARK UNBOUND:                 0.000
REMARK SMILES [NH3+]CC(=O)[O-]
REMARK SMILES IDX 2 1 1 2 3 6 4 7 5 8
REMARK H PARENT 1 3 1 4 1 5
REMARK Flexibility Score: inf
ROOT
ATOM      1  C   UNL     1      99.381  69.909  69.396  1.00  0.00     0.312 C 
ENDROOT
BRANCH   1   2
ATOM      2  N   UNL     1     100.055  69.485  68.170  1.00  0.00    -0.353 N 
ATOM      3  H   UNL     1     101.020  69.158  68.406  1.00  0.00     0.344 HD
ATOM      4  H   UNL     1      99.530  68.698  67.724  1.00  0.00     0.344 HD
ATOM      5  H   UNL     1     100.124  70.289  67.502  1.00  0.00     0.344 HD
ENDBRANCH   1   2
BRANCH   1   6
ATOM      6  C   UNL     1      98.297  70.895  69.088  1.00  0.00     0.096 C 
ATOM      7  O   UNL     1      97.094  70.525  69.056  1.00  0.00    -0.544 OA
ATOM      8  O   UNL     1      98.612  72.234  68.888  1.00  0.00    -0.544 OA
ENDBRANCH   1   6
TORSDOF 2
ENDMDL
MODEL 3
REMARK VINA RESULT:    -3.148     12.854     12.918
REMARK INTER + INTRA:          -3.424
REMARK INTER:                  -3.424
REMARK INTRA:                   0.000
REMARK UNBOUND:                 0.000
REMARK SMILES [NH3+]CC(=O)[O-]
REMARK SMILES IDX 2 1 1 2 3 6 4 7 5 8
REMARK H PARENT 1 3 1 4 1 5
REMARK Flexibility Score: inf
ROOT
ATOM      1  C   UNL     1      92.293  80.287  70.084  1.00  0.00     0.312 C 
ENDROOT
BRANCH   1   2
ATOM      2  N   UNL     1      92.608  81.070  71.277  1.00  0.00    -0.353 N 
ATOM      3  H   UNL     1      93.497  80.712  71.696  1.00  0.00     0.344 HD
ATOM      4  H   UNL     1      92.735  82.077  71.024  1.00  0.00     0.344 HD
ATOM      5  H   UNL     1      91.840  80.976  71.982  1.00  0.00     0.344 HD
ENDBRANCH   1   2
BRANCH   1   6
ATOM      6  C   UNL     1      92.952  78.944  70.144  1.00  0.00     0.096 C 
ATOM      7  O   UNL     1      93.859  78.721  70.988  1.00  0.00    -0.544 OA
ATOM      8  O   UNL     1      92.529  77.923  69.302  1.00  0.00    -0.544 OA
ENDBRANCH   1   6
TORSDOF 2
ENDMDL
MODEL 4
REMARK VINA RESULT:    -3.140     12.869     12.919
REMARK INTER + INTRA:          -3.415
REMARK INTER:                  -3.415
REMARK INTRA:                   0.000
REMARK UNBOUND:                 0.000
REMARK SMILES [NH3+]CC(=O)[O-]
REMARK SMILES IDX 2 1 1 2 3 6 4 7 5 8
REMARK H PARENT 1 3 1 4 1 5
REMARK Flexibility Score: inf
ROOT
ATOM      1  C   UNL     1      92.997  80.341  69.140  1.00  0.00     0.312 C 
ENDROOT
BRANCH   1   2
ATOM      2  N   UNL     1      94.263  80.675  68.492  1.00  0.00    -0.353 N 
ATOM      3  H   UNL     1      94.103  81.448  67.806  1.00  0.00     0.344 HD
ATOM      4  H   UNL     1      94.959  80.994  69.205  1.00  0.00     0.344 HD
ATOM      5  H   UNL     1      94.636  79.841  67.981  1.00  0.00     0.344 HD
ENDBRANCH   1   2
BRANCH   1   6
ATOM      6  C   UNL     1      93.044  78.956  69.708  1.00  0.00     0.096 C 
ATOM      7  O   UNL     1      93.822  78.689  70.661  1.00  0.00    -0.544 OA
ATOM      8  O   UNL     1      92.191  77.974  69.219  1.00  0.00    -0.544 OA
ENDBRANCH   1   6
TORSDOF 2
ENDMDL
MODEL 5
REMARK VINA RESULT:    -3.132      2.048      2.162
REMARK INTER + INTRA:          -3.407
REMARK INTER:                  -3.407
REMARK INTRA:                   0.000
REMARK UNBOUND:                 0.000
REMARK SMILES [NH3+]CC(=O)[O-]
REMARK SMILES IDX 2 1 1 2 3 6 4 7 5 8
REMARK H PARENT 1 3 1 4 1 5
REMARK Flexibility Score: inf
ROOT
ATOM      1  C   UNL     1     101.635  70.393  74.777  1.00  0.00     0.312 C 
ENDROOT
BRANCH   1   2
ATOM      2  N   UNL     1     100.422  70.826  75.468  1.00  0.00    -0.353 N 
ATOM      3  H   UNL     1      99.740  71.191  74.765  1.00  0.00     0.344 HD
ATOM      4  H   UNL     1      99.989  70.019  75.974  1.00  0.00     0.344 HD
ATOM      5  H   UNL     1     100.649  71.589  76.148  1.00  0.00     0.344 HD
ENDBRANCH   1   2
BRANCH   1   6
ATOM      6  C   UNL     1     101.370  69.161  73.968  1.00  0.00     0.096 C 
ATOM      7  O   UNL     1     101.744  68.035  74.389  1.00  0.00    -0.544 OA
ATOM      8  O   UNL     1     100.666  69.250  72.774  1.00  0.00    -0.544 OA
ENDBRANCH   1   6
TORSDOF 2
ENDMDL
MODEL 6
REMARK VINA RESULT:    -3.079      5.941      6.516
REMARK INTER + INTRA:          -3.349
REMARK INTER:                  -3.349
REMARK INTRA:                   0.000
REMARK UNBOUND:                 0.000
REMARK SMILES [NH3+]CC(=O)[O-]
REMARK SMILES IDX 2 1 1 2 3 6 4 7 5 8
REMARK H PARENT 1 3 1 4 1 5
REMARK Flexibility Score: inf
ROOT
ATOM      1  C   UNL     1      98.470  70.673  69.180  1.00  0.00     0.312 C 
ENDROOT
BRANCH   1   2
ATOM      2  N   UNL     1      97.170  70.023  69.033  1.00  0.00    -0.353 N 
ATOM      3  H   UNL     1      96.710  70.371  68.161  1.00  0.00     0.344 HD
ATOM      4  H   UNL     1      97.291  68.987  68.962  1.00  0.00     0.344 HD
ATOM      5  H   UNL     1      96.560  70.252  69.853  1.00  0.00     0.344 HD
ENDBRANCH   1   2
BRANCH   1   6
ATOM      6  C   UNL     1      99.554  69.654  69.350  1.00  0.00     0.096 C 
ATOM      7  O   UNL     1     100.167  69.207  68.344  1.00  0.00    -0.544 OA
ATOM      8  O   UNL     1      99.922  69.235  70.622  1.00  0.00    -0.544 OA
ENDBRANCH   1   6
TORSDOF 2
ENDMDL
MODEL 7
REMARK VINA RESULT:    -2.976      2.334      2.530
REMARK INTER + INTRA:          -3.237
REMARK INTER:                  -3.237
REMARK INTRA:                   0.000
REMARK UNBOUND:                 0.000
REMARK SMILES [NH3+]CC(=O)[O-]
REMARK SMILES IDX 2 1 1 2 3 6 4 7 5 8
REMARK H PARENT 1 3 1 4 1 5
REMARK Flexibility Score: inf
ROOT
ATOM      1  C   UNL     1     101.267  69.436  73.910  1.00  0.00     0.312 C 
ENDROOT
BRANCH   1   2
ATOM      2  N   UNL     1     101.976  68.253  74.394  1.00  0.00    -0.353 N 
ATOM      3  H   UNL     1     101.764  68.119  75.409  1.00  0.00     0.344 HD
ATOM      4  H   UNL     1     101.664  67.405  73.867  1.00  0.00     0.344 HD
ATOM      5  H   UNL     1     103.009  68.382  74.278  1.00  0.00     0.344 HD
ENDBRANCH   1   2
BRANCH   1   6
ATOM      6  C   UNL     1     101.269  70.515  74.948  1.00  0.00     0.096 C 
ATOM      7  O   UNL     1     100.407  70.512  75.866  1.00  0.00    -0.544 OA
ATOM      8  O   UNL     1     102.253  71.495  74.931  1.00  0.00    -0.544 OA
ENDBRANCH   1   6
TORSDOF 2
ENDMDL
MODEL 8
REMARK VINA RESULT:    -2.956      5.593      6.164
REMARK INTER + INTRA:          -3.215
REMARK INTER:                  -3.215
REMARK INTRA:                   0.000
REMARK UNBOUND:                 0.000
REMARK SMILES [NH3+]CC(=O)[O-]
REMARK SMILES IDX 2 1 1 2 3 6 4 7 5 8
REMARK H PARENT 1 3 1 4 1 5
REMARK Flexibility Score: inf
ROOT
ATOM      1  C   UNL     1      99.392  69.899  69.182  1.00  0.00     0.312 C 
ENDROOT
BRANCH   1   2
ATOM      2  N   UNL     1      97.952  69.651  69.187  1.00  0.00    -0.353 N 
ATOM      3  H   UNL     1      97.714  69.038  70.000  1.00  0.00     0.344 HD
ATOM      4  H   UNL     1      97.431  70.553  69.280  1.00  0.00     0.344 HD
ATOM      5  H   UNL     1      97.668  69.167  68.304  1.00  0.00     0.344 HD
ENDBRANCH   1   2
BRANCH   1   6
ATOM      6  C   UNL     1     100.131  68.735  69.765  1.00  0.00     0.096 C 
ATOM      7  O   UNL     1     100.660  67.877  69.009  1.00  0.00    -0.544 OA
ATOM      8  O   UNL     1     100.280  68.624  71.142  1.00  0.00    -0.544 OA
ENDBRANCH   1   6
TORSDOF 2
ENDMDL
MODEL 9
REMARK VINA RESULT:    -2.774     13.062     13.158
REMARK INTER + INTRA:          -3.017
REMARK INTER:                  -3.017
REMARK INTRA:                   0.000
REMARK UNBOUND:                 0.000
REMARK SMILES [NH3+]CC(=O)[O-]
REMARK SMILES IDX 2 1 1 2 3 6 4 7 5 8
REMARK H PARENT 1 3 1 4 1 5
REMARK Flexibility Score: inf
ROOT
ATOM      1  C   UNL     1      91.875  79.335  71.016  1.00  0.00     0.312 C 
ENDROOT
BRANCH   1   2
ATOM      2  N   UNL     1      92.256  78.116  71.726  1.00  0.00    -0.353 N 
ATOM      3  H   UNL     1      92.246  78.302  72.755  1.00  0.00     0.344 HD
ATOM      4  H   UNL     1      91.577  77.348  71.514  1.00  0.00     0.344 HD
ATOM      5  H   UNL     1      93.221  77.823  71.445  1.00  0.00     0.344 HD
ENDBRANCH   1   2
BRANCH   1   6
ATOM      6  C   UNL     1      92.731  79.528  69.803  1.00  0.00     0.096 C 
ATOM      7  O   UNL     1      92.406  80.373  68.927  1.00  0.00    -0.544 OA
ATOM      8  O   UNL     1      93.914  78.813  69.664  1.00  0.00    -0.544 OA
ENDBRANCH   1   6
TORSDOF 2
ENDMDL
