MODEL 1
REMARK VINA RESULT:    24.884      0.000      0.000
REMARK INTER + INTRA:          28.932
REMARK INTER:                  29.248
REMARK INTRA:                  -0.315
REMARK UNBOUND:                -0.315
REMARK SMILES O=c1cc(-c2ccc(O)c(O)c2)oc2cc(O)cc(O)c12
REMARK SMILES IDX 4 1 3 2 2 3 1 4 21 5 19 6 18 7 16 8 15 9 14 10 13 11 5 12
REMARK SMILES IDX 6 13 7 14 8 15 12 16 10 17 9 18 11 20 20 22 17 24
REMARK H PARENT 9 19 11 21 20 23 17 25
REMARK Flexibility Score: inf
ROOT
ATOM      1  C   UNL     1      10.492  26.560  13.410  1.00  0.00     0.138 A 
ATOM      2  C   UNL     1      10.510  25.627  12.364  1.00  0.00     0.100 A 
ATOM      3  C   UNL     1      11.678  25.445  11.621  1.00  0.00     0.197 A 
ATOM      4  O   UNL     1      11.683  24.557  10.730  1.00  0.00    -0.289 OA
ATOM      5  C   UNL     1      12.823  26.225  11.909  1.00  0.00     0.107 A 
ATOM      6  C   UNL     1      14.056  26.155  11.192  1.00  0.00     0.134 A 
ATOM      7  C   UNL     1      15.158  26.893  11.642  1.00  0.00     0.093 A 
ATOM      8  C   UNL     1      15.054  27.744  12.745  1.00  0.00     0.123 A 
ATOM      9  C   UNL     1      13.840  27.860  13.418  1.00  0.00     0.094 A 
ATOM     10  C   UNL     1      12.732  27.112  13.015  1.00  0.00     0.146 A 
ATOM     11  O   UNL     1      11.598  27.241  13.694  1.00  0.00    -0.456 OA
ENDROOT
BRANCH   1  12
ATOM     12  C   UNL     1       9.277  26.794  14.230  1.00  0.00     0.021 A 
ATOM     13  C   UNL     1       8.175  25.917  14.188  1.00  0.00     0.016 A 
ATOM     14  C   UNL     1       7.041  26.169  14.964  1.00  0.00     0.051 A 
ATOM     15  C   UNL     1       6.981  27.299  15.788  1.00  0.00     0.157 A 
ATOM     16  C   UNL     1       9.204  27.934  15.050  1.00  0.00     0.062 A 
ATOM     17  C   UNL     1       8.069  28.187  15.828  1.00  0.00     0.158 A 
BRANCH  15  18
ATOM     18  O   UNL     1       5.848  27.544  16.561  1.00  0.00    -0.504 OA
ATOM     19  H   UNL     1       4.929  27.633  16.144  1.00  0.00     0.293 HD
ENDBRANCH  15  18
BRANCH  17  20
ATOM     20  O   UNL     1       8.040  29.324  16.635  1.00  0.00    -0.504 OA
ATOM     21  H   UNL     1       7.230  29.568  17.193  1.00  0.00     0.293 HD
ENDBRANCH  17  20
ENDBRANCH   1  12
BRANCH   6  22
ATOM     22  O   UNL     1      14.241  25.403  10.029  1.00  0.00    -0.507 OA
ATOM     23  H   UNL     1      13.988  25.706   9.101  1.00  0.00     0.293 HD
ENDBRANCH   6  22
BRANCH   8  24
ATOM     24  O   UNL     1      16.152  28.486  13.176  1.00  0.00    -0.508 OA
ATOM     25  H   UNL     1      16.792  28.916  12.518  1.00  0.00     0.293 HD
ENDBRANCH   8  24
TORSDOF 5
ENDMDL
