MODEL 1
REMARK VINA RESULT:    -3.636      0.000      0.000
REMARK INTER + INTRA:          -4.923
REMARK INTER:                  -4.698
REMARK INTRA:                  -0.225
REMARK UNBOUND:                -0.225
REMARK SMILES CCCCCCC(=O)[O-]
REMARK SMILES IDX 5 1 6 2 7 3 8 4 9 5 4 6 3 7 2 8 1 9
REMARK H PARENT
REMARK Flexibility Score: inf
ROOT
ATOM      1  C   UNL     1       7.546 -15.722  22.665  1.00  0.00     0.006 C 
ENDROOT
BRANCH   1   2
ATOM      2  C   UNL     1       8.254 -16.199  23.936  1.00  0.00     0.053 C 
BRANCH   2   3
ATOM      3  C   UNL     1       8.770 -15.033  24.718  1.00  0.00     0.041 C 
ATOM      4  O   UNL     1       9.645 -14.276  24.222  1.00  0.00    -0.550 OA
ATOM      5  O   UNL     1       8.321 -14.811  26.014  1.00  0.00    -0.550 OA
ENDBRANCH   2   3
ENDBRANCH   1   2
BRANCH   1   6
ATOM      6  C   UNL     1       6.375 -14.792  23.003  1.00  0.00     0.000 C 
BRANCH   6   7
ATOM      7  C   UNL     1       6.098 -13.815  21.850  1.00  0.00    -0.000 C 
BRANCH   7   8
ATOM      8  C   UNL     1       6.270 -14.468  20.470  1.00  0.00    -0.003 C 
ATOM      9  C   UNL     1       6.111 -13.472  19.321  1.00  0.00     0.004 C 
ENDBRANCH   7   8
ENDBRANCH   6   7
ENDBRANCH   1   6
TORSDOF 5
ENDMDL
MODEL 2
REMARK VINA RESULT:    -3.622      0.734      1.573
REMARK INTER + INTRA:          -4.905
REMARK INTER:                  -4.752
REMARK INTRA:                  -0.153
REMARK UNBOUND:                -0.225
REMARK SMILES CCCCCCC(=O)[O-]
REMARK SMILES IDX 5 1 6 2 7 3 8 4 9 5 4 6 3 7 2 8 1 9
REMARK H PARENT
REMARK Flexibility Score: inf
ROOT
ATOM      1  C   UNL     1       6.452 -14.865  23.131  1.00  0.00     0.006 C 
ENDROOT
BRANCH   1   2
ATOM      2  C   UNL     1       7.943 -15.178  22.963  1.00  0.00     0.053 C 
BRANCH   2   3
ATOM      3  C   UNL     1       8.718 -14.677  24.140  1.00  0.00     0.041 C 
ATOM      4  O   UNL     1       8.117 -14.196  25.136  1.00  0.00    -0.550 OA
ATOM      5  O   UNL     1      10.107 -14.695  24.117  1.00  0.00    -0.550 OA
ENDBRANCH   2   3
ENDBRANCH   1   2
BRANCH   1   6
ATOM      6  C   UNL     1       5.956 -13.936  22.016  1.00  0.00     0.000 C 
BRANCH   6   7
ATOM      7  C   UNL     1       6.307 -14.502  20.632  1.00  0.00    -0.000 C 
BRANCH   7   8
ATOM      8  C   UNL     1       5.999 -13.514  19.496  1.00  0.00    -0.003 C 
ATOM      9  C   UNL     1       6.765 -13.832  18.212  1.00  0.00     0.004 C 
ENDBRANCH   7   8
ENDBRANCH   6   7
ENDBRANCH   1   6
TORSDOF 5
ENDMDL
MODEL 3
REMARK VINA RESULT:    -3.602      2.085      2.291
REMARK INTER + INTRA:          -4.880
REMARK INTER:                  -4.767
REMARK INTRA:                  -0.114
REMARK UNBOUND:                -0.225
REMARK SMILES CCCCCCC(=O)[O-]
REMARK SMILES IDX 5 1 6 2 7 3 8 4 9 5 4 6 3 7 2 8 1 9
REMARK H PARENT
REMARK Flexibility Score: inf
ROOT
ATOM      1  C   UNL     1       6.748 -15.124  22.748  1.00  0.00     0.006 C 
ENDROOT
BRANCH   1   2
ATOM      2  C   UNL     1       5.943 -15.448  24.011  1.00  0.00     0.053 C 
BRANCH   2   3
ATOM      3  C   UNL     1       6.461 -16.695  24.656  1.00  0.00     0.041 C 
ATOM      4  O   UNL     1       6.630 -17.738  23.972  1.00  0.00    -0.550 OA
ATOM      5  O   UNL     1       6.710 -16.719  26.022  1.00  0.00    -0.550 OA
ENDBRANCH   2   3
ENDBRANCH   1   2
BRANCH   1   6
ATOM      6  C   UNL     1       6.292 -13.796  22.131  1.00  0.00     0.000 C 
BRANCH   6   7
ATOM      7  C   UNL     1       5.583 -14.029  20.789  1.00  0.00    -0.000 C 
BRANCH   7   8
ATOM      8  C   UNL     1       6.536 -14.548  19.700  1.00  0.00    -0.003 C 
ATOM      9  C   UNL     1       6.531 -13.676  18.445  1.00  0.00     0.004 C 
ENDBRANCH   7   8
ENDBRANCH   6   7
ENDBRANCH   1   6
TORSDOF 5
ENDMDL
MODEL 4
REMARK VINA RESULT:    -3.578      1.743      2.284
REMARK INTER + INTRA:          -4.849
REMARK INTER:                  -4.589
REMARK INTRA:                  -0.259
REMARK UNBOUND:                -0.225
REMARK SMILES CCCCCCC(=O)[O-]
REMARK SMILES IDX 5 1 6 2 7 3 8 4 9 5 4 6 3 7 2 8 1 9
REMARK H PARENT
REMARK Flexibility Score: inf
ROOT
ATOM      1  C   UNL     1       7.107 -16.985  23.494  1.00  0.00     0.006 C 
ENDROOT
BRANCH   1   2
ATOM      2  C   UNL     1       6.256 -16.592  24.706  1.00  0.00     0.053 C 
BRANCH   2   3
ATOM      3  C   UNL     1       7.023 -16.799  25.974  1.00  0.00     0.041 C 
ATOM      4  O   UNL     1       7.665 -15.846  26.488  1.00  0.00    -0.550 OA
ATOM      5  O   UNL     1       7.070 -18.057  26.561  1.00  0.00    -0.550 OA
ENDBRANCH   2   3
ENDBRANCH   1   2
BRANCH   1   6
ATOM      6  C   UNL     1       7.423 -15.763  22.623  1.00  0.00     0.000 C 
BRANCH   6   7
ATOM      7  C   UNL     1       6.391 -14.648  22.848  1.00  0.00    -0.000 C 
BRANCH   7   8
ATOM      8  C   UNL     1       5.977 -13.954  21.540  1.00  0.00    -0.003 C 
ATOM      9  C   UNL     1       6.434 -14.716  20.296  1.00  0.00     0.004 C 
ENDBRANCH   7   8
ENDBRANCH   6   7
ENDBRANCH   1   6
TORSDOF 5
ENDMDL
MODEL 5
REMARK VINA RESULT:    -3.526      3.491      5.373
REMARK INTER + INTRA:          -4.781
REMARK INTER:                  -4.656
REMARK INTRA:                  -0.125
REMARK UNBOUND:                -0.225
REMARK SMILES CCCCCCC(=O)[O-]
REMARK SMILES IDX 5 1 6 2 7 3 8 4 9 5 4 6 3 7 2 8 1 9
REMARK H PARENT
REMARK Flexibility Score: inf
ROOT
ATOM      1  C   UNL     1       6.335 -14.517  20.616  1.00  0.00     0.006 C 
ENDROOT
BRANCH   1   2
ATOM      2  C   UNL     1       6.051 -13.537  19.473  1.00  0.00     0.053 C 
BRANCH   2   3
ATOM      3  C   UNL     1       6.774 -13.956  18.232  1.00  0.00     0.041 C 
ATOM      4  O   UNL     1       6.339 -13.617  17.101  1.00  0.00    -0.550 OA
ATOM      5  O   UNL     1       7.902 -14.762  18.323  1.00  0.00    -0.550 OA
ENDBRANCH   2   3
ENDBRANCH   1   2
BRANCH   1   6
ATOM      6  C   UNL     1       5.969 -13.902  21.972  1.00  0.00     0.000 C 
BRANCH   6   7
ATOM      7  C   UNL     1       6.817 -14.512  23.098  1.00  0.00    -0.000 C 
BRANCH   7   8
ATOM      8  C   UNL     1       6.018 -15.487  23.977  1.00  0.00    -0.003 C 
ATOM      9  C   UNL     1       6.649 -16.877  24.045  1.00  0.00     0.004 C 
ENDBRANCH   7   8
ENDBRANCH   6   7
ENDBRANCH   1   6
TORSDOF 5
ENDMDL
MODEL 6
REMARK VINA RESULT:    -3.442      1.652      2.582
REMARK INTER + INTRA:          -4.673
REMARK INTER:                  -4.320
REMARK INTRA:                  -0.353
REMARK UNBOUND:                -0.225
REMARK SMILES CCCCCCC(=O)[O-]
REMARK SMILES IDX 5 1 6 2 7 3 8 4 9 5 4 6 3 7 2 8 1 9
REMARK H PARENT
REMARK Flexibility Score: inf
ROOT
ATOM      1  C   UNL     1       6.478 -16.731  24.688  1.00  0.00     0.006 C 
ENDROOT
BRANCH   1   2
ATOM      2  C   UNL     1       7.018 -17.112  26.070  1.00  0.00     0.053 C 
BRANCH   2   3
ATOM      3  C   UNL     1       8.218 -16.286  26.409  1.00  0.00     0.041 C 
ATOM      4  O   UNL     1       8.141 -15.030  26.415  1.00  0.00    -0.550 OA
ATOM      5  O   UNL     1       9.435 -16.902  26.672  1.00  0.00    -0.550 OA
ENDBRANCH   2   3
ENDBRANCH   1   2
BRANCH   1   6
ATOM      6  C   UNL     1       7.507 -17.036  23.592  1.00  0.00     0.000 C 
BRANCH   6   7
ATOM      7  C   UNL     1       7.594 -15.881  22.583  1.00  0.00    -0.000 C 
BRANCH   7   8
ATOM      8  C   UNL     1       6.891 -14.608  23.082  1.00  0.00    -0.003 C 
ATOM      9  C   UNL     1       6.017 -13.957  22.010  1.00  0.00     0.004 C 
ENDBRANCH   7   8
ENDBRANCH   6   7
ENDBRANCH   1   6
TORSDOF 5
ENDMDL
MODEL 7
REMARK VINA RESULT:    -3.396      1.164      1.875
REMARK INTER + INTRA:          -4.613
REMARK INTER:                  -4.334
REMARK INTRA:                  -0.279
REMARK UNBOUND:                -0.225
REMARK SMILES CCCCCCC(=O)[O-]
REMARK SMILES IDX 5 1 6 2 7 3 8 4 9 5 4 6 3 7 2 8 1 9
REMARK H PARENT
REMARK Flexibility Score: inf
ROOT
ATOM      1  C   UNL     1       8.728 -15.672  23.319  1.00  0.00     0.006 C 
ENDROOT
BRANCH   1   2
ATOM      2  C   UNL     1       8.679 -14.737  24.532  1.00  0.00     0.053 C 
BRANCH   2   3
ATOM      3  C   UNL     1       8.828 -15.515  25.800  1.00  0.00     0.041 C 
ATOM      4  O   UNL     1       7.875 -15.577  26.621  1.00  0.00    -0.550 OA
ATOM      5  O   UNL     1      10.035 -16.132  26.100  1.00  0.00    -0.550 OA
ENDBRANCH   2   3
ENDBRANCH   1   2
BRANCH   1   6
ATOM      6  C   UNL     1       7.323 -15.912  22.752  1.00  0.00     0.000 C 
BRANCH   6   7
ATOM      7  C   UNL     1       6.367 -14.781  23.158  1.00  0.00    -0.000 C 
BRANCH   7   8
ATOM      8  C   UNL     1       6.043 -13.835  21.991  1.00  0.00    -0.003 C 
ATOM      9  C   UNL     1       6.261 -14.484  20.625  1.00  0.00     0.004 C 
ENDBRANCH   7   8
ENDBRANCH   6   7
ENDBRANCH   1   6
TORSDOF 5
ENDMDL
MODEL 8
REMARK VINA RESULT:    -3.361      2.978      4.590
REMARK INTER + INTRA:          -4.568
REMARK INTER:                  -4.101
REMARK INTRA:                  -0.467
REMARK UNBOUND:                -0.225
REMARK SMILES CCCCCCC(=O)[O-]
REMARK SMILES IDX 5 1 6 2 7 3 8 4 9 5 4 6 3 7 2 8 1 9
REMARK H PARENT
REMARK Flexibility Score: inf
ROOT
ATOM      1  C   UNL     1       7.130 -14.894  23.846  1.00  0.00     0.006 C 
ENDROOT
BRANCH   1   2
ATOM      2  C   UNL     1       6.235 -16.021  24.370  1.00  0.00     0.053 C 
BRANCH   2   3
ATOM      3  C   UNL     1       6.936 -17.338  24.268  1.00  0.00     0.041 C 
ATOM      4  O   UNL     1       7.033 -18.083  25.277  1.00  0.00    -0.550 OA
ATOM      5  O   UNL     1       7.526 -17.720  23.070  1.00  0.00    -0.550 OA
ENDBRANCH   2   3
ENDBRANCH   1   2
BRANCH   1   6
ATOM      6  C   UNL     1       8.191 -14.505  24.883  1.00  0.00     0.000 C 
BRANCH   6   7
ATOM      7  C   UNL     1       9.605 -14.627  24.295  1.00  0.00    -0.000 C 
BRANCH   7   8
ATOM      8  C   UNL     1      10.381 -15.824  24.867  1.00  0.00    -0.003 C 
ATOM      9  C   UNL     1       9.895 -16.234  26.257  1.00  0.00     0.004 C 
ENDBRANCH   7   8
ENDBRANCH   6   7
ENDBRANCH   1   6
TORSDOF 5
ENDMDL
MODEL 9
REMARK VINA RESULT:    -3.323      3.497      5.617
REMARK INTER + INTRA:          -4.519
REMARK INTER:                  -4.276
REMARK INTRA:                  -0.243
REMARK UNBOUND:                -0.225
REMARK SMILES CCCCCCC(=O)[O-]
REMARK SMILES IDX 5 1 6 2 7 3 8 4 9 5 4 6 3 7 2 8 1 9
REMARK H PARENT
REMARK Flexibility Score: inf
ROOT
ATOM      1  C   UNL     1       7.080 -17.156  26.166  1.00  0.00     0.006 C 
ENDROOT
BRANCH   1   2
ATOM      2  C   UNL     1       6.593 -16.872  24.741  1.00  0.00     0.053 C 
BRANCH   2   3
ATOM      3  C   UNL     1       6.869 -15.450  24.367  1.00  0.00     0.041 C 
ATOM      4  O   UNL     1       6.168 -14.879  23.492  1.00  0.00    -0.550 OA
ATOM      5  O   UNL     1       7.931 -14.771  24.950  1.00  0.00    -0.550 OA
ENDBRANCH   2   3
ENDBRANCH   1   2
BRANCH   1   6
ATOM      6  C   UNL     1       7.869 -18.469  26.227  1.00  0.00     0.000 C 
BRANCH   6   7
ATOM      7  C   UNL     1       7.074 -19.554  26.967  1.00  0.00    -0.000 C 
BRANCH   7   8
ATOM      8  C   UNL     1       7.159 -20.924  26.275  1.00  0.00    -0.003 C 
ATOM      9  C   UNL     1       7.352 -20.811  24.763  1.00  0.00     0.004 C 
ENDBRANCH   7   8
ENDBRANCH   6   7
ENDBRANCH   1   6
TORSDOF 5
ENDMDL
