MODEL 1
REMARK VINA RESULT:    -7.357      0.000      0.000
REMARK INTER + INTRA:          -8.208
REMARK INTER:                  -8.002
REMARK INTRA:                  -0.206
REMARK UNBOUND:                -0.206
REMARK SMILES C[C@@H]1[C@H](C)CC[C@@]2(C(=O)[O-])CC[C@]3(C)C(=CC[C@H]4[C@@]5(C)CC[C@H](O)C(C)(C)[C@@H]5CC[C@@]43C)[C@@H]12
REMARK SMILES IDX 7 1 6 2 11 3 33 4 5 5 12 6 15 7 2 8 3 9 13 10 16 11 1 12
REMARK SMILES IDX 4 13 14 14 31 15 17 16 18 17 30 18 32 19 19 20 29 21 28 22
REMARK SMILES IDX 21 23 20 24 25 25 22 26 23 27 26 28 27 29 8 30 9 31 10 32
REMARK SMILES IDX 24 33
REMARK H PARENT 24 34
REMARK Flexibility Score: inf
ROOT
ATOM      1  C   UNL     1      30.328  25.035  33.027  1.00  0.00     0.017 C 
ATOM      2  C   UNL     1      31.828  25.181  33.476  1.00  0.00     0.014 C 
ATOM      3  C   UNL     1      30.091  23.531  32.632  1.00  0.00     0.014 C 
ATOM      4  C   UNL     1      29.346  25.523  34.180  1.00  0.00     0.030 C 
ATOM      5  C   UNL     1      32.042  26.395  34.375  1.00  0.00     0.004 C 
ATOM      6  C   UNL     1      28.871  22.844  33.275  1.00  0.00     0.013 C 
ATOM      7  C   UNL     1      27.901  24.972  34.068  1.00  0.00    -0.063 C 
ATOM      8  C   UNL     1      30.025  25.309  35.584  1.00  0.00    -0.003 C 
ATOM      9  C   UNL     1      31.292  26.230  35.720  1.00  0.00    -0.011 C 
ATOM     10  C   UNL     1      27.554  23.675  33.293  1.00  0.00    -0.006 C 
ATOM     11  C   UNL     1      26.924  25.675  34.684  1.00  0.00    -0.027 C 
ATOM     12  C   UNL     1      29.109  25.430  36.819  1.00  0.00     0.008 C 
ATOM     13  C   UNL     1      30.995  27.627  36.300  1.00  0.00     0.008 C 
ATOM     14  C   UNL     1      27.263  24.103  31.814  1.00  0.00     0.017 C 
ATOM     15  C   UNL     1      26.259  22.849  33.950  1.00  0.00    -0.020 C 
ATOM     16  C   UNL     1      25.645  25.034  35.126  1.00  0.00     0.032 C 
ATOM     17  C   UNL     1      25.854  23.513  35.314  1.00  0.00     0.006 C 
ATOM     18  C   UNL     1      26.559  21.303  34.229  1.00  0.00     0.008 C 
ATOM     19  C   UNL     1      25.021  22.923  32.974  1.00  0.00     0.012 C 
ATOM     20  C   UNL     1      24.762  22.803  36.256  1.00  0.00    -0.025 C 
ATOM     21  C   UNL     1      25.930  20.664  35.495  1.00  0.00     0.005 C 
ATOM     22  C   UNL     1      24.577  21.298  35.836  1.00  0.00     0.003 C 
ATOM     23  C   UNL     1      23.354  23.471  36.199  1.00  0.00     0.010 C 
ATOM     24  C   UNL     1      25.313  22.966  37.715  1.00  0.00     0.012 C 
ATOM     25  C   UNL     1      23.556  20.445  36.688  1.00  0.00    -0.006 C 
ATOM     26  C   UNL     1      22.284  22.719  37.023  1.00  0.00     0.033 C 
ATOM     27  C   UNL     1      22.186  21.215  36.680  1.00  0.00     0.120 C 
ATOM     28  C   UNL     1      24.054  20.131  38.125  1.00  0.00     0.014 C 
ATOM     29  C   UNL     1      23.304  19.075  35.990  1.00  0.00     0.014 C 
ENDROOT
BRANCH   1  30
ATOM     30  C   UNL     1      30.164  25.906  31.778  1.00  0.00     0.048 C 
ATOM     31  O   UNL     1      30.254  25.423  30.617  1.00  0.00    -0.550 OA
ATOM     32  O   UNL     1      29.924  27.271  31.911  1.00  0.00    -0.550 OA
ENDBRANCH   1  30
BRANCH  27  33
ATOM     33  O   UNL     1      21.223  20.578  37.490  1.00  0.00    -0.393 OA
ATOM     34  H   UNL     1      20.508  21.233  37.697  1.00  0.00     0.210 HD
ENDBRANCH  27  33
TORSDOF 2
ENDMDL
MODEL 2
REMARK VINA RESULT:    -4.879      3.323      4.466
REMARK INTER + INTRA:          -5.513
REMARK INTER:                  -5.425
REMARK INTRA:                  -0.088
REMARK UNBOUND:                -0.206
REMARK SMILES C[C@@H]1[C@H](C)CC[C@@]2(C(=O)[O-])CC[C@]3(C)C(=CC[C@H]4[C@@]5(C)CC[C@H](O)C(C)(C)[C@@H]5CC[C@@]43C)[C@@H]12
REMARK SMILES IDX 7 1 6 2 11 3 33 4 5 5 12 6 15 7 2 8 3 9 13 10 16 11 1 12
REMARK SMILES IDX 4 13 14 14 31 15 17 16 18 17 30 18 32 19 19 20 29 21 28 22
REMARK SMILES IDX 21 23 20 24 25 25 22 26 23 27 26 28 27 29 8 30 9 31 10 32
REMARK SMILES IDX 24 33
REMARK H PARENT 24 34
REMARK Flexibility Score: inf
ROOT
ATOM      1  C   UNL     1      30.518  19.864  34.555  1.00  0.00     0.017 C 
ATOM      2  C   UNL     1      31.129  18.824  35.566  1.00  0.00     0.014 C 
ATOM      3  C   UNL     1      29.235  19.214  33.917  1.00  0.00     0.014 C 
ATOM      4  C   UNL     1      30.203  21.241  35.287  1.00  0.00     0.030 C 
ATOM      5  C   UNL     1      32.004  19.496  36.620  1.00  0.00     0.004 C 
ATOM      6  C   UNL     1      27.955  20.070  33.945  1.00  0.00     0.013 C 
ATOM      7  C   UNL     1      29.167  22.134  34.555  1.00  0.00    -0.063 C 
ATOM      8  C   UNL     1      29.887  20.977  36.806  1.00  0.00    -0.003 C 
ATOM      9  C   UNL     1      31.162  20.419  37.536  1.00  0.00    -0.011 C 
ATOM     10  C   UNL     1      28.130  21.567  33.553  1.00  0.00    -0.006 C 
ATOM     11  C   UNL     1      29.196  23.458  34.824  1.00  0.00    -0.027 C 
ATOM     12  C   UNL     1      29.258  22.144  37.592  1.00  0.00     0.008 C 
ATOM     13  C   UNL     1      32.080  21.509  38.123  1.00  0.00     0.008 C 
ATOM     14  C   UNL     1      28.811  21.593  32.142  1.00  0.00     0.017 C 
ATOM     15  C   UNL     1      26.693  22.420  33.547  1.00  0.00    -0.020 C 
ATOM     16  C   UNL     1      27.989  24.328  34.652  1.00  0.00     0.032 C 
ATOM     17  C   UNL     1      26.705  23.468  34.718  1.00  0.00     0.006 C 
ATOM     18  C   UNL     1      25.398  21.500  33.728  1.00  0.00     0.008 C 
ATOM     19  C   UNL     1      26.535  23.201  32.184  1.00  0.00     0.012 C 
ATOM     20  C   UNL     1      25.370  24.293  35.066  1.00  0.00    -0.025 C 
ATOM     21  C   UNL     1      24.220  22.070  34.561  1.00  0.00     0.005 C 
ATOM     22  C   UNL     1      24.114  23.592  34.425  1.00  0.00     0.003 C 
ATOM     23  C   UNL     1      25.387  25.764  34.548  1.00  0.00     0.010 C 
ATOM     24  C   UNL     1      25.311  24.334  36.632  1.00  0.00     0.012 C 
ATOM     25  C   UNL     1      22.711  24.263  34.700  1.00  0.00    -0.006 C 
ATOM     26  C   UNL     1      24.059  26.516  34.792  1.00  0.00     0.033 C 
ATOM     27  C   UNL     1      22.818  25.767  34.256  1.00  0.00     0.120 C 
ATOM     28  C   UNL     1      22.225  24.109  36.168  1.00  0.00     0.014 C 
ATOM     29  C   UNL     1      21.627  23.604  33.796  1.00  0.00     0.014 C 
ENDROOT
BRANCH   1  30
ATOM     30  C   UNL     1      31.568  20.067  33.459  1.00  0.00     0.048 C 
ATOM     31  O   UNL     1      32.105  19.090  32.867  1.00  0.00    -0.550 OA
ATOM     32  O   UNL     1      31.961  21.353  33.103  1.00  0.00    -0.550 OA
ENDBRANCH   1  30
BRANCH  27  33
ATOM     33  O   UNL     1      21.638  26.483  34.543  1.00  0.00    -0.393 OA
ATOM     34  H   UNL     1      21.303  26.882  33.699  1.00  0.00     0.210 HD
ENDBRANCH  27  33
TORSDOF 2
ENDMDL
MODEL 3
REMARK VINA RESULT:    -4.788      3.718      6.051
REMARK INTER + INTRA:          -5.414
REMARK INTER:                  -5.139
REMARK INTRA:                  -0.275
REMARK UNBOUND:                -0.206
REMARK SMILES C[C@@H]1[C@H](C)CC[C@@]2(C(=O)[O-])CC[C@]3(C)C(=CC[C@H]4[C@@]5(C)CC[C@H](O)C(C)(C)[C@@H]5CC[C@@]43C)[C@@H]12
REMARK SMILES IDX 7 1 6 2 11 3 33 4 5 5 12 6 15 7 2 8 3 9 13 10 16 11 1 12
REMARK SMILES IDX 4 13 14 14 31 15 17 16 18 17 30 18 32 19 19 20 29 21 28 22
REMARK SMILES IDX 21 23 20 24 25 25 22 26 23 27 26 28 27 29 8 30 9 31 10 32
REMARK SMILES IDX 24 33
REMARK H PARENT 24 34
REMARK Flexibility Score: inf
ROOT
ATOM      1  C   UNL     1      27.924  20.120  37.089  1.00  0.00     0.017 C 
ATOM      2  C   UNL     1      29.384  20.383  37.612  1.00  0.00     0.014 C 
ATOM      3  C   UNL     1      26.924  20.754  38.124  1.00  0.00     0.014 C 
ATOM      4  C   UNL     1      27.737  20.709  35.622  1.00  0.00     0.030 C 
ATOM      5  C   UNL     1      30.415  20.324  36.488  1.00  0.00     0.004 C 
ATOM      6  C   UNL     1      25.840  21.680  37.541  1.00  0.00     0.013 C 
ATOM      7  C   UNL     1      26.262  20.961  35.216  1.00  0.00    -0.063 C 
ATOM      8  C   UNL     1      28.696  21.940  35.417  1.00  0.00    -0.003 C 
ATOM      9  C   UNL     1      30.196  21.473  35.473  1.00  0.00    -0.011 C 
ATOM     10  C   UNL     1      25.129  21.169  36.253  1.00  0.00    -0.006 C 
ATOM     11  C   UNL     1      25.985  20.997  33.894  1.00  0.00    -0.027 C 
ATOM     12  C   UNL     1      28.430  22.823  34.181  1.00  0.00     0.008 C 
ATOM     13  C   UNL     1      30.776  21.049  34.108  1.00  0.00     0.008 C 
ATOM     14  C   UNL     1      24.557  19.747  36.581  1.00  0.00     0.017 C 
ATOM     15  C   UNL     1      23.926  22.194  35.711  1.00  0.00    -0.020 C 
ATOM     16  C   UNL     1      24.802  21.739  33.352  1.00  0.00     0.032 C 
ATOM     17  C   UNL     1      24.367  22.840  34.348  1.00  0.00     0.006 C 
ATOM     18  C   UNL     1      23.587  23.381  36.727  1.00  0.00     0.008 C 
ATOM     19  C   UNL     1      22.594  21.382  35.467  1.00  0.00     0.012 C 
ATOM     20  C   UNL     1      23.484  24.014  33.697  1.00  0.00    -0.025 C 
ATOM     21  C   UNL     1      23.232  24.765  36.124  1.00  0.00     0.005 C 
ATOM     22  C   UNL     1      22.517  24.629  34.776  1.00  0.00     0.003 C 
ATOM     23  C   UNL     1      22.599  23.546  32.502  1.00  0.00     0.010 C 
ATOM     24  C   UNL     1      24.524  25.051  33.148  1.00  0.00     0.012 C 
ATOM     25  C   UNL     1      21.597  25.824  34.304  1.00  0.00    -0.006 C 
ATOM     26  C   UNL     1      21.674  24.655  31.952  1.00  0.00     0.033 C 
ATOM     27  C   UNL     1      20.806  25.330  33.038  1.00  0.00     0.120 C 
ATOM     28  C   UNL     1      22.375  27.142  34.042  1.00  0.00     0.014 C 
ATOM     29  C   UNL     1      20.537  26.137  35.401  1.00  0.00     0.014 C 
ENDROOT
BRANCH   1  30
ATOM     30  C   UNL     1      27.735  18.600  37.085  1.00  0.00     0.048 C 
ATOM     31  O   UNL     1      27.385  17.973  38.122  1.00  0.00    -0.550 OA
ATOM     32  O   UNL     1      27.965  17.875  35.919  1.00  0.00    -0.550 OA
ENDBRANCH   1  30
BRANCH  27  33
ATOM     33  O   UNL     1      20.015  26.357  32.482  1.00  0.00    -0.393 OA
ATOM     34  H   UNL     1      19.576  26.004  31.666  1.00  0.00     0.210 HD
ENDBRANCH  27  33
TORSDOF 2
ENDMDL
MODEL 4
REMARK VINA RESULT:    -4.757      3.360      7.069
REMARK INTER + INTRA:          -5.380
REMARK INTER:                  -5.396
REMARK INTRA:                   0.016
REMARK UNBOUND:                -0.206
REMARK SMILES C[C@@H]1[C@H](C)CC[C@@]2(C(=O)[O-])CC[C@]3(C)C(=CC[C@H]4[C@@]5(C)CC[C@H](O)C(C)(C)[C@@H]5CC[C@@]43C)[C@@H]12
REMARK SMILES IDX 7 1 6 2 11 3 33 4 5 5 12 6 15 7 2 8 3 9 13 10 16 11 1 12
REMARK SMILES IDX 4 13 14 14 31 15 17 16 18 17 30 18 32 19 19 20 29 21 28 22
REMARK SMILES IDX 21 23 20 24 25 25 22 26 23 27 26 28 27 29 8 30 9 31 10 32
REMARK SMILES IDX 24 33
REMARK H PARENT 24 34
REMARK Flexibility Score: inf
ROOT
ATOM      1  C   UNL     1      23.239  24.485  34.899  1.00  0.00     0.017 C 
ATOM      2  C   UNL     1      22.209  25.014  35.963  1.00  0.00     0.014 C 
ATOM      3  C   UNL     1      24.596  25.247  35.126  1.00  0.00     0.014 C 
ATOM      4  C   UNL     1      23.401  22.906  35.010  1.00  0.00     0.030 C 
ATOM      5  C   UNL     1      21.082  24.017  36.217  1.00  0.00     0.004 C 
ATOM      6  C   UNL     1      25.857  24.369  35.239  1.00  0.00     0.013 C 
ATOM      7  C   UNL     1      24.711  22.351  34.394  1.00  0.00    -0.063 C 
ATOM      8  C   UNL     1      23.123  22.445  36.489  1.00  0.00    -0.003 C 
ATOM      9  C   UNL     1      21.623  22.721  36.870  1.00  0.00    -0.011 C 
ATOM     10  C   UNL     1      25.980  23.219  34.196  1.00  0.00    -0.006 C 
ATOM     11  C   UNL     1      24.716  21.051  34.023  1.00  0.00    -0.027 C 
ATOM     12  C   UNL     1      23.537  21.005  36.852  1.00  0.00     0.008 C 
ATOM     13  C   UNL     1      20.665  21.559  36.540  1.00  0.00     0.008 C 
ATOM     14  C   UNL     1      25.858  23.873  32.777  1.00  0.00     0.017 C 
ATOM     15  C   UNL     1      27.397  22.346  34.339  1.00  0.00    -0.020 C 
ATOM     16  C   UNL     1      25.982  20.255  33.939  1.00  0.00     0.032 C 
ATOM     17  C   UNL     1      27.067  20.893  34.837  1.00  0.00     0.006 C 
ATOM     18  C   UNL     1      28.447  22.986  35.362  1.00  0.00     0.008 C 
ATOM     19  C   UNL     1      28.110  22.240  32.934  1.00  0.00     0.012 C 
ATOM     20  C   UNL     1      28.260  19.898  35.246  1.00  0.00    -0.025 C 
ATOM     21  C   UNL     1      29.295  22.016  36.225  1.00  0.00     0.005 C 
ATOM     22  C   UNL     1      29.589  20.708  35.484  1.00  0.00     0.003 C 
ATOM     23  C   UNL     1      28.572  18.813  34.169  1.00  0.00     0.010 C 
ATOM     24  C   UNL     1      27.756  19.163  36.537  1.00  0.00     0.012 C 
ATOM     25  C   UNL     1      30.857  19.877  35.926  1.00  0.00    -0.006 C 
ATOM     26  C   UNL     1      29.789  17.929  34.523  1.00  0.00     0.033 C 
ATOM     27  C   UNL     1      31.062  18.739  34.862  1.00  0.00     0.120 C 
ATOM     28  C   UNL     1      30.766  19.327  37.376  1.00  0.00     0.014 C 
ATOM     29  C   UNL     1      32.125  20.780  35.867  1.00  0.00     0.014 C 
ENDROOT
BRANCH   1  30
ATOM     30  C   UNL     1      22.678  24.871  33.527  1.00  0.00     0.048 C 
ATOM     31  O   UNL     1      22.702  24.071  32.552  1.00  0.00    -0.550 OA
ATOM     32  O   UNL     1      22.135  26.138  33.331  1.00  0.00    -0.550 OA
ENDBRANCH   1  30
BRANCH  27  33
ATOM     33  O   UNL     1      32.123  17.879  35.212  1.00  0.00    -0.393 OA
ATOM     34  H   UNL     1      31.739  17.055  35.607  1.00  0.00     0.210 HD
ENDBRANCH  27  33
TORSDOF 2
ENDMDL
