MODEL 1
REMARK VINA RESULT:    -3.877      0.000      0.000
REMARK INTER + INTRA:          -5.877
REMARK INTER:                  -5.237
REMARK INTRA:                  -0.641
REMARK UNBOUND:                -0.641
REMARK SMILES CCCCCCCC(=O)[O-]
REMARK SMILES IDX 5 1 6 2 7 3 8 4 9 5 10 6 4 7 3 8 2 9 1 10
REMARK H PARENT
REMARK Flexibility Score: inf
ROOT
ATOM      1  C   UNL     1      62.914  29.687  13.487  1.00  0.00     0.000 C 
ENDROOT
BRANCH   1   2
ATOM      2  C   UNL     1      62.031  28.719  12.683  1.00  0.00     0.006 C 
BRANCH   2   3
ATOM      3  C   UNL     1      60.696  28.432  13.384  1.00  0.00     0.053 C 
BRANCH   3   4
ATOM      4  C   UNL     1      59.533  28.605  12.455  1.00  0.00     0.041 C 
ATOM      5  O   UNL     1      58.476  27.945  12.636  1.00  0.00    -0.550 OA
ATOM      6  O   UNL     1      59.605  29.518  11.411  1.00  0.00    -0.550 OA
ENDBRANCH   3   4
ENDBRANCH   2   3
ENDBRANCH   1   2
BRANCH   1   7
ATOM      7  C   UNL     1      62.074  30.829  14.080  1.00  0.00     0.000 C 
BRANCH   7   8
ATOM      8  C   UNL     1      61.994  32.050  13.149  1.00  0.00    -0.000 C 
BRANCH   8   9
ATOM      9  C   UNL     1      60.564  32.588  13.001  1.00  0.00    -0.003 C 
ATOM     10  C   UNL     1      59.646  32.010  14.073  1.00  0.00     0.004 C 
ENDBRANCH   8   9
ENDBRANCH   7   8
ENDBRANCH   1   7
TORSDOF 6
ENDMDL
MODEL 2
REMARK VINA RESULT:    -3.821     12.251     13.183
REMARK INTER + INTRA:          -5.802
REMARK INTER:                  -5.335
REMARK INTRA:                  -0.468
REMARK UNBOUND:                -0.641
REMARK SMILES CCCCCCCC(=O)[O-]
REMARK SMILES IDX 5 1 6 2 7 3 8 4 9 5 10 6 4 7 3 8 2 9 1 10
REMARK H PARENT
REMARK Flexibility Score: inf
ROOT
ATOM      1  C   UNL     1      62.612  28.253  23.680  1.00  0.00     0.000 C 
ENDROOT
BRANCH   1   2
ATOM      2  C   UNL     1      61.703  28.978  24.684  1.00  0.00     0.006 C 
BRANCH   2   3
ATOM      3  C   UNL     1      60.801  28.007  25.459  1.00  0.00     0.053 C 
BRANCH   3   4
ATOM      4  C   UNL     1      61.292  27.788  26.857  1.00  0.00     0.041 C 
ATOM      5  O   UNL     1      61.858  26.707  27.168  1.00  0.00    -0.550 OA
ATOM      6  O   UNL     1      61.155  28.792  27.808  1.00  0.00    -0.550 OA
ENDBRANCH   3   4
ENDBRANCH   2   3
ENDBRANCH   1   2
BRANCH   1   7
ATOM      7  C   UNL     1      64.090  28.565  23.957  1.00  0.00     0.000 C 
BRANCH   7   8
ATOM      8  C   UNL     1      64.660  27.743  25.125  1.00  0.00    -0.000 C 
BRANCH   8   9
ATOM      9  C   UNL     1      64.636  26.232  24.853  1.00  0.00    -0.003 C 
ATOM     10  C   UNL     1      65.414  25.890  23.586  1.00  0.00     0.004 C 
ENDBRANCH   8   9
ENDBRANCH   7   8
ENDBRANCH   1   7
TORSDOF 6
ENDMDL
MODEL 3
REMARK VINA RESULT:    -3.795      1.209      1.527
REMARK INTER + INTRA:          -5.767
REMARK INTER:                  -5.345
REMARK INTRA:                  -0.423
REMARK UNBOUND:                -0.641
REMARK SMILES CCCCCCCC(=O)[O-]
REMARK SMILES IDX 5 1 6 2 7 3 8 4 9 5 10 6 4 7 3 8 2 9 1 10
REMARK H PARENT
REMARK Flexibility Score: inf
ROOT
ATOM      1  C   UNL     1      61.490  29.739  14.397  1.00  0.00     0.000 C 
ENDROOT
BRANCH   1   2
ATOM      2  C   UNL     1      61.795  28.737  13.274  1.00  0.00     0.006 C 
BRANCH   2   3
ATOM      3  C   UNL     1      60.519  28.223  12.592  1.00  0.00     0.053 C 
BRANCH   3   4
ATOM      4  C   UNL     1      60.403  28.719  11.183  1.00  0.00     0.041 C 
ATOM      5  O   UNL     1      59.644  29.687  10.913  1.00  0.00    -0.550 OA
ATOM      6  O   UNL     1      61.159  28.135  10.175  1.00  0.00    -0.550 OA
ENDBRANCH   3   4
ENDBRANCH   2   3
ENDBRANCH   1   2
BRANCH   1   7
ATOM      7  C   UNL     1      62.240  31.060  14.171  1.00  0.00     0.000 C 
BRANCH   7   8
ATOM      8  C   UNL     1      61.768  31.801  12.909  1.00  0.00    -0.000 C 
BRANCH   8   9
ATOM      9  C   UNL     1      60.573  32.726  13.178  1.00  0.00    -0.003 C 
ATOM     10  C   UNL     1      60.727  33.449  14.513  1.00  0.00     0.004 C 
ENDBRANCH   8   9
ENDBRANCH   7   8
ENDBRANCH   1   7
TORSDOF 6
ENDMDL
MODEL 4
REMARK VINA RESULT:    -3.756     12.818     13.695
REMARK INTER + INTRA:          -5.714
REMARK INTER:                  -5.084
REMARK INTRA:                  -0.631
REMARK UNBOUND:                -0.641
REMARK SMILES CCCCCCCC(=O)[O-]
REMARK SMILES IDX 5 1 6 2 7 3 8 4 9 5 10 6 4 7 3 8 2 9 1 10
REMARK H PARENT
REMARK Flexibility Score: inf
ROOT
ATOM      1  C   UNL     1      61.486  28.529  24.639  1.00  0.00     0.000 C 
ENDROOT
BRANCH   1   2
ATOM      2  C   UNL     1      60.728  27.587  25.587  1.00  0.00     0.006 C 
BRANCH   2   3
ATOM      3  C   UNL     1      61.583  27.161  26.789  1.00  0.00     0.053 C 
BRANCH   3   4
ATOM      4  C   UNL     1      61.827  28.300  27.730  1.00  0.00     0.041 C 
ATOM      5  O   UNL     1      62.975  28.806  27.828  1.00  0.00    -0.550 OA
ATOM      6  O   UNL     1      60.777  28.824  28.474  1.00  0.00    -0.550 OA
ENDBRANCH   3   4
ENDBRANCH   2   3
ENDBRANCH   1   2
BRANCH   1   7
ATOM      7  C   UNL     1      62.666  27.803  23.975  1.00  0.00     0.000 C 
BRANCH   7   8
ATOM      8  C   UNL     1      64.003  28.532  24.186  1.00  0.00    -0.000 C 
BRANCH   8   9
ATOM      9  C   UNL     1      64.965  27.753  25.095  1.00  0.00    -0.003 C 
ATOM     10  C   UNL     1      64.740  26.249  24.972  1.00  0.00     0.004 C 
ENDBRANCH   8   9
ENDBRANCH   7   8
ENDBRANCH   1   7
TORSDOF 6
ENDMDL
MODEL 5
REMARK VINA RESULT:    -3.723      2.811      4.334
REMARK INTER + INTRA:          -5.669
REMARK INTER:                  -5.167
REMARK INTRA:                  -0.502
REMARK UNBOUND:                -0.641
REMARK SMILES CCCCCCCC(=O)[O-]
REMARK SMILES IDX 5 1 6 2 7 3 8 4 9 5 10 6 4 7 3 8 2 9 1 10
REMARK H PARENT
REMARK Flexibility Score: inf
ROOT
ATOM      1  C   UNL     1      60.036  29.689  10.850  1.00  0.00     0.000 C 
ENDROOT
BRANCH   1   2
ATOM      2  C   UNL     1      59.461  29.037  12.116  1.00  0.00     0.006 C 
BRANCH   2   3
ATOM      3  C   UNL     1      60.461  28.081  12.783  1.00  0.00     0.053 C 
BRANCH   3   4
ATOM      4  C   UNL     1      61.604  28.821  13.408  1.00  0.00     0.041 C 
ATOM      5  O   UNL     1      61.425  29.496  14.455  1.00  0.00    -0.550 OA
ATOM      6  O   UNL     1      62.874  28.737  12.851  1.00  0.00    -0.550 OA
ENDBRANCH   3   4
ENDBRANCH   2   3
ENDBRANCH   1   2
BRANCH   1   7
ATOM      7  C   UNL     1      59.989  28.716   9.662  1.00  0.00     0.000 C 
BRANCH   7   8
ATOM      8  C   UNL     1      61.385  28.397   9.103  1.00  0.00    -0.000 C 
BRANCH   8   9
ATOM      9  C   UNL     1      62.369  29.565   9.264  1.00  0.00    -0.003 C 
ATOM     10  C   UNL     1      63.795  29.060   9.456  1.00  0.00     0.004 C 
ENDBRANCH   8   9
ENDBRANCH   7   8
ENDBRANCH   1   7
TORSDOF 6
ENDMDL
MODEL 6
REMARK VINA RESULT:    -3.696     13.817     14.691
REMARK INTER + INTRA:          -5.633
REMARK INTER:                  -5.164
REMARK INTRA:                  -0.469
REMARK UNBOUND:                -0.641
REMARK SMILES CCCCCCCC(=O)[O-]
REMARK SMILES IDX 5 1 6 2 7 3 8 4 9 5 10 6 4 7 3 8 2 9 1 10
REMARK H PARENT
REMARK Flexibility Score: inf
ROOT
ATOM      1  C   UNL     1      61.340  28.798  28.314  1.00  0.00     0.000 C 
ENDROOT
BRANCH   1   2
ATOM      2  C   UNL     1      62.562  29.461  28.968  1.00  0.00     0.006 C 
BRANCH   2   3
ATOM      3  C   UNL     1      62.987  30.744  28.239  1.00  0.00     0.053 C 
BRANCH   3   4
ATOM      4  C   UNL     1      63.641  30.446  26.925  1.00  0.00     0.041 C 
ATOM      5  O   UNL     1      63.034  30.684  25.848  1.00  0.00    -0.550 OA
ATOM      6  O   UNL     1      64.933  29.936  26.890  1.00  0.00    -0.550 OA
ENDBRANCH   3   4
ENDBRANCH   2   3
ENDBRANCH   1   2
BRANCH   1   7
ATOM      7  C   UNL     1      61.648  27.343  27.928  1.00  0.00     0.000 C 
BRANCH   7   8
ATOM      8  C   UNL     1      61.860  27.164  26.416  1.00  0.00    -0.000 C 
BRANCH   8   9
ATOM      9  C   UNL     1      60.740  27.803  25.581  1.00  0.00    -0.003 C 
ATOM     10  C   UNL     1      59.658  26.782  25.242  1.00  0.00     0.004 C 
ENDBRANCH   8   9
ENDBRANCH   7   8
ENDBRANCH   1   7
TORSDOF 6
ENDMDL
MODEL 7
REMARK VINA RESULT:    -3.687      1.369      1.645
REMARK INTER + INTRA:          -5.621
REMARK INTER:                  -5.029
REMARK INTRA:                  -0.592
REMARK UNBOUND:                -0.641
REMARK SMILES CCCCCCCC(=O)[O-]
REMARK SMILES IDX 5 1 6 2 7 3 8 4 9 5 10 6 4 7 3 8 2 9 1 10
REMARK H PARENT
REMARK Flexibility Score: inf
ROOT
ATOM      1  C   UNL     1      62.018  29.087  13.041  1.00  0.00     0.000 C 
ENDROOT
BRANCH   1   2
ATOM      2  C   UNL     1      60.769  28.194  13.019  1.00  0.00     0.006 C 
BRANCH   2   3
ATOM      3  C   UNL     1      59.748  28.648  11.965  1.00  0.00     0.053 C 
BRANCH   3   4
ATOM      4  C   UNL     1      60.395  28.898  10.637  1.00  0.00     0.041 C 
ATOM      5  O   UNL     1      61.019  27.973  10.053  1.00  0.00    -0.550 OA
ATOM      6  O   UNL     1      60.279  30.142  10.030  1.00  0.00    -0.550 OA
ENDBRANCH   3   4
ENDBRANCH   2   3
ENDBRANCH   1   2
BRANCH   1   7
ATOM      7  C   UNL     1      61.740  30.399  13.790  1.00  0.00     0.000 C 
BRANCH   7   8
ATOM      8  C   UNL     1      61.846  31.634  12.880  1.00  0.00    -0.000 C 
BRANCH   8   9
ATOM      9  C   UNL     1      60.585  32.510  12.923  1.00  0.00    -0.003 C 
ATOM     10  C   UNL     1      59.529  31.909  13.845  1.00  0.00     0.004 C 
ENDBRANCH   8   9
ENDBRANCH   7   8
ENDBRANCH   1   7
TORSDOF 6
ENDMDL
MODEL 8
REMARK VINA RESULT:    -3.679     13.283     14.137
REMARK INTER + INTRA:          -5.610
REMARK INTER:                  -5.123
REMARK INTRA:                  -0.486
REMARK UNBOUND:                -0.641
REMARK SMILES CCCCCCCC(=O)[O-]
REMARK SMILES IDX 5 1 6 2 7 3 8 4 9 5 10 6 4 7 3 8 2 9 1 10
REMARK H PARENT
REMARK Flexibility Score: inf
ROOT
ATOM      1  C   UNL     1      61.288  27.331  26.872  1.00  0.00     0.000 C 
ENDROOT
BRANCH   1   2
ATOM      2  C   UNL     1      61.265  28.598  27.741  1.00  0.00     0.006 C 
BRANCH   2   3
ATOM      3  C   UNL     1      62.663  28.981  28.247  1.00  0.00     0.053 C 
BRANCH   3   4
ATOM      4  C   UNL     1      62.982  30.417  27.964  1.00  0.00     0.041 C 
ATOM      5  O   UNL     1      62.925  31.272  28.887  1.00  0.00    -0.550 OA
ATOM      6  O   UNL     1      63.375  30.805  26.689  1.00  0.00    -0.550 OA
ENDBRANCH   3   4
ENDBRANCH   2   3
ENDBRANCH   1   2
BRANCH   1   7
ATOM      7  C   UNL     1      60.647  27.596  25.501  1.00  0.00     0.000 C 
BRANCH   7   8
ATOM      8  C   UNL     1      61.350  28.722  24.726  1.00  0.00    -0.000 C 
BRANCH   8   9
ATOM      9  C   UNL     1      62.355  28.193  23.693  1.00  0.00    -0.003 C 
ATOM     10  C   UNL     1      63.786  28.303  24.212  1.00  0.00     0.004 C 
ENDBRANCH   8   9
ENDBRANCH   7   8
ENDBRANCH   1   7
TORSDOF 6
ENDMDL
MODEL 9
REMARK VINA RESULT:    -3.658      2.159      2.984
REMARK INTER + INTRA:          -5.582
REMARK INTER:                  -5.125
REMARK INTRA:                  -0.457
REMARK UNBOUND:                -0.641
REMARK SMILES CCCCCCCC(=O)[O-]
REMARK SMILES IDX 5 1 6 2 7 3 8 4 9 5 10 6 4 7 3 8 2 9 1 10
REMARK H PARENT
REMARK Flexibility Score: inf
ROOT
ATOM      1  C   UNL     1      61.517  29.641  13.683  1.00  0.00     0.000 C 
ENDROOT
BRANCH   1   2
ATOM      2  C   UNL     1      62.344  28.629  12.876  1.00  0.00     0.006 C 
BRANCH   2   3
ATOM      3  C   UNL     1      63.317  29.315  11.907  1.00  0.00     0.053 C 
BRANCH   3   4
ATOM      4  C   UNL     1      63.031  28.953  10.482  1.00  0.00     0.041 C 
ATOM      5  O   UNL     1      63.958  28.951   9.630  1.00  0.00    -0.550 OA
ATOM      6  O   UNL     1      61.746  28.585  10.102  1.00  0.00    -0.550 OA
ENDBRANCH   3   4
ENDBRANCH   2   3
ENDBRANCH   1   2
BRANCH   1   7
ATOM      7  C   UNL     1      60.169  29.916  12.999  1.00  0.00     0.000 C 
BRANCH   7   8
ATOM      8  C   UNL     1      60.019  31.379  12.552  1.00  0.00    -0.000 C 
BRANCH   8   9
ATOM      9  C   UNL     1      61.177  32.266  13.031  1.00  0.00    -0.003 C 
ATOM     10  C   UNL     1      60.696  33.298  14.045  1.00  0.00     0.004 C 
ENDBRANCH   8   9
ENDBRANCH   7   8
ENDBRANCH   1   7
TORSDOF 6
ENDMDL
