MODEL 1
REMARK VINA RESULT:    -5.152      0.000      0.000
REMARK INTER + INTRA:          -6.045
REMARK INTER:                  -5.905
REMARK INTRA:                  -0.140
REMARK UNBOUND:                -0.140
REMARK SMILES O=C([O-])C=Cc1ccc(O)cc1
REMARK SMILES IDX 6 1 7 2 12 3 8 4 11 5 9 6 5 7 4 8 2 9 1 10 3 11 10 12
REMARK H PARENT 10 13
REMARK Flexibility Score: inf
ROOT
ATOM      1  C   UNL     1       6.428  11.193   5.803  1.00  0.00    -0.025 A 
ATOM      2  C   UNL     1       6.443  11.978   4.633  1.00  0.00     0.012 A 
ATOM      3  C   UNL     1       7.650  10.778   6.358  1.00  0.00     0.012 A 
ATOM      4  C   UNL     1       7.658  12.357   4.051  1.00  0.00     0.047 A 
ATOM      5  C   UNL     1       8.863  11.159   5.773  1.00  0.00     0.047 A 
ATOM      6  C   UNL     1       8.870  11.951   4.622  1.00  0.00     0.115 A 
ENDROOT
BRANCH   1   7
ATOM      7  C   UNL     1       5.168  10.753   6.454  1.00  0.00     0.010 C 
ATOM      8  C   UNL     1       4.824  11.080   7.708  1.00  0.00     0.025 C 
BRANCH   8   9
ATOM      9  C   UNL     1       3.571  10.616   8.326  1.00  0.00     0.064 C 
ATOM     10  O   UNL     1       2.535  10.424   7.634  1.00  0.00    -0.545 OA
ATOM     11  O   UNL     1       3.528  10.388   9.695  1.00  0.00    -0.545 OA
ENDBRANCH   8   9
ENDBRANCH   1   7
BRANCH   6  12
ATOM     12  O   UNL     1      10.085  12.323   4.051  1.00  0.00    -0.508 OA
ATOM     13  H   UNL     1      10.952  11.863   4.304  1.00  0.00     0.293 HD
ENDBRANCH   6  12
TORSDOF 3
ENDMDL
MODEL 2
REMARK VINA RESULT:    -5.107      1.335      5.970
REMARK INTER + INTRA:          -5.993
REMARK INTER:                  -5.849
REMARK INTRA:                  -0.144
REMARK UNBOUND:                -0.140
REMARK SMILES O=C([O-])C=Cc1ccc(O)cc1
REMARK SMILES IDX 6 1 7 2 12 3 8 4 11 5 9 6 5 7 4 8 2 9 1 10 3 11 10 12
REMARK H PARENT 10 13
REMARK Flexibility Score: inf
ROOT
ATOM      1  C   UNL     1       5.238  11.274   7.401  1.00  0.00    -0.025 A 
ATOM      2  C   UNL     1       4.901  12.007   8.556  1.00  0.00     0.012 A 
ATOM      3  C   UNL     1       4.292  10.387   6.860  1.00  0.00     0.012 A 
ATOM      4  C   UNL     1       3.635  11.870   9.137  1.00  0.00     0.047 A 
ATOM      5  C   UNL     1       3.027  10.253   7.443  1.00  0.00     0.047 A 
ATOM      6  C   UNL     1       2.695  10.995   8.579  1.00  0.00     0.115 A 
ENDROOT
BRANCH   1   7
ATOM      7  C   UNL     1       6.570  11.373   6.752  1.00  0.00     0.010 C 
ATOM      8  C   UNL     1       6.745  11.543   5.434  1.00  0.00     0.025 C 
BRANCH   8   9
ATOM      9  C   UNL     1       8.082  11.625   4.823  1.00  0.00     0.064 C 
ATOM     10  O   UNL     1       9.095  11.153   5.404  1.00  0.00    -0.545 OA
ATOM     11  O   UNL     1       8.231  12.237   3.585  1.00  0.00    -0.545 OA
ENDBRANCH   8   9
ENDBRANCH   1   7
BRANCH   6  12
ATOM     12  O   UNL     1       1.432  10.851   9.150  1.00  0.00    -0.508 OA
ATOM     13  H   UNL     1       0.636  11.380   8.812  1.00  0.00     0.293 HD
ENDBRANCH   6  12
TORSDOF 3
ENDMDL
MODEL 3
REMARK VINA RESULT:    -5.075      1.937      2.860
REMARK INTER + INTRA:          -5.956
REMARK INTER:                  -5.819
REMARK INTRA:                  -0.137
REMARK UNBOUND:                -0.140
REMARK SMILES O=C([O-])C=Cc1ccc(O)cc1
REMARK SMILES IDX 6 1 7 2 12 3 8 4 11 5 9 6 5 7 4 8 2 9 1 10 3 11 10 12
REMARK H PARENT 10 13
REMARK Flexibility Score: inf
ROOT
ATOM      1  C   UNL     1       4.742  11.065   7.460  1.00  0.00    -0.025 A 
ATOM      2  C   UNL     1       5.766  12.020   7.627  1.00  0.00     0.012 A 
ATOM      3  C   UNL     1       4.522  10.524   6.182  1.00  0.00     0.012 A 
ATOM      4  C   UNL     1       6.562  12.402   6.541  1.00  0.00     0.047 A 
ATOM      5  C   UNL     1       5.321  10.907   5.099  1.00  0.00     0.047 A 
ATOM      6  C   UNL     1       6.343  11.843   5.276  1.00  0.00     0.115 A 
ENDROOT
BRANCH   1   7
ATOM      7  C   UNL     1       3.861  10.635   8.574  1.00  0.00     0.010 C 
ATOM      8  C   UNL     1       2.768  11.306   8.961  1.00  0.00     0.025 C 
BRANCH   8   9
ATOM      9  C   UNL     1       1.923  10.855  10.080  1.00  0.00     0.064 C 
ATOM     10  O   UNL     1       2.170   9.782  10.692  1.00  0.00    -0.545 OA
ATOM     11  O   UNL     1       0.833  11.624  10.466  1.00  0.00    -0.545 OA
ENDBRANCH   8   9
ENDBRANCH   1   7
BRANCH   6  12
ATOM     12  O   UNL     1       7.131  12.216   4.189  1.00  0.00    -0.508 OA
ATOM     13  H   UNL     1       6.830  12.932   3.538  1.00  0.00     0.293 HD
ENDBRANCH   6  12
TORSDOF 3
ENDMDL
MODEL 4
REMARK VINA RESULT:    -5.010      1.371      5.963
REMARK INTER + INTRA:          -5.882
REMARK INTER:                  -5.746
REMARK INTRA:                  -0.136
REMARK UNBOUND:                -0.140
REMARK SMILES O=C([O-])C=Cc1ccc(O)cc1
REMARK SMILES IDX 6 1 7 2 12 3 8 4 11 5 9 6 5 7 4 8 2 9 1 10 3 11 10 12
REMARK H PARENT 10 13
REMARK Flexibility Score: inf
ROOT
ATOM      1  C   UNL     1       5.461  11.097   7.473  1.00  0.00    -0.025 A 
ATOM      2  C   UNL     1       5.007   9.765   7.395  1.00  0.00     0.012 A 
ATOM      3  C   UNL     1       4.873  11.960   8.413  1.00  0.00     0.012 A 
ATOM      4  C   UNL     1       4.005   9.307   8.257  1.00  0.00     0.047 A 
ATOM      5  C   UNL     1       3.872  11.499   9.274  1.00  0.00     0.047 A 
ATOM      6  C   UNL     1       3.438  10.172   9.200  1.00  0.00     0.115 A 
ENDROOT
BRANCH   1   7
ATOM      7  C   UNL     1       6.512  11.637   6.574  1.00  0.00     0.010 C 
ATOM      8  C   UNL     1       7.470  10.886   6.013  1.00  0.00     0.025 C 
BRANCH   8   9
ATOM      9  C   UNL     1       8.505  11.459   5.135  1.00  0.00     0.064 C 
ATOM     10  O   UNL     1       9.720  11.451   5.469  1.00  0.00    -0.545 OA
ATOM     11  O   UNL     1       8.135  12.019   3.920  1.00  0.00    -0.545 OA
ENDBRANCH   8   9
ENDBRANCH   1   7
BRANCH   6  12
ATOM     12  O   UNL     1       2.440   9.727  10.065  1.00  0.00    -0.508 OA
ATOM     13  H   UNL     1       1.525   9.458   9.723  1.00  0.00     0.293 HD
ENDBRANCH   6  12
TORSDOF 3
ENDMDL
MODEL 5
REMARK VINA RESULT:    -4.837      2.462      3.439
REMARK INTER + INTRA:          -5.684
REMARK INTER:                  -5.548
REMARK INTRA:                  -0.136
REMARK UNBOUND:                -0.140
REMARK SMILES O=C([O-])C=Cc1ccc(O)cc1
REMARK SMILES IDX 6 1 7 2 12 3 8 4 11 5 9 6 5 7 4 8 2 9 1 10 3 11 10 12
REMARK H PARENT 10 13
REMARK Flexibility Score: inf
ROOT
ATOM      1  C   UNL     1       4.716  11.143   8.603  1.00  0.00    -0.025 A 
ATOM      2  C   UNL     1       4.954  10.362   7.454  1.00  0.00     0.012 A 
ATOM      3  C   UNL     1       5.753  11.950   9.101  1.00  0.00     0.012 A 
ATOM      4  C   UNL     1       6.195  10.411   6.809  1.00  0.00     0.047 A 
ATOM      5  C   UNL     1       6.992  11.997   8.454  1.00  0.00     0.047 A 
ATOM      6  C   UNL     1       7.215  11.231   7.306  1.00  0.00     0.115 A 
ENDROOT
BRANCH   1   7
ATOM      7  C   UNL     1       3.423  11.119   9.332  1.00  0.00     0.010 C 
ATOM      8  C   UNL     1       2.390  11.922   9.041  1.00  0.00     0.025 C 
BRANCH   8   9
ATOM      9  C   UNL     1       1.125  11.879   9.794  1.00  0.00     0.064 C 
ATOM     10  O   UNL     1       0.996  11.148  10.812  1.00  0.00    -0.545 OA
ATOM     11  O   UNL     1       0.054  12.656   9.374  1.00  0.00    -0.545 OA
ENDBRANCH   8   9
ENDBRANCH   1   7
BRANCH   6  12
ATOM     12  O   UNL     1       8.455  11.288   6.672  1.00  0.00    -0.508 OA
ATOM     13  H   UNL     1       9.302  10.983   7.137  1.00  0.00     0.293 HD
ENDBRANCH   6  12
TORSDOF 3
ENDMDL
MODEL 6
REMARK VINA RESULT:    -4.691      2.503      6.316
REMARK INTER + INTRA:          -5.516
REMARK INTER:                  -5.380
REMARK INTRA:                  -0.136
REMARK UNBOUND:                -0.140
REMARK SMILES O=C([O-])C=Cc1ccc(O)cc1
REMARK SMILES IDX 6 1 7 2 12 3 8 4 11 5 9 6 5 7 4 8 2 9 1 10 3 11 10 12
REMARK H PARENT 10 13
REMARK Flexibility Score: inf
ROOT
ATOM      1  C   UNL     1       4.023  11.635   8.642  1.00  0.00    -0.025 A 
ATOM      2  C   UNL     1       3.631  12.873   9.190  1.00  0.00     0.012 A 
ATOM      3  C   UNL     1       3.046  10.647   8.432  1.00  0.00     0.012 A 
ATOM      4  C   UNL     1       2.288  13.120   9.495  1.00  0.00     0.047 A 
ATOM      5  C   UNL     1       1.704  10.898   8.737  1.00  0.00     0.047 A 
ATOM      6  C   UNL     1       1.322  12.133   9.266  1.00  0.00     0.115 A 
ENDROOT
BRANCH   1   7
ATOM      7  C   UNL     1       5.435  11.317   8.312  1.00  0.00     0.010 C 
ATOM      8  C   UNL     1       5.916  11.275   7.062  1.00  0.00     0.025 C 
BRANCH   8   9
ATOM      9  C   UNL     1       7.321  10.945   6.771  1.00  0.00     0.064 C 
ATOM     10  O   UNL     1       7.659  10.448   5.663  1.00  0.00    -0.545 OA
ATOM     11  O   UNL     1       8.292  11.182   7.735  1.00  0.00    -0.545 OA
ENDBRANCH   8   9
ENDBRANCH   1   7
BRANCH   6  12
ATOM     12  O   UNL     1      -0.019  12.369   9.565  1.00  0.00    -0.508 OA
ATOM     13  H   UNL     1      -0.297  12.818  10.430  1.00  0.00     0.293 HD
ENDBRANCH   6  12
TORSDOF 3
ENDMDL
MODEL 7
REMARK VINA RESULT:    -3.906     17.663     18.610
REMARK INTER + INTRA:          -4.617
REMARK INTER:                  -4.475
REMARK INTRA:                  -0.142
REMARK UNBOUND:                -0.140
REMARK SMILES O=C([O-])C=Cc1ccc(O)cc1
REMARK SMILES IDX 6 1 7 2 12 3 8 4 11 5 9 6 5 7 4 8 2 9 1 10 3 11 10 12
REMARK H PARENT 10 13
REMARK Flexibility Score: inf
ROOT
ATOM      1  C   UNL     1      -6.203   9.900  -7.151  1.00  0.00    -0.025 A 
ATOM      2  C   UNL     1      -5.242  10.705  -6.507  1.00  0.00     0.012 A 
ATOM      3  C   UNL     1      -5.957   9.469  -8.466  1.00  0.00     0.012 A 
ATOM      4  C   UNL     1      -4.053  11.047  -7.161  1.00  0.00     0.047 A 
ATOM      5  C   UNL     1      -4.766   9.813  -9.115  1.00  0.00     0.047 A 
ATOM      6  C   UNL     1      -3.812  10.599  -8.465  1.00  0.00     0.115 A 
ENDROOT
BRANCH   1   7
ATOM      7  C   UNL     1      -7.486   9.518  -6.508  1.00  0.00     0.010 C 
ATOM      8  C   UNL     1      -7.904   8.251  -6.375  1.00  0.00     0.025 C 
BRANCH   8   9
ATOM      9  C   UNL     1      -9.189   7.910  -5.741  1.00  0.00     0.064 C 
ATOM     10  O   UNL     1      -9.455   6.726  -5.402  1.00  0.00    -0.545 OA
ATOM     11  O   UNL     1     -10.125   8.910  -5.516  1.00  0.00    -0.545 OA
ENDBRANCH   8   9
ENDBRANCH   1   7
BRANCH   6  12
ATOM     12  O   UNL     1      -2.631  10.933  -9.125  1.00  0.00    -0.508 OA
ATOM     13  H   UNL     1      -1.725  10.778  -8.699  1.00  0.00     0.293 HD
ENDBRANCH   6  12
TORSDOF 3
ENDMDL
MODEL 8
REMARK VINA RESULT:    -3.675      4.828      7.074
REMARK INTER + INTRA:          -4.352
REMARK INTER:                  -4.202
REMARK INTRA:                  -0.150
REMARK UNBOUND:                -0.140
REMARK SMILES O=C([O-])C=Cc1ccc(O)cc1
REMARK SMILES IDX 6 1 7 2 12 3 8 4 11 5 9 6 5 7 4 8 2 9 1 10 3 11 10 12
REMARK H PARENT 10 13
REMARK Flexibility Score: inf
ROOT
ATOM      1  C   UNL     1       0.655  12.356   9.078  1.00  0.00    -0.025 A 
ATOM      2  C   UNL     1       1.668  13.125   9.685  1.00  0.00     0.012 A 
ATOM      3  C   UNL     1       1.017  11.211   8.349  1.00  0.00     0.012 A 
ATOM      4  C   UNL     1       3.008  12.737   9.582  1.00  0.00     0.047 A 
ATOM      5  C   UNL     1       2.358  10.826   8.249  1.00  0.00     0.047 A 
ATOM      6  C   UNL     1       3.355  11.586   8.866  1.00  0.00     0.115 A 
ENDROOT
BRANCH   1   7
ATOM      7  C   UNL     1      -0.781  12.729   9.146  1.00  0.00     0.010 C 
ATOM      8  C   UNL     1      -1.681  12.399   8.209  1.00  0.00     0.025 C 
BRANCH   8   9
ATOM      9  C   UNL     1      -3.096  12.796   8.304  1.00  0.00     0.064 C 
ATOM     10  O   UNL     1      -3.686  12.848   9.417  1.00  0.00    -0.545 OA
ATOM     11  O   UNL     1      -3.794  13.117   7.148  1.00  0.00    -0.545 OA
ENDBRANCH   8   9
ENDBRANCH   1   7
BRANCH   6  12
ATOM     12  O   UNL     1       4.687  11.190   8.758  1.00  0.00    -0.508 OA
ATOM     13  H   UNL     1       4.940  10.276   8.400  1.00  0.00     0.293 HD
ENDBRANCH   6  12
TORSDOF 3
ENDMDL
MODEL 9
REMARK VINA RESULT:    -2.527      3.606      5.026
REMARK INTER + INTRA:          -3.036
REMARK INTER:                  -2.883
REMARK INTRA:                  -0.153
REMARK UNBOUND:                -0.140
REMARK SMILES O=C([O-])C=Cc1ccc(O)cc1
REMARK SMILES IDX 6 1 7 2 12 3 8 4 11 5 9 6 5 7 4 8 2 9 1 10 3 11 10 12
REMARK H PARENT 10 13
REMARK Flexibility Score: inf
ROOT
ATOM      1  C   UNL     1       3.007  11.806   8.811  1.00  0.00    -0.025 A 
ATOM      2  C   UNL     1       4.179  12.342   9.383  1.00  0.00     0.012 A 
ATOM      3  C   UNL     1       3.126  10.780   7.859  1.00  0.00     0.012 A 
ATOM      4  C   UNL     1       5.435  11.840   9.025  1.00  0.00     0.047 A 
ATOM      5  C   UNL     1       4.383  10.280   7.504  1.00  0.00     0.047 A 
ATOM      6  C   UNL     1       5.539  10.806   8.087  1.00  0.00     0.115 A 
ENDROOT
BRANCH   1   7
ATOM      7  C   UNL     1       1.652  12.310   9.146  1.00  0.00     0.010 C 
ATOM      8  C   UNL     1       0.541  11.954   8.486  1.00  0.00     0.025 C 
BRANCH   8   9
ATOM      9  C   UNL     1      -0.787  12.483   8.839  1.00  0.00     0.064 C 
ATOM     10  O   UNL     1      -0.971  13.125   9.908  1.00  0.00    -0.545 OA
ATOM     11  O   UNL     1      -1.858  12.268   7.981  1.00  0.00    -0.545 OA
ENDBRANCH   8   9
ENDBRANCH   1   7
BRANCH   6  12
ATOM     12  O   UNL     1       6.785  10.298   7.724  1.00  0.00    -0.508 OA
ATOM     13  H   UNL     1       7.499  10.890   7.315  1.00  0.00     0.293 HD
ENDBRANCH   6  12
TORSDOF 3
ENDMDL
