MODEL 1
REMARK VINA RESULT:    -5.228      0.000      0.000
REMARK INTER + INTRA:          -5.835
REMARK INTER:                  -5.839
REMARK INTRA:                   0.004
REMARK UNBOUND:                 0.004
REMARK SMILES O=C([O-])c1ccccc1C(=O)[O-]
REMARK SMILES IDX 4 1 9 2 5 3 8 4 6 5 7 6 2 7 1 8 3 9 10 10 11 11 12 12
REMARK H PARENT
REMARK Flexibility Score: inf
ROOT
ATOM      1  C   UNL     1     -46.094  73.238  -8.359  1.00  0.00     0.006 A 
ATOM      2  C   UNL     1     -46.015  73.900  -7.102  1.00  0.00     0.006 A 
ATOM      3  C   UNL     1     -45.229  72.159  -8.621  1.00  0.00     0.010 A 
ATOM      4  C   UNL     1     -45.030  73.501  -6.179  1.00  0.00     0.010 A 
ATOM      5  C   UNL     1     -44.275  71.766  -7.681  1.00  0.00     0.001 A 
ATOM      6  C   UNL     1     -44.168  72.443  -6.469  1.00  0.00     0.001 A 
ENDROOT
BRANCH   1   7
ATOM      7  C   UNL     1     -47.003  73.676  -9.444  1.00  0.00     0.072 C 
ATOM      8  O   UNL     1     -46.584  74.405 -10.382  1.00  0.00    -0.545 OA
ATOM      9  O   UNL     1     -48.319  73.229  -9.473  1.00  0.00    -0.545 OA
ENDBRANCH   1   7
BRANCH   2  10
ATOM     10  C   UNL     1     -46.975  74.950  -6.689  1.00  0.00     0.072 C 
ATOM     11  O   UNL     1     -46.555  76.056  -6.256  1.00  0.00    -0.545 OA
ATOM     12  O   UNL     1     -48.343  74.708  -6.710  1.00  0.00    -0.545 OA
ENDBRANCH   2  10
TORSDOF 2
ENDMDL
MODEL 2
REMARK VINA RESULT:    -5.126      0.065      3.021
REMARK INTER + INTRA:          -5.721
REMARK INTER:                  -5.814
REMARK INTRA:                   0.093
REMARK UNBOUND:                 0.004
REMARK SMILES O=C([O-])c1ccccc1C(=O)[O-]
REMARK SMILES IDX 4 1 9 2 5 3 8 4 6 5 7 6 2 7 1 8 3 9 10 10 11 11 12 12
REMARK H PARENT
REMARK Flexibility Score: inf
ROOT
ATOM      1  C   UNL     1     -46.004  73.893  -7.133  1.00  0.00     0.006 A 
ATOM      2  C   UNL     1     -46.076  73.230  -8.390  1.00  0.00     0.006 A 
ATOM      3  C   UNL     1     -45.021  73.499  -6.206  1.00  0.00     0.010 A 
ATOM      4  C   UNL     1     -45.204  72.155  -8.647  1.00  0.00     0.010 A 
ATOM      5  C   UNL     1     -44.153  72.445  -6.492  1.00  0.00     0.001 A 
ATOM      6  C   UNL     1     -44.252  71.767  -7.704  1.00  0.00     0.001 A 
ENDROOT
BRANCH   1   7
ATOM      7  C   UNL     1     -46.967  74.940  -6.719  1.00  0.00     0.072 C 
ATOM      8  O   UNL     1     -48.208  74.733  -6.773  1.00  0.00    -0.545 OA
ATOM      9  O   UNL     1     -46.505  76.144  -6.200  1.00  0.00    -0.545 OA
ENDBRANCH   1   7
BRANCH   2  10
ATOM     10  C   UNL     1     -46.984  73.669  -9.475  1.00  0.00     0.072 C 
ATOM     11  O   UNL     1     -46.568  74.450 -10.372  1.00  0.00    -0.545 OA
ATOM     12  O   UNL     1     -48.318  73.281  -9.484  1.00  0.00    -0.545 OA
ENDBRANCH   2  10
TORSDOF 2
ENDMDL
MODEL 3
REMARK VINA RESULT:    -5.103      2.783      3.595
REMARK INTER + INTRA:          -5.696
REMARK INTER:                  -5.473
REMARK INTRA:                  -0.222
REMARK UNBOUND:                 0.004
REMARK SMILES O=C([O-])c1ccccc1C(=O)[O-]
REMARK SMILES IDX 4 1 9 2 5 3 8 4 6 5 7 6 2 7 1 8 3 9 10 10 11 11 12 12
REMARK H PARENT
REMARK Flexibility Score: inf
ROOT
ATOM      1  C   UNL     1     -44.744  72.400  -7.234  1.00  0.00     0.006 A 
ATOM      2  C   UNL     1     -45.438  73.523  -6.703  1.00  0.00     0.006 A 
ATOM      3  C   UNL     1     -44.952  72.040  -8.578  1.00  0.00     0.010 A 
ATOM      4  C   UNL     1     -46.362  74.204  -7.517  1.00  0.00     0.010 A 
ATOM      5  C   UNL     1     -45.857  72.744  -9.373  1.00  0.00     0.001 A 
ATOM      6  C   UNL     1     -46.569  73.815  -8.840  1.00  0.00     0.001 A 
ENDROOT
BRANCH   1   7
ATOM      7  C   UNL     1     -43.858  71.540  -6.415  1.00  0.00     0.072 C 
ATOM      8  O   UNL     1     -42.605  71.649  -6.489  1.00  0.00    -0.545 OA
ATOM      9  O   UNL     1     -44.405  70.645  -5.503  1.00  0.00    -0.545 OA
ENDBRANCH   1   7
BRANCH   2  10
ATOM     10  C   UNL     1     -45.177  74.056  -5.345  1.00  0.00     0.072 C 
ATOM     11  O   UNL     1     -44.259  74.899  -5.161  1.00  0.00    -0.545 OA
ATOM     12  O   UNL     1     -45.893  73.588  -4.250  1.00  0.00    -0.545 OA
ENDBRANCH   2  10
TORSDOF 2
ENDMDL
MODEL 4
REMARK VINA RESULT:    -5.058      2.811      4.310
REMARK INTER + INTRA:          -5.645
REMARK INTER:                  -5.427
REMARK INTRA:                  -0.218
REMARK UNBOUND:                 0.004
REMARK SMILES O=C([O-])c1ccccc1C(=O)[O-]
REMARK SMILES IDX 4 1 9 2 5 3 8 4 6 5 7 6 2 7 1 8 3 9 10 10 11 11 12 12
REMARK H PARENT
REMARK Flexibility Score: inf
ROOT
ATOM      1  C   UNL     1     -45.426  73.584  -6.619  1.00  0.00     0.006 A 
ATOM      2  C   UNL     1     -44.753  72.459  -7.171  1.00  0.00     0.006 A 
ATOM      3  C   UNL     1     -46.355  74.284  -7.411  1.00  0.00     0.010 A 
ATOM      4  C   UNL     1     -44.985  72.115  -8.516  1.00  0.00     0.010 A 
ATOM      5  C   UNL     1     -46.586  73.910  -8.736  1.00  0.00     0.001 A 
ATOM      6  C   UNL     1     -45.894  72.837  -9.290  1.00  0.00     0.001 A 
ENDROOT
BRANCH   1   7
ATOM      7  C   UNL     1     -45.144  74.105  -5.261  1.00  0.00     0.072 C 
ATOM      8  O   UNL     1     -44.300  75.023  -5.084  1.00  0.00    -0.545 OA
ATOM      9  O   UNL     1     -45.861  73.627  -4.169  1.00  0.00    -0.545 OA
ENDBRANCH   1   7
BRANCH   2  10
ATOM     10  C   UNL     1     -43.866  71.584  -6.369  1.00  0.00     0.072 C 
ATOM     11  O   UNL     1     -42.616  71.645  -6.516  1.00  0.00    -0.545 OA
ATOM     12  O   UNL     1     -44.398  70.643  -5.498  1.00  0.00    -0.545 OA
ENDBRANCH   2  10
TORSDOF 2
ENDMDL
MODEL 5
REMARK VINA RESULT:    -4.895      2.303      3.343
REMARK INTER + INTRA:          -5.463
REMARK INTER:                  -5.350
REMARK INTRA:                  -0.113
REMARK UNBOUND:                 0.004
REMARK SMILES O=C([O-])c1ccccc1C(=O)[O-]
REMARK SMILES IDX 4 1 9 2 5 3 8 4 6 5 7 6 2 7 1 8 3 9 10 10 11 11 12 12
REMARK H PARENT
REMARK Flexibility Score: inf
ROOT
ATOM      1  C   UNL     1     -45.709  73.503  -7.340  1.00  0.00     0.006 A 
ATOM      2  C   UNL     1     -46.811  74.360  -7.063  1.00  0.00     0.006 A 
ATOM      3  C   UNL     1     -45.600  72.919  -8.615  1.00  0.00     0.010 A 
ATOM      4  C   UNL     1     -47.796  74.549  -8.051  1.00  0.00     0.010 A 
ATOM      5  C   UNL     1     -46.578  73.138  -9.587  1.00  0.00     0.001 A 
ATOM      6  C   UNL     1     -47.679  73.941  -9.301  1.00  0.00     0.001 A 
ENDROOT
BRANCH   1   7
ATOM      7  C   UNL     1     -44.699  73.136  -6.321  1.00  0.00     0.072 C 
ATOM      8  O   UNL     1     -44.571  71.941  -5.941  1.00  0.00    -0.545 OA
ATOM      9  O   UNL     1     -43.832  74.101  -5.820  1.00  0.00    -0.545 OA
ENDBRANCH   1   7
BRANCH   2  10
ATOM     10  C   UNL     1     -46.932  75.125  -5.800  1.00  0.00     0.072 C 
ATOM     11  O   UNL     1     -46.514  76.312  -5.736  1.00  0.00    -0.545 OA
ATOM     12  O   UNL     1     -47.445  74.527  -4.656  1.00  0.00    -0.545 OA
ENDBRANCH   2  10
TORSDOF 2
ENDMDL
MODEL 6
REMARK VINA RESULT:    -4.800      3.981      5.406
REMARK INTER + INTRA:          -5.357
REMARK INTER:                  -5.150
REMARK INTRA:                  -0.207
REMARK UNBOUND:                 0.004
REMARK SMILES O=C([O-])c1ccccc1C(=O)[O-]
REMARK SMILES IDX 4 1 9 2 5 3 8 4 6 5 7 6 2 7 1 8 3 9 10 10 11 11 12 12
REMARK H PARENT
REMARK Flexibility Score: inf
ROOT
ATOM      1  C   UNL     1     -43.221  70.655  -4.697  1.00  0.00     0.006 A 
ATOM      2  C   UNL     1     -43.008  71.502  -5.820  1.00  0.00     0.006 A 
ATOM      3  C   UNL     1     -42.120  70.279  -3.905  1.00  0.00     0.010 A 
ATOM      4  C   UNL     1     -41.695  71.888  -6.147  1.00  0.00     0.010 A 
ATOM      5  C   UNL     1     -40.829  70.693  -4.235  1.00  0.00     0.001 A 
ATOM      6  C   UNL     1     -40.616  71.485  -5.360  1.00  0.00     0.001 A 
ENDROOT
BRANCH   1   7
ATOM      7  C   UNL     1     -44.545  70.086  -4.357  1.00  0.00     0.072 C 
ATOM      8  O   UNL     1     -44.858  68.920  -4.717  1.00  0.00    -0.545 OA
ATOM      9  O   UNL     1     -45.436  70.813  -3.575  1.00  0.00    -0.545 OA
ENDBRANCH   1   7
BRANCH   2  10
ATOM     10  C   UNL     1     -44.120  72.057  -6.626  1.00  0.00     0.072 C 
ATOM     11  O   UNL     1     -44.328  71.635  -7.794  1.00  0.00    -0.545 OA
ATOM     12  O   UNL     1     -44.905  73.092  -6.132  1.00  0.00    -0.545 OA
ENDBRANCH   2  10
TORSDOF 2
ENDMDL
MODEL 7
REMARK VINA RESULT:    -4.732      3.937      4.998
REMARK INTER + INTRA:          -5.282
REMARK INTER:                  -5.105
REMARK INTRA:                  -0.177
REMARK UNBOUND:                 0.004
REMARK SMILES O=C([O-])c1ccccc1C(=O)[O-]
REMARK SMILES IDX 4 1 9 2 5 3 8 4 6 5 7 6 2 7 1 8 3 9 10 10 11 11 12 12
REMARK H PARENT
REMARK Flexibility Score: inf
ROOT
ATOM      1  C   UNL     1     -43.090  71.566  -5.826  1.00  0.00     0.006 A 
ATOM      2  C   UNL     1     -43.261  70.704  -4.707  1.00  0.00     0.006 A 
ATOM      3  C   UNL     1     -41.788  71.938  -6.210  1.00  0.00     0.010 A 
ATOM      4  C   UNL     1     -42.129  70.299  -3.975  1.00  0.00     0.010 A 
ATOM      5  C   UNL     1     -40.678  71.507  -5.483  1.00  0.00     0.001 A 
ATOM      6  C   UNL     1     -40.849  70.699  -4.361  1.00  0.00     0.001 A 
ENDROOT
BRANCH   1   7
ATOM      7  C   UNL     1     -44.227  72.153  -6.572  1.00  0.00     0.072 C 
ATOM      8  O   UNL     1     -44.850  73.150  -6.119  1.00  0.00    -0.545 OA
ATOM      9  O   UNL     1     -44.578  71.647  -7.819  1.00  0.00    -0.545 OA
ENDBRANCH   1   7
BRANCH   2  10
ATOM     10  C   UNL     1     -44.579  70.151  -4.317  1.00  0.00     0.072 C 
ATOM     11  O   UNL     1     -45.363  70.830  -3.601  1.00  0.00    -0.545 OA
ATOM     12  O   UNL     1     -44.941  68.859  -4.676  1.00  0.00    -0.545 OA
ENDBRANCH   2  10
TORSDOF 2
ENDMDL
MODEL 8
REMARK VINA RESULT:    -4.522      4.757      6.339
REMARK INTER + INTRA:          -5.047
REMARK INTER:                  -4.828
REMARK INTRA:                  -0.219
REMARK UNBOUND:                 0.004
REMARK SMILES O=C([O-])c1ccccc1C(=O)[O-]
REMARK SMILES IDX 4 1 9 2 5 3 8 4 6 5 7 6 2 7 1 8 3 9 10 10 11 11 12 12
REMARK H PARENT
REMARK Flexibility Score: inf
ROOT
ATOM      1  C   UNL     1     -43.337  72.185  -4.636  1.00  0.00     0.006 A 
ATOM      2  C   UNL     1     -43.129  71.213  -5.654  1.00  0.00     0.006 A 
ATOM      3  C   UNL     1     -44.186  73.276  -4.894  1.00  0.00     0.010 A 
ATOM      4  C   UNL     1     -43.726  71.404  -6.914  1.00  0.00     0.010 A 
ATOM      5  C   UNL     1     -44.786  73.433  -6.144  1.00  0.00     0.001 A 
ATOM      6  C   UNL     1     -44.547  72.506  -7.155  1.00  0.00     0.001 A 
ENDROOT
BRANCH   1   7
ATOM      7  C   UNL     1     -42.642  72.142  -3.328  1.00  0.00     0.072 C 
ATOM      8  O   UNL     1     -43.227  71.707  -2.301  1.00  0.00    -0.545 OA
ATOM      9  O   UNL     1     -41.308  72.522  -3.236  1.00  0.00    -0.545 OA
ENDBRANCH   1   7
BRANCH   2  10
ATOM     10  C   UNL     1     -42.365  69.965  -5.425  1.00  0.00     0.072 C 
ATOM     11  O   UNL     1     -41.197  69.844  -5.882  1.00  0.00    -0.545 OA
ATOM     12  O   UNL     1     -42.946  68.889  -4.765  1.00  0.00    -0.545 OA
ENDBRANCH   2  10
TORSDOF 2
ENDMDL
MODEL 9
REMARK VINA RESULT:    -4.520      4.853      5.707
REMARK INTER + INTRA:          -5.045
REMARK INTER:                  -4.814
REMARK INTRA:                  -0.231
REMARK UNBOUND:                 0.004
REMARK SMILES O=C([O-])c1ccccc1C(=O)[O-]
REMARK SMILES IDX 4 1 9 2 5 3 8 4 6 5 7 6 2 7 1 8 3 9 10 10 11 11 12 12
REMARK H PARENT
REMARK Flexibility Score: inf
ROOT
ATOM      1  C   UNL     1     -43.137  71.186  -5.639  1.00  0.00     0.006 A 
ATOM      2  C   UNL     1     -43.091  72.232  -4.675  1.00  0.00     0.006 A 
ATOM      3  C   UNL     1     -43.872  71.379  -6.823  1.00  0.00     0.010 A 
ATOM      4  C   UNL     1     -43.834  73.405  -4.901  1.00  0.00     0.010 A 
ATOM      5  C   UNL     1     -44.584  72.560  -7.036  1.00  0.00     0.001 A 
ATOM      6  C   UNL     1     -44.575  73.565  -6.072  1.00  0.00     0.001 A 
ENDROOT
BRANCH   1   7
ATOM      7  C   UNL     1     -42.501  69.865  -5.426  1.00  0.00     0.072 C 
ATOM      8  O   UNL     1     -41.364  69.612  -5.906  1.00  0.00    -0.545 OA
ATOM      9  O   UNL     1     -43.127  68.911  -4.632  1.00  0.00    -0.545 OA
ENDBRANCH   1   7
BRANCH   2  10
ATOM     10  C   UNL     1     -42.233  72.170  -3.468  1.00  0.00     0.072 C 
ATOM     11  O   UNL     1     -41.017  72.494  -3.538  1.00  0.00    -0.545 OA
ATOM     12  O   UNL     1     -42.737  71.695  -2.264  1.00  0.00    -0.545 OA
ENDBRANCH   2  10
TORSDOF 2
ENDMDL
