MODEL 1
REMARK VINA RESULT:    -4.048      0.000      0.000
REMARK INTER + INTRA:         -15.227
REMARK INTER:                 -10.202
REMARK INTRA:                  -5.026
REMARK UNBOUND:                -5.026
REMARK SMILES CCCCCCCCCCCCCCCCCCCCCCCCCCCC(=O)[O-]
REMARK SMILES IDX 15 1 16 2 17 3 18 4 19 5 20 6 21 7 22 8 23 9 24 10 25 11
REMARK SMILES IDX 26 12 27 13 28 14 29 15 30 16 14 17 13 18 12 19 11 20 10 21
REMARK SMILES IDX 9 22 8 23 7 24 6 25 5 26 4 27 3 28 2 29 1 30
REMARK H PARENT
REMARK Flexibility Score: inf
ROOT
ATOM      1  C   UNL     1      28.605   2.616  18.756  1.00  0.00     0.000 C 
ENDROOT
BRANCH   1   2
ATOM      2  C   UNL     1      28.480   1.882  17.407  1.00  0.00     0.000 C 
BRANCH   2   3
ATOM      3  C   UNL     1      27.121   1.165  17.259  1.00  0.00     0.000 C 
BRANCH   3   4
ATOM      4  C   UNL     1      26.502   0.714  18.592  1.00  0.00     0.000 C 
BRANCH   4   5
ATOM      5  C   UNL     1      24.971   0.856  18.622  1.00  0.00     0.000 C 
BRANCH   5   6
ATOM      6  C   UNL     1      24.503   2.243  18.146  1.00  0.00     0.000 C 
BRANCH   6   7
ATOM      7  C   UNL     1      24.701   3.351  19.200  1.00  0.00     0.000 C 
BRANCH   7   8
ATOM      8  C   UNL     1      23.784   4.562  18.950  1.00  0.00     0.000 C 
BRANCH   8   9
ATOM      9  C   UNL     1      23.034   4.467  17.612  1.00  0.00     0.000 C 
BRANCH   9  10
ATOM     10  C   UNL     1      22.576   5.841  17.095  1.00  0.00     0.000 C 
BRANCH  10  11
ATOM     11  C   UNL     1      23.710   6.618  16.408  1.00  0.00     0.000 C 
BRANCH  11  12
ATOM     12  C   UNL     1      23.517   6.722  14.885  1.00  0.00     0.006 C 
BRANCH  12  13
ATOM     13  C   UNL     1      22.229   6.030  14.417  1.00  0.00     0.053 C 
BRANCH  13  14
ATOM     14  C   UNL     1      21.344   6.964  13.650  1.00  0.00     0.041 C 
ATOM     15  O   UNL     1      20.287   7.407  14.173  1.00  0.00    -0.550 OA
ATOM     16  O   UNL     1      21.654   7.300  12.339  1.00  0.00    -0.550 OA
ENDBRANCH  13  14
ENDBRANCH  12  13
ENDBRANCH  11  12
ENDBRANCH  10  11
ENDBRANCH   9  10
ENDBRANCH   8   9
ENDBRANCH   7   8
ENDBRANCH   6   7
ENDBRANCH   5   6
ENDBRANCH   4   5
ENDBRANCH   3   4
ENDBRANCH   2   3
ENDBRANCH   1   2
BRANCH   1  17
ATOM     17  C   UNL     1      28.564   4.150  18.626  1.00  0.00     0.000 C 
BRANCH  17  18
ATOM     18  C   UNL     1      29.910   4.866  18.845  1.00  0.00     0.000 C 
BRANCH  18  19
ATOM     19  C   UNL     1      30.108   6.089  17.937  1.00  0.00     0.000 C 
BRANCH  19  20
ATOM     20  C   UNL     1      30.668   5.676  16.565  1.00  0.00     0.000 C 
BRANCH  20  21
ATOM     21  C   UNL     1      29.891   6.326  15.405  1.00  0.00     0.000 C 
BRANCH  21  22
ATOM     22  C   UNL     1      28.360   6.341  15.624  1.00  0.00    -0.000 C 
BRANCH  22  23
ATOM     23  C   UNL     1      27.597   5.241  14.859  1.00  0.00    -0.000 C 
BRANCH  23  24
ATOM     24  C   UNL     1      26.497   4.541  15.686  1.00  0.00    -0.000 C 
BRANCH  24  25
ATOM     25  C   UNL     1      25.547   3.675  14.829  1.00  0.00    -0.000 C 
BRANCH  25  26
ATOM     26  C   UNL     1      26.275   2.784  13.809  1.00  0.00    -0.000 C 
BRANCH  26  27
ATOM     27  C   UNL     1      26.119   3.279  12.364  1.00  0.00    -0.000 C 
BRANCH  27  28
ATOM     28  C   UNL     1      24.639   3.504  12.015  1.00  0.00    -0.000 C 
BRANCH  28  29
ATOM     29  C   UNL     1      24.332   4.966  11.657  1.00  0.00    -0.003 C 
ATOM     30  C   UNL     1      25.559   5.872  11.750  1.00  0.00     0.004 C 
ENDBRANCH  28  29
ENDBRANCH  27  28
ENDBRANCH  26  27
ENDBRANCH  25  26
ENDBRANCH  24  25
ENDBRANCH  23  24
ENDBRANCH  22  23
ENDBRANCH  21  22
ENDBRANCH  20  21
ENDBRANCH  19  20
ENDBRANCH  18  19
ENDBRANCH  17  18
ENDBRANCH   1  17
TORSDOF 26
ENDMDL
MODEL 2
REMARK VINA RESULT:    -4.004      3.066      5.813
REMARK INTER + INTRA:         -15.115
REMARK INTER:                  -9.892
REMARK INTRA:                  -5.223
REMARK UNBOUND:                -5.026
REMARK SMILES CCCCCCCCCCCCCCCCCCCCCCCCCCCC(=O)[O-]
REMARK SMILES IDX 15 1 16 2 17 3 18 4 19 5 20 6 21 7 22 8 23 9 24 10 25 11
REMARK SMILES IDX 26 12 27 13 28 14 29 15 30 16 14 17 13 18 12 19 11 20 10 21
REMARK SMILES IDX 9 22 8 23 7 24 6 25 5 26 4 27 3 28 2 29 1 30
REMARK H PARENT
REMARK Flexibility Score: inf
ROOT
ATOM      1  C   UNL     1      23.190   6.858  15.530  1.00  0.00     0.000 C 
ENDROOT
BRANCH   1   2
ATOM      2  C   UNL     1      22.543   6.413  16.857  1.00  0.00     0.000 C 
BRANCH   2   3
ATOM      3  C   UNL     1      23.468   5.484  17.671  1.00  0.00     0.000 C 
BRANCH   3   4
ATOM      4  C   UNL     1      23.176   5.473  19.180  1.00  0.00     0.000 C 
BRANCH   4   5
ATOM      5  C   UNL     1      22.826   4.074  19.715  1.00  0.00     0.000 C 
BRANCH   5   6
ATOM      6  C   UNL     1      22.610   3.053  18.583  1.00  0.00     0.000 C 
BRANCH   6   7
ATOM      7  C   UNL     1      23.449   1.770  18.748  1.00  0.00     0.000 C 
BRANCH   7   8
ATOM      8  C   UNL     1      24.610   1.959  19.741  1.00  0.00     0.000 C 
BRANCH   8   9
ATOM      9  C   UNL     1      25.982   1.959  19.049  1.00  0.00     0.000 C 
BRANCH   9  10
ATOM     10  C   UNL     1      26.398   3.359  18.566  1.00  0.00     0.000 C 
BRANCH  10  11
ATOM     11  C   UNL     1      27.860   3.687  18.904  1.00  0.00     0.000 C 
BRANCH  11  12
ATOM     12  C   UNL     1      28.839   2.615  18.394  1.00  0.00     0.006 C 
BRANCH  12  13
ATOM     13  C   UNL     1      28.885   2.559  16.860  1.00  0.00     0.053 C 
BRANCH  13  14
ATOM     14  C   UNL     1      29.897   3.512  16.300  1.00  0.00     0.041 C 
ATOM     15  O   UNL     1      29.842   3.852  15.088  1.00  0.00    -0.550 OA
ATOM     16  O   UNL     1      30.931   3.980  17.099  1.00  0.00    -0.550 OA
ENDBRANCH  13  14
ENDBRANCH  12  13
ENDBRANCH  11  12
ENDBRANCH  10  11
ENDBRANCH   9  10
ENDBRANCH   8   9
ENDBRANCH   7   8
ENDBRANCH   6   7
ENDBRANCH   5   6
ENDBRANCH   4   5
ENDBRANCH   3   4
ENDBRANCH   2   3
ENDBRANCH   1   2
BRANCH   1  17
ATOM     17  C   UNL     1      24.720   7.015  15.618  1.00  0.00     0.000 C 
BRANCH  17  18
ATOM     18  C   UNL     1      25.471   6.903  14.278  1.00  0.00     0.000 C 
BRANCH  18  19
ATOM     19  C   UNL     1      26.618   5.881  14.302  1.00  0.00     0.000 C 
BRANCH  19  20
ATOM     20  C   UNL     1      26.374   4.799  15.368  1.00  0.00     0.000 C 
BRANCH  20  21
ATOM     21  C   UNL     1      26.063   3.428  14.737  1.00  0.00     0.000 C 
BRANCH  21  22
ATOM     22  C   UNL     1      24.856   2.713  15.388  1.00  0.00    -0.000 C 
BRANCH  22  23
ATOM     23  C   UNL     1      23.484   3.151  14.837  1.00  0.00    -0.000 C 
BRANCH  23  24
ATOM     24  C   UNL     1      23.368   3.084  13.299  1.00  0.00    -0.000 C 
BRANCH  24  25
ATOM     25  C   UNL     1      23.342   4.476  12.628  1.00  0.00    -0.000 C 
BRANCH  25  26
ATOM     26  C   UNL     1      24.385   4.642  11.510  1.00  0.00    -0.000 C 
BRANCH  26  27
ATOM     27  C   UNL     1      23.790   5.231  10.223  1.00  0.00    -0.000 C 
BRANCH  27  28
ATOM     28  C   UNL     1      24.054   6.743  10.134  1.00  0.00    -0.000 C 
BRANCH  28  29
ATOM     29  C   UNL     1      22.760   7.570  10.153  1.00  0.00    -0.003 C 
ATOM     30  C   UNL     1      21.504   6.709  10.284  1.00  0.00     0.004 C 
ENDBRANCH  28  29
ENDBRANCH  27  28
ENDBRANCH  26  27
ENDBRANCH  25  26
ENDBRANCH  24  25
ENDBRANCH  23  24
ENDBRANCH  22  23
ENDBRANCH  21  22
ENDBRANCH  20  21
ENDBRANCH  19  20
ENDBRANCH  18  19
ENDBRANCH  17  18
ENDBRANCH   1  17
TORSDOF 26
ENDMDL
MODEL 3
REMARK VINA RESULT:    -3.999      1.843      5.426
REMARK INTER + INTRA:         -15.104
REMARK INTER:                 -10.469
REMARK INTRA:                  -4.635
REMARK UNBOUND:                -5.026
REMARK SMILES CCCCCCCCCCCCCCCCCCCCCCCCCCCC(=O)[O-]
REMARK SMILES IDX 15 1 16 2 17 3 18 4 19 5 20 6 21 7 22 8 23 9 24 10 25 11
REMARK SMILES IDX 26 12 27 13 28 14 29 15 30 16 14 17 13 18 12 19 11 20 10 21
REMARK SMILES IDX 9 22 8 23 7 24 6 25 5 26 4 27 3 28 2 29 1 30
REMARK H PARENT
REMARK Flexibility Score: inf
ROOT
ATOM      1  C   UNL     1      26.303   0.853  19.773  1.00  0.00     0.000 C 
ENDROOT
BRANCH   1   2
ATOM      2  C   UNL     1      26.468   0.491  18.284  1.00  0.00     0.000 C 
BRANCH   2   3
ATOM      3  C   UNL     1      27.633   1.260  17.624  1.00  0.00     0.000 C 
BRANCH   3   4
ATOM      4  C   UNL     1      27.753   2.724  18.076  1.00  0.00     0.000 C 
BRANCH   4   5
ATOM      5  C   UNL     1      29.108   3.041  18.732  1.00  0.00     0.000 C 
BRANCH   5   6
ATOM      6  C   UNL     1      30.297   2.644  17.838  1.00  0.00     0.000 C 
BRANCH   6   7
ATOM      7  C   UNL     1      31.352   3.758  17.692  1.00  0.00     0.000 C 
BRANCH   7   8
ATOM      8  C   UNL     1      31.193   4.541  16.376  1.00  0.00     0.000 C 
BRANCH   8   9
ATOM      9  C   UNL     1      30.842   6.019  16.609  1.00  0.00     0.000 C 
BRANCH   9  10
ATOM     10  C   UNL     1      29.345   6.307  16.402  1.00  0.00     0.000 C 
BRANCH  10  11
ATOM     11  C   UNL     1      28.643   5.212  15.584  1.00  0.00     0.000 C 
BRANCH  11  12
ATOM     12  C   UNL     1      27.160   5.529  15.322  1.00  0.00     0.006 C 
BRANCH  12  13
ATOM     13  C   UNL     1      26.776   5.321  13.850  1.00  0.00     0.053 C 
BRANCH  13  14
ATOM     14  C   UNL     1      26.687   6.621  13.110  1.00  0.00     0.041 C 
ATOM     15  O   UNL     1      25.569   7.048  12.716  1.00  0.00    -0.550 OA
ATOM     16  O   UNL     1      27.840   7.331  12.806  1.00  0.00    -0.550 OA
ENDBRANCH  13  14
ENDBRANCH  12  13
ENDBRANCH  11  12
ENDBRANCH  10  11
ENDBRANCH   9  10
ENDBRANCH   8   9
ENDBRANCH   7   8
ENDBRANCH   6   7
ENDBRANCH   5   6
ENDBRANCH   4   5
ENDBRANCH   3   4
ENDBRANCH   2   3
ENDBRANCH   1   2
BRANCH   1  17
ATOM     17  C   UNL     1      24.869   1.272  20.146  1.00  0.00     0.000 C 
BRANCH  17  18
ATOM     18  C   UNL     1      23.818   1.090  19.035  1.00  0.00     0.000 C 
BRANCH  18  19
ATOM     19  C   UNL     1      23.272   2.417  18.485  1.00  0.00     0.000 C 
BRANCH  19  20
ATOM     20  C   UNL     1      24.084   3.612  19.012  1.00  0.00     0.000 C 
BRANCH  20  21
ATOM     21  C   UNL     1      23.179   4.703  19.617  1.00  0.00     0.000 C 
BRANCH  21  22
ATOM     22  C   UNL     1      22.961   5.910  18.675  1.00  0.00    -0.000 C 
BRANCH  22  23
ATOM     23  C   UNL     1      23.394   5.665  17.215  1.00  0.00    -0.000 C 
BRANCH  23  24
ATOM     24  C   UNL     1      23.388   6.931  16.331  1.00  0.00    -0.000 C 
BRANCH  24  25
ATOM     25  C   UNL     1      22.951   6.656  14.875  1.00  0.00    -0.000 C 
BRANCH  25  26
ATOM     26  C   UNL     1      22.542   5.196  14.618  1.00  0.00    -0.000 C 
BRANCH  26  27
ATOM     27  C   UNL     1      23.047   4.662  13.270  1.00  0.00    -0.000 C 
BRANCH  27  28
ATOM     28  C   UNL     1      23.485   3.193  13.388  1.00  0.00    -0.000 C 
BRANCH  28  29
ATOM     29  C   UNL     1      23.594   2.724  14.847  1.00  0.00    -0.003 C 
ATOM     30  C   UNL     1      25.026   2.384  15.258  1.00  0.00     0.004 C 
ENDBRANCH  28  29
ENDBRANCH  27  28
ENDBRANCH  26  27
ENDBRANCH  25  26
ENDBRANCH  24  25
ENDBRANCH  23  24
ENDBRANCH  22  23
ENDBRANCH  21  22
ENDBRANCH  20  21
ENDBRANCH  19  20
ENDBRANCH  18  19
ENDBRANCH  17  18
ENDBRANCH   1  17
TORSDOF 26
ENDMDL
MODEL 4
REMARK VINA RESULT:    -3.997      2.755      4.809
REMARK INTER + INTRA:         -15.098
REMARK INTER:                 -10.529
REMARK INTRA:                  -4.569
REMARK UNBOUND:                -5.026
REMARK SMILES CCCCCCCCCCCCCCCCCCCCCCCCCCCC(=O)[O-]
REMARK SMILES IDX 15 1 16 2 17 3 18 4 19 5 20 6 21 7 22 8 23 9 24 10 25 11
REMARK SMILES IDX 26 12 27 13 28 14 29 15 30 16 14 17 13 18 12 19 11 20 10 21
REMARK SMILES IDX 9 22 8 23 7 24 6 25 5 26 4 27 3 28 2 29 1 30
REMARK H PARENT
REMARK Flexibility Score: inf
ROOT
ATOM      1  C   UNL     1      25.760   2.822  16.547  1.00  0.00     0.000 C 
ENDROOT
BRANCH   1   2
ATOM      2  C   UNL     1      25.378   1.530  17.295  1.00  0.00     0.000 C 
BRANCH   2   3
ATOM      3  C   UNL     1      23.912   1.549  17.776  1.00  0.00     0.000 C 
BRANCH   3   4
ATOM      4  C   UNL     1      23.744   1.319  19.286  1.00  0.00     0.000 C 
BRANCH   4   5
ATOM      5  C   UNL     1      23.750   2.625  20.098  1.00  0.00     0.000 C 
BRANCH   5   6
ATOM      6  C   UNL     1      22.682   3.621  19.609  1.00  0.00     0.000 C 
BRANCH   6   7
ATOM      7  C   UNL     1      23.079   5.096  19.821  1.00  0.00     0.000 C 
BRANCH   7   8
ATOM      8  C   UNL     1      23.112   5.885  18.499  1.00  0.00     0.000 C 
BRANCH   8   9
ATOM      9  C   UNL     1      22.890   4.987  17.273  1.00  0.00     0.000 C 
BRANCH   9  10
ATOM     10  C   UNL     1      23.158   5.724  15.948  1.00  0.00     0.000 C 
BRANCH  10  11
ATOM     11  C   UNL     1      23.624   7.171  16.166  1.00  0.00     0.000 C 
BRANCH  11  12
ATOM     12  C   UNL     1      25.039   7.425  15.615  1.00  0.00     0.006 C 
BRANCH  12  13
ATOM     13  C   UNL     1      25.616   6.188  14.911  1.00  0.00     0.053 C 
BRANCH  13  14
ATOM     14  C   UNL     1      25.810   6.425  13.445  1.00  0.00     0.041 C 
ATOM     15  O   UNL     1      24.905   6.982  12.769  1.00  0.00    -0.550 OA
ATOM     16  O   UNL     1      26.963   5.979  12.813  1.00  0.00    -0.550 OA
ENDBRANCH  13  14
ENDBRANCH  12  13
ENDBRANCH  11  12
ENDBRANCH  10  11
ENDBRANCH   9  10
ENDBRANCH   8   9
ENDBRANCH   7   8
ENDBRANCH   6   7
ENDBRANCH   5   6
ENDBRANCH   4   5
ENDBRANCH   3   4
ENDBRANCH   2   3
ENDBRANCH   1   2
BRANCH   1  17
ATOM     17  C   UNL     1      26.610   3.791  17.391  1.00  0.00     0.000 C 
BRANCH  17  18
ATOM     18  C   UNL     1      26.949   3.303  18.812  1.00  0.00     0.000 C 
BRANCH  18  19
ATOM     19  C   UNL     1      28.385   2.777  18.953  1.00  0.00     0.000 C 
BRANCH  19  20
ATOM     20  C   UNL     1      29.342   3.517  18.003  1.00  0.00     0.000 C 
BRANCH  20  21
ATOM     21  C   UNL     1      30.345   2.559  17.332  1.00  0.00     0.000 C 
BRANCH  21  22
ATOM     22  C   UNL     1      29.719   1.206  16.922  1.00  0.00    -0.000 C 
BRANCH  22  23
ATOM     23  C   UNL     1      29.177   1.167  15.478  1.00  0.00    -0.000 C 
BRANCH  23  24
ATOM     24  C   UNL     1      28.103   0.084  15.234  1.00  0.00    -0.000 C 
BRANCH  24  25
ATOM     25  C   UNL     1      27.763  -0.733  16.501  1.00  0.00    -0.000 C 
BRANCH  25  26
ATOM     26  C   UNL     1      26.731  -1.848  16.258  1.00  0.00    -0.000 C 
BRANCH  26  27
ATOM     27  C   UNL     1      27.354  -3.250  16.266  1.00  0.00    -0.000 C 
BRANCH  27  28
ATOM     28  C   UNL     1      28.119  -3.521  14.960  1.00  0.00    -0.000 C 
BRANCH  28  29
ATOM     29  C   UNL     1      29.613  -3.791  15.195  1.00  0.00    -0.003 C 
ATOM     30  C   UNL     1      30.514  -2.698  14.620  1.00  0.00     0.004 C 
ENDBRANCH  28  29
ENDBRANCH  27  28
ENDBRANCH  26  27
ENDBRANCH  25  26
ENDBRANCH  24  25
ENDBRANCH  23  24
ENDBRANCH  22  23
ENDBRANCH  21  22
ENDBRANCH  20  21
ENDBRANCH  19  20
ENDBRANCH  18  19
ENDBRANCH  17  18
ENDBRANCH   1  17
TORSDOF 26
ENDMDL
MODEL 5
REMARK VINA RESULT:    -3.987      1.740      4.230
REMARK INTER + INTRA:         -15.072
REMARK INTER:                  -9.854
REMARK INTRA:                  -5.218
REMARK UNBOUND:                -5.026
REMARK SMILES CCCCCCCCCCCCCCCCCCCCCCCCCCCC(=O)[O-]
REMARK SMILES IDX 15 1 16 2 17 3 18 4 19 5 20 6 21 7 22 8 23 9 24 10 25 11
REMARK SMILES IDX 26 12 27 13 28 14 29 15 30 16 14 17 13 18 12 19 11 20 10 21
REMARK SMILES IDX 9 22 8 23 7 24 6 25 5 26 4 27 3 28 2 29 1 30
REMARK H PARENT
REMARK Flexibility Score: inf
ROOT
ATOM      1  C   UNL     1      24.737   1.312  18.995  1.00  0.00     0.000 C 
ENDROOT
BRANCH   1   2
ATOM      2  C   UNL     1      24.342   2.590  19.762  1.00  0.00     0.000 C 
BRANCH   2   3
ATOM      3  C   UNL     1      23.326   3.447  18.977  1.00  0.00     0.000 C 
BRANCH   3   4
ATOM      4  C   UNL     1      23.086   4.841  19.578  1.00  0.00     0.000 C 
BRANCH   4   5
ATOM      5  C   UNL     1      23.227   5.973  18.546  1.00  0.00     0.000 C 
BRANCH   5   6
ATOM      6  C   UNL     1      22.544   5.634  17.209  1.00  0.00     0.000 C 
BRANCH   6   7
ATOM      7  C   UNL     1      22.837   6.658  16.094  1.00  0.00     0.000 C 
BRANCH   7   8
ATOM      8  C   UNL     1      24.340   6.973  15.975  1.00  0.00     0.000 C 
BRANCH   8   9
ATOM      9  C   UNL     1      24.865   6.806  14.541  1.00  0.00     0.000 C 
BRANCH   9  10
ATOM     10  C   UNL     1      23.777   6.316  13.569  1.00  0.00     0.000 C 
BRANCH  10  11
ATOM     11  C   UNL     1      24.316   5.304  12.547  1.00  0.00     0.000 C 
BRANCH  11  12
ATOM     12  C   UNL     1      25.049   5.981  11.376  1.00  0.00     0.006 C 
BRANCH  12  13
ATOM     13  C   UNL     1      24.074   6.588  10.357  1.00  0.00     0.053 C 
BRANCH  13  14
ATOM     14  C   UNL     1      23.267   5.531   9.664  1.00  0.00     0.041 C 
ATOM     15  O   UNL     1      23.841   4.657   8.961  1.00  0.00    -0.550 OA
ATOM     16  O   UNL     1      21.882   5.546   9.747  1.00  0.00    -0.550 OA
ENDBRANCH  13  14
ENDBRANCH  12  13
ENDBRANCH  11  12
ENDBRANCH  10  11
ENDBRANCH   9  10
ENDBRANCH   8   9
ENDBRANCH   7   8
ENDBRANCH   6   7
ENDBRANCH   5   6
ENDBRANCH   4   5
ENDBRANCH   3   4
ENDBRANCH   2   3
ENDBRANCH   1   2
BRANCH   1  17
ATOM     17  C   UNL     1      26.201   0.890  19.222  1.00  0.00     0.000 C 
BRANCH  17  18
ATOM     18  C   UNL     1      27.139   1.093  18.018  1.00  0.00     0.000 C 
BRANCH  18  19
ATOM     19  C   UNL     1      28.279   2.087  18.289  1.00  0.00     0.000 C 
BRANCH  19  20
ATOM     20  C   UNL     1      27.731   3.500  18.553  1.00  0.00     0.000 C 
BRANCH  20  21
ATOM     21  C   UNL     1      28.859   4.543  18.671  1.00  0.00     0.000 C 
BRANCH  21  22
ATOM     22  C   UNL     1      29.405   5.014  17.303  1.00  0.00    -0.000 C 
BRANCH  22  23
ATOM     23  C   UNL     1      28.321   5.239  16.228  1.00  0.00    -0.000 C 
BRANCH  23  24
ATOM     24  C   UNL     1      28.566   4.470  14.912  1.00  0.00    -0.000 C 
BRANCH  24  25
ATOM     25  C   UNL     1      27.261   3.998  14.230  1.00  0.00    -0.000 C 
BRANCH  25  26
ATOM     26  C   UNL     1      26.530   2.885  14.999  1.00  0.00    -0.000 C 
BRANCH  26  27
ATOM     27  C   UNL     1      25.206   3.357  15.617  1.00  0.00    -0.000 C 
BRANCH  27  28
ATOM     28  C   UNL     1      24.119   2.278  15.482  1.00  0.00    -0.000 C 
BRANCH  28  29
ATOM     29  C   UNL     1      22.777   2.848  14.998  1.00  0.00    -0.003 C 
ATOM     30  C   UNL     1      21.595   2.395  15.854  1.00  0.00     0.004 C 
ENDBRANCH  28  29
ENDBRANCH  27  28
ENDBRANCH  26  27
ENDBRANCH  25  26
ENDBRANCH  24  25
ENDBRANCH  23  24
ENDBRANCH  22  23
ENDBRANCH  21  22
ENDBRANCH  20  21
ENDBRANCH  19  20
ENDBRANCH  18  19
ENDBRANCH  17  18
ENDBRANCH   1  17
TORSDOF 26
ENDMDL
MODEL 6
REMARK VINA RESULT:    -3.943      2.172      6.211
REMARK INTER + INTRA:         -14.962
REMARK INTER:                 -10.885
REMARK INTRA:                  -4.077
REMARK UNBOUND:                -5.026
REMARK SMILES CCCCCCCCCCCCCCCCCCCCCCCCCCCC(=O)[O-]
REMARK SMILES IDX 15 1 16 2 17 3 18 4 19 5 20 6 21 7 22 8 23 9 24 10 25 11
REMARK SMILES IDX 26 12 27 13 28 14 29 15 30 16 14 17 13 18 12 19 11 20 10 21
REMARK SMILES IDX 9 22 8 23 7 24 6 25 5 26 4 27 3 28 2 29 1 30
REMARK H PARENT
REMARK Flexibility Score: inf
ROOT
ATOM      1  C   UNL     1      24.119   6.522  14.634  1.00  0.00     0.000 C 
ENDROOT
BRANCH   1   2
ATOM      2  C   UNL     1      22.757   6.013  14.122  1.00  0.00     0.000 C 
BRANCH   2   3
ATOM      3  C   UNL     1      22.684   4.471  14.102  1.00  0.00     0.000 C 
BRANCH   3   4
ATOM      4  C   UNL     1      24.015   3.776  14.430  1.00  0.00     0.000 C 
BRANCH   4   5
ATOM      5  C   UNL     1      24.638   3.067  13.215  1.00  0.00     0.000 C 
BRANCH   5   6
ATOM      6  C   UNL     1      25.535   4.005  12.387  1.00  0.00     0.000 C 
BRANCH   6   7
ATOM      7  C   UNL     1      24.812   4.633  11.178  1.00  0.00     0.000 C 
BRANCH   7   8
ATOM      8  C   UNL     1      25.114   6.136  11.036  1.00  0.00     0.000 C 
BRANCH   8   9
ATOM      9  C   UNL     1      24.216   6.821   9.995  1.00  0.00     0.000 C 
BRANCH   9  10
ATOM     10  C   UNL     1      22.732   6.453  10.164  1.00  0.00     0.000 C 
BRANCH  10  11
ATOM     11  C   UNL     1      21.949   7.518  10.946  1.00  0.00     0.000 C 
BRANCH  11  12
ATOM     12  C   UNL     1      20.476   7.127  11.164  1.00  0.00     0.006 C 
BRANCH  12  13
ATOM     13  C   UNL     1      19.816   6.619   9.874  1.00  0.00     0.053 C 
BRANCH  13  14
ATOM     14  C   UNL     1      18.749   7.554   9.393  1.00  0.00     0.041 C 
ATOM     15  O   UNL     1      18.575   8.664   9.964  1.00  0.00    -0.550 OA
ATOM     16  O   UNL     1      17.909   7.178   8.354  1.00  0.00    -0.550 OA
ENDBRANCH  13  14
ENDBRANCH  12  13
ENDBRANCH  11  12
ENDBRANCH  10  11
ENDBRANCH   9  10
ENDBRANCH   8   9
ENDBRANCH   7   8
ENDBRANCH   6   7
ENDBRANCH   5   6
ENDBRANCH   4   5
ENDBRANCH   3   4
ENDBRANCH   2   3
ENDBRANCH   1   2
BRANCH   1  17
ATOM     17  C   UNL     1      24.050   7.142  16.043  1.00  0.00     0.000 C 
BRANCH  17  18
ATOM     18  C   UNL     1      22.793   6.787  16.858  1.00  0.00     0.000 C 
BRANCH  18  19
ATOM     19  C   UNL     1      23.102   6.054  18.173  1.00  0.00     0.000 C 
BRANCH  19  20
ATOM     20  C   UNL     1      23.885   4.756  17.913  1.00  0.00     0.000 C 
BRANCH  20  21
ATOM     21  C   UNL     1      23.721   3.743  19.062  1.00  0.00     0.000 C 
BRANCH  21  22
ATOM     22  C   UNL     1      24.963   2.845  19.270  1.00  0.00    -0.000 C 
BRANCH  22  23
ATOM     23  C   UNL     1      26.239   3.351  18.566  1.00  0.00    -0.000 C 
BRANCH  23  24
ATOM     24  C   UNL     1      26.522   2.676  17.207  1.00  0.00    -0.000 C 
BRANCH  24  25
ATOM     25  C   UNL     1      27.504   3.476  16.321  1.00  0.00    -0.000 C 
BRANCH  25  26
ATOM     26  C   UNL     1      27.011   4.891  15.974  1.00  0.00    -0.000 C 
BRANCH  26  27
ATOM     27  C   UNL     1      27.849   5.564  14.879  1.00  0.00    -0.000 C 
BRANCH  27  28
ATOM     28  C   UNL     1      28.882   6.526  15.489  1.00  0.00    -0.000 C 
BRANCH  28  29
ATOM     29  C   UNL     1      30.149   5.803  15.973  1.00  0.00    -0.003 C 
ATOM     30  C   UNL     1      30.609   6.268  17.354  1.00  0.00     0.004 C 
ENDBRANCH  28  29
ENDBRANCH  27  28
ENDBRANCH  26  27
ENDBRANCH  25  26
ENDBRANCH  24  25
ENDBRANCH  23  24
ENDBRANCH  22  23
ENDBRANCH  21  22
ENDBRANCH  20  21
ENDBRANCH  19  20
ENDBRANCH  18  19
ENDBRANCH  17  18
ENDBRANCH   1  17
TORSDOF 26
ENDMDL
MODEL 7
REMARK VINA RESULT:    -3.933      3.023      5.385
REMARK INTER + INTRA:         -14.936
REMARK INTER:                  -9.893
REMARK INTRA:                  -5.043
REMARK UNBOUND:                -5.026
REMARK SMILES CCCCCCCCCCCCCCCCCCCCCCCCCCCC(=O)[O-]
REMARK SMILES IDX 15 1 16 2 17 3 18 4 19 5 20 6 21 7 22 8 23 9 24 10 25 11
REMARK SMILES IDX 26 12 27 13 28 14 29 15 30 16 14 17 13 18 12 19 11 20 10 21
REMARK SMILES IDX 9 22 8 23 7 24 6 25 5 26 4 27 3 28 2 29 1 30
REMARK H PARENT
REMARK Flexibility Score: inf
ROOT
ATOM      1  C   UNL     1      27.394   6.353  15.011  1.00  0.00     0.000 C 
ENDROOT
BRANCH   1   2
ATOM      2  C   UNL     1      25.980   5.799  15.274  1.00  0.00     0.000 C 
BRANCH   2   3
ATOM      3  C   UNL     1      24.968   6.920  15.593  1.00  0.00     0.000 C 
BRANCH   3   4
ATOM      4  C   UNL     1      23.500   6.467  15.557  1.00  0.00     0.000 C 
BRANCH   4   5
ATOM      5  C   UNL     1      22.849   6.425  16.950  1.00  0.00     0.000 C 
BRANCH   5   6
ATOM      6  C   UNL     1      22.913   5.022  17.582  1.00  0.00     0.000 C 
BRANCH   6   7
ATOM      7  C   UNL     1      23.902   4.927  18.762  1.00  0.00     0.000 C 
BRANCH   7   8
ATOM      8  C   UNL     1      24.900   3.768  18.591  1.00  0.00     0.000 C 
BRANCH   8   9
ATOM      9  C   UNL     1      24.663   2.971  17.299  1.00  0.00     0.000 C 
BRANCH   9  10
ATOM     10  C   UNL     1      24.871   1.459  17.492  1.00  0.00     0.000 C 
BRANCH  10  11
ATOM     11  C   UNL     1      24.088   0.908  18.693  1.00  0.00     0.000 C 
BRANCH  11  12
ATOM     12  C   UNL     1      22.573   1.153  18.573  1.00  0.00     0.006 C 
BRANCH  12  13
ATOM     13  C   UNL     1      21.983   1.765  19.852  1.00  0.00     0.053 C 
BRANCH  13  14
ATOM     14  C   UNL     1      21.729   0.723  20.899  1.00  0.00     0.041 C 
ATOM     15  O   UNL     1      20.737  -0.046  20.798  1.00  0.00    -0.550 OA
ATOM     16  O   UNL     1      22.552   0.640  22.014  1.00  0.00    -0.550 OA
ENDBRANCH  13  14
ENDBRANCH  12  13
ENDBRANCH  11  12
ENDBRANCH  10  11
ENDBRANCH   9  10
ENDBRANCH   8   9
ENDBRANCH   7   8
ENDBRANCH   6   7
ENDBRANCH   5   6
ENDBRANCH   4   5
ENDBRANCH   3   4
ENDBRANCH   2   3
ENDBRANCH   1   2
BRANCH   1  17
ATOM     17  C   UNL     1      28.434   5.896  16.052  1.00  0.00     0.000 C 
BRANCH  17  18
ATOM     18  C   UNL     1      29.905   6.021  15.613  1.00  0.00     0.000 C 
BRANCH  18  19
ATOM     19  C   UNL     1      30.905   5.884  16.772  1.00  0.00     0.000 C 
BRANCH  19  20
ATOM     20  C   UNL     1      30.184   5.903  18.131  1.00  0.00     0.000 C 
BRANCH  20  21
ATOM     21  C   UNL     1      30.872   4.990  19.163  1.00  0.00     0.000 C 
BRANCH  21  22
ATOM     22  C   UNL     1      30.172   3.622  19.336  1.00  0.00    -0.000 C 
BRANCH  22  23
ATOM     23  C   UNL     1      28.686   3.612  18.922  1.00  0.00    -0.000 C 
BRANCH  23  24
ATOM     24  C   UNL     1      28.337   2.567  17.840  1.00  0.00    -0.000 C 
BRANCH  24  25
ATOM     25  C   UNL     1      29.565   2.097  17.028  1.00  0.00    -0.000 C 
BRANCH  25  26
ATOM     26  C   UNL     1      29.358   2.154  15.505  1.00  0.00    -0.000 C 
BRANCH  26  27
ATOM     27  C   UNL     1      27.899   2.422  15.111  1.00  0.00    -0.000 C 
BRANCH  27  28
ATOM     28  C   UNL     1      27.806   2.967  13.677  1.00  0.00    -0.000 C 
BRANCH  28  29
ATOM     29  C   UNL     1      26.480   2.603  12.990  1.00  0.00    -0.003 C 
ATOM     30  C   UNL     1      25.865   3.774  12.224  1.00  0.00     0.004 C 
ENDBRANCH  28  29
ENDBRANCH  27  28
ENDBRANCH  26  27
ENDBRANCH  25  26
ENDBRANCH  24  25
ENDBRANCH  23  24
ENDBRANCH  22  23
ENDBRANCH  21  22
ENDBRANCH  20  21
ENDBRANCH  19  20
ENDBRANCH  18  19
ENDBRANCH  17  18
ENDBRANCH   1  17
TORSDOF 26
ENDMDL
MODEL 8
REMARK VINA RESULT:    -3.897      2.652      6.235
REMARK INTER + INTRA:         -14.846
REMARK INTER:                 -10.507
REMARK INTRA:                  -4.339
REMARK UNBOUND:                -5.026
REMARK SMILES CCCCCCCCCCCCCCCCCCCCCCCCCCCC(=O)[O-]
REMARK SMILES IDX 15 1 16 2 17 3 18 4 19 5 20 6 21 7 22 8 23 9 24 10 25 11
REMARK SMILES IDX 26 12 27 13 28 14 29 15 30 16 14 17 13 18 12 19 11 20 10 21
REMARK SMILES IDX 9 22 8 23 7 24 6 25 5 26 4 27 3 28 2 29 1 30
REMARK H PARENT
REMARK Flexibility Score: inf
ROOT
ATOM      1  C   UNL     1      23.283   5.011  17.667  1.00  0.00     0.000 C 
ENDROOT
BRANCH   1   2
ATOM      2  C   UNL     1      22.277   4.032  17.030  1.00  0.00     0.000 C 
BRANCH   2   3
ATOM      3  C   UNL     1      22.973   2.792  16.431  1.00  0.00     0.000 C 
BRANCH   3   4
ATOM      4  C   UNL     1      24.417   2.587  16.916  1.00  0.00     0.000 C 
BRANCH   4   5
ATOM      5  C   UNL     1      25.432   2.505  15.764  1.00  0.00     0.000 C 
BRANCH   5   6
ATOM      6  C   UNL     1      26.784   3.145  16.130  1.00  0.00     0.000 C 
BRANCH   6   7
ATOM      7  C   UNL     1      26.781   3.835  17.509  1.00  0.00     0.000 C 
BRANCH   7   8
ATOM      8  C   UNL     1      28.049   3.515  18.322  1.00  0.00     0.000 C 
BRANCH   8   9
ATOM      9  C   UNL     1      29.332   3.995  17.627  1.00  0.00     0.000 C 
BRANCH   9  10
ATOM     10  C   UNL     1      29.640   5.474  17.917  1.00  0.00     0.000 C 
BRANCH  10  11
ATOM     11  C   UNL     1      30.049   6.247  16.654  1.00  0.00     0.000 C 
BRANCH  11  12
ATOM     12  C   UNL     1      29.416   5.667  15.376  1.00  0.00     0.006 C 
BRANCH  12  13
ATOM     13  C   UNL     1      28.110   6.383  15.003  1.00  0.00     0.053 C 
BRANCH  13  14
ATOM     14  C   UNL     1      28.233   7.121  13.705  1.00  0.00     0.041 C 
ATOM     15  O   UNL     1      27.319   7.040  12.842  1.00  0.00    -0.550 OA
ATOM     16  O   UNL     1      29.380   7.850  13.423  1.00  0.00    -0.550 OA
ENDBRANCH  13  14
ENDBRANCH  12  13
ENDBRANCH  11  12
ENDBRANCH  10  11
ENDBRANCH   9  10
ENDBRANCH   8   9
ENDBRANCH   7   8
ENDBRANCH   6   7
ENDBRANCH   5   6
ENDBRANCH   4   5
ENDBRANCH   3   4
ENDBRANCH   2   3
ENDBRANCH   1   2
BRANCH   1  17
ATOM     17  C   UNL     1      23.400   6.348  16.911  1.00  0.00     0.000 C 
BRANCH  17  18
ATOM     18  C   UNL     1      24.229   6.300  15.613  1.00  0.00     0.000 C 
BRANCH  18  19
ATOM     19  C   UNL     1      23.396   6.541  14.345  1.00  0.00     0.000 C 
BRANCH  19  20
ATOM     20  C   UNL     1      23.191   5.234  13.560  1.00  0.00     0.000 C 
BRANCH  20  21
ATOM     21  C   UNL     1      24.503   4.728  12.930  1.00  0.00     0.000 C 
BRANCH  21  22
ATOM     22  C   UNL     1      24.537   4.865  11.391  1.00  0.00    -0.000 C 
BRANCH  22  23
ATOM     23  C   UNL     1      24.655   6.317  10.883  1.00  0.00    -0.000 C 
BRANCH  23  24
ATOM     24  C   UNL     1      23.482   6.772   9.987  1.00  0.00    -0.000 C 
BRANCH  24  25
ATOM     25  C   UNL     1      22.407   7.576  10.752  1.00  0.00    -0.000 C 
BRANCH  25  26
ATOM     26  C   UNL     1      21.074   6.826  10.915  1.00  0.00    -0.000 C 
BRANCH  26  27
ATOM     27  C   UNL     1      20.309   7.237  12.180  1.00  0.00    -0.000 C 
BRANCH  27  28
ATOM     28  C   UNL     1      18.829   7.513  11.864  1.00  0.00    -0.000 C 
BRANCH  28  29
ATOM     29  C   UNL     1      18.443   7.099  10.436  1.00  0.00    -0.003 C 
ATOM     30  C   UNL     1      18.164   8.295   9.525  1.00  0.00     0.004 C 
ENDBRANCH  28  29
ENDBRANCH  27  28
ENDBRANCH  26  27
ENDBRANCH  25  26
ENDBRANCH  24  25
ENDBRANCH  23  24
ENDBRANCH  22  23
ENDBRANCH  21  22
ENDBRANCH  20  21
ENDBRANCH  19  20
ENDBRANCH  18  19
ENDBRANCH  17  18
ENDBRANCH   1  17
TORSDOF 26
ENDMDL
MODEL 9
REMARK VINA RESULT:    -3.877      1.548      4.878
REMARK INTER + INTRA:         -14.794
REMARK INTER:                  -9.927
REMARK INTRA:                  -4.868
REMARK UNBOUND:                -5.026
REMARK SMILES CCCCCCCCCCCCCCCCCCCCCCCCCCCC(=O)[O-]
REMARK SMILES IDX 15 1 16 2 17 3 18 4 19 5 20 6 21 7 22 8 23 9 24 10 25 11
REMARK SMILES IDX 26 12 27 13 28 14 29 15 30 16 14 17 13 18 12 19 11 20 10 21
REMARK SMILES IDX 9 22 8 23 7 24 6 25 5 26 4 27 3 28 2 29 1 30
REMARK H PARENT
REMARK Flexibility Score: inf
ROOT
ATOM      1  C   UNL     1      27.797   2.271  18.429  1.00  0.00     0.000 C 
ENDROOT
BRANCH   1   2
ATOM      2  C   UNL     1      27.018   0.979  18.114  1.00  0.00     0.000 C 
BRANCH   2   3
ATOM      3  C   UNL     1      27.218   0.522  16.653  1.00  0.00     0.000 C 
BRANCH   3   4
ATOM      4  C   UNL     1      28.220   1.376  15.860  1.00  0.00     0.000 C 
BRANCH   4   5
ATOM      5  C   UNL     1      27.550   2.236  14.775  1.00  0.00     0.000 C 
BRANCH   5   6
ATOM      6  C   UNL     1      26.983   1.386  13.623  1.00  0.00     0.000 C 
BRANCH   6   7
ATOM      7  C   UNL     1      25.580   1.834  13.165  1.00  0.00     0.000 C 
BRANCH   7   8
ATOM      8  C   UNL     1      25.124   3.125  13.868  1.00  0.00     0.000 C 
BRANCH   8   9
ATOM      9  C   UNL     1      24.364   4.072  12.926  1.00  0.00     0.000 C 
BRANCH   9  10
ATOM     10  C   UNL     1      25.230   4.548  11.747  1.00  0.00     0.000 C 
BRANCH  10  11
ATOM     11  C   UNL     1      25.235   6.078  11.603  1.00  0.00     0.000 C 
BRANCH  11  12
ATOM     12  C   UNL     1      24.795   6.540  10.202  1.00  0.00     0.006 C 
BRANCH  12  13
ATOM     13  C   UNL     1      23.424   5.971   9.810  1.00  0.00     0.053 C 
BRANCH  13  14
ATOM     14  C   UNL     1      22.304   6.723  10.462  1.00  0.00     0.041 C 
ATOM     15  O   UNL     1      22.221   7.973  10.331  1.00  0.00    -0.550 OA
ATOM     16  O   UNL     1      21.386   6.054  11.260  1.00  0.00    -0.550 OA
ENDBRANCH  13  14
ENDBRANCH  12  13
ENDBRANCH  11  12
ENDBRANCH  10  11
ENDBRANCH   9  10
ENDBRANCH   8   9
ENDBRANCH   7   8
ENDBRANCH   6   7
ENDBRANCH   5   6
ENDBRANCH   4   5
ENDBRANCH   3   4
ENDBRANCH   2   3
ENDBRANCH   1   2
BRANCH   1  17
ATOM     17  C   UNL     1      26.894   3.510  18.575  1.00  0.00     0.000 C 
BRANCH  17  18
ATOM     18  C   UNL     1      25.571   3.458  17.788  1.00  0.00     0.000 C 
BRANCH  18  19
ATOM     19  C   UNL     1      24.363   3.975  18.584  1.00  0.00     0.000 C 
BRANCH  19  20
ATOM     20  C   UNL     1      23.304   4.586  17.650  1.00  0.00     0.000 C 
BRANCH  20  21
ATOM     21  C   UNL     1      23.022   6.063  17.985  1.00  0.00     0.000 C 
BRANCH  21  22
ATOM     22  C   UNL     1      23.406   7.034  16.844  1.00  0.00    -0.000 C 
BRANCH  22  23
ATOM     23  C   UNL     1      24.007   6.349  15.600  1.00  0.00    -0.000 C 
BRANCH  23  24
ATOM     24  C   UNL     1      25.360   6.936  15.145  1.00  0.00    -0.000 C 
BRANCH  24  25
ATOM     25  C   UNL     1      26.575   6.104  15.615  1.00  0.00    -0.000 C 
BRANCH  25  26
ATOM     26  C   UNL     1      27.657   5.926  14.536  1.00  0.00    -0.000 C 
BRANCH  26  27
ATOM     27  C   UNL     1      29.030   6.453  14.974  1.00  0.00    -0.000 C 
BRANCH  27  28
ATOM     28  C   UNL     1      29.363   6.000  16.405  1.00  0.00    -0.000 C 
BRANCH  28  29
ATOM     29  C   UNL     1      29.924   4.571  16.457  1.00  0.00    -0.003 C 
ATOM     30  C   UNL     1      30.797   4.230  15.250  1.00  0.00     0.004 C 
ENDBRANCH  28  29
ENDBRANCH  27  28
ENDBRANCH  26  27
ENDBRANCH  25  26
ENDBRANCH  24  25
ENDBRANCH  23  24
ENDBRANCH  22  23
ENDBRANCH  21  22
ENDBRANCH  20  21
ENDBRANCH  19  20
ENDBRANCH  18  19
ENDBRANCH  17  18
ENDBRANCH   1  17
TORSDOF 26
ENDMDL
