MODEL 1
REMARK VINA RESULT:    -5.226      0.000      0.000
REMARK INTER + INTRA:          -6.960
REMARK INTER:                  -6.753
REMARK INTRA:                  -0.207
REMARK UNBOUND:                -0.207
REMARK SMILES CCCCCCC(=O)[O-]
REMARK SMILES IDX 5 1 6 2 7 3 8 4 9 5 4 6 3 7 2 8 1 9
REMARK H PARENT
REMARK Flexibility Score: inf
ROOT
ATOM      1  C   UNL     1      16.593   8.597 -21.127  1.00  0.00     0.006 C 
ENDROOT
BRANCH   1   2
ATOM      2  C   UNL     1      16.765   8.446 -19.609  1.00  0.00     0.053 C 
BRANCH   2   3
ATOM      3  C   UNL     1      17.830   9.355 -19.079  1.00  0.00     0.041 C 
ATOM      4  O   UNL     1      17.753  10.599 -19.262  1.00  0.00    -0.550 OA
ATOM      5  O   UNL     1      18.893   8.832 -18.353  1.00  0.00    -0.550 OA
ENDBRANCH   2   3
ENDBRANCH   1   2
BRANCH   1   6
ATOM      6  C   UNL     1      15.608   7.572 -21.706  1.00  0.00     0.000 C 
BRANCH   6   7
ATOM      7  C   UNL     1      14.943   6.757 -20.591  1.00  0.00    -0.000 C 
BRANCH   7   8
ATOM      8  C   UNL     1      13.489   7.194 -20.382  1.00  0.00    -0.003 C 
ATOM      9  C   UNL     1      13.182   7.401 -18.901  1.00  0.00     0.004 C 
ENDBRANCH   7   8
ENDBRANCH   6   7
ENDBRANCH   1   6
TORSDOF 5
ENDMDL
MODEL 2
REMARK VINA RESULT:    -5.213      0.264      1.097
REMARK INTER + INTRA:          -6.943
REMARK INTER:                  -6.727
REMARK INTRA:                  -0.216
REMARK UNBOUND:                -0.207
REMARK SMILES CCCCCCC(=O)[O-]
REMARK SMILES IDX 5 1 6 2 7 3 8 4 9 5 4 6 3 7 2 8 1 9
REMARK H PARENT
REMARK Flexibility Score: inf
ROOT
ATOM      1  C   UNL     1      16.517   8.622 -21.240  1.00  0.00     0.006 C 
ENDROOT
BRANCH   1   2
ATOM      2  C   UNL     1      16.813   8.521 -19.738  1.00  0.00     0.053 C 
BRANCH   2   3
ATOM      3  C   UNL     1      17.916   9.447 -19.327  1.00  0.00     0.041 C 
ATOM      4  O   UNL     1      19.034   8.987 -18.975  1.00  0.00    -0.550 OA
ATOM      5  O   UNL     1      17.719  10.822 -19.364  1.00  0.00    -0.550 OA
ENDBRANCH   2   3
ENDBRANCH   1   2
BRANCH   1   6
ATOM      6  C   UNL     1      15.581   7.505 -21.725  1.00  0.00     0.000 C 
BRANCH   6   7
ATOM      7  C   UNL     1      14.961   6.754 -20.542  1.00  0.00    -0.000 C 
BRANCH   7   8
ATOM      8  C   UNL     1      13.503   7.176 -20.326  1.00  0.00    -0.003 C 
ATOM      9  C   UNL     1      13.212   7.414 -18.846  1.00  0.00     0.004 C 
ENDBRANCH   7   8
ENDBRANCH   6   7
ENDBRANCH   1   6
TORSDOF 5
ENDMDL
MODEL 3
REMARK VINA RESULT:    -4.701      1.233      1.596
REMARK INTER + INTRA:          -6.283
REMARK INTER:                  -6.134
REMARK INTRA:                  -0.149
REMARK UNBOUND:                -0.207
REMARK SMILES CCCCCCC(=O)[O-]
REMARK SMILES IDX 5 1 6 2 7 3 8 4 9 5 4 6 3 7 2 8 1 9
REMARK H PARENT
REMARK Flexibility Score: inf
ROOT
ATOM      1  C   UNL     1      16.496   8.381 -19.960  1.00  0.00     0.006 C 
ENDROOT
BRANCH   1   2
ATOM      2  C   UNL     1      17.817   9.085 -20.298  1.00  0.00     0.053 C 
BRANCH   2   3
ATOM      3  C   UNL     1      17.621  10.551 -20.528  1.00  0.00     0.041 C 
ATOM      4  O   UNL     1      17.291  10.977 -21.668  1.00  0.00    -0.550 OA
ATOM      5  O   UNL     1      17.772  11.446 -19.477  1.00  0.00    -0.550 OA
ENDBRANCH   2   3
ENDBRANCH   1   2
BRANCH   1   6
ATOM      6  C   UNL     1      15.880   7.681 -21.180  1.00  0.00     0.000 C 
BRANCH   6   7
ATOM      7  C   UNL     1      14.811   6.670 -20.753  1.00  0.00    -0.000 C 
BRANCH   7   8
ATOM      8  C   UNL     1      13.491   7.373 -20.416  1.00  0.00    -0.003 C 
ATOM      9  C   UNL     1      13.195   7.303 -18.920  1.00  0.00     0.004 C 
ENDBRANCH   7   8
ENDBRANCH   6   7
ENDBRANCH   1   6
TORSDOF 5
ENDMDL
MODEL 4
REMARK VINA RESULT:    -4.482      2.420      3.399
REMARK INTER + INTRA:          -6.000
REMARK INTER:                  -5.923
REMARK INTRA:                  -0.076
REMARK UNBOUND:                -0.207
REMARK SMILES CCCCCCC(=O)[O-]
REMARK SMILES IDX 5 1 6 2 7 3 8 4 9 5 4 6 3 7 2 8 1 9
REMARK H PARENT
REMARK Flexibility Score: inf
ROOT
ATOM      1  C   UNL     1      17.905  10.619 -20.662  1.00  0.00     0.006 C 
ENDROOT
BRANCH   1   2
ATOM      2  C   UNL     1      18.122  12.046 -21.183  1.00  0.00     0.053 C 
BRANCH   2   3
ATOM      3  C   UNL     1      17.969  13.063 -20.094  1.00  0.00     0.041 C 
ATOM      4  O   UNL     1      18.981  13.491 -19.478  1.00  0.00    -0.550 OA
ATOM      5  O   UNL     1      16.711  13.562 -19.781  1.00  0.00    -0.550 OA
ENDBRANCH   2   3
ENDBRANCH   1   2
BRANCH   1   6
ATOM      6  C   UNL     1      16.942   9.816 -21.549  1.00  0.00     0.000 C 
BRANCH   6   7
ATOM      7  C   UNL     1      16.643   8.444 -20.935  1.00  0.00    -0.000 C 
BRANCH   7   8
ATOM      8  C   UNL     1      15.604   7.684 -21.766  1.00  0.00    -0.003 C 
ATOM      9  C   UNL     1      14.866   6.652 -20.916  1.00  0.00     0.004 C 
ENDBRANCH   7   8
ENDBRANCH   6   7
ENDBRANCH   1   6
TORSDOF 5
ENDMDL
MODEL 5
REMARK VINA RESULT:    -4.330      2.909      4.459
REMARK INTER + INTRA:          -5.802
REMARK INTER:                  -5.630
REMARK INTRA:                  -0.173
REMARK UNBOUND:                -0.207
REMARK SMILES CCCCCCC(=O)[O-]
REMARK SMILES IDX 5 1 6 2 7 3 8 4 9 5 4 6 3 7 2 8 1 9
REMARK H PARENT
REMARK Flexibility Score: inf
ROOT
ATOM      1  C   UNL     1      15.286   7.375 -21.610  1.00  0.00     0.006 C 
ENDROOT
BRANCH   1   2
ATOM      2  C   UNL     1      14.690   6.614 -20.418  1.00  0.00     0.053 C 
BRANCH   2   3
ATOM      3  C   UNL     1      13.498   7.320 -19.849  1.00  0.00     0.041 C 
ATOM      4  O   UNL     1      12.749   8.004 -20.596  1.00  0.00    -0.550 OA
ATOM      5  O   UNL     1      13.195   7.196 -18.499  1.00  0.00    -0.550 OA
ENDBRANCH   2   3
ENDBRANCH   1   2
BRANCH   1   6
ATOM      6  C   UNL     1      16.413   8.328 -21.189  1.00  0.00     0.000 C 
BRANCH   6   7
ATOM      7  C   UNL     1      16.357   9.634 -21.988  1.00  0.00    -0.000 C 
BRANCH   7   8
ATOM      8  C   UNL     1      17.497  10.576 -21.585  1.00  0.00    -0.003 C 
ATOM      9  C   UNL     1      17.854  10.408 -20.110  1.00  0.00     0.004 C 
ENDBRANCH   7   8
ENDBRANCH   6   7
ENDBRANCH   1   6
TORSDOF 5
ENDMDL
MODEL 6
REMARK VINA RESULT:    -4.278      1.560      2.239
REMARK INTER + INTRA:          -5.736
REMARK INTER:                  -5.568
REMARK INTRA:                  -0.168
REMARK UNBOUND:                -0.207
REMARK SMILES CCCCCCC(=O)[O-]
REMARK SMILES IDX 5 1 6 2 7 3 8 4 9 5 4 6 3 7 2 8 1 9
REMARK H PARENT
REMARK Flexibility Score: inf
ROOT
ATOM      1  C   UNL     1      15.751   7.405 -21.698  1.00  0.00     0.006 C 
ENDROOT
BRANCH   1   2
ATOM      2  C   UNL     1      16.593   8.358 -20.839  1.00  0.00     0.053 C 
BRANCH   2   3
ATOM      3  C   UNL     1      16.866   9.649 -21.548  1.00  0.00     0.041 C 
ATOM      4  O   UNL     1      16.333   9.884 -22.665  1.00  0.00    -0.550 OA
ATOM      5  O   UNL     1      17.683  10.606 -20.960  1.00  0.00    -0.550 OA
ENDBRANCH   2   3
ENDBRANCH   1   2
BRANCH   1   6
ATOM      6  C   UNL     1      14.857   6.491 -20.848  1.00  0.00     0.000 C 
BRANCH   6   7
ATOM      7  C   UNL     1      13.487   7.134 -20.604  1.00  0.00    -0.000 C 
BRANCH   7   8
ATOM      8  C   UNL     1      13.241   7.354 -19.107  1.00  0.00    -0.003 C 
ATOM      9  C   UNL     1      12.068   8.304 -18.875  1.00  0.00     0.004 C 
ENDBRANCH   7   8
ENDBRANCH   6   7
ENDBRANCH   1   6
TORSDOF 5
ENDMDL
MODEL 7
REMARK VINA RESULT:    -4.169      2.778      4.309
REMARK INTER + INTRA:          -5.594
REMARK INTER:                  -5.392
REMARK INTRA:                  -0.203
REMARK UNBOUND:                -0.207
REMARK SMILES CCCCCCC(=O)[O-]
REMARK SMILES IDX 5 1 6 2 7 3 8 4 9 5 4 6 3 7 2 8 1 9
REMARK H PARENT
REMARK Flexibility Score: inf
ROOT
ATOM      1  C   UNL     1      15.488   8.874 -22.012  1.00  0.00     0.006 C 
ENDROOT
BRANCH   1   2
ATOM      2  C   UNL     1      15.680   7.385 -21.695  1.00  0.00     0.053 C 
BRANCH   2   3
ATOM      3  C   UNL     1      14.614   6.871 -20.778  1.00  0.00     0.041 C 
ATOM      4  O   UNL     1      14.756   5.761 -20.199  1.00  0.00    -0.550 OA
ATOM      5  O   UNL     1      13.478   7.632 -20.536  1.00  0.00    -0.550 OA
ENDBRANCH   2   3
ENDBRANCH   1   2
BRANCH   1   6
ATOM      6  C   UNL     1      16.708   9.717 -21.613  1.00  0.00     0.000 C 
BRANCH   6   7
ATOM      7  C   UNL     1      17.655   8.920 -20.710  1.00  0.00    -0.000 C 
BRANCH   7   8
ATOM      8  C   UNL     1      17.572   9.406 -19.259  1.00  0.00    -0.003 C 
ATOM      9  C   UNL     1      18.459   8.566 -18.344  1.00  0.00     0.004 C 
ENDBRANCH   7   8
ENDBRANCH   6   7
ENDBRANCH   1   6
TORSDOF 5
ENDMDL
MODEL 8
REMARK VINA RESULT:    -4.093     15.466     16.798
REMARK INTER + INTRA:          -5.496
REMARK INTER:                  -5.325
REMARK INTRA:                  -0.171
REMARK UNBOUND:                -0.207
REMARK SMILES CCCCCCC(=O)[O-]
REMARK SMILES IDX 5 1 6 2 7 3 8 4 9 5 4 6 3 7 2 8 1 9
REMARK H PARENT
REMARK Flexibility Score: inf
ROOT
ATOM      1  C   UNL     1       6.620  -1.232 -28.724  1.00  0.00     0.006 C 
ENDROOT
BRANCH   1   2
ATOM      2  C   UNL     1       5.289  -1.450 -29.455  1.00  0.00     0.053 C 
BRANCH   2   3
ATOM      3  C   UNL     1       4.117  -1.252 -28.544  1.00  0.00     0.041 C 
ATOM      4  O   UNL     1       3.824  -0.100 -28.127  1.00  0.00    -0.550 OA
ATOM      5  O   UNL     1       3.328  -2.336 -28.181  1.00  0.00    -0.550 OA
ENDBRANCH   2   3
ENDBRANCH   1   2
BRANCH   1   6
ATOM      6  C   UNL     1       6.833  -2.243 -27.588  1.00  0.00     0.000 C 
BRANCH   6   7
ATOM      7  C   UNL     1       8.301  -2.672 -27.500  1.00  0.00    -0.000 C 
BRANCH   7   8
ATOM      8  C   UNL     1       8.798  -2.639 -26.050  1.00  0.00    -0.003 C 
ATOM      9  C   UNL     1       7.716  -3.119 -25.086  1.00  0.00     0.004 C 
ENDBRANCH   7   8
ENDBRANCH   6   7
ENDBRANCH   1   6
TORSDOF 5
ENDMDL
MODEL 9
REMARK VINA RESULT:    -3.974      8.675     10.019
REMARK INTER + INTRA:          -5.342
REMARK INTER:                  -5.183
REMARK INTRA:                  -0.159
REMARK UNBOUND:                -0.207
REMARK SMILES CCCCCCC(=O)[O-]
REMARK SMILES IDX 5 1 6 2 7 3 8 4 9 5 4 6 3 7 2 8 1 9
REMARK H PARENT
REMARK Flexibility Score: inf
ROOT
ATOM      1  C   UNL     1       9.219  14.244 -18.894  1.00  0.00     0.006 C 
ENDROOT
BRANCH   1   2
ATOM      2  C   UNL     1       8.814  13.996 -20.354  1.00  0.00     0.053 C 
BRANCH   2   3
ATOM      3  C   UNL     1       8.810  12.537 -20.688  1.00  0.00     0.041 C 
ATOM      4  O   UNL     1       9.817  11.824 -20.432  1.00  0.00    -0.550 OA
ATOM      5  O   UNL     1       7.682  11.956 -21.254  1.00  0.00    -0.550 OA
ENDBRANCH   2   3
ENDBRANCH   1   2
BRANCH   1   6
ATOM      6  C   UNL     1       9.134  15.728 -18.510  1.00  0.00     0.000 C 
BRANCH   6   7
ATOM      7  C   UNL     1       9.239  15.910 -16.992  1.00  0.00    -0.000 C 
BRANCH   7   8
ATOM      8  C   UNL     1       9.673  14.607 -16.310  1.00  0.00    -0.003 C 
ATOM      9  C   UNL     1      10.306  14.882 -14.948  1.00  0.00     0.004 C 
ENDBRANCH   7   8
ENDBRANCH   6   7
ENDBRANCH   1   6
TORSDOF 5
ENDMDL
