MODEL 1
REMARK VINA RESULT:    -4.858      0.000      0.000
REMARK INTER + INTRA:         -10.949
REMARK INTER:                  -8.549
REMARK INTRA:                  -2.400
REMARK UNBOUND:                -2.400
REMARK SMILES CCCCCCC=CCCCCCCCC(=O)[O-]
REMARK SMILES IDX 10 1 11 2 12 3 13 4 14 5 15 6 16 7 17 8 18 9 9 10 8 11 7 12
REMARK SMILES IDX 6 13 5 14 4 15 3 16 2 17 1 18
REMARK H PARENT
REMARK Flexibility Score: inf
ROOT
ATOM      1  C   UNL     1      -1.960 -24.099  50.491  1.00  0.00     0.004 C 
ENDROOT
BRANCH   1   2
ATOM      2  C   UNL     1      -3.400 -23.599  50.287  1.00  0.00     0.000 C 
BRANCH   2   3
ATOM      3  C   UNL     1      -4.262 -24.590  49.489  1.00  0.00     0.000 C 
BRANCH   3   4
ATOM      4  C   UNL     1      -5.396 -23.901  48.715  1.00  0.00     0.000 C 
BRANCH   4   5
ATOM      5  C   UNL     1      -5.251 -22.374  48.776  1.00  0.00     0.006 C 
BRANCH   5   6
ATOM      6  C   UNL     1      -5.364 -21.724  47.390  1.00  0.00     0.053 C 
BRANCH   6   7
ATOM      7  C   UNL     1      -5.966 -20.355  47.464  1.00  0.00     0.041 C 
ATOM      8  O   UNL     1      -5.736 -19.511  46.559  1.00  0.00    -0.550 OA
ATOM      9  O   UNL     1      -6.755 -19.998  48.551  1.00  0.00    -0.550 OA
ENDBRANCH   6   7
ENDBRANCH   5   6
ENDBRANCH   4   5
ENDBRANCH   3   4
ENDBRANCH   2   3
ENDBRANCH   1   2
BRANCH   1  10
ATOM     10  C   UNL     1      -0.917 -23.133  49.913  1.00  0.00     0.027 C 
BRANCH  10  11
ATOM     11  C   UNL     1      -1.562 -21.948  49.237  1.00  0.00    -0.031 C 
ATOM     12  C   UNL     1      -1.653 -21.757  47.906  1.00  0.00    -0.031 C 
BRANCH  12  13
ATOM     13  C   UNL     1      -1.146 -22.701  46.844  1.00  0.00     0.027 C 
BRANCH  13  14
ATOM     14  C   UNL     1      -2.180 -23.781  46.481  1.00  0.00     0.004 C 
BRANCH  14  15
ATOM     15  C   UNL     1      -1.784 -25.198  46.938  1.00  0.00     0.000 C 
BRANCH  15  16
ATOM     16  C   UNL     1      -2.494 -26.302  46.141  1.00  0.00    -0.000 C 
BRANCH  16  17
ATOM     17  C   UNL     1      -3.830 -25.800  45.580  1.00  0.00    -0.003 C 
ATOM     18  C   UNL     1      -4.605 -26.930  44.912  1.00  0.00     0.004 C 
ENDBRANCH  16  17
ENDBRANCH  15  16
ENDBRANCH  14  15
ENDBRANCH  13  14
ENDBRANCH  12  13
ENDBRANCH  10  11
ENDBRANCH   1  10
TORSDOF 13
ENDMDL
MODEL 2
REMARK VINA RESULT:    -4.785      1.286      2.201
REMARK INTER + INTRA:         -10.821
REMARK INTER:                  -9.032
REMARK INTRA:                  -1.788
REMARK UNBOUND:                -2.400
REMARK SMILES CCCCCCC=CCCCCCCCC(=O)[O-]
REMARK SMILES IDX 10 1 11 2 12 3 13 4 14 5 15 6 16 7 17 8 18 9 9 10 8 11 7 12
REMARK SMILES IDX 6 13 5 14 4 15 3 16 2 17 1 18
REMARK H PARENT
REMARK Flexibility Score: inf
ROOT
ATOM      1  C   UNL     1      -1.522 -22.331  49.430  1.00  0.00     0.004 C 
ENDROOT
BRANCH   1   2
ATOM      2  C   UNL     1      -2.409 -23.093  50.428  1.00  0.00     0.000 C 
BRANCH   2   3
ATOM      3  C   UNL     1      -3.899 -22.745  50.280  1.00  0.00     0.000 C 
BRANCH   3   4
ATOM      4  C   UNL     1      -4.731 -23.918  49.743  1.00  0.00     0.000 C 
BRANCH   4   5
ATOM      5  C   UNL     1      -5.563 -23.488  48.526  1.00  0.00     0.006 C 
BRANCH   5   6
ATOM      6  C   UNL     1      -4.992 -22.238  47.843  1.00  0.00     0.053 C 
BRANCH   6   7
ATOM      7  C   UNL     1      -5.997 -21.130  47.779  1.00  0.00     0.041 C 
ATOM      8  O   UNL     1      -6.394 -20.698  46.665  1.00  0.00    -0.550 OA
ATOM      9  O   UNL     1      -6.469 -20.548  48.949  1.00  0.00    -0.550 OA
ENDBRANCH   6   7
ENDBRANCH   5   6
ENDBRANCH   4   5
ENDBRANCH   3   4
ENDBRANCH   2   3
ENDBRANCH   1   2
BRANCH   1  10
ATOM     10  C   UNL     1      -0.994 -23.234  48.306  1.00  0.00     0.027 C 
BRANCH  10  11
ATOM     11  C   UNL     1      -1.381 -24.678  48.517  1.00  0.00    -0.031 C 
ATOM     12  C   UNL     1      -2.150 -25.413  47.692  1.00  0.00    -0.031 C 
BRANCH  12  13
ATOM     13  C   UNL     1      -2.751 -24.939  46.392  1.00  0.00     0.027 C 
BRANCH  13  14
ATOM     14  C   UNL     1      -4.051 -25.684  46.042  1.00  0.00     0.004 C 
BRANCH  14  15
ATOM     15  C   UNL     1      -3.901 -26.682  44.877  1.00  0.00     0.000 C 
BRANCH  15  16
ATOM     16  C   UNL     1      -2.978 -27.861  45.218  1.00  0.00    -0.000 C 
BRANCH  16  17
ATOM     17  C   UNL     1      -3.649 -29.197  44.878  1.00  0.00    -0.003 C 
ATOM     18  C   UNL     1      -4.996 -28.979  44.196  1.00  0.00     0.004 C 
ENDBRANCH  16  17
ENDBRANCH  15  16
ENDBRANCH  14  15
ENDBRANCH  13  14
ENDBRANCH  12  13
ENDBRANCH  10  11
ENDBRANCH   1  10
TORSDOF 13
ENDMDL
MODEL 3
REMARK VINA RESULT:    -4.753      3.000      4.365
REMARK INTER + INTRA:         -10.764
REMARK INTER:                  -8.298
REMARK INTRA:                  -2.467
REMARK UNBOUND:                -2.400
REMARK SMILES CCCCCCC=CCCCCCCCC(=O)[O-]
REMARK SMILES IDX 10 1 11 2 12 3 13 4 14 5 15 6 16 7 17 8 18 9 9 10 8 11 7 12
REMARK SMILES IDX 6 13 5 14 4 15 3 16 2 17 1 18
REMARK H PARENT
REMARK Flexibility Score: inf
ROOT
ATOM      1  C   UNL     1      -5.604 -23.847  48.610  1.00  0.00     0.004 C 
ENDROOT
BRANCH   1   2
ATOM      2  C   UNL     1      -4.619 -24.513  49.584  1.00  0.00     0.000 C 
BRANCH   2   3
ATOM      3  C   UNL     1      -3.773 -23.492  50.361  1.00  0.00     0.000 C 
BRANCH   3   4
ATOM      4  C   UNL     1      -2.267 -23.660  50.115  1.00  0.00     0.000 C 
BRANCH   4   5
ATOM      5  C   UNL     1      -1.536 -22.316  50.252  1.00  0.00     0.006 C 
BRANCH   5   6
ATOM      6  C   UNL     1      -0.281 -22.245  49.370  1.00  0.00     0.053 C 
BRANCH   6   7
ATOM      7  C   UNL     1       0.948 -21.951  50.173  1.00  0.00     0.041 C 
ATOM      8  O   UNL     1       2.080 -21.948  49.622  1.00  0.00    -0.550 OA
ATOM      9  O   UNL     1       0.849 -21.716  51.539  1.00  0.00    -0.550 OA
ENDBRANCH   6   7
ENDBRANCH   5   6
ENDBRANCH   4   5
ENDBRANCH   3   4
ENDBRANCH   2   3
ENDBRANCH   1   2
BRANCH   1  10
ATOM     10  C   UNL     1      -5.510 -22.315  48.638  1.00  0.00     0.027 C 
BRANCH  10  11
ATOM     11  C   UNL     1      -5.500 -21.727  47.248  1.00  0.00    -0.031 C 
ATOM     12  C   UNL     1      -4.419 -21.610  46.452  1.00  0.00    -0.031 C 
BRANCH  12  13
ATOM     13  C   UNL     1      -3.021 -22.063  46.793  1.00  0.00     0.027 C 
BRANCH  13  14
ATOM     14  C   UNL     1      -2.543 -23.212  45.889  1.00  0.00     0.004 C 
BRANCH  14  15
ATOM     15  C   UNL     1      -1.795 -24.327  46.645  1.00  0.00     0.000 C 
BRANCH  15  16
ATOM     16  C   UNL     1      -2.570 -25.652  46.672  1.00  0.00    -0.000 C 
BRANCH  16  17
ATOM     17  C   UNL     1      -3.900 -25.525  45.920  1.00  0.00    -0.003 C 
ATOM     18  C   UNL     1      -4.178 -26.767  45.080  1.00  0.00     0.004 C 
ENDBRANCH  16  17
ENDBRANCH  15  16
ENDBRANCH  14  15
ENDBRANCH  13  14
ENDBRANCH  12  13
ENDBRANCH  10  11
ENDBRANCH   1  10
TORSDOF 13
ENDMDL
MODEL 4
REMARK VINA RESULT:    -4.719      3.576      5.555
REMARK INTER + INTRA:         -10.706
REMARK INTER:                  -8.313
REMARK INTRA:                  -2.393
REMARK UNBOUND:                -2.400
REMARK SMILES CCCCCCC=CCCCCCCCC(=O)[O-]
REMARK SMILES IDX 10 1 11 2 12 3 13 4 14 5 15 6 16 7 17 8 18 9 9 10 8 11 7 12
REMARK SMILES IDX 6 13 5 14 4 15 3 16 2 17 1 18
REMARK H PARENT
REMARK Flexibility Score: inf
ROOT
ATOM      1  C   UNL     1      -1.339 -21.884  47.052  1.00  0.00     0.004 C 
ENDROOT
BRANCH   1   2
ATOM      2  C   UNL     1      -2.183 -23.137  46.766  1.00  0.00     0.000 C 
BRANCH   2   3
ATOM      3  C   UNL     1      -1.370 -24.436  46.881  1.00  0.00     0.000 C 
BRANCH   3   4
ATOM      4  C   UNL     1      -2.247 -25.660  47.183  1.00  0.00     0.000 C 
BRANCH   4   5
ATOM      5  C   UNL     1      -3.198 -25.956  46.014  1.00  0.00     0.006 C 
BRANCH   5   6
ATOM      6  C   UNL     1      -2.448 -26.415  44.757  1.00  0.00     0.053 C 
BRANCH   6   7
ATOM      7  C   UNL     1      -2.307 -27.906  44.706  1.00  0.00     0.041 C 
ATOM      8  O   UNL     1      -3.107 -28.640  45.343  1.00  0.00    -0.550 OA
ATOM      9  O   UNL     1      -1.270 -28.483  43.983  1.00  0.00    -0.550 OA
ENDBRANCH   6   7
ENDBRANCH   5   6
ENDBRANCH   4   5
ENDBRANCH   3   4
ENDBRANCH   2   3
ENDBRANCH   1   2
BRANCH   1  10
ATOM     10  C   UNL     1       0.003 -22.220  47.718  1.00  0.00     0.027 C 
BRANCH  10  11
ATOM     11  C   UNL     1       0.117 -21.607  49.092  1.00  0.00    -0.031 C 
ATOM     12  C   UNL     1      -0.062 -22.257  50.259  1.00  0.00    -0.031 C 
BRANCH  12  13
ATOM     13  C   UNL     1      -0.390 -23.722  50.410  1.00  0.00     0.027 C 
BRANCH  13  14
ATOM     14  C   UNL     1      -1.902 -23.972  50.545  1.00  0.00     0.004 C 
BRANCH  14  15
ATOM     15  C   UNL     1      -2.741 -22.681  50.612  1.00  0.00     0.000 C 
BRANCH  15  16
ATOM     16  C   UNL     1      -4.057 -22.784  49.829  1.00  0.00    -0.000 C 
BRANCH  16  17
ATOM     17  C   UNL     1      -4.504 -24.245  49.698  1.00  0.00    -0.003 C 
ATOM     18  C   UNL     1      -5.574 -24.399  48.623  1.00  0.00     0.004 C 
ENDBRANCH  16  17
ENDBRANCH  15  16
ENDBRANCH  14  15
ENDBRANCH  13  14
ENDBRANCH  12  13
ENDBRANCH  10  11
ENDBRANCH   1  10
TORSDOF 13
ENDMDL
MODEL 5
REMARK VINA RESULT:    -4.709      1.721      2.632
REMARK INTER + INTRA:         -10.688
REMARK INTER:                  -8.657
REMARK INTRA:                  -2.031
REMARK UNBOUND:                -2.400
REMARK SMILES CCCCCCC=CCCCCCCCC(=O)[O-]
REMARK SMILES IDX 10 1 11 2 12 3 13 4 14 5 15 6 16 7 17 8 18 9 9 10 8 11 7 12
REMARK SMILES IDX 6 13 5 14 4 15 3 16 2 17 1 18
REMARK H PARENT
REMARK Flexibility Score: inf
ROOT
ATOM      1  C   UNL     1      -1.999 -24.056  50.420  1.00  0.00     0.004 C 
ENDROOT
BRANCH   1   2
ATOM      2  C   UNL     1      -3.397 -23.476  50.148  1.00  0.00     0.000 C 
BRANCH   2   3
ATOM      3  C   UNL     1      -4.411 -24.551  49.725  1.00  0.00     0.000 C 
BRANCH   3   4
ATOM      4  C   UNL     1      -5.365 -24.065  48.624  1.00  0.00     0.000 C 
BRANCH   4   5
ATOM      5  C   UNL     1      -5.216 -22.554  48.397  1.00  0.00     0.006 C 
BRANCH   5   6
ATOM      6  C   UNL     1      -4.919 -22.213  46.930  1.00  0.00     0.053 C 
BRANCH   6   7
ATOM      7  C   UNL     1      -3.599 -21.522  46.776  1.00  0.00     0.041 C 
ATOM      8  O   UNL     1      -2.931 -21.197  47.792  1.00  0.00    -0.550 OA
ATOM      9  O   UNL     1      -3.122 -21.206  45.509  1.00  0.00    -0.550 OA
ENDBRANCH   6   7
ENDBRANCH   5   6
ENDBRANCH   4   5
ENDBRANCH   3   4
ENDBRANCH   2   3
ENDBRANCH   1   2
BRANCH   1  10
ATOM     10  C   UNL     1      -1.537 -25.013  49.313  1.00  0.00     0.027 C 
BRANCH  10  11
ATOM     11  C   UNL     1      -1.263 -24.286  48.019  1.00  0.00    -0.031 C 
ATOM     12  C   UNL     1      -1.797 -24.588  46.820  1.00  0.00    -0.031 C 
BRANCH  12  13
ATOM     13  C   UNL     1      -2.784 -25.696  46.550  1.00  0.00     0.027 C 
BRANCH  13  14
ATOM     14  C   UNL     1      -3.697 -25.385  45.351  1.00  0.00     0.004 C 
BRANCH  14  15
ATOM     15  C   UNL     1      -3.806 -26.541  44.338  1.00  0.00     0.000 C 
BRANCH  15  16
ATOM     16  C   UNL     1      -4.841 -27.598  44.748  1.00  0.00    -0.000 C 
BRANCH  16  17
ATOM     17  C   UNL     1      -4.325 -29.012  44.459  1.00  0.00    -0.003 C 
ATOM     18  C   UNL     1      -2.960 -29.241  45.099  1.00  0.00     0.004 C 
ENDBRANCH  16  17
ENDBRANCH  15  16
ENDBRANCH  14  15
ENDBRANCH  13  14
ENDBRANCH  12  13
ENDBRANCH  10  11
ENDBRANCH   1  10
TORSDOF 13
ENDMDL
MODEL 6
REMARK VINA RESULT:    -4.665      3.178      5.710
REMARK INTER + INTRA:         -10.611
REMARK INTER:                  -8.239
REMARK INTRA:                  -2.373
REMARK UNBOUND:                -2.400
REMARK SMILES CCCCCCC=CCCCCCCCC(=O)[O-]
REMARK SMILES IDX 10 1 11 2 12 3 13 4 14 5 15 6 16 7 17 8 18 9 9 10 8 11 7 12
REMARK SMILES IDX 6 13 5 14 4 15 3 16 2 17 1 18
REMARK H PARENT
REMARK Flexibility Score: inf
ROOT
ATOM      1  C   UNL     1      -2.627 -23.480  50.611  1.00  0.00     0.004 C 
ENDROOT
BRANCH   1   2
ATOM      2  C   UNL     1      -1.448 -22.592  50.182  1.00  0.00     0.000 C 
BRANCH   2   3
ATOM      3  C   UNL     1      -1.751 -21.778  48.914  1.00  0.00     0.000 C 
BRANCH   3   4
ATOM      4  C   UNL     1      -0.614 -21.838  47.884  1.00  0.00     0.000 C 
BRANCH   4   5
ATOM      5  C   UNL     1      -1.130 -22.332  46.525  1.00  0.00     0.006 C 
BRANCH   5   6
ATOM      6  C   UNL     1      -0.006 -22.896  45.646  1.00  0.00     0.053 C 
BRANCH   6   7
ATOM      7  C   UNL     1       0.984 -21.839  45.262  1.00  0.00     0.041 C 
ATOM      8  O   UNL     1       0.679 -20.964  44.411  1.00  0.00    -0.550 OA
ATOM      9  O   UNL     1       2.258 -21.842  45.819  1.00  0.00    -0.550 OA
ENDBRANCH   6   7
ENDBRANCH   5   6
ENDBRANCH   4   5
ENDBRANCH   3   4
ENDBRANCH   2   3
ENDBRANCH   1   2
BRANCH   1  10
ATOM     10  C   UNL     1      -3.035 -24.480  49.519  1.00  0.00     0.027 C 
BRANCH  10  11
ATOM     11  C   UNL     1      -4.530 -24.507  49.312  1.00  0.00    -0.031 C 
ATOM     12  C   UNL     1      -5.186 -23.988  48.257  1.00  0.00    -0.031 C 
BRANCH  12  13
ATOM     13  C   UNL     1      -4.549 -23.301  47.074  1.00  0.00     0.027 C 
BRANCH  13  14
ATOM     14  C   UNL     1      -4.950 -21.820  46.972  1.00  0.00     0.004 C 
BRANCH  14  15
ATOM     15  C   UNL     1      -5.862 -21.343  48.119  1.00  0.00     0.000 C 
BRANCH  15  16
ATOM     16  C   UNL     1      -5.178 -20.321  49.038  1.00  0.00    -0.000 C 
BRANCH  16  17
ATOM     17  C   UNL     1      -5.126 -20.830  50.483  1.00  0.00    -0.003 C 
ATOM     18  C   UNL     1      -4.243 -19.939  51.349  1.00  0.00     0.004 C 
ENDBRANCH  16  17
ENDBRANCH  15  16
ENDBRANCH  14  15
ENDBRANCH  13  14
ENDBRANCH  12  13
ENDBRANCH  10  11
ENDBRANCH   1  10
TORSDOF 13
ENDMDL
MODEL 7
REMARK VINA RESULT:    -4.657      2.204      3.090
REMARK INTER + INTRA:         -10.597
REMARK INTER:                  -8.345
REMARK INTRA:                  -2.252
REMARK UNBOUND:                -2.400
REMARK SMILES CCCCCCC=CCCCCCCCC(=O)[O-]
REMARK SMILES IDX 10 1 11 2 12 3 13 4 14 5 15 6 16 7 17 8 18 9 9 10 8 11 7 12
REMARK SMILES IDX 6 13 5 14 4 15 3 16 2 17 1 18
REMARK H PARENT
REMARK Flexibility Score: inf
ROOT
ATOM      1  C   UNL     1      -2.815 -24.818  48.659  1.00  0.00     0.004 C 
ENDROOT
BRANCH   1   2
ATOM      2  C   UNL     1      -3.847 -24.484  49.749  1.00  0.00     0.000 C 
BRANCH   2   3
ATOM      3  C   UNL     1      -5.253 -24.241  49.177  1.00  0.00     0.000 C 
BRANCH   3   4
ATOM      4  C   UNL     1      -5.278 -23.133  48.115  1.00  0.00     0.000 C 
BRANCH   4   5
ATOM      5  C   UNL     1      -5.658 -21.783  48.739  1.00  0.00     0.006 C 
BRANCH   5   6
ATOM      6  C   UNL     1      -4.443 -20.864  48.923  1.00  0.00     0.053 C 
BRANCH   6   7
ATOM      7  C   UNL     1      -4.277 -20.438  50.350  1.00  0.00     0.041 C 
ATOM      8  O   UNL     1      -4.957 -19.483  50.809  1.00  0.00    -0.550 OA
ATOM      9  O   UNL     1      -3.346 -21.073  51.163  1.00  0.00    -0.550 OA
ENDBRANCH   6   7
ENDBRANCH   5   6
ENDBRANCH   4   5
ENDBRANCH   3   4
ENDBRANCH   2   3
ENDBRANCH   1   2
BRANCH   1  10
ATOM     10  C   UNL     1      -1.397 -24.976  49.223  1.00  0.00     0.027 C 
BRANCH  10  11
ATOM     11  C   UNL     1      -1.205 -24.180  50.491  1.00  0.00    -0.031 C 
ATOM     12  C   UNL     1      -0.454 -23.068  50.614  1.00  0.00    -0.031 C 
BRANCH  12  13
ATOM     13  C   UNL     1       0.319 -22.399  49.504  1.00  0.00     0.027 C 
BRANCH  13  14
ATOM     14  C   UNL     1      -0.572 -21.498  48.633  1.00  0.00     0.004 C 
BRANCH  14  15
ATOM     15  C   UNL     1      -0.626 -21.922  47.152  1.00  0.00     0.000 C 
BRANCH  15  16
ATOM     16  C   UNL     1      -1.998 -21.674  46.511  1.00  0.00    -0.000 C 
BRANCH  16  17
ATOM     17  C   UNL     1      -2.424 -22.868  45.649  1.00  0.00    -0.003 C 
ATOM     18  C   UNL     1      -1.211 -23.644  45.145  1.00  0.00     0.004 C 
ENDBRANCH  16  17
ENDBRANCH  15  16
ENDBRANCH  14  15
ENDBRANCH  13  14
ENDBRANCH  12  13
ENDBRANCH  10  11
ENDBRANCH   1  10
TORSDOF 13
ENDMDL
MODEL 8
REMARK VINA RESULT:    -4.620      1.527      3.768
REMARK INTER + INTRA:         -10.531
REMARK INTER:                  -8.088
REMARK INTRA:                  -2.444
REMARK UNBOUND:                -2.400
REMARK SMILES CCCCCCC=CCCCCCCCC(=O)[O-]
REMARK SMILES IDX 10 1 11 2 12 3 13 4 14 5 15 6 16 7 17 8 18 9 9 10 8 11 7 12
REMARK SMILES IDX 6 13 5 14 4 15 3 16 2 17 1 18
REMARK H PARENT
REMARK Flexibility Score: inf
ROOT
ATOM      1  C   UNL     1      -2.272 -25.182  47.084  1.00  0.00     0.004 C 
ENDROOT
BRANCH   1   2
ATOM      2  C   UNL     1      -3.773 -24.852  47.009  1.00  0.00     0.000 C 
BRANCH   2   3
ATOM      3  C   UNL     1      -4.106 -23.867  45.877  1.00  0.00     0.000 C 
BRANCH   3   4
ATOM      4  C   UNL     1      -4.089 -22.403  46.341  1.00  0.00     0.000 C 
BRANCH   4   5
ATOM      5  C   UNL     1      -4.856 -22.238  47.661  1.00  0.00     0.006 C 
BRANCH   5   6
ATOM      6  C   UNL     1      -4.176 -21.238  48.606  1.00  0.00     0.053 C 
BRANCH   6   7
ATOM      7  C   UNL     1      -5.138 -20.205  49.109  1.00  0.00     0.041 C 
ATOM      8  O   UNL     1      -5.260 -20.001  50.346  1.00  0.00    -0.550 OA
ATOM      9  O   UNL     1      -5.925 -19.490  48.214  1.00  0.00    -0.550 OA
ENDBRANCH   6   7
ENDBRANCH   5   6
ENDBRANCH   4   5
ENDBRANCH   3   4
ENDBRANCH   2   3
ENDBRANCH   1   2
BRANCH   1  10
ATOM     10  C   UNL     1      -1.772 -25.311  48.529  1.00  0.00     0.027 C 
BRANCH  10  11
ATOM     11  C   UNL     1      -2.642 -24.545  49.496  1.00  0.00    -0.031 C 
ATOM     12  C   UNL     1      -2.201 -23.765  50.502  1.00  0.00    -0.031 C 
BRANCH  12  13
ATOM     13  C   UNL     1      -0.755 -23.495  50.838  1.00  0.00     0.027 C 
BRANCH  13  14
ATOM     14  C   UNL     1      -0.283 -22.123  50.327  1.00  0.00     0.004 C 
BRANCH  14  15
ATOM     15  C   UNL     1       0.411 -22.178  48.952  1.00  0.00     0.000 C 
BRANCH  15  16
ATOM     16  C   UNL     1      -0.540 -21.854  47.791  1.00  0.00    -0.000 C 
BRANCH  16  17
ATOM     17  C   UNL     1       0.155 -22.058  46.440  1.00  0.00    -0.003 C 
ATOM     18  C   UNL     1      -0.718 -21.564  45.291  1.00  0.00     0.004 C 
ENDBRANCH  16  17
ENDBRANCH  15  16
ENDBRANCH  14  15
ENDBRANCH  13  14
ENDBRANCH  12  13
ENDBRANCH  10  11
ENDBRANCH   1  10
TORSDOF 13
ENDMDL
MODEL 9
REMARK VINA RESULT:    -4.614      2.952      5.673
REMARK INTER + INTRA:         -10.520
REMARK INTER:                  -8.260
REMARK INTRA:                  -2.260
REMARK UNBOUND:                -2.400
REMARK SMILES CCCCCCC=CCCCCCCCC(=O)[O-]
REMARK SMILES IDX 10 1 11 2 12 3 13 4 14 5 15 6 16 7 17 8 18 9 9 10 8 11 7 12
REMARK SMILES IDX 6 13 5 14 4 15 3 16 2 17 1 18
REMARK H PARENT
REMARK Flexibility Score: inf
ROOT
ATOM      1  C   UNL     1      -3.853 -24.861  46.800  1.00  0.00     0.004 C 
ENDROOT
BRANCH   1   2
ATOM      2  C   UNL     1      -2.670 -24.043  46.255  1.00  0.00     0.000 C 
BRANCH   2   3
ATOM      3  C   UNL     1      -2.935 -22.529  46.285  1.00  0.00     0.000 C 
BRANCH   3   4
ATOM      4  C   UNL     1      -1.842 -21.751  47.031  1.00  0.00     0.000 C 
BRANCH   4   5
ATOM      5  C   UNL     1      -0.891 -22.708  47.765  1.00  0.00     0.006 C 
BRANCH   5   6
ATOM      6  C   UNL     1       0.003 -21.977  48.776  1.00  0.00     0.053 C 
BRANCH   6   7
ATOM      7  C   UNL     1      -0.048 -22.617  50.129  1.00  0.00     0.041 C 
ATOM      8  O   UNL     1       0.238 -21.949  51.158  1.00  0.00    -0.550 OA
ATOM      9  O   UNL     1      -0.377 -23.962  50.253  1.00  0.00    -0.550 OA
ENDBRANCH   6   7
ENDBRANCH   5   6
ENDBRANCH   4   5
ENDBRANCH   3   4
ENDBRANCH   2   3
ENDBRANCH   1   2
BRANCH   1  10
ATOM     10  C   UNL     1      -4.711 -24.062  47.791  1.00  0.00     0.027 C 
BRANCH  10  11
ATOM     11  C   UNL     1      -4.420 -24.446  49.222  1.00  0.00    -0.031 C 
ATOM     12  C   UNL     1      -3.978 -23.613  50.183  1.00  0.00    -0.031 C 
BRANCH  12  13
ATOM     13  C   UNL     1      -3.709 -22.138  50.016  1.00  0.00     0.027 C 
BRANCH  13  14
ATOM     14  C   UNL     1      -4.904 -21.273  50.453  1.00  0.00     0.004 C 
BRANCH  14  15
ATOM     15  C   UNL     1      -5.190 -20.088  49.512  1.00  0.00     0.000 C 
BRANCH  15  16
ATOM     16  C   UNL     1      -6.438 -20.303  48.644  1.00  0.00    -0.000 C 
BRANCH  16  17
ATOM     17  C   UNL     1      -6.051 -20.745  47.228  1.00  0.00    -0.003 C 
ATOM     18  C   UNL     1      -5.774 -19.542  46.332  1.00  0.00     0.004 C 
ENDBRANCH  16  17
ENDBRANCH  15  16
ENDBRANCH  14  15
ENDBRANCH  13  14
ENDBRANCH  12  13
ENDBRANCH  10  11
ENDBRANCH   1  10
TORSDOF 13
ENDMDL
