MODEL 1
REMARK VINA RESULT:    -5.919      0.000      0.000
REMARK INTER + INTRA:         -10.747
REMARK INTER:                  -9.206
REMARK INTRA:                  -1.541
REMARK UNBOUND:                -1.541
REMARK SMILES COc1cc(CNC(=O)CCCCC=CC(C)C)ccc1O
REMARK SMILES IDX 11 1 12 2 13 3 14 4 15 5 16 6 17 7 18 8 10 9 8 10 9 11 7 12
REMARK SMILES IDX 6 14 5 15 4 16 19 17 3 18 20 19 21 20 2 21 1 22 22 23
REMARK H PARENT 7 13 22 24
REMARK Flexibility Score: inf
ROOT
ATOM      1  C   UNL     1       9.850 -28.387  26.747  1.00  0.00     0.010 C 
ENDROOT
BRANCH   1   2
ATOM      2  C   UNL     1      10.000 -29.430  27.865  1.00  0.00     0.005 C 
BRANCH   2   3
ATOM      3  C   UNL     1      10.963 -28.969  28.970  1.00  0.00     0.027 C 
BRANCH   3   4
ATOM      4  C   UNL     1      10.412 -29.286  30.332  1.00  0.00    -0.031 C 
ATOM      5  C   UNL     1       9.095 -29.221  30.590  1.00  0.00    -0.028 C 
BRANCH   5   6
ATOM      6  C   UNL     1       8.509 -29.542  31.947  1.00  0.00     0.005 C 
ATOM      7  C   UNL     1       7.293 -30.466  31.826  1.00  0.00     0.012 C 
ATOM      8  C   UNL     1       9.568 -30.136  32.883  1.00  0.00     0.012 C 
ENDBRANCH   5   6
ENDBRANCH   3   4
ENDBRANCH   2   3
ENDBRANCH   1   2
BRANCH   1   9
ATOM      9  C   UNL     1       8.650 -27.457  26.968  1.00  0.00     0.100 C 
BRANCH   9  10
ATOM     10  C   UNL     1       9.119 -26.135  27.494  1.00  0.00     0.220 C 
ATOM     11  O   UNL     1       9.451 -25.228  26.685  1.00  0.00    -0.275 OA
ATOM     12  N   UNL     1       9.126 -25.887  28.906  1.00  0.00    -0.352 N 
ATOM     13  H   UNL     1       8.908 -26.675  29.557  1.00  0.00     0.163 HD
BRANCH  12  14
ATOM     14  C   UNL     1       9.178 -24.537  29.460  1.00  0.00     0.151 C 
BRANCH  14  15
ATOM     15  C   UNL     1       9.614 -24.597  30.898  1.00  0.00    -0.025 A 
ATOM     16  C   UNL     1       9.964 -23.423  31.584  1.00  0.00     0.056 A 
ATOM     17  C   UNL     1       9.599 -25.818  31.584  1.00  0.00     0.009 A 
ATOM     18  C   UNL     1      10.317 -23.469  32.948  1.00  0.00     0.160 A 
ATOM     19  C   UNL     1       9.953 -25.872  32.933  1.00  0.00     0.050 A 
ATOM     20  C   UNL     1      10.313 -24.706  33.617  1.00  0.00     0.157 A 
BRANCH  18  21
ATOM     21  O   UNL     1      10.668 -22.313  33.663  1.00  0.00    -0.493 OA
ATOM     22  C   UNL     1       9.760 -21.274  34.015  1.00  0.00     0.278 C 
ENDBRANCH  18  21
BRANCH  20  23
ATOM     23  O   UNL     1      10.660 -24.797  34.965  1.00  0.00    -0.504 OA
ATOM     24  H   UNL     1       9.991 -25.066  35.678  1.00  0.00     0.293 HD
ENDBRANCH  20  23
ENDBRANCH  14  15
ENDBRANCH  12  14
ENDBRANCH   9  10
ENDBRANCH   1   9
TORSDOF 10
ENDMDL
MODEL 2
REMARK VINA RESULT:    -5.598      4.432      6.228
REMARK INTER + INTRA:         -10.249
REMARK INTER:                  -9.330
REMARK INTRA:                  -0.918
REMARK UNBOUND:                -1.541
REMARK SMILES COc1cc(CNC(=O)CCCCC=CC(C)C)ccc1O
REMARK SMILES IDX 11 1 12 2 13 3 14 4 15 5 16 6 17 7 18 8 10 9 8 10 9 11 7 12
REMARK SMILES IDX 6 14 5 15 4 16 19 17 3 18 20 19 21 20 2 21 1 22 22 23
REMARK H PARENT 7 13 22 24
REMARK Flexibility Score: inf
ROOT
ATOM      1  C   UNL     1      10.720 -23.509  31.276  1.00  0.00     0.010 C 
ENDROOT
BRANCH   1   2
ATOM      2  C   UNL     1       9.653 -24.589  31.040  1.00  0.00     0.005 C 
BRANCH   2   3
ATOM      3  C   UNL     1       9.434 -25.475  32.276  1.00  0.00     0.027 C 
BRANCH   3   4
ATOM      4  C   UNL     1       9.605 -26.928  31.934  1.00  0.00    -0.031 C 
ATOM      5  C   UNL     1       9.608 -27.355  30.661  1.00  0.00    -0.028 C 
BRANCH   5   6
ATOM      6  C   UNL     1       9.786 -28.809  30.284  1.00  0.00     0.005 C 
ATOM      7  C   UNL     1      10.817 -28.974  29.163  1.00  0.00     0.012 C 
ATOM      8  C   UNL     1      10.153 -29.659  31.507  1.00  0.00     0.012 C 
ENDBRANCH   5   6
ENDBRANCH   3   4
ENDBRANCH   2   3
ENDBRANCH   1   2
BRANCH   1   9
ATOM      9  C   UNL     1      10.335 -22.540  32.402  1.00  0.00     0.100 C 
BRANCH   9  10
ATOM     10  C   UNL     1      11.294 -22.678  33.544  1.00  0.00     0.220 C 
ATOM     11  O   UNL     1      10.913 -22.396  34.712  1.00  0.00    -0.275 OA
ATOM     12  N   UNL     1      12.614 -23.189  33.315  1.00  0.00    -0.352 N 
ATOM     13  H   UNL     1      12.925 -23.355  32.331  1.00  0.00     0.163 HD
BRANCH  12  14
ATOM     14  C   UNL     1      13.442 -23.720  34.394  1.00  0.00     0.151 C 
BRANCH  14  15
ATOM     15  C   UNL     1      14.751 -24.204  33.833  1.00  0.00    -0.025 A 
ATOM     16  C   UNL     1      15.125 -23.879  32.519  1.00  0.00     0.056 A 
ATOM     17  C   UNL     1      15.641 -24.916  34.647  1.00  0.00     0.009 A 
ATOM     18  C   UNL     1      16.377 -24.281  32.011  1.00  0.00     0.160 A 
ATOM     19  C   UNL     1      16.880 -25.323  34.148  1.00  0.00     0.050 A 
ATOM     20  C   UNL     1      17.251 -25.010  32.836  1.00  0.00     0.157 A 
BRANCH  18  21
ATOM     21  O   UNL     1      16.782 -23.969  30.703  1.00  0.00    -0.493 OA
ATOM     22  C   UNL     1      16.469 -24.748  29.553  1.00  0.00     0.278 C 
ENDBRANCH  18  21
BRANCH  20  23
ATOM     23  O   UNL     1      18.498 -25.431  32.372  1.00  0.00    -0.504 OA
ATOM     24  H   UNL     1      18.971 -26.242  32.754  1.00  0.00     0.293 HD
ENDBRANCH  20  23
ENDBRANCH  14  15
ENDBRANCH  12  14
ENDBRANCH   9  10
ENDBRANCH   1   9
TORSDOF 10
ENDMDL
MODEL 3
REMARK VINA RESULT:    -5.549      3.104      6.992
REMARK INTER + INTRA:         -10.172
REMARK INTER:                  -8.739
REMARK INTRA:                  -1.433
REMARK UNBOUND:                -1.541
REMARK SMILES COc1cc(CNC(=O)CCCCC=CC(C)C)ccc1O
REMARK SMILES IDX 11 1 12 2 13 3 14 4 15 5 16 6 17 7 18 8 10 9 8 10 9 11 7 12
REMARK SMILES IDX 6 14 5 15 4 16 19 17 3 18 20 19 21 20 2 21 1 22 22 23
REMARK H PARENT 7 13 22 24
REMARK Flexibility Score: inf
ROOT
ATOM      1  C   UNL     1       9.901 -28.826  31.581  1.00  0.00     0.010 C 
ENDROOT
BRANCH   1   2
ATOM      2  C   UNL     1       9.707 -27.456  32.249  1.00  0.00     0.005 C 
BRANCH   2   3
ATOM      3  C   UNL     1       8.859 -26.502  31.394  1.00  0.00     0.027 C 
BRANCH   3   4
ATOM      4  C   UNL     1       9.542 -25.172  31.232  1.00  0.00    -0.031 C 
ATOM      5  C   UNL     1       8.872 -24.086  30.812  1.00  0.00    -0.028 C 
BRANCH   5   6
ATOM      6  C   UNL     1       9.528 -22.733  30.646  1.00  0.00     0.005 C 
ATOM      7  C   UNL     1      10.991 -22.762  31.100  1.00  0.00     0.012 C 
ATOM      8  C   UNL     1       9.403 -22.228  29.204  1.00  0.00     0.012 C 
ENDBRANCH   5   6
ENDBRANCH   3   4
ENDBRANCH   2   3
ENDBRANCH   1   2
BRANCH   1   9
ATOM      9  C   UNL     1       8.666 -29.726  31.717  1.00  0.00     0.100 C 
BRANCH   9  10
ATOM     10  C   UNL     1       8.099 -30.023  30.363  1.00  0.00     0.220 C 
ATOM     11  O   UNL     1       6.992 -30.617  30.270  1.00  0.00    -0.275 OA
ATOM     12  N   UNL     1       8.784 -29.577  29.185  1.00  0.00    -0.352 N 
ATOM     13  H   UNL     1       9.730 -29.145  29.286  1.00  0.00     0.163 HD
BRANCH  12  14
ATOM     14  C   UNL     1       8.119 -29.472  27.890  1.00  0.00     0.151 C 
BRANCH  14  15
ATOM     15  C   UNL     1       8.494 -28.171  27.234  1.00  0.00    -0.025 A 
ATOM     16  C   UNL     1       8.231 -27.961  25.871  1.00  0.00     0.056 A 
ATOM     17  C   UNL     1       9.035 -27.131  28.000  1.00  0.00     0.009 A 
ATOM     18  C   UNL     1       8.526 -26.722  25.267  1.00  0.00     0.160 A 
ATOM     19  C   UNL     1       9.336 -25.903  27.408  1.00  0.00     0.050 A 
ATOM     20  C   UNL     1       9.086 -25.694  26.047  1.00  0.00     0.157 A 
BRANCH  18  21
ATOM     21  O   UNL     1       8.272 -26.479  23.908  1.00  0.00    -0.493 OA
ATOM     22  C   UNL     1       9.186 -26.763  22.852  1.00  0.00     0.278 C 
ENDBRANCH  18  21
BRANCH  20  23
ATOM     23  O   UNL     1       9.397 -24.454  25.489  1.00  0.00    -0.504 OA
ATOM     24  H   UNL     1       8.756 -23.670  25.523  1.00  0.00     0.293 HD
ENDBRANCH  20  23
ENDBRANCH  14  15
ENDBRANCH  12  14
ENDBRANCH   9  10
ENDBRANCH   1   9
TORSDOF 10
ENDMDL
MODEL 4
REMARK VINA RESULT:    -5.537      2.244      7.334
REMARK INTER + INTRA:         -10.154
REMARK INTER:                  -9.216
REMARK INTRA:                  -0.938
REMARK UNBOUND:                -1.541
REMARK SMILES COc1cc(CNC(=O)CCCCC=CC(C)C)ccc1O
REMARK SMILES IDX 11 1 12 2 13 3 14 4 15 5 16 6 17 7 18 8 10 9 8 10 9 11 7 12
REMARK SMILES IDX 6 14 5 15 4 16 19 17 3 18 20 19 21 20 2 21 1 22 22 23
REMARK H PARENT 7 13 22 24
REMARK Flexibility Score: inf
ROOT
ATOM      1  C   UNL     1       9.817 -25.168  30.731  1.00  0.00     0.010 C 
ENDROOT
BRANCH   1   2
ATOM      2  C   UNL     1       9.367 -23.701  30.650  1.00  0.00     0.005 C 
BRANCH   2   3
ATOM      3  C   UNL     1      10.548 -22.722  30.733  1.00  0.00     0.027 C 
BRANCH   3   4
ATOM      4  C   UNL     1      10.585 -22.035  32.070  1.00  0.00    -0.031 C 
ATOM      5  C   UNL     1       9.458 -21.689  32.714  1.00  0.00    -0.028 C 
BRANCH   5   6
ATOM      6  C   UNL     1       9.462 -21.005  34.063  1.00  0.00     0.005 C 
ATOM      7  C   UNL     1      10.658 -20.059  34.206  1.00  0.00     0.012 C 
ATOM      8  C   UNL     1       8.140 -20.272  34.318  1.00  0.00     0.012 C 
ENDBRANCH   5   6
ENDBRANCH   3   4
ENDBRANCH   2   3
ENDBRANCH   1   2
BRANCH   1   9
ATOM      9  C   UNL     1       9.602 -25.772  32.125  1.00  0.00     0.100 C 
BRANCH   9  10
ATOM     10  C   UNL     1       9.232 -27.218  32.003  1.00  0.00     0.220 C 
ATOM     11  O   UNL     1       8.054 -27.582  32.264  1.00  0.00    -0.275 OA
ATOM     12  N   UNL     1      10.197 -28.168  31.532  1.00  0.00    -0.352 N 
ATOM     13  H   UNL     1      11.183 -27.854  31.384  1.00  0.00     0.163 HD
BRANCH  12  14
ATOM     14  C   UNL     1       9.812 -29.478  31.014  1.00  0.00     0.151 C 
BRANCH  14  15
ATOM     15  C   UNL     1       9.187 -29.320  29.655  1.00  0.00    -0.025 A 
ATOM     16  C   UNL     1       9.714 -28.401  28.733  1.00  0.00     0.056 A 
ATOM     17  C   UNL     1       8.123 -30.147  29.273  1.00  0.00     0.009 A 
ATOM     18  C   UNL     1       9.168 -28.293  27.439  1.00  0.00     0.160 A 
ATOM     19  C   UNL     1       7.573 -30.040  27.995  1.00  0.00     0.050 A 
ATOM     20  C   UNL     1       8.088 -29.118  27.078  1.00  0.00     0.157 A 
BRANCH  18  21
ATOM     21  O   UNL     1       9.674 -27.387  26.493  1.00  0.00    -0.493 OA
ATOM     22  C   UNL     1       9.484 -25.976  26.543  1.00  0.00     0.278 C 
ENDBRANCH  18  21
BRANCH  20  23
ATOM     23  O   UNL     1       7.515 -29.041  25.808  1.00  0.00    -0.504 OA
ATOM     24  H   UNL     1       6.697 -28.472  25.618  1.00  0.00     0.293 HD
ENDBRANCH  20  23
ENDBRANCH  14  15
ENDBRANCH  12  14
ENDBRANCH   9  10
ENDBRANCH   1   9
TORSDOF 10
ENDMDL
MODEL 5
REMARK VINA RESULT:    -5.394      4.557      7.026
REMARK INTER + INTRA:          -9.931
REMARK INTER:                  -9.034
REMARK INTRA:                  -0.897
REMARK UNBOUND:                -1.541
REMARK SMILES COc1cc(CNC(=O)CCCCC=CC(C)C)ccc1O
REMARK SMILES IDX 11 1 12 2 13 3 14 4 15 5 16 6 17 7 18 8 10 9 8 10 9 11 7 12
REMARK SMILES IDX 6 14 5 15 4 16 19 17 3 18 20 19 21 20 2 21 1 22 22 23
REMARK H PARENT 7 13 22 24
REMARK Flexibility Score: inf
ROOT
ATOM      1  C   UNL     1      16.570 -24.710  33.338  1.00  0.00     0.010 C 
ENDROOT
BRANCH   1   2
ATOM      2  C   UNL     1      17.003 -24.890  31.875  1.00  0.00     0.005 C 
BRANCH   2   3
ATOM      3  C   UNL     1      16.279 -23.920  30.927  1.00  0.00     0.027 C 
BRANCH   3   4
ATOM      4  C   UNL     1      16.179 -24.494  29.542  1.00  0.00    -0.031 C 
ATOM      5  C   UNL     1      16.444 -25.788  29.296  1.00  0.00    -0.028 C 
BRANCH   5   6
ATOM      6  C   UNL     1      16.345 -26.397  27.915  1.00  0.00     0.005 C 
ATOM      7  C   UNL     1      15.032 -27.165  27.737  1.00  0.00     0.012 C 
ATOM      8  C   UNL     1      16.520 -25.333  26.825  1.00  0.00     0.012 C 
ENDBRANCH   5   6
ENDBRANCH   3   4
ENDBRANCH   2   3
ENDBRANCH   1   2
BRANCH   1   9
ATOM      9  C   UNL     1      15.657 -23.493  33.535  1.00  0.00     0.100 C 
BRANCH   9  10
ATOM     10  C   UNL     1      14.277 -23.944  33.902  1.00  0.00     0.220 C 
ATOM     11  O   UNL     1      14.130 -24.882  34.731  1.00  0.00    -0.275 OA
ATOM     12  N   UNL     1      13.134 -23.267  33.362  1.00  0.00    -0.352 N 
ATOM     13  H   UNL     1      13.281 -22.536  32.630  1.00  0.00     0.163 HD
BRANCH  12  14
ATOM     14  C   UNL     1      11.808 -23.375  33.964  1.00  0.00     0.151 C 
BRANCH  14  15
ATOM     15  C   UNL     1      10.857 -24.002  32.982  1.00  0.00    -0.025 A 
ATOM     16  C   UNL     1      10.570 -23.363  31.764  1.00  0.00     0.056 A 
ATOM     17  C   UNL     1      10.314 -25.266  33.242  1.00  0.00     0.009 A 
ATOM     18  C   UNL     1       9.726 -23.975  30.816  1.00  0.00     0.160 A 
ATOM     19  C   UNL     1       9.472 -25.876  32.310  1.00  0.00     0.050 A 
ATOM     20  C   UNL     1       9.174 -25.237  31.101  1.00  0.00     0.157 A 
BRANCH  18  21
ATOM     21  O   UNL     1       9.422 -23.365  29.589  1.00  0.00    -0.493 OA
ATOM     22  C   UNL     1       9.381 -21.958  29.375  1.00  0.00     0.278 C 
ENDBRANCH  18  21
BRANCH  20  23
ATOM     23  O   UNL     1       8.331 -25.877  30.193  1.00  0.00    -0.504 OA
ATOM     24  H   UNL     1       8.467 -26.843  29.917  1.00  0.00     0.293 HD
ENDBRANCH  20  23
ENDBRANCH  14  15
ENDBRANCH  12  14
ENDBRANCH   9  10
ENDBRANCH   1   9
TORSDOF 10
ENDMDL
MODEL 6
REMARK VINA RESULT:    -5.386      1.164      2.085
REMARK INTER + INTRA:          -9.919
REMARK INTER:                  -8.805
REMARK INTRA:                  -1.114
REMARK UNBOUND:                -1.541
REMARK SMILES COc1cc(CNC(=O)CCCCC=CC(C)C)ccc1O
REMARK SMILES IDX 11 1 12 2 13 3 14 4 15 5 16 6 17 7 18 8 10 9 8 10 9 11 7 12
REMARK SMILES IDX 6 14 5 15 4 16 19 17 3 18 20 19 21 20 2 21 1 22 22 23
REMARK H PARENT 7 13 22 24
REMARK Flexibility Score: inf
ROOT
ATOM      1  C   UNL     1       9.180 -28.403  26.151  1.00  0.00     0.010 C 
ENDROOT
BRANCH   1   2
ATOM      2  C   UNL     1       8.016 -29.060  26.908  1.00  0.00     0.005 C 
BRANCH   2   3
ATOM      3  C   UNL     1       8.484 -30.199  27.827  1.00  0.00     0.027 C 
BRANCH   3   4
ATOM      4  C   UNL     1       8.066 -29.951  29.249  1.00  0.00    -0.031 C 
ATOM      5  C   UNL     1       8.970 -29.745  30.222  1.00  0.00    -0.028 C 
BRANCH   5   6
ATOM      6  C   UNL     1       8.581 -29.486  31.660  1.00  0.00     0.005 C 
ATOM      7  C   UNL     1       7.344 -30.296  32.060  1.00  0.00     0.012 C 
ATOM      8  C   UNL     1       9.754 -29.756  32.610  1.00  0.00     0.012 C 
ENDBRANCH   5   6
ENDBRANCH   3   4
ENDBRANCH   2   3
ENDBRANCH   1   2
BRANCH   1   9
ATOM      9  C   UNL     1      10.210 -27.767  27.094  1.00  0.00     0.100 C 
BRANCH   9  10
ATOM     10  C   UNL     1       9.652 -26.510  27.685  1.00  0.00     0.220 C 
ATOM     11  O   UNL     1       9.273 -25.580  26.924  1.00  0.00    -0.275 OA
ATOM     12  N   UNL     1       9.494 -26.394  29.106  1.00  0.00    -0.352 N 
ATOM     13  H   UNL     1       9.874 -27.151  29.718  1.00  0.00     0.163 HD
BRANCH  12  14
ATOM     14  C   UNL     1       8.612 -25.402  29.713  1.00  0.00     0.151 C 
BRANCH  14  15
ATOM     15  C   UNL     1       9.383 -24.589  30.718  1.00  0.00    -0.025 A 
ATOM     16  C   UNL     1       9.590 -25.077  32.018  1.00  0.00     0.056 A 
ATOM     17  C   UNL     1       9.968 -23.375  30.336  1.00  0.00     0.009 A 
ATOM     18  C   UNL     1      10.361 -24.346  32.943  1.00  0.00     0.160 A 
ATOM     19  C   UNL     1      10.728 -22.642  31.249  1.00  0.00     0.050 A 
ATOM     20  C   UNL     1      10.926 -23.120  32.549  1.00  0.00     0.157 A 
BRANCH  18  21
ATOM     21  O   UNL     1      10.590 -24.808  34.249  1.00  0.00    -0.493 OA
ATOM     22  C   UNL     1      11.723 -25.572  34.649  1.00  0.00     0.278 C 
ENDBRANCH  18  21
BRANCH  20  23
ATOM     23  O   UNL     1      11.693 -22.361  33.433  1.00  0.00    -0.504 OA
ATOM     24  H   UNL     1      11.355 -22.097  34.352  1.00  0.00     0.293 HD
ENDBRANCH  20  23
ENDBRANCH  14  15
ENDBRANCH  12  14
ENDBRANCH   9  10
ENDBRANCH   1   9
TORSDOF 10
ENDMDL
MODEL 7
REMARK VINA RESULT:    -5.379      1.961      4.030
REMARK INTER + INTRA:          -9.907
REMARK INTER:                  -8.869
REMARK INTRA:                  -1.038
REMARK UNBOUND:                -1.541
REMARK SMILES COc1cc(CNC(=O)CCCCC=CC(C)C)ccc1O
REMARK SMILES IDX 11 1 12 2 13 3 14 4 15 5 16 6 17 7 18 8 10 9 8 10 9 11 7 12
REMARK SMILES IDX 6 14 5 15 4 16 19 17 3 18 20 19 21 20 2 21 1 22 22 23
REMARK H PARENT 7 13 22 24
REMARK Flexibility Score: inf
ROOT
ATOM      1  C   UNL     1       8.750 -27.912  31.903  1.00  0.00     0.010 C 
ENDROOT
BRANCH   1   2
ATOM      2  C   UNL     1       9.503 -29.213  32.220  1.00  0.00     0.005 C 
BRANCH   2   3
ATOM      3  C   UNL     1      10.604 -29.518  31.192  1.00  0.00     0.027 C 
BRANCH   3   4
ATOM      4  C   UNL     1      10.138 -29.208  29.797  1.00  0.00    -0.031 C 
ATOM      5  C   UNL     1      10.819 -28.369  28.999  1.00  0.00    -0.028 C 
BRANCH   5   6
ATOM      6  C   UNL     1      10.381 -28.043  27.588  1.00  0.00     0.005 C 
ATOM      7  C   UNL     1       9.631 -29.217  26.951  1.00  0.00     0.012 C 
ATOM      8  C   UNL     1       9.543 -26.760  27.549  1.00  0.00     0.012 C 
ENDBRANCH   5   6
ENDBRANCH   3   4
ENDBRANCH   2   3
ENDBRANCH   1   2
BRANCH   1   9
ATOM      9  C   UNL     1       9.580 -26.661  32.219  1.00  0.00     0.100 C 
BRANCH   9  10
ATOM     10  C   UNL     1       9.278 -25.583  31.224  1.00  0.00     0.220 C 
ATOM     11  O   UNL     1       8.156 -25.563  30.651  1.00  0.00    -0.275 OA
ATOM     12  N   UNL     1      10.237 -24.546  30.976  1.00  0.00    -0.352 N 
ATOM     13  H   UNL     1      11.183 -24.620  31.415  1.00  0.00     0.163 HD
BRANCH  12  14
ATOM     14  C   UNL     1       9.871 -23.279  30.350  1.00  0.00     0.151 C 
BRANCH  14  15
ATOM     15  C   UNL     1       9.230 -22.379  31.370  1.00  0.00    -0.025 A 
ATOM     16  C   UNL     1       9.890 -22.085  32.574  1.00  0.00     0.056 A 
ATOM     17  C   UNL     1       8.003 -21.763  31.088  1.00  0.00     0.009 A 
ATOM     18  C   UNL     1       9.319 -21.195  33.505  1.00  0.00     0.160 A 
ATOM     19  C   UNL     1       7.429 -20.886  32.009  1.00  0.00     0.050 A 
ATOM     20  C   UNL     1       8.078 -20.600  33.215  1.00  0.00     0.157 A 
BRANCH  18  21
ATOM     21  O   UNL     1       9.955 -20.878  34.716  1.00  0.00    -0.493 OA
ATOM     22  C   UNL     1      11.143 -21.504  35.193  1.00  0.00     0.278 C 
ENDBRANCH  18  21
BRANCH  20  23
ATOM     23  O   UNL     1       7.475 -19.716  34.110  1.00  0.00    -0.504 OA
ATOM     24  H   UNL     1       7.278 -18.752  33.868  1.00  0.00     0.293 HD
ENDBRANCH  20  23
ENDBRANCH  14  15
ENDBRANCH  12  14
ENDBRANCH   9  10
ENDBRANCH   1   9
TORSDOF 10
ENDMDL
MODEL 8
REMARK VINA RESULT:    -5.326      5.106      8.395
REMARK INTER + INTRA:          -9.825
REMARK INTER:                  -8.715
REMARK INTRA:                  -1.110
REMARK UNBOUND:                -1.541
REMARK SMILES COc1cc(CNC(=O)CCCCC=CC(C)C)ccc1O
REMARK SMILES IDX 11 1 12 2 13 3 14 4 15 5 16 6 17 7 18 8 10 9 8 10 9 11 7 12
REMARK SMILES IDX 6 14 5 15 4 16 19 17 3 18 20 19 21 20 2 21 1 22 22 23
REMARK H PARENT 7 13 22 24
REMARK Flexibility Score: inf
ROOT
ATOM      1  C   UNL     1      11.466 -23.436  31.763  1.00  0.00     0.010 C 
ENDROOT
BRANCH   1   2
ATOM      2  C   UNL     1      10.714 -22.112  31.556  1.00  0.00     0.005 C 
BRANCH   2   3
ATOM      3  C   UNL     1       9.370 -22.081  32.299  1.00  0.00     0.027 C 
BRANCH   3   4
ATOM      4  C   UNL     1       9.354 -20.993  33.337  1.00  0.00    -0.031 C 
ATOM      5  C   UNL     1      10.489 -20.520  33.877  1.00  0.00    -0.028 C 
BRANCH   5   6
ATOM      6  C   UNL     1      10.507 -19.422  34.917  1.00  0.00     0.005 C 
ATOM      7  C   UNL     1      11.496 -18.313  34.543  1.00  0.00     0.012 C 
ATOM      8  C   UNL     1       9.101 -18.857  35.152  1.00  0.00     0.012 C 
ENDBRANCH   5   6
ENDBRANCH   3   4
ENDBRANCH   2   3
ENDBRANCH   1   2
BRANCH   1   9
ATOM      9  C   UNL     1      10.942 -24.227  32.969  1.00  0.00     0.100 C 
BRANCH   9  10
ATOM     10  C   UNL     1      11.828 -23.998  34.154  1.00  0.00     0.220 C 
ATOM     11  O   UNL     1      11.524 -24.508  35.265  1.00  0.00    -0.275 OA
ATOM     12  N   UNL     1      13.047 -23.256  34.006  1.00  0.00    -0.352 N 
ATOM     13  H   UNL     1      13.244 -22.790  33.091  1.00  0.00     0.163 HD
BRANCH  12  14
ATOM     14  C   UNL     1      14.130 -23.333  34.982  1.00  0.00     0.151 C 
BRANCH  14  15
ATOM     15  C   UNL     1      15.347 -23.939  34.339  1.00  0.00    -0.025 A 
ATOM     16  C   UNL     1      15.379 -24.169  32.954  1.00  0.00     0.056 A 
ATOM     17  C   UNL     1      16.487 -24.205  35.108  1.00  0.00     0.009 A 
ATOM     18  C   UNL     1      16.539 -24.682  32.340  1.00  0.00     0.160 A 
ATOM     19  C   UNL     1      17.637 -24.719  34.508  1.00  0.00     0.050 A 
ATOM     20  C   UNL     1      17.669 -24.960  33.130  1.00  0.00     0.157 A 
BRANCH  18  21
ATOM     21  O   UNL     1      16.605 -24.920  30.958  1.00  0.00    -0.493 OA
ATOM     22  C   UNL     1      16.633 -23.900  29.963  1.00  0.00     0.278 C 
ENDBRANCH  18  21
BRANCH  20  23
ATOM     23  O   UNL     1      18.836 -25.473  32.564  1.00  0.00    -0.504 OA
ATOM     24  H   UNL     1      19.734 -25.414  33.031  1.00  0.00     0.293 HD
ENDBRANCH  20  23
ENDBRANCH  14  15
ENDBRANCH  12  14
ENDBRANCH   9  10
ENDBRANCH   1   9
TORSDOF 10
ENDMDL
MODEL 9
REMARK VINA RESULT:    -5.196      3.663      5.780
REMARK INTER + INTRA:          -9.623
REMARK INTER:                  -8.689
REMARK INTRA:                  -0.934
REMARK UNBOUND:                -1.541
REMARK SMILES COc1cc(CNC(=O)CCCCC=CC(C)C)ccc1O
REMARK SMILES IDX 11 1 12 2 13 3 14 4 15 5 16 6 17 7 18 8 10 9 8 10 9 11 7 12
REMARK SMILES IDX 6 14 5 15 4 16 19 17 3 18 20 19 21 20 2 21 1 22 22 23
REMARK H PARENT 7 13 22 24
REMARK Flexibility Score: inf
ROOT
ATOM      1  C   UNL     1       9.853 -22.673  30.959  1.00  0.00     0.010 C 
ENDROOT
BRANCH   1   2
ATOM      2  C   UNL     1       9.431 -23.792  29.995  1.00  0.00     0.005 C 
BRANCH   2   3
ATOM      3  C   UNL     1       8.697 -24.936  30.712  1.00  0.00     0.027 C 
BRANCH   3   4
ATOM      4  C   UNL     1       9.384 -26.251  30.471  1.00  0.00    -0.031 C 
ATOM      5  C   UNL     1       9.252 -27.279  31.326  1.00  0.00    -0.028 C 
BRANCH   5   6
ATOM      6  C   UNL     1       9.923 -28.617  31.108  1.00  0.00     0.005 C 
ATOM      7  C   UNL     1       9.642 -29.579  32.267  1.00  0.00     0.012 C 
ATOM      8  C   UNL     1       9.515 -29.232  29.764  1.00  0.00     0.012 C 
ENDBRANCH   5   6
ENDBRANCH   3   4
ENDBRANCH   2   3
ENDBRANCH   1   2
BRANCH   1   9
ATOM      9  C   UNL     1      11.268 -22.880  31.515  1.00  0.00     0.100 C 
BRANCH   9  10
ATOM     10  C   UNL     1      11.203 -23.171  32.982  1.00  0.00     0.220 C 
ATOM     11  O   UNL     1      10.423 -24.067  33.404  1.00  0.00    -0.275 OA
ATOM     12  N   UNL     1      12.069 -22.477  33.890  1.00  0.00    -0.352 N 
ATOM     13  H   UNL     1      12.659 -21.695  33.525  1.00  0.00     0.163 HD
BRANCH  12  14
ATOM     14  C   UNL     1      12.347 -22.973  35.235  1.00  0.00     0.151 C 
BRANCH  14  15
ATOM     15  C   UNL     1      13.510 -23.927  35.190  1.00  0.00    -0.025 A 
ATOM     16  C   UNL     1      13.419 -25.187  35.804  1.00  0.00     0.056 A 
ATOM     17  C   UNL     1      14.662 -23.594  34.466  1.00  0.00     0.009 A 
ATOM     18  C   UNL     1      14.484 -26.105  35.714  1.00  0.00     0.160 A 
ATOM     19  C   UNL     1      15.723 -24.496  34.378  1.00  0.00     0.050 A 
ATOM     20  C   UNL     1      15.641 -25.748  34.998  1.00  0.00     0.157 A 
BRANCH  18  21
ATOM     21  O   UNL     1      14.424 -27.374  36.313  1.00  0.00    -0.493 OA
ATOM     22  C   UNL     1      13.223 -28.107  36.532  1.00  0.00     0.278 C 
ENDBRANCH  18  21
BRANCH  20  23
ATOM     23  O   UNL     1      16.720 -26.625  34.887  1.00  0.00    -0.504 OA
ATOM     24  H   UNL     1      16.948 -27.095  34.018  1.00  0.00     0.293 HD
ENDBRANCH  20  23
ENDBRANCH  14  15
ENDBRANCH  12  14
ENDBRANCH   9  10
ENDBRANCH   1   9
TORSDOF 10
ENDMDL
