MODEL 1
REMARK VINA RESULT:    -5.516      0.000      0.000
REMARK INTER + INTRA:          -6.890
REMARK INTER:                  -6.645
REMARK INTRA:                  -0.245
REMARK UNBOUND:                -0.245
REMARK SMILES NC(=O)C[C@H]([NH3+])C(=O)[O-]
REMARK SMILES IDX 4 1 5 2 6 3 7 7 8 8 9 9 2 10 3 11 1 12
REMARK H PARENT 6 4 6 5 6 6 1 13 1 14
REMARK Flexibility Score: inf
ROOT
ATOM      1  C   UNL     1      -3.201  -2.811  -3.280  1.00  0.00     0.171 C 
ENDROOT
BRANCH   1   2
ATOM      2  C   UNL     1      -3.523  -1.435  -2.661  1.00  0.00     0.237 C 
BRANCH   2   3
ATOM      3  N   UNL     1      -4.647  -0.807  -3.366  1.00  0.00    -0.350 N 
ATOM      4  H   UNL     1      -5.551  -1.171  -2.988  1.00  0.00     0.345 HD
ATOM      5  H   UNL     1      -4.620   0.233  -3.252  1.00  0.00     0.345 HD
ATOM      6  H   UNL     1      -4.601  -1.040  -4.385  1.00  0.00     0.345 HD
ENDBRANCH   2   3
BRANCH   2   7
ATOM      7  C   UNL     1      -2.318  -0.531  -2.701  1.00  0.00     0.100 C 
ATOM      8  O   UNL     1      -1.665  -0.301  -1.650  1.00  0.00    -0.544 OA
ATOM      9  O   UNL     1      -1.911   0.044  -3.901  1.00  0.00    -0.544 OA
ENDBRANCH   2   7
ENDBRANCH   1   2
BRANCH   1  10
ATOM     10  C   UNL     1      -4.061  -3.894  -2.696  1.00  0.00     0.223 C 
ATOM     11  O   UNL     1      -5.316  -3.812  -2.785  1.00  0.00    -0.275 OA
ATOM     12  N   UNL     1      -3.471  -4.997  -2.007  1.00  0.00    -0.369 N 
ATOM     13  H   UNL     1      -2.435  -5.071  -1.908  1.00  0.00     0.159 HD
ATOM     14  H   UNL     1      -4.074  -5.740  -1.591  1.00  0.00     0.159 HD
ENDBRANCH   1  10
TORSDOF 4
ENDMDL
MODEL 2
REMARK VINA RESULT:    -5.490      1.686      3.932
REMARK INTER + INTRA:          -6.858
REMARK INTER:                  -6.581
REMARK INTRA:                  -0.278
REMARK UNBOUND:                -0.245
REMARK SMILES NC(=O)C[C@H]([NH3+])C(=O)[O-]
REMARK SMILES IDX 4 1 5 2 6 3 7 7 8 8 9 9 2 10 3 11 1 12
REMARK H PARENT 6 4 6 5 6 6 1 13 1 14
REMARK Flexibility Score: inf
ROOT
ATOM      1  C   UNL     1      -2.249  -2.015  -3.505  1.00  0.00     0.171 C 
ENDROOT
BRANCH   1   2
ATOM      2  C   UNL     1      -3.780  -2.190  -3.585  1.00  0.00     0.237 C 
BRANCH   2   3
ATOM      3  N   UNL     1      -4.460  -1.028  -3.000  1.00  0.00    -0.350 N 
ATOM      4  H   UNL     1      -5.161  -1.347  -2.292  1.00  0.00     0.345 HD
ATOM      5  H   UNL     1      -3.771  -0.390  -2.539  1.00  0.00     0.345 HD
ATOM      6  H   UNL     1      -4.967  -0.500  -3.748  1.00  0.00     0.345 HD
ENDBRANCH   2   3
BRANCH   2   7
ATOM      7  C   UNL     1      -4.215  -3.450  -2.884  1.00  0.00     0.100 C 
ATOM      8  O   UNL     1      -3.376  -4.143  -2.250  1.00  0.00    -0.544 OA
ATOM      9  O   UNL     1      -5.546  -3.850  -2.920  1.00  0.00    -0.544 OA
ENDBRANCH   2   7
ENDBRANCH   1   2
BRANCH   1  10
ATOM     10  C   UNL     1      -1.875  -0.642  -3.025  1.00  0.00     0.223 C 
ATOM     11  O   UNL     1      -1.924  -0.375  -1.794  1.00  0.00    -0.275 OA
ATOM     12  N   UNL     1      -1.500   0.375  -3.955  1.00  0.00    -0.369 N 
ATOM     13  H   UNL     1      -1.472   0.176  -4.979  1.00  0.00     0.159 HD
ATOM     14  H   UNL     1      -1.255   1.331  -3.618  1.00  0.00     0.159 HD
ENDBRANCH   1  10
TORSDOF 4
ENDMDL
MODEL 3
REMARK VINA RESULT:    -5.285      1.440      1.558
REMARK INTER + INTRA:          -6.611
REMARK INTER:                  -6.413
REMARK INTRA:                  -0.198
REMARK UNBOUND:                -0.245
REMARK SMILES NC(=O)C[C@H]([NH3+])C(=O)[O-]
REMARK SMILES IDX 4 1 5 2 6 3 7 7 8 8 9 9 2 10 3 11 1 12
REMARK H PARENT 6 4 6 5 6 6 1 13 1 14
REMARK Flexibility Score: inf
ROOT
ATOM      1  C   UNL     1      -4.239  -1.342  -3.842  1.00  0.00     0.171 C 
ENDROOT
BRANCH   1   2
ATOM      2  C   UNL     1      -3.804  -0.246  -2.847  1.00  0.00     0.237 C 
BRANCH   2   3
ATOM      3  N   UNL     1      -4.377   1.050  -3.229  1.00  0.00    -0.350 N 
ATOM      4  H   UNL     1      -4.785   1.519  -2.389  1.00  0.00     0.345 HD
ATOM      5  H   UNL     1      -3.645   1.669  -3.648  1.00  0.00     0.345 HD
ATOM      6  H   UNL     1      -5.143   0.907  -3.928  1.00  0.00     0.345 HD
ENDBRANCH   2   3
BRANCH   2   7
ATOM      7  C   UNL     1      -2.302  -0.147  -2.778  1.00  0.00     0.100 C 
ATOM      8  O   UNL     1      -1.704  -0.351  -1.689  1.00  0.00    -0.544 OA
ATOM      9  O   UNL     1      -1.566   0.158  -3.918  1.00  0.00    -0.544 OA
ENDBRANCH   2   7
ENDBRANCH   1   2
BRANCH   1  10
ATOM     10  C   UNL     1      -3.766  -2.700  -3.409  1.00  0.00     0.223 C 
ATOM     11  O   UNL     1      -3.034  -3.381  -4.177  1.00  0.00    -0.275 OA
ATOM     12  N   UNL     1      -4.170  -3.242  -2.152  1.00  0.00    -0.369 N 
ATOM     13  H   UNL     1      -4.791  -2.700  -1.512  1.00  0.00     0.159 HD
ATOM     14  H   UNL     1      -3.850  -4.192  -1.861  1.00  0.00     0.159 HD
ENDBRANCH   1  10
TORSDOF 4
ENDMDL
MODEL 4
REMARK VINA RESULT:    -5.279      1.756      4.289
REMARK INTER + INTRA:          -6.604
REMARK INTER:                  -6.514
REMARK INTRA:                  -0.089
REMARK UNBOUND:                -0.245
REMARK SMILES NC(=O)C[C@H]([NH3+])C(=O)[O-]
REMARK SMILES IDX 4 1 5 2 6 3 7 7 8 8 9 9 2 10 3 11 1 12
REMARK H PARENT 6 4 6 5 6 6 1 13 1 14
REMARK Flexibility Score: inf
ROOT
ATOM      1  C   UNL     1      -3.442  -1.222  -3.246  1.00  0.00     0.171 C 
ENDROOT
BRANCH   1   2
ATOM      2  C   UNL     1      -3.222  -2.744  -3.113  1.00  0.00     0.237 C 
BRANCH   2   3
ATOM      3  N   UNL     1      -2.337  -3.229  -4.179  1.00  0.00    -0.350 N 
ATOM      4  H   UNL     1      -2.875  -3.838  -4.836  1.00  0.00     0.345 HD
ATOM      5  H   UNL     1      -1.925  -2.427  -4.711  1.00  0.00     0.345 HD
ATOM      6  H   UNL     1      -1.563  -3.798  -3.765  1.00  0.00     0.345 HD
ENDBRANCH   2   3
BRANCH   2   7
ATOM      7  C   UNL     1      -4.534  -3.483  -3.155  1.00  0.00     0.100 C 
ATOM      8  O   UNL     1      -5.392  -3.199  -4.032  1.00  0.00    -0.544 OA
ATOM      9  O   UNL     1      -4.803  -4.490  -2.235  1.00  0.00    -0.544 OA
ENDBRANCH   2   7
ENDBRANCH   1   2
BRANCH   1  10
ATOM     10  C   UNL     1      -2.194  -0.453  -2.918  1.00  0.00     0.223 C 
ATOM     11  O   UNL     1      -1.808  -0.370  -1.721  1.00  0.00    -0.275 OA
ATOM     12  N   UNL     1      -1.462   0.216  -3.945  1.00  0.00    -0.369 N 
ATOM     13  H   UNL     1      -1.779   0.173  -4.938  1.00  0.00     0.159 HD
ATOM     14  H   UNL     1      -0.604   0.760  -3.710  1.00  0.00     0.159 HD
ENDBRANCH   1  10
TORSDOF 4
ENDMDL
MODEL 5
REMARK VINA RESULT:    -5.242      2.186      3.218
REMARK INTER + INTRA:          -6.560
REMARK INTER:                  -6.323
REMARK INTRA:                  -0.237
REMARK UNBOUND:                -0.245
REMARK SMILES NC(=O)C[C@H]([NH3+])C(=O)[O-]
REMARK SMILES IDX 4 1 5 2 6 3 7 7 8 8 9 9 2 10 3 11 1 12
REMARK H PARENT 6 4 6 5 6 6 1 13 1 14
REMARK Flexibility Score: inf
ROOT
ATOM      1  C   UNL     1      -4.359  -1.092  -4.153  1.00  0.00     0.171 C 
ENDROOT
BRANCH   1   2
ATOM      2  C   UNL     1      -3.193  -1.672  -3.325  1.00  0.00     0.237 C 
BRANCH   2   3
ATOM      3  N   UNL     1      -3.701  -2.327  -2.114  1.00  0.00    -0.350 N 
ATOM      4  H   UNL     1      -3.050  -2.148  -1.315  1.00  0.00     0.345 HD
ATOM      5  H   UNL     1      -4.653  -1.967  -1.870  1.00  0.00     0.345 HD
ATOM      6  H   UNL     1      -3.754  -3.361  -2.266  1.00  0.00     0.345 HD
ENDBRANCH   2   3
BRANCH   2   7
ATOM      7  C   UNL     1      -2.207  -0.594  -2.955  1.00  0.00     0.100 C 
ATOM      8  O   UNL     1      -1.668   0.105  -3.853  1.00  0.00    -0.544 OA
ATOM      9  O   UNL     1      -1.896  -0.355  -1.621  1.00  0.00    -0.544 OA
ENDBRANCH   2   7
ENDBRANCH   1   2
BRANCH   1  10
ATOM     10  C   UNL     1      -4.116  -1.239  -5.627  1.00  0.00     0.223 C 
ATOM     11  O   UNL     1      -4.474  -2.294  -6.217  1.00  0.00    -0.275 OA
ATOM     12  N   UNL     1      -3.451  -0.210  -6.360  1.00  0.00    -0.369 N 
ATOM     13  H   UNL     1      -3.131   0.662  -5.883  1.00  0.00     0.159 HD
ATOM     14  H   UNL     1      -3.272  -0.323  -7.381  1.00  0.00     0.159 HD
ENDBRANCH   1  10
TORSDOF 4
ENDMDL
MODEL 6
REMARK VINA RESULT:    -5.074      2.852      3.682
REMARK INTER + INTRA:          -6.358
REMARK INTER:                  -6.109
REMARK INTRA:                  -0.249
REMARK UNBOUND:                -0.245
REMARK SMILES NC(=O)C[C@H]([NH3+])C(=O)[O-]
REMARK SMILES IDX 4 1 5 2 6 3 7 7 8 8 9 9 2 10 3 11 1 12
REMARK H PARENT 6 4 6 5 6 6 1 13 1 14
REMARK Flexibility Score: inf
ROOT
ATOM      1  C   UNL     1      -3.830  -1.335  -4.766  1.00  0.00     0.171 C 
ENDROOT
BRANCH   1   2
ATOM      2  C   UNL     1      -3.051  -0.364  -3.855  1.00  0.00     0.237 C 
BRANCH   2   3
ATOM      3  N   UNL     1      -1.808   0.064  -4.508  1.00  0.00    -0.350 N 
ATOM      4  H   UNL     1      -2.001   0.327  -5.501  1.00  0.00     0.345 HD
ATOM      5  H   UNL     1      -1.392   0.885  -4.010  1.00  0.00     0.345 HD
ATOM      6  H   UNL     1      -1.117  -0.722  -4.506  1.00  0.00     0.345 HD
ENDBRANCH   2   3
BRANCH   2   7
ATOM      7  C   UNL     1      -2.742  -1.004  -2.526  1.00  0.00     0.100 C 
ATOM      8  O   UNL     1      -3.211  -2.138  -2.246  1.00  0.00    -0.544 OA
ATOM      9  O   UNL     1      -1.928  -0.353  -1.605  1.00  0.00    -0.544 OA
ENDBRANCH   2   7
ENDBRANCH   1   2
BRANCH   1  10
ATOM     10  C   UNL     1      -4.055  -0.751  -6.131  1.00  0.00     0.223 C 
ATOM     11  O   UNL     1      -4.551   0.402  -6.243  1.00  0.00    -0.275 OA
ATOM     12  N   UNL     1      -3.747  -1.506  -7.303  1.00  0.00    -0.369 N 
ATOM     13  H   UNL     1      -3.354  -2.470  -7.228  1.00  0.00     0.159 HD
ATOM     14  H   UNL     1      -3.918  -1.101  -8.249  1.00  0.00     0.159 HD
ENDBRANCH   1  10
TORSDOF 4
ENDMDL
MODEL 7
REMARK VINA RESULT:    -5.044      1.899      3.963
REMARK INTER + INTRA:          -6.321
REMARK INTER:                  -6.060
REMARK INTRA:                  -0.261
REMARK UNBOUND:                -0.245
REMARK SMILES NC(=O)C[C@H]([NH3+])C(=O)[O-]
REMARK SMILES IDX 4 1 5 2 6 3 7 7 8 8 9 9 2 10 3 11 1 12
REMARK H PARENT 6 4 6 5 6 6 1 13 1 14
REMARK Flexibility Score: inf
ROOT
ATOM      1  C   UNL     1      -2.429  -2.210  -3.325  1.00  0.00     0.171 C 
ENDROOT
BRANCH   1   2
ATOM      2  C   UNL     1      -3.930  -2.313  -2.983  1.00  0.00     0.237 C 
BRANCH   2   3
ATOM      3  N   UNL     1      -4.175  -3.451  -2.088  1.00  0.00    -0.350 N 
ATOM      4  H   UNL     1      -3.451  -3.470  -1.333  1.00  0.00     0.345 HD
ATOM      5  H   UNL     1      -5.124  -3.384  -1.654  1.00  0.00     0.345 HD
ATOM      6  H   UNL     1      -4.108  -4.346  -2.627  1.00  0.00     0.345 HD
ENDBRANCH   2   3
BRANCH   2   7
ATOM      7  C   UNL     1      -4.759  -2.452  -4.234  1.00  0.00     0.100 C 
ATOM      8  O   UNL     1      -5.561  -3.415  -4.357  1.00  0.00    -0.544 OA
ATOM      9  O   UNL     1      -4.654  -1.513  -5.253  1.00  0.00    -0.544 OA
ENDBRANCH   2   7
ENDBRANCH   1   2
BRANCH   1  10
ATOM     10  C   UNL     1      -1.933  -0.797  -3.213  1.00  0.00     0.223 C 
ATOM     11  O   UNL     1      -1.549  -0.356  -2.096  1.00  0.00    -0.275 OA
ATOM     12  N   UNL     1      -1.929   0.063  -4.352  1.00  0.00    -0.369 N 
ATOM     13  H   UNL     1      -2.262  -0.280  -5.280  1.00  0.00     0.159 HD
ATOM     14  H   UNL     1      -1.597   1.049  -4.266  1.00  0.00     0.159 HD
ENDBRANCH   1  10
TORSDOF 4
ENDMDL
MODEL 8
REMARK VINA RESULT:    -5.015      1.526      1.821
REMARK INTER + INTRA:          -6.286
REMARK INTER:                  -6.054
REMARK INTRA:                  -0.232
REMARK UNBOUND:                -0.245
REMARK SMILES NC(=O)C[C@H]([NH3+])C(=O)[O-]
REMARK SMILES IDX 4 1 5 2 6 3 7 7 8 8 9 9 2 10 3 11 1 12
REMARK H PARENT 6 4 6 5 6 6 1 13 1 14
REMARK Flexibility Score: inf
ROOT
ATOM      1  C   UNL     1      -2.677  -2.941  -3.942  1.00  0.00     0.171 C 
ENDROOT
BRANCH   1   2
ATOM      2  C   UNL     1      -3.268  -1.520  -4.047  1.00  0.00     0.237 C 
BRANCH   2   3
ATOM      3  N   UNL     1      -3.393  -1.120  -5.453  1.00  0.00    -0.350 N 
ATOM      4  H   UNL     1      -2.505  -0.670  -5.775  1.00  0.00     0.345 HD
ATOM      5  H   UNL     1      -3.598  -1.949  -6.057  1.00  0.00     0.345 HD
ATOM      6  H   UNL     1      -4.168  -0.423  -5.556  1.00  0.00     0.345 HD
ENDBRANCH   2   3
BRANCH   2   7
ATOM      7  C   UNL     1      -2.415  -0.526  -3.301  1.00  0.00     0.100 C 
ATOM      8  O   UNL     1      -1.575   0.177  -3.922  1.00  0.00    -0.544 OA
ATOM      9  O   UNL     1      -2.558  -0.370  -1.927  1.00  0.00    -0.544 OA
ENDBRANCH   2   7
ENDBRANCH   1   2
BRANCH   1  10
ATOM     10  C   UNL     1      -3.364  -3.748  -2.878  1.00  0.00     0.223 C 
ATOM     11  O   UNL     1      -3.135  -4.984  -2.786  1.00  0.00    -0.275 OA
ATOM     12  N   UNL     1      -4.303  -3.134  -1.995  1.00  0.00    -0.369 N 
ATOM     13  H   UNL     1      -4.518  -2.116  -2.070  1.00  0.00     0.159 HD
ATOM     14  H   UNL     1      -4.788  -3.702  -1.266  1.00  0.00     0.159 HD
ENDBRANCH   1  10
TORSDOF 4
ENDMDL
MODEL 9
REMARK VINA RESULT:    -4.802      2.218      2.462
REMARK INTER + INTRA:          -6.030
REMARK INTER:                  -5.674
REMARK INTRA:                  -0.356
REMARK UNBOUND:                -0.245
REMARK SMILES NC(=O)C[C@H]([NH3+])C(=O)[O-]
REMARK SMILES IDX 4 1 5 2 6 3 7 7 8 8 9 9 2 10 3 11 1 12
REMARK H PARENT 6 4 6 5 6 6 1 13 1 14
REMARK Flexibility Score: inf
ROOT
ATOM      1  C   UNL     1      -4.222  -2.151  -4.211  1.00  0.00     0.171 C 
ENDROOT
BRANCH   1   2
ATOM      2  C   UNL     1      -3.774  -0.677  -4.301  1.00  0.00     0.237 C 
BRANCH   2   3
ATOM      3  N   UNL     1      -3.311  -0.364  -5.658  1.00  0.00    -0.350 N 
ATOM      4  H   UNL     1      -2.560  -1.034  -5.939  1.00  0.00     0.345 HD
ATOM      5  H   UNL     1      -4.101  -0.425  -6.342  1.00  0.00     0.345 HD
ATOM      6  H   UNL     1      -2.913   0.603  -5.682  1.00  0.00     0.345 HD
ENDBRANCH   2   3
BRANCH   2   7
ATOM      7  C   UNL     1      -2.684  -0.384  -3.303  1.00  0.00     0.100 C 
ATOM      8  O   UNL     1      -1.592   0.113  -3.686  1.00  0.00    -0.544 OA
ATOM      9  O   UNL     1      -2.879  -0.649  -1.951  1.00  0.00    -0.544 OA
ENDBRANCH   2   7
ENDBRANCH   1   2
BRANCH   1  10
ATOM     10  C   UNL     1      -3.365  -3.041  -5.064  1.00  0.00     0.223 C 
ATOM     11  O   UNL     1      -3.717  -3.302  -6.246  1.00  0.00    -0.275 OA
ATOM     12  N   UNL     1      -2.174  -3.625  -4.535  1.00  0.00    -0.369 N 
ATOM     13  H   UNL     1      -1.878  -3.434  -3.553  1.00  0.00     0.159 HD
ATOM     14  H   UNL     1      -1.589  -4.254  -5.127  1.00  0.00     0.159 HD
ENDBRANCH   1  10
TORSDOF 4
ENDMDL
