MODEL 1
REMARK VINA RESULT:    -3.648      0.000      0.000
REMARK INTER + INTRA:          -5.323
REMARK INTER:                  -4.927
REMARK INTRA:                  -0.396
REMARK UNBOUND:                -0.396
REMARK SMILES [NH3+]CCCC[C@@H]([NH3+])C(=O)[O-]
REMARK SMILES IDX 4 1 3 2 2 3 1 4 5 8 6 9 7 10 8 14 9 15 10 16
REMARK H PARENT 1 5 1 6 1 7 7 11 7 12 7 13
REMARK Flexibility Score: inf
ROOT
ATOM      1  C   UNL     1      24.254  -2.661  17.000  1.00  0.00     0.012 C 
ENDROOT
BRANCH   1   2
ATOM      2  C   UNL     1      24.373  -1.921  18.339  1.00  0.00     0.061 C 
BRANCH   2   3
ATOM      3  C   UNL     1      23.004  -1.636  18.981  1.00  0.00     0.258 C 
BRANCH   3   4
ATOM      4  N   UNL     1      22.276  -2.866  19.297  1.00  0.00    -0.358 N 
ATOM      5  H   UNL     1      21.400  -2.898  18.727  1.00  0.00     0.344 HD
ATOM      6  H   UNL     1      22.018  -2.888  20.311  1.00  0.00     0.344 HD
ATOM      7  H   UNL     1      22.853  -3.704  19.058  1.00  0.00     0.344 HD
ENDBRANCH   3   4
ENDBRANCH   2   3
ENDBRANCH   1   2
BRANCH   1   8
ATOM      8  C   UNL     1      25.357  -3.723  16.859  1.00  0.00     0.072 C 
BRANCH   8   9
ATOM      9  C   UNL     1      24.785  -5.155  16.788  1.00  0.00     0.227 C 
BRANCH   9  10
ATOM     10  N   UNL     1      25.453  -5.921  15.729  1.00  0.00    -0.350 N 
ATOM     11  H   UNL     1      25.081  -5.634  14.795  1.00  0.00     0.345 HD
ATOM     12  H   UNL     1      25.298  -6.947  15.860  1.00  0.00     0.345 HD
ATOM     13  H   UNL     1      26.481  -5.726  15.745  1.00  0.00     0.345 HD
ENDBRANCH   9  10
BRANCH   9  14
ATOM     14  C   UNL     1      24.938  -5.864  18.109  1.00  0.00     0.099 C 
ATOM     15  O   UNL     1      25.781  -6.791  18.236  1.00  0.00    -0.544 OA
ATOM     16  O   UNL     1      24.148  -5.505  19.195  1.00  0.00    -0.544 OA
ENDBRANCH   9  14
ENDBRANCH   8   9
ENDBRANCH   1   8
TORSDOF 7
ENDMDL
MODEL 2
REMARK VINA RESULT:    -3.631      1.011      1.282
REMARK INTER + INTRA:          -5.301
REMARK INTER:                  -4.870
REMARK INTRA:                  -0.431
REMARK UNBOUND:                -0.396
REMARK SMILES [NH3+]CCCC[C@@H]([NH3+])C(=O)[O-]
REMARK SMILES IDX 4 1 3 2 2 3 1 4 5 8 6 9 7 10 8 14 9 15 10 16
REMARK H PARENT 1 5 1 6 1 7 7 11 7 12 7 13
REMARK Flexibility Score: inf
ROOT
ATOM      1  C   UNL     1      24.875  -2.858  17.200  1.00  0.00     0.012 C 
ENDROOT
BRANCH   1   2
ATOM      2  C   UNL     1      24.644  -2.072  18.497  1.00  0.00     0.061 C 
BRANCH   2   3
ATOM      3  C   UNL     1      23.174  -1.660  18.686  1.00  0.00     0.258 C 
BRANCH   3   4
ATOM      4  N   UNL     1      22.371  -2.731  19.277  1.00  0.00    -0.358 N 
ATOM      5  H   UNL     1      21.371  -2.595  19.007  1.00  0.00     0.344 HD
ATOM      6  H   UNL     1      22.443  -2.708  20.322  1.00  0.00     0.344 HD
ATOM      7  H   UNL     1      22.684  -3.661  18.919  1.00  0.00     0.344 HD
ENDBRANCH   3   4
ENDBRANCH   2   3
ENDBRANCH   1   2
BRANCH   1   8
ATOM      8  C   UNL     1      25.554  -4.207  17.487  1.00  0.00     0.072 C 
BRANCH   8   9
ATOM      9  C   UNL     1      24.766  -5.397  16.898  1.00  0.00     0.227 C 
BRANCH   9  10
ATOM     10  N   UNL     1      25.685  -6.452  16.456  1.00  0.00    -0.350 N 
ATOM     11  H   UNL     1      25.360  -6.846  15.543  1.00  0.00     0.345 HD
ATOM     12  H   UNL     1      25.736  -7.220  17.164  1.00  0.00     0.345 HD
ATOM     13  H   UNL     1      26.641  -6.052  16.316  1.00  0.00     0.345 HD
ENDBRANCH   9  10
BRANCH   9  14
ATOM     14  C   UNL     1      23.793  -5.953  17.906  1.00  0.00     0.099 C 
ATOM     15  O   UNL     1      23.780  -5.509  19.084  1.00  0.00    -0.544 OA
ATOM     16  O   UNL     1      22.907  -6.962  17.545  1.00  0.00    -0.544 OA
ENDBRANCH   9  14
ENDBRANCH   8   9
ENDBRANCH   1   8
TORSDOF 7
ENDMDL
MODEL 3
REMARK VINA RESULT:    -3.533      1.899      3.813
REMARK INTER + INTRA:          -5.168
REMARK INTER:                  -4.841
REMARK INTRA:                  -0.327
REMARK UNBOUND:                -0.396
REMARK SMILES [NH3+]CCCC[C@@H]([NH3+])C(=O)[O-]
REMARK SMILES IDX 4 1 3 2 2 3 1 4 5 8 6 9 7 10 8 14 9 15 10 16
REMARK H PARENT 1 5 1 6 1 7 7 11 7 12 7 13
REMARK Flexibility Score: inf
ROOT
ATOM      1  C   UNL     1      25.264  -3.725  17.262  1.00  0.00     0.012 C 
ENDROOT
BRANCH   1   2
ATOM      2  C   UNL     1      25.826  -5.032  17.839  1.00  0.00     0.061 C 
BRANCH   2   3
ATOM      3  C   UNL     1      25.431  -6.264  17.007  1.00  0.00     0.258 C 
BRANCH   3   4
ATOM      4  N   UNL     1      25.365  -5.965  15.575  1.00  0.00    -0.358 N 
ATOM      5  H   UNL     1      25.075  -6.828  15.062  1.00  0.00     0.344 HD
ATOM      6  H   UNL     1      26.302  -5.662  15.221  1.00  0.00     0.344 HD
ATOM      7  H   UNL     1      24.656  -5.220  15.391  1.00  0.00     0.344 HD
ENDBRANCH   3   4
ENDBRANCH   2   3
ENDBRANCH   1   2
BRANCH   1   8
ATOM      8  C   UNL     1      24.348  -3.024  18.279  1.00  0.00     0.072 C 
BRANCH   8   9
ATOM      9  C   UNL     1      22.853  -3.288  17.999  1.00  0.00     0.227 C 
BRANCH   9  10
ATOM     10  N   UNL     1      22.664  -3.758  16.622  1.00  0.00    -0.350 N 
ATOM     11  H   UNL     1      22.838  -4.788  16.571  1.00  0.00     0.345 HD
ATOM     12  H   UNL     1      23.318  -3.267  15.970  1.00  0.00     0.345 HD
ATOM     13  H   UNL     1      21.679  -3.579  16.318  1.00  0.00     0.345 HD
ENDBRANCH   9  10
BRANCH   9  14
ATOM     14  C   UNL     1      22.292  -4.298  18.967  1.00  0.00     0.099 C 
ATOM     15  O   UNL     1      21.697  -3.914  20.008  1.00  0.00    -0.544 OA
ATOM     16  O   UNL     1      22.431  -5.659  18.722  1.00  0.00    -0.544 OA
ENDBRANCH   9  14
ENDBRANCH   8   9
ENDBRANCH   1   8
TORSDOF 7
ENDMDL
MODEL 4
REMARK VINA RESULT:    -3.509      3.014      5.099
REMARK INTER + INTRA:          -5.136
REMARK INTER:                  -5.007
REMARK INTRA:                  -0.128
REMARK UNBOUND:                -0.396
REMARK SMILES [NH3+]CCCC[C@@H]([NH3+])C(=O)[O-]
REMARK SMILES IDX 4 1 3 2 2 3 1 4 5 8 6 9 7 10 8 14 9 15 10 16
REMARK H PARENT 1 5 1 6 1 7 7 11 7 12 7 13
REMARK Flexibility Score: inf
ROOT
ATOM      1  C   UNL     1      24.782  -3.124  17.269  1.00  0.00     0.012 C 
ENDROOT
BRANCH   1   2
ATOM      2  C   UNL     1      25.783  -4.265  17.495  1.00  0.00     0.061 C 
BRANCH   2   3
ATOM      3  C   UNL     1      25.233  -5.631  17.051  1.00  0.00     0.258 C 
BRANCH   3   4
ATOM      4  N   UNL     1      25.412  -5.859  15.616  1.00  0.00    -0.358 N 
ATOM      5  H   UNL     1      25.906  -6.769  15.476  1.00  0.00     0.344 HD
ATOM      6  H   UNL     1      25.991  -5.095  15.194  1.00  0.00     0.344 HD
ATOM      7  H   UNL     1      24.485  -5.910  15.136  1.00  0.00     0.344 HD
ENDBRANCH   3   4
ENDBRANCH   2   3
ENDBRANCH   1   2
BRANCH   1   8
ATOM      8  C   UNL     1      24.886  -2.072  18.385  1.00  0.00     0.072 C 
BRANCH   8   9
ATOM      9  C   UNL     1      23.525  -1.412  18.695  1.00  0.00     0.227 C 
BRANCH   9  10
ATOM     10  N   UNL     1      23.657  -0.466  19.810  1.00  0.00    -0.350 N 
ATOM     11  H   UNL     1      23.183   0.435  19.569  1.00  0.00     0.345 HD
ATOM     12  H   UNL     1      24.664  -0.279  20.020  1.00  0.00     0.345 HD
ATOM     13  H   UNL     1      23.197  -0.858  20.663  1.00  0.00     0.345 HD
ENDBRANCH   9  10
BRANCH   9  14
ATOM     14  C   UNL     1      22.979  -0.703  17.483  1.00  0.00     0.099 C 
ATOM     15  O   UNL     1      21.893  -1.079  16.966  1.00  0.00    -0.544 OA
ATOM     16  O   UNL     1      23.669   0.366  16.924  1.00  0.00    -0.544 OA
ENDBRANCH   9  14
ENDBRANCH   8   9
ENDBRANCH   1   8
TORSDOF 7
ENDMDL
MODEL 5
REMARK VINA RESULT:    -3.471      2.077      2.405
REMARK INTER + INTRA:          -5.085
REMARK INTER:                  -4.945
REMARK INTRA:                  -0.140
REMARK UNBOUND:                -0.396
REMARK SMILES [NH3+]CCCC[C@@H]([NH3+])C(=O)[O-]
REMARK SMILES IDX 4 1 3 2 2 3 1 4 5 8 6 9 7 10 8 14 9 15 10 16
REMARK H PARENT 1 5 1 6 1 7 7 11 7 12 7 13
REMARK Flexibility Score: inf
ROOT
ATOM      1  C   UNL     1      25.914  -4.445  17.487  1.00  0.00     0.012 C 
ENDROOT
BRANCH   1   2
ATOM      2  C   UNL     1      25.057  -3.519  18.360  1.00  0.00     0.061 C 
BRANCH   2   3
ATOM      3  C   UNL     1      24.498  -2.319  17.576  1.00  0.00     0.258 C 
BRANCH   3   4
ATOM      4  N   UNL     1      23.739  -2.735  16.395  1.00  0.00    -0.358 N 
ATOM      5  H   UNL     1      23.424  -1.884  15.877  1.00  0.00     0.344 HD
ATOM      6  H   UNL     1      22.897  -3.288  16.678  1.00  0.00     0.344 HD
ATOM      7  H   UNL     1      24.341  -3.303  15.758  1.00  0.00     0.344 HD
ENDBRANCH   3   4
ENDBRANCH   2   3
ENDBRANCH   1   2
BRANCH   1   8
ATOM      8  C   UNL     1      25.485  -5.912  17.656  1.00  0.00     0.072 C 
BRANCH   8   9
ATOM      9  C   UNL     1      24.656  -6.422  16.458  1.00  0.00     0.227 C 
BRANCH   9  10
ATOM     10  N   UNL     1      25.500  -6.541  15.264  1.00  0.00    -0.350 N 
ATOM     11  H   UNL     1      25.827  -7.529  15.158  1.00  0.00     0.345 HD
ATOM     12  H   UNL     1      26.331  -5.910  15.333  1.00  0.00     0.345 HD
ATOM     13  H   UNL     1      24.948  -6.288  14.413  1.00  0.00     0.345 HD
ENDBRANCH   9  10
BRANCH   9  14
ATOM     14  C   UNL     1      24.016  -7.750  16.769  1.00  0.00     0.099 C 
ATOM     15  O   UNL     1      24.696  -8.809  16.713  1.00  0.00    -0.544 OA
ATOM     16  O   UNL     1      22.672  -7.818  17.116  1.00  0.00    -0.544 OA
ENDBRANCH   9  14
ENDBRANCH   8   9
ENDBRANCH   1   8
TORSDOF 7
ENDMDL
MODEL 6
REMARK VINA RESULT:    -3.443      1.598      1.817
REMARK INTER + INTRA:          -5.047
REMARK INTER:                  -4.583
REMARK INTRA:                  -0.463
REMARK UNBOUND:                -0.396
REMARK SMILES [NH3+]CCCC[C@@H]([NH3+])C(=O)[O-]
REMARK SMILES IDX 4 1 3 2 2 3 1 4 5 8 6 9 7 10 8 14 9 15 10 16
REMARK H PARENT 1 5 1 6 1 7 7 11 7 12 7 13
REMARK Flexibility Score: inf
ROOT
ATOM      1  C   UNL     1      25.052  -4.599  18.647  1.00  0.00     0.012 C 
ENDROOT
BRANCH   1   2
ATOM      2  C   UNL     1      24.744  -3.171  18.176  1.00  0.00     0.061 C 
BRANCH   2   3
ATOM      3  C   UNL     1      23.235  -2.874  18.137  1.00  0.00     0.258 C 
BRANCH   3   4
ATOM      4  N   UNL     1      22.438  -3.995  18.639  1.00  0.00    -0.358 N 
ATOM      5  H   UNL     1      21.549  -3.625  19.045  1.00  0.00     0.344 HD
ATOM      6  H   UNL     1      22.960  -4.509  19.387  1.00  0.00     0.344 HD
ATOM      7  H   UNL     1      22.196  -4.648  17.860  1.00  0.00     0.344 HD
ENDBRANCH   3   4
ENDBRANCH   2   3
ENDBRANCH   1   2
BRANCH   1   8
ATOM      8  C   UNL     1      25.768  -5.398  17.546  1.00  0.00     0.072 C 
BRANCH   8   9
ATOM      9  C   UNL     1      24.787  -5.940  16.484  1.00  0.00     0.227 C 
BRANCH   9  10
ATOM     10  N   UNL     1      25.516  -6.362  15.282  1.00  0.00    -0.350 N 
ATOM     11  H   UNL     1      25.862  -5.523  14.763  1.00  0.00     0.345 HD
ATOM     12  H   UNL     1      24.898  -6.925  14.653  1.00  0.00     0.345 HD
ATOM     13  H   UNL     1      26.343  -6.941  15.555  1.00  0.00     0.345 HD
ENDBRANCH   9  10
BRANCH   9  14
ATOM     14  C   UNL     1      23.983  -7.093  17.029  1.00  0.00     0.099 C 
ATOM     15  O   UNL     1      24.445  -8.264  16.984  1.00  0.00    -0.544 OA
ATOM     16  O   UNL     1      22.726  -6.874  17.580  1.00  0.00    -0.544 OA
ENDBRANCH   9  14
ENDBRANCH   8   9
ENDBRANCH   1   8
TORSDOF 7
ENDMDL
MODEL 7
REMARK VINA RESULT:    -3.435      2.520      4.481
REMARK INTER + INTRA:          -5.036
REMARK INTER:                  -4.907
REMARK INTRA:                  -0.129
REMARK UNBOUND:                -0.396
REMARK SMILES [NH3+]CCCC[C@@H]([NH3+])C(=O)[O-]
REMARK SMILES IDX 4 1 3 2 2 3 1 4 5 8 6 9 7 10 8 14 9 15 10 16
REMARK H PARENT 1 5 1 6 1 7 7 11 7 12 7 13
REMARK Flexibility Score: inf
ROOT
ATOM      1  C   UNL     1      25.858  -4.561  17.477  1.00  0.00     0.012 C 
ENDROOT
BRANCH   1   2
ATOM      2  C   UNL     1      25.546  -6.063  17.526  1.00  0.00     0.061 C 
BRANCH   2   3
ATOM      3  C   UNL     1      24.733  -6.538  16.309  1.00  0.00     0.258 C 
BRANCH   3   4
ATOM      4  N   UNL     1      25.526  -6.530  15.078  1.00  0.00    -0.358 N 
ATOM      5  H   UNL     1      26.396  -5.973  15.238  1.00  0.00     0.344 HD
ATOM      6  H   UNL     1      24.985  -6.091  14.297  1.00  0.00     0.344 HD
ATOM      7  H   UNL     1      25.804  -7.503  14.817  1.00  0.00     0.344 HD
ENDBRANCH   3   4
ENDBRANCH   2   3
ENDBRANCH   1   2
BRANCH   1   8
ATOM      8  C   UNL     1      24.950  -3.779  18.439  1.00  0.00     0.072 C 
BRANCH   8   9
ATOM      9  C   UNL     1      24.443  -2.457  17.822  1.00  0.00     0.227 C 
BRANCH   9  10
ATOM     10  N   UNL     1      23.947  -2.685  16.459  1.00  0.00    -0.350 N 
ATOM     11  H   UNL     1      22.970  -3.057  16.495  1.00  0.00     0.345 HD
ATOM     12  H   UNL     1      24.556  -3.368  15.953  1.00  0.00     0.345 HD
ATOM     13  H   UNL     1      23.933  -1.782  15.932  1.00  0.00     0.345 HD
ENDBRANCH   9  10
BRANCH   9  14
ATOM     14  C   UNL     1      23.357  -1.847  18.669  1.00  0.00     0.099 C 
ATOM     15  O   UNL     1      22.215  -2.376  18.711  1.00  0.00    -0.544 OA
ATOM     16  O   UNL     1      23.604  -0.694  19.405  1.00  0.00    -0.544 OA
ENDBRANCH   9  14
ENDBRANCH   8   9
ENDBRANCH   1   8
TORSDOF 7
ENDMDL
MODEL 8
REMARK VINA RESULT:    -3.374     11.176     12.088
REMARK INTER + INTRA:          -4.954
REMARK INTER:                  -4.745
REMARK INTRA:                  -0.209
REMARK UNBOUND:                -0.396
REMARK SMILES [NH3+]CCCC[C@@H]([NH3+])C(=O)[O-]
REMARK SMILES IDX 4 1 3 2 2 3 1 4 5 8 6 9 7 10 8 14 9 15 10 16
REMARK H PARENT 1 5 1 6 1 7 7 11 7 12 7 13
REMARK Flexibility Score: inf
ROOT
ATOM      1  C   UNL     1      27.434  -0.173   5.946  1.00  0.00     0.012 C 
ENDROOT
BRANCH   1   2
ATOM      2  C   UNL     1      27.937   1.259   5.717  1.00  0.00     0.061 C 
BRANCH   2   3
ATOM      3  C   UNL     1      26.791   2.258   5.485  1.00  0.00     0.258 C 
BRANCH   3   4
ATOM      4  N   UNL     1      26.357   2.287   4.087  1.00  0.00    -0.358 N 
ATOM      5  H   UNL     1      26.472   1.332   3.677  1.00  0.00     0.344 HD
ATOM      6  H   UNL     1      26.940   2.960   3.537  1.00  0.00     0.344 HD
ATOM      7  H   UNL     1      25.349   2.553   4.023  1.00  0.00     0.344 HD
ENDBRANCH   3   4
ENDBRANCH   2   3
ENDBRANCH   1   2
BRANCH   1   8
ATOM      8  C   UNL     1      28.036  -0.768   7.230  1.00  0.00     0.072 C 
BRANCH   8   9
ATOM      9  C   UNL     1      26.992  -0.896   8.361  1.00  0.00     0.227 C 
BRANCH   9  10
ATOM     10  N   UNL     1      27.161  -2.168   9.072  1.00  0.00    -0.350 N 
ATOM     11  H   UNL     1      26.231  -2.521   9.394  1.00  0.00     0.345 HD
ATOM     12  H   UNL     1      27.789  -2.049   9.900  1.00  0.00     0.345 HD
ATOM     13  H   UNL     1      27.576  -2.881   8.429  1.00  0.00     0.345 HD
ENDBRANCH   9  10
BRANCH   9  14
ATOM     14  C   UNL     1      27.102   0.253   9.330  1.00  0.00     0.099 C 
ATOM     15  O   UNL     1      26.579   1.365   9.055  1.00  0.00    -0.544 OA
ATOM     16  O   UNL     1      27.783   0.096  10.531  1.00  0.00    -0.544 OA
ENDBRANCH   9  14
ENDBRANCH   8   9
ENDBRANCH   1   8
TORSDOF 7
ENDMDL
MODEL 9
REMARK VINA RESULT:    -3.370      2.058      4.496
REMARK INTER + INTRA:          -4.948
REMARK INTER:                  -4.438
REMARK INTRA:                  -0.510
REMARK UNBOUND:                -0.396
REMARK SMILES [NH3+]CCCC[C@@H]([NH3+])C(=O)[O-]
REMARK SMILES IDX 4 1 3 2 2 3 1 4 5 8 6 9 7 10 8 14 9 15 10 16
REMARK H PARENT 1 5 1 6 1 7 7 11 7 12 7 13
REMARK Flexibility Score: inf
ROOT
ATOM      1  C   UNL     1      22.927  -6.568  17.531  1.00  0.00     0.012 C 
ENDROOT
BRANCH   1   2
ATOM      2  C   UNL     1      23.906  -7.522  16.834  1.00  0.00     0.061 C 
BRANCH   2   3
ATOM      3  C   UNL     1      24.210  -7.102  15.385  1.00  0.00     0.258 C 
BRANCH   3   4
ATOM      4  N   UNL     1      25.514  -6.448  15.262  1.00  0.00    -0.358 N 
ATOM      5  H   UNL     1      25.696  -5.889  16.127  1.00  0.00     0.344 HD
ATOM      6  H   UNL     1      25.523  -5.803  14.438  1.00  0.00     0.344 HD
ATOM      7  H   UNL     1      26.272  -7.160  15.166  1.00  0.00     0.344 HD
ENDBRANCH   3   4
ENDBRANCH   2   3
ENDBRANCH   1   2
BRANCH   1   8
ATOM      8  C   UNL     1      23.675  -5.582  18.442  1.00  0.00     0.072 C 
BRANCH   8   9
ATOM      9  C   UNL     1      23.698  -4.151  17.862  1.00  0.00     0.227 C 
BRANCH   9  10
ATOM     10  N   UNL     1      22.928  -3.239  18.716  1.00  0.00    -0.350 N 
ATOM     11  H   UNL     1      22.875  -2.295  18.269  1.00  0.00     0.345 HD
ATOM     12  H   UNL     1      23.373  -3.150  19.658  1.00  0.00     0.345 HD
ATOM     13  H   UNL     1      21.953  -3.601  18.831  1.00  0.00     0.345 HD
ENDBRANCH   9  10
BRANCH   9  14
ATOM     14  C   UNL     1      25.112  -3.649  17.718  1.00  0.00     0.099 C 
ATOM     15  O   UNL     1      25.360  -2.419  17.826  1.00  0.00    -0.544 OA
ATOM     16  O   UNL     1      26.150  -4.537  17.463  1.00  0.00    -0.544 OA
ENDBRANCH   9  14
ENDBRANCH   8   9
ENDBRANCH   1   8
TORSDOF 7
ENDMDL
