MODEL 1
REMARK VINA RESULT:    -5.523      0.000      0.000
REMARK INTER + INTRA:          -8.226
REMARK INTER:                  -7.460
REMARK INTRA:                  -0.766
REMARK UNBOUND:                -0.766
REMARK SMILES CC(=O)CCC=C(C)CCC=C(C)C
REMARK SMILES IDX 7 1 6 2 8 3 9 4 10 5 11 6 13 7 12 8 14 9 5 10 4 11 2 12 3 13
REMARK SMILES IDX 1 14
REMARK H PARENT
REMARK Flexibility Score: inf
ROOT
ATOM      1  C   UNL     1     255.254 260.712 246.144  1.00  0.00    -0.077 C 
ATOM      2  C   UNL     1     256.492 261.229 245.982  1.00  0.00    -0.028 C 
ATOM      3  C   UNL     1     254.511 260.044 245.010  1.00  0.00     0.039 C 
ENDROOT
BRANCH   1   4
ATOM      4  C   UNL     1     254.601 260.784 247.507  1.00  0.00     0.034 C 
BRANCH   4   5
ATOM      5  C   UNL     1     255.456 260.071 248.560  1.00  0.00     0.032 C 
BRANCH   5   6
ATOM      6  C   UNL     1     255.623 260.933 249.787  1.00  0.00    -0.028 C 
ATOM      7  C   UNL     1     258.025 261.446 249.296  1.00  0.00     0.039 C 
ATOM      8  C   UNL     1     256.778 261.536 250.144  1.00  0.00    -0.080 C 
ATOM      9  C   UNL     1     256.806 262.337 251.420  1.00  0.00     0.039 C 
ENDBRANCH   5   6
ENDBRANCH   4   5
ENDBRANCH   1   4
BRANCH   2  10
ATOM     10  C   UNL     1     257.241 261.266 244.671  1.00  0.00     0.035 C 
BRANCH  10  11
ATOM     11  C   UNL     1     258.598 261.969 244.812  1.00  0.00     0.079 C 
BRANCH  11  12
ATOM     12  C   UNL     1     258.456 263.327 245.452  1.00  0.00     0.130 C 
ATOM     13  O   UNL     1     258.883 263.508 246.582  1.00  0.00    -0.300 OA
ATOM     14  C   UNL     1     257.799 264.465 244.728  1.00  0.00     0.087 C 
ENDBRANCH  11  12
ENDBRANCH  10  11
ENDBRANCH   2  10
TORSDOF 6
ENDMDL
MODEL 2
REMARK VINA RESULT:    -5.485      2.452      4.148
REMARK INTER + INTRA:          -8.176
REMARK INTER:                  -7.871
REMARK INTRA:                  -0.305
REMARK UNBOUND:                -0.766
REMARK SMILES CC(=O)CCC=C(C)CCC=C(C)C
REMARK SMILES IDX 7 1 6 2 8 3 9 4 10 5 11 6 13 7 12 8 14 9 5 10 4 11 2 12 3 13
REMARK SMILES IDX 1 14
REMARK H PARENT
REMARK Flexibility Score: inf
ROOT
ATOM      1  C   UNL     1     255.041 260.620 246.106  1.00  0.00    -0.077 C 
ATOM      2  C   UNL     1     256.244 261.232 246.019  1.00  0.00    -0.028 C 
ATOM      3  C   UNL     1     254.474 259.803 244.968  1.00  0.00     0.039 C 
ENDROOT
BRANCH   1   4
ATOM      4  C   UNL     1     254.249 260.738 247.390  1.00  0.00     0.034 C 
BRANCH   4   5
ATOM      5  C   UNL     1     252.800 261.141 247.101  1.00  0.00     0.032 C 
BRANCH   5   6
ATOM      6  C   UNL     1     251.891 259.937 247.146  1.00  0.00    -0.028 C 
ATOM      7  C   UNL     1     249.807 261.301 246.873  1.00  0.00     0.039 C 
ATOM      8  C   UNL     1     250.542 259.997 247.070  1.00  0.00    -0.080 C 
ATOM      9  C   UNL     1     249.761 258.712 247.169  1.00  0.00     0.039 C 
ENDBRANCH   5   6
ENDBRANCH   4   5
ENDBRANCH   1   4
BRANCH   2  10
ATOM     10  C   UNL     1     257.117 261.236 244.786  1.00  0.00     0.035 C 
BRANCH  10  11
ATOM     11  C   UNL     1     258.605 261.325 245.146  1.00  0.00     0.079 C 
BRANCH  11  12
ATOM     12  C   UNL     1     259.029 262.748 245.407  1.00  0.00     0.130 C 
ATOM     13  O   UNL     1     259.925 262.973 246.206  1.00  0.00    -0.300 OA
ATOM     14  C   UNL     1     258.372 263.898 244.702  1.00  0.00     0.087 C 
ENDBRANCH  11  12
ENDBRANCH  10  11
ENDBRANCH   2  10
TORSDOF 6
ENDMDL
MODEL 3
REMARK VINA RESULT:    -5.459      5.833      7.880
REMARK INTER + INTRA:          -8.140
REMARK INTER:                  -7.572
REMARK INTRA:                  -0.568
REMARK UNBOUND:                -0.766
REMARK SMILES CC(=O)CCC=C(C)CCC=C(C)C
REMARK SMILES IDX 7 1 6 2 8 3 9 4 10 5 11 6 13 7 12 8 14 9 5 10 4 11 2 12 3 13
REMARK SMILES IDX 1 14
REMARK H PARENT
REMARK Flexibility Score: inf
ROOT
ATOM      1  C   UNL     1     250.904 259.390 246.993  1.00  0.00    -0.077 C 
ATOM      2  C   UNL     1     250.334 258.174 247.151  1.00  0.00    -0.028 C 
ATOM      3  C   UNL     1     250.083 260.658 246.944  1.00  0.00     0.039 C 
ENDROOT
BRANCH   1   4
ATOM      4  C   UNL     1     252.409 259.486 246.885  1.00  0.00     0.034 C 
BRANCH   4   5
ATOM      5  C   UNL     1     252.892 260.898 247.231  1.00  0.00     0.032 C 
BRANCH   5   6
ATOM      6  C   UNL     1     254.189 260.846 248.001  1.00  0.00    -0.028 C 
ATOM      7  C   UNL     1     255.602 260.905 245.933  1.00  0.00     0.039 C 
ATOM      8  C   UNL     1     255.414 260.823 247.430  1.00  0.00    -0.080 C 
ATOM      9  C   UNL     1     256.622 260.731 248.326  1.00  0.00     0.039 C 
ENDBRANCH   5   6
ENDBRANCH   4   5
ENDBRANCH   1   4
BRANCH   2  10
ATOM     10  C   UNL     1     248.845 257.928 247.227  1.00  0.00     0.035 C 
BRANCH  10  11
ATOM     11  C   UNL     1     248.355 257.056 246.064  1.00  0.00     0.079 C 
BRANCH  11  12
ATOM     12  C   UNL     1     247.266 257.741 245.277  1.00  0.00     0.130 C 
ATOM     13  O   UNL     1     246.371 257.074 244.780  1.00  0.00    -0.300 OA
ATOM     14  C   UNL     1     247.258 259.229 245.091  1.00  0.00     0.087 C 
ENDBRANCH  11  12
ENDBRANCH  10  11
ENDBRANCH   2  10
TORSDOF 6
ENDMDL
MODEL 4
REMARK VINA RESULT:    -5.428      3.694      5.771
REMARK INTER + INTRA:          -8.098
REMARK INTER:                  -7.474
REMARK INTRA:                  -0.624
REMARK UNBOUND:                -0.766
REMARK SMILES CC(=O)CCC=C(C)CCC=C(C)C
REMARK SMILES IDX 7 1 6 2 8 3 9 4 10 5 11 6 13 7 12 8 14 9 5 10 4 11 2 12 3 13
REMARK SMILES IDX 1 14
REMARK H PARENT
REMARK Flexibility Score: inf
ROOT
ATOM      1  C   UNL     1     254.993 260.580 247.398  1.00  0.00    -0.077 C 
ATOM      2  C   UNL     1     253.815 260.907 247.976  1.00  0.00    -0.028 C 
ATOM      3  C   UNL     1     255.160 260.524 245.897  1.00  0.00     0.039 C 
ENDROOT
BRANCH   1   4
ATOM      4  C   UNL     1     256.185 260.283 248.281  1.00  0.00     0.034 C 
BRANCH   4   5
ATOM      5  C   UNL     1     257.304 261.303 248.048  1.00  0.00     0.032 C 
BRANCH   5   6
ATOM      6  C   UNL     1     258.625 260.607 247.828  1.00  0.00    -0.028 C 
ATOM      7  C   UNL     1     258.747 261.257 245.412  1.00  0.00     0.039 C 
ATOM      8  C   UNL     1     259.272 260.557 246.643  1.00  0.00    -0.080 C 
ATOM      9  C   UNL     1     260.568 259.790 246.565  1.00  0.00     0.039 C 
ENDBRANCH   5   6
ENDBRANCH   4   5
ENDBRANCH   1   4
BRANCH   2  10
ATOM     10  C   UNL     1     252.536 261.182 247.219  1.00  0.00     0.035 C 
BRANCH  10  11
ATOM     11  C   UNL     1     251.737 259.897 246.970  1.00  0.00     0.079 C 
BRANCH  11  12
ATOM     12  C   UNL     1     250.253 260.133 247.090  1.00  0.00     0.130 C 
ATOM     13  O   UNL     1     249.523 259.214 247.429  1.00  0.00    -0.300 OA
ATOM     14  C   UNL     1     249.652 261.477 246.802  1.00  0.00     0.087 C 
ENDBRANCH  11  12
ENDBRANCH  10  11
ENDBRANCH   2  10
TORSDOF 6
ENDMDL
MODEL 5
REMARK VINA RESULT:    -5.378      1.552      3.651
REMARK INTER + INTRA:          -8.030
REMARK INTER:                  -7.185
REMARK INTRA:                  -0.845
REMARK UNBOUND:                -0.766
REMARK SMILES CC(=O)CCC=C(C)CCC=C(C)C
REMARK SMILES IDX 7 1 6 2 8 3 9 4 10 5 11 6 13 7 12 8 14 9 5 10 4 11 2 12 3 13
REMARK SMILES IDX 1 14
REMARK H PARENT
REMARK Flexibility Score: inf
ROOT
ATOM      1  C   UNL     1     257.749 261.740 249.198  1.00  0.00    -0.077 C 
ATOM      2  C   UNL     1     258.059 261.232 247.984  1.00  0.00    -0.028 C 
ATOM      3  C   UNL     1     258.592 262.806 249.859  1.00  0.00     0.039 C 
ENDROOT
BRANCH   1   4
ATOM      4  C   UNL     1     256.509 261.242 249.907  1.00  0.00     0.034 C 
BRANCH   4   5
ATOM      5  C   UNL     1     255.790 260.181 249.066  1.00  0.00     0.032 C 
BRANCH   5   6
ATOM      6  C   UNL     1     254.397 260.637 248.706  1.00  0.00    -0.028 C 
ATOM      7  C   UNL     1     254.864 260.643 246.245  1.00  0.00     0.039 C 
ATOM      8  C   UNL     1     253.975 260.874 247.444  1.00  0.00    -0.080 C 
ATOM      9  C   UNL     1     252.565 261.364 247.239  1.00  0.00     0.039 C 
ENDBRANCH   5   6
ENDBRANCH   4   5
ENDBRANCH   1   4
BRANCH   2  10
ATOM     10  C   UNL     1     259.288 261.604 247.187  1.00  0.00     0.035 C 
BRANCH  10  11
ATOM     11  C   UNL     1     259.278 260.959 245.796  1.00  0.00     0.079 C 
BRANCH  11  12
ATOM     12  C   UNL     1     258.448 261.754 244.820  1.00  0.00     0.130 C 
ATOM     13  O   UNL     1     257.513 261.216 244.246  1.00  0.00    -0.300 OA
ATOM     14  C   UNL     1     258.746 263.197 244.540  1.00  0.00     0.087 C 
ENDBRANCH  11  12
ENDBRANCH  10  11
ENDBRANCH   2  10
TORSDOF 6
ENDMDL
MODEL 6
REMARK VINA RESULT:    -5.370      3.644      6.848
REMARK INTER + INTRA:          -8.020
REMARK INTER:                  -7.308
REMARK INTRA:                  -0.712
REMARK UNBOUND:                -0.766
REMARK SMILES CC(=O)CCC=C(C)CCC=C(C)C
REMARK SMILES IDX 7 1 6 2 8 3 9 4 10 5 11 6 13 7 12 8 14 9 5 10 4 11 2 12 3 13
REMARK SMILES IDX 1 14
REMARK H PARENT
REMARK Flexibility Score: inf
ROOT
ATOM      1  C   UNL     1     255.975 261.286 250.822  1.00  0.00    -0.077 C 
ATOM      2  C   UNL     1     254.946 261.392 251.693  1.00  0.00    -0.028 C 
ATOM      3  C   UNL     1     257.111 262.282 250.801  1.00  0.00     0.039 C 
ENDROOT
BRANCH   1   4
ATOM      4  C   UNL     1     256.000 260.123 249.855  1.00  0.00     0.034 C 
BRANCH   4   5
ATOM      5  C   UNL     1     255.710 260.595 248.427  1.00  0.00     0.032 C 
BRANCH   5   6
ATOM      6  C   UNL     1     254.251 260.944 248.265  1.00  0.00    -0.028 C 
ATOM      7  C   UNL     1     254.273 260.578 245.787  1.00  0.00     0.039 C 
ATOM      8  C   UNL     1     253.598 260.966 247.082  1.00  0.00    -0.080 C 
ATOM      9  C   UNL     1     252.147 261.373 247.069  1.00  0.00     0.039 C 
ENDBRANCH   5   6
ENDBRANCH   4   5
ENDBRANCH   1   4
BRANCH   2  10
ATOM     10  C   UNL     1     254.770 262.523 252.679  1.00  0.00     0.035 C 
BRANCH  10  11
ATOM     11  C   UNL     1     254.750 262.015 254.126  1.00  0.00     0.079 C 
BRANCH  11  12
ATOM     12  C   UNL     1     256.095 261.479 254.546  1.00  0.00     0.130 C 
ATOM     13  O   UNL     1     256.195 260.314 254.900  1.00  0.00    -0.300 OA
ATOM     14  C   UNL     1     257.317 262.349 254.537  1.00  0.00     0.087 C 
ENDBRANCH  11  12
ENDBRANCH  10  11
ENDBRANCH   2  10
TORSDOF 6
ENDMDL
MODEL 7
REMARK VINA RESULT:    -5.338      1.949      5.149
REMARK INTER + INTRA:          -7.977
REMARK INTER:                  -7.223
REMARK INTRA:                  -0.754
REMARK UNBOUND:                -0.766
REMARK SMILES CC(=O)CCC=C(C)CCC=C(C)C
REMARK SMILES IDX 7 1 6 2 8 3 9 4 10 5 11 6 13 7 12 8 14 9 5 10 4 11 2 12 3 13
REMARK SMILES IDX 1 14
REMARK H PARENT
REMARK Flexibility Score: inf
ROOT
ATOM      1  C   UNL     1     256.939 261.217 249.223  1.00  0.00    -0.077 C 
ATOM      2  C   UNL     1     256.165 260.712 248.236  1.00  0.00    -0.028 C 
ATOM      3  C   UNL     1     256.377 261.564 250.582  1.00  0.00     0.039 C 
ENDROOT
BRANCH   1   4
ATOM      4  C   UNL     1     258.416 261.420 248.966  1.00  0.00     0.034 C 
BRANCH   4   5
ATOM      5  C   UNL     1     258.730 261.307 247.471  1.00  0.00     0.032 C 
BRANCH   5   6
ATOM      6  C   UNL     1     258.482 262.621 246.772  1.00  0.00    -0.028 C 
ATOM      7  C   UNL     1     257.583 261.533 244.703  1.00  0.00     0.039 C 
ATOM      8  C   UNL     1     257.991 262.737 245.518  1.00  0.00    -0.080 C 
ATOM      9  C   UNL     1     257.834 264.118 244.933  1.00  0.00     0.039 C 
ENDBRANCH   5   6
ENDBRANCH   4   5
ENDBRANCH   1   4
BRANCH   2  10
ATOM     10  C   UNL     1     254.673 260.501 248.339  1.00  0.00     0.035 C 
BRANCH  10  11
ATOM     11  C   UNL     1     253.965 260.795 247.011  1.00  0.00     0.079 C 
BRANCH  11  12
ATOM     12  C   UNL     1     254.114 259.654 246.037  1.00  0.00     0.130 C 
ATOM     13  O   UNL     1     254.525 259.875 244.908  1.00  0.00    -0.300 OA
ATOM     14  C   UNL     1     253.768 258.247 246.427  1.00  0.00     0.087 C 
ENDBRANCH  11  12
ENDBRANCH  10  11
ENDBRANCH   2  10
TORSDOF 6
ENDMDL
MODEL 8
REMARK VINA RESULT:    -5.328      2.384      4.242
REMARK INTER + INTRA:          -7.963
REMARK INTER:                  -7.072
REMARK INTRA:                  -0.890
REMARK UNBOUND:                -0.766
REMARK SMILES CC(=O)CCC=C(C)CCC=C(C)C
REMARK SMILES IDX 7 1 6 2 8 3 9 4 10 5 11 6 13 7 12 8 14 9 5 10 4 11 2 12 3 13
REMARK SMILES IDX 1 14
REMARK H PARENT
REMARK Flexibility Score: inf
ROOT
ATOM      1  C   UNL     1     256.307 260.955 245.730  1.00  0.00    -0.077 C 
ATOM      2  C   UNL     1     256.557 261.042 247.056  1.00  0.00    -0.028 C 
ATOM      3  C   UNL     1     257.365 261.258 244.694  1.00  0.00     0.039 C 
ENDROOT
BRANCH   1   4
ATOM      4  C   UNL     1     254.934 260.519 245.269  1.00  0.00     0.034 C 
BRANCH   4   5
ATOM      5  C   UNL     1     254.056 260.129 246.463  1.00  0.00     0.032 C 
BRANCH   5   6
ATOM      6  C   UNL     1     253.534 258.722 246.306  1.00  0.00    -0.028 C 
ATOM      7  C   UNL     1     254.851 257.845 248.247  1.00  0.00     0.039 C 
ATOM      8  C   UNL     1     253.902 257.680 247.084  1.00  0.00    -0.080 C 
ATOM      9  C   UNL     1     253.325 256.320 246.784  1.00  0.00     0.039 C 
ENDBRANCH   5   6
ENDBRANCH   4   5
ENDBRANCH   1   4
BRANCH   2  10
ATOM     10  C   UNL     1     257.864 261.507 247.654  1.00  0.00     0.035 C 
BRANCH  10  11
ATOM     11  C   UNL     1     258.829 260.337 247.884  1.00  0.00     0.079 C 
BRANCH  11  12
ATOM     12  C   UNL     1     260.080 260.477 247.054  1.00  0.00     0.130 C 
ATOM     13  O   UNL     1     260.527 261.589 246.821  1.00  0.00    -0.300 OA
ATOM     14  C   UNL     1     260.789 259.274 246.507  1.00  0.00     0.087 C 
ENDBRANCH  11  12
ENDBRANCH  10  11
ENDBRANCH   2  10
TORSDOF 6
ENDMDL
MODEL 9
REMARK VINA RESULT:    -5.216      5.392      7.645
REMARK INTER + INTRA:          -7.812
REMARK INTER:                  -6.906
REMARK INTRA:                  -0.906
REMARK UNBOUND:                -0.766
REMARK SMILES CC(=O)CCC=C(C)CCC=C(C)C
REMARK SMILES IDX 7 1 6 2 8 3 9 4 10 5 11 6 13 7 12 8 14 9 5 10 4 11 2 12 3 13
REMARK SMILES IDX 1 14
REMARK H PARENT
REMARK Flexibility Score: inf
ROOT
ATOM      1  C   UNL     1     251.916 257.277 247.312  1.00  0.00    -0.077 C 
ATOM      2  C   UNL     1     250.975 258.151 246.888  1.00  0.00    -0.028 C 
ATOM      3  C   UNL     1     251.700 256.390 248.517  1.00  0.00     0.039 C 
ENDROOT
BRANCH   1   4
ATOM      4  C   UNL     1     253.214 257.167 246.543  1.00  0.00     0.034 C 
BRANCH   4   5
ATOM      5  C   UNL     1     253.774 258.556 246.218  1.00  0.00     0.032 C 
BRANCH   5   6
ATOM      6  C   UNL     1     254.427 259.168 247.432  1.00  0.00    -0.028 C 
ATOM      7  C   UNL     1     253.004 261.228 247.356  1.00  0.00     0.039 C 
ATOM      8  C   UNL     1     254.109 260.379 247.940  1.00  0.00    -0.080 C 
ATOM      9  C   UNL     1     254.875 260.879 249.138  1.00  0.00     0.039 C 
ENDBRANCH   5   6
ENDBRANCH   4   5
ENDBRANCH   1   4
BRANCH   2  10
ATOM     10  C   UNL     1     249.657 258.396 247.584  1.00  0.00     0.035 C 
BRANCH  10  11
ATOM     11  C   UNL     1     248.521 257.582 246.950  1.00  0.00     0.079 C 
BRANCH  11  12
ATOM     12  C   UNL     1     247.942 258.281 245.746  1.00  0.00     0.130 C 
ATOM     13  O   UNL     1     247.981 259.500 245.681  1.00  0.00    -0.300 OA
ATOM     14  C   UNL     1     247.319 257.508 244.622  1.00  0.00     0.087 C 
ENDBRANCH  11  12
ENDBRANCH  10  11
ENDBRANCH   2  10
TORSDOF 6
ENDMDL
