MODEL 1
REMARK VINA RESULT:    -3.827      0.000      0.000
REMARK INTER + INTRA:          -5.089
REMARK INTER:                  -5.393
REMARK INTRA:                   0.304
REMARK UNBOUND:                 0.304
REMARK SMILES CC1=CCC(=C(C)C)C(=O)CC(C)=CCC1
REMARK SMILES IDX 12 1 14 2 13 3 15 4 16 5 2 6 1 7 3 8 11 10 9 11 10 12 5 13
REMARK SMILES IDX 6 14 7 15 8 16 4 17
REMARK H PARENT
REMARK Flexibility Score: 60.00
ROOT
ATOM      1  C   UNL     1     -17.706  -0.836  11.032  1.00  0.00    -0.070 C 
ATOM      2  C   UNL     1     -17.139  -2.025  10.728  1.00  0.00    -0.027 C 
ATOM      3  C   UNL     1     -17.381  -0.222  12.370  1.00  0.00     0.039 C 
ENDROOT
BRANCH   2   4
ATOM      4  C   UNL     1     -17.414  -2.842   9.484  1.00  0.00     0.032 C 
BRANCH   4   5
ATOM      5  C   UNL     1     -18.514  -3.913   9.640  1.00  0.00     0.034 C 
BRANCH   5   6
ATOM      6  C   UNL     1     -19.378  -4.066   8.402  1.00  0.00    -0.077 C 
ATOM      7  C   UNL     1     -18.817  -4.860   7.250  1.00  0.00     0.039 C 
ATOM      8  C   UNL     1     -20.589  -3.479   8.239  1.00  0.00    -0.023 CG0
ATOM      9  G   UNL     1     -21.353  -2.659   9.259  1.00  0.00     0.000 G0
ENDBRANCH   5   6
ENDBRANCH   4   5
ENDBRANCH   2   4
BRANCH   1  10
ATOM     10  C   UNL     1     -18.715  -0.145  10.139  1.00  0.00     0.111 C 
BRANCH  10  11
ATOM     11  C   UNL     1     -20.107  -0.675  10.359  1.00  0.00     0.163 C 
ATOM     12  O   UNL     1     -20.535  -0.747  11.543  1.00  0.00    -0.294 OA
BRANCH  11  13
ATOM     13  C   UNL     1     -20.962  -1.171   9.240  1.00  0.00    -0.002 C 
ATOM     14  C   UNL     1     -21.433  -0.312   8.285  1.00  0.00    -0.069 C 
ATOM     15  C   UNL     1     -22.427  -0.751   7.232  1.00  0.00     0.039 C 
ATOM     16  C   UNL     1     -20.981   1.131   8.238  1.00  0.00     0.039 C 
BRANCH  13  17
ATOM     17  C   UNL     1     -21.358  -2.638   9.263  1.00  0.00     0.066 CG0
ATOM     18  G   UNL     1     -20.584  -3.460   8.252  1.00  0.00     0.000 G0
ENDBRANCH  13  17
ENDBRANCH  11  13
ENDBRANCH  10  11
ENDBRANCH   1  10
TORSDOF 0
ENDMDL
MODEL 2
REMARK VINA RESULT:    -3.736      2.125      4.138
REMARK INTER + INTRA:          -4.960
REMARK INTER:                  -5.145
REMARK INTRA:                   0.185
REMARK UNBOUND:                 0.304
REMARK SMILES CC1=CCC(=C(C)C)C(=O)CC(C)=CCC1
REMARK SMILES IDX 12 1 14 2 13 3 15 4 16 5 2 6 1 7 3 8 11 10 9 11 10 12 5 13
REMARK SMILES IDX 6 14 7 15 8 16 4 17
REMARK H PARENT
REMARK Flexibility Score: 60.00
ROOT
ATOM      1  C   UNL     1     -19.881  -3.739   8.971  1.00  0.00    -0.070 C 
ATOM      2  C   UNL     1     -18.531  -3.660   8.962  1.00  0.00    -0.027 C 
ATOM      3  C   UNL     1     -20.556  -4.394   7.793  1.00  0.00     0.039 C 
ENDROOT
BRANCH   2   4
ATOM      4  C   UNL     1     -17.681  -2.959  10.000  1.00  0.00     0.032 C 
BRANCH   4   5
ATOM      5  C   UNL     1     -17.662  -1.420   9.890  1.00  0.00     0.034 C 
BRANCH   5   6
ATOM      6  C   UNL     1     -17.982  -0.724  11.200  1.00  0.00    -0.077 C 
ATOM      7  C   UNL     1     -17.027  -0.921  12.351  1.00  0.00     0.039 C 
ATOM      8  C   UNL     1     -19.104   0.004  11.424  1.00  0.00    -0.023 CG0
ATOM      9  G   UNL     1     -20.186   0.348  10.420  1.00  0.00     0.000 G0
ENDBRANCH   5   6
ENDBRANCH   4   5
ENDBRANCH   2   4
BRANCH   1  10
ATOM     10  C   UNL     1     -20.742  -3.122  10.053  1.00  0.00     0.111 C 
BRANCH  10  11
ATOM     11  C   UNL     1     -21.336  -1.811   9.610  1.00  0.00     0.163 C 
ATOM     12  O   UNL     1     -21.767  -1.724   8.428  1.00  0.00    -0.294 OA
BRANCH  11  13
ATOM     13  C   UNL     1     -21.375  -0.610  10.495  1.00  0.00    -0.002 C 
ATOM     14  C   UNL     1     -22.470  -0.347  11.271  1.00  0.00    -0.069 C 
ATOM     15  C   UNL     1     -22.607   0.940  12.055  1.00  0.00     0.039 C 
ATOM     16  C   UNL     1     -23.608  -1.338  11.382  1.00  0.00     0.039 C 
BRANCH  13  17
ATOM     17  C   UNL     1     -20.197   0.347  10.421  1.00  0.00     0.066 CG0
ATOM     18  G   UNL     1     -19.111   0.002  11.421  1.00  0.00     0.000 G0
ENDBRANCH  13  17
ENDBRANCH  11  13
ENDBRANCH  10  11
ENDBRANCH   1  10
TORSDOF 0
ENDMDL
MODEL 3
REMARK VINA RESULT:    -3.700      1.497      1.641
REMARK INTER + INTRA:          -4.909
REMARK INTER:                  -5.368
REMARK INTRA:                   0.459
REMARK UNBOUND:                 0.304
REMARK SMILES CC1=CCC(=C(C)C)C(=O)CC(C)=CCC1
REMARK SMILES IDX 12 1 14 2 13 3 15 4 16 5 2 6 1 7 3 8 11 10 9 11 10 12 5 13
REMARK SMILES IDX 6 14 7 15 8 16 4 17
REMARK H PARENT
REMARK Flexibility Score: 60.00
ROOT
ATOM      1  C   UNL     1     -17.764  -1.067  10.920  1.00  0.00    -0.070 C 
ATOM      2  C   UNL     1     -17.312  -2.276  10.517  1.00  0.00    -0.027 C 
ATOM      3  C   UNL     1     -17.241  -0.518  12.224  1.00  0.00     0.039 C 
ENDROOT
BRANCH   2   4
ATOM      4  C   UNL     1     -17.787  -3.033   9.296  1.00  0.00     0.032 C 
BRANCH   4   5
ATOM      5  C   UNL     1     -18.871  -4.096   9.573  1.00  0.00     0.034 C 
BRANCH   5   6
ATOM      6  C   UNL     1     -20.197  -3.785   8.902  1.00  0.00    -0.077 C 
ATOM      7  C   UNL     1     -20.413  -4.303   7.503  1.00  0.00     0.039 C 
ATOM      8  C   UNL     1     -21.168  -3.014   9.452  1.00  0.00    -0.023 CG0
ATOM      9  G   UNL     1     -21.177  -2.407  10.840  1.00  0.00     0.000 G0
ENDBRANCH   5   6
ENDBRANCH   4   5
ENDBRANCH   2   4
BRANCH   1  10
ATOM     10  C   UNL     1     -18.831  -0.289  10.179  1.00  0.00     0.111 C 
BRANCH  10  11
ATOM     11  C   UNL     1     -20.063  -0.094  11.022  1.00  0.00     0.163 C 
ATOM     12  O   UNL     1     -20.007   0.731  11.975  1.00  0.00    -0.294 OA
BRANCH  11  13
ATOM     13  C   UNL     1     -21.314  -0.880  10.808  1.00  0.00    -0.002 C 
ATOM     14  C   UNL     1     -22.522  -0.252  10.675  1.00  0.00    -0.069 C 
ATOM     15  C   UNL     1     -23.823  -1.022  10.616  1.00  0.00     0.039 C 
ATOM     16  C   UNL     1     -22.615   1.255  10.583  1.00  0.00     0.039 C 
BRANCH  13  17
ATOM     17  C   UNL     1     -21.197  -2.395  10.840  1.00  0.00     0.066 CG0
ATOM     18  G   UNL     1     -21.165  -3.000   9.450  1.00  0.00     0.000 G0
ENDBRANCH  13  17
ENDBRANCH  11  13
ENDBRANCH  10  11
ENDBRANCH   1  10
TORSDOF 0
ENDMDL
MODEL 4
REMARK VINA RESULT:    -3.492      1.247      1.848
REMARK INTER + INTRA:          -4.617
REMARK INTER:                  -4.925
REMARK INTRA:                   0.309
REMARK UNBOUND:                 0.304
REMARK SMILES CC1=CCC(=C(C)C)C(=O)CC(C)=CCC1
REMARK SMILES IDX 12 1 14 2 13 3 15 4 16 5 2 6 1 7 3 8 11 10 9 11 10 12 5 13
REMARK SMILES IDX 6 14 7 15 8 16 4 17
REMARK H PARENT
REMARK Flexibility Score: 60.00
ROOT
ATOM      1  C   UNL     1     -18.487  -2.539  10.044  1.00  0.00    -0.070 C 
ATOM      2  C   UNL     1     -18.161  -3.451   9.100  1.00  0.00    -0.027 C 
ATOM      3  C   UNL     1     -17.539  -1.389  10.269  1.00  0.00     0.039 C 
ENDROOT
BRANCH   2   4
ATOM      4  C   UNL     1     -18.929  -4.719   8.795  1.00  0.00     0.032 C 
BRANCH   4   5
ATOM      5  C   UNL     1     -20.449  -4.527   8.611  1.00  0.00     0.034 C 
BRANCH   5   6
ATOM      6  C   UNL     1     -20.801  -3.653   7.421  1.00  0.00    -0.077 C 
ATOM      7  C   UNL     1     -20.303  -4.082   6.064  1.00  0.00     0.039 C 
ATOM      8  C   UNL     1     -21.472  -2.478   7.508  1.00  0.00    -0.023 CG0
ATOM      9  G   UNL     1     -22.078  -1.861   8.753  1.00  0.00     0.000 G0
ENDBRANCH   5   6
ENDBRANCH   4   5
ENDBRANCH   2   4
BRANCH   1  10
ATOM     10  C   UNL     1     -19.701  -2.668  10.940  1.00  0.00     0.111 C 
BRANCH  10  11
ATOM     11  C   UNL     1     -20.607  -1.471  10.823  1.00  0.00     0.163 C 
ATOM     12  O   UNL     1     -20.998  -0.916  11.886  1.00  0.00    -0.294 OA
BRANCH  11  13
ATOM     13  C   UNL     1     -21.101  -0.965   9.508  1.00  0.00    -0.002 C 
ATOM     14  C   UNL     1     -20.742   0.275   9.055  1.00  0.00    -0.069 C 
ATOM     15  C   UNL     1     -21.348   0.879   7.808  1.00  0.00     0.039 C 
ATOM     16  C   UNL     1     -19.714   1.109   9.788  1.00  0.00     0.039 C 
BRANCH  13  17
ATOM     17  C   UNL     1     -22.086  -1.841   8.751  1.00  0.00     0.066 CG0
ATOM     18  G   UNL     1     -21.467  -2.470   7.518  1.00  0.00     0.000 G0
ENDBRANCH  13  17
ENDBRANCH  11  13
ENDBRANCH  10  11
ENDBRANCH   1  10
TORSDOF 0
ENDMDL
MODEL 5
REMARK VINA RESULT:    -3.481      2.201      4.052
REMARK INTER + INTRA:          -4.601
REMARK INTER:                  -5.000
REMARK INTRA:                   0.399
REMARK UNBOUND:                 0.304
REMARK SMILES CC1=CCC(=C(C)C)C(=O)CC(C)=CCC1
REMARK SMILES IDX 12 1 14 2 13 3 15 4 16 5 2 6 1 7 3 8 11 10 9 11 10 12 5 13
REMARK SMILES IDX 6 14 7 15 8 16 4 17
REMARK H PARENT
REMARK Flexibility Score: 60.00
ROOT
ATOM      1  C   UNL     1     -18.797  -3.167   9.315  1.00  0.00    -0.070 C 
ATOM      2  C   UNL     1     -17.752  -2.489   9.842  1.00  0.00    -0.027 C 
ATOM      3  C   UNL     1     -18.611  -4.635   9.026  1.00  0.00     0.039 C 
ENDROOT
BRANCH   2   4
ATOM      4  C   UNL     1     -17.711  -1.001  10.111  1.00  0.00     0.032 C 
BRANCH   4   5
ATOM      5  C   UNL     1     -18.224  -0.579  11.504  1.00  0.00     0.034 C 
BRANCH   5   6
ATOM      6  C   UNL     1     -19.377   0.407  11.443  1.00  0.00    -0.077 C 
ATOM      7  C   UNL     1     -19.045   1.860  11.216  1.00  0.00     0.039 C 
ATOM      8  C   UNL     1     -20.676   0.076  11.647  1.00  0.00    -0.023 CG0
ATOM      9  G   UNL     1     -21.242  -1.312  11.872  1.00  0.00     0.000 G0
ENDBRANCH   5   6
ENDBRANCH   4   5
ENDBRANCH   2   4
BRANCH   1  10
ATOM     10  C   UNL     1     -20.101  -2.506   8.918  1.00  0.00     0.111 C 
BRANCH  10  11
ATOM     11  C   UNL     1     -21.221  -2.885   9.851  1.00  0.00     0.163 C 
ATOM     12  O   UNL     1     -21.575  -4.095   9.893  1.00  0.00    -0.294 OA
BRANCH  11  13
ATOM     13  C   UNL     1     -21.958  -1.877  10.669  1.00  0.00    -0.002 C 
ATOM     14  C   UNL     1     -23.190  -1.427  10.282  1.00  0.00    -0.069 C 
ATOM     15  C   UNL     1     -23.892  -0.295  11.000  1.00  0.00     0.039 C 
ATOM     16  C   UNL     1     -23.915  -2.043   9.105  1.00  0.00     0.039 C 
BRANCH  13  17
ATOM     17  C   UNL     1     -21.244  -1.312  11.886  1.00  0.00     0.066 CG0
ATOM     18  G   UNL     1     -20.679   0.071  11.632  1.00  0.00     0.000 G0
ENDBRANCH  13  17
ENDBRANCH  11  13
ENDBRANCH  10  11
ENDBRANCH   1  10
TORSDOF 0
ENDMDL
MODEL 6
REMARK VINA RESULT:    -3.374      1.790      2.636
REMARK INTER + INTRA:          -4.450
REMARK INTER:                  -4.729
REMARK INTRA:                   0.279
REMARK UNBOUND:                 0.304
REMARK SMILES CC1=CCC(=C(C)C)C(=O)CC(C)=CCC1
REMARK SMILES IDX 12 1 14 2 13 3 15 4 16 5 2 6 1 7 3 8 11 10 9 11 10 12 5 13
REMARK SMILES IDX 6 14 7 15 8 16 4 17
REMARK H PARENT
REMARK Flexibility Score: 60.00
ROOT
ATOM      1  C   UNL     1     -18.273  -2.345  10.300  1.00  0.00    -0.070 C 
ATOM      2  C   UNL     1     -18.199  -3.333   9.380  1.00  0.00    -0.027 C 
ATOM      3  C   UNL     1     -17.005  -1.602  10.637  1.00  0.00     0.039 C 
ENDROOT
BRANCH   2   4
ATOM      4  C   UNL     1     -19.333  -4.252   8.979  1.00  0.00     0.032 C 
BRANCH   4   5
ATOM      5  C   UNL     1     -20.441  -3.585   8.136  1.00  0.00     0.034 C 
BRANCH   5   6
ATOM      6  C   UNL     1     -21.825  -3.741   8.739  1.00  0.00    -0.077 C 
ATOM      7  C   UNL     1     -22.373  -5.138   8.884  1.00  0.00     0.039 C 
ATOM      8  C   UNL     1     -22.626  -2.705   9.090  1.00  0.00    -0.023 CG0
ATOM      9  G   UNL     1     -22.283  -1.229   9.051  1.00  0.00     0.000 G0
ENDBRANCH   5   6
ENDBRANCH   4   5
ENDBRANCH   2   4
BRANCH   1  10
ATOM     10  C   UNL     1     -19.536  -2.016  11.067  1.00  0.00     0.111 C 
BRANCH  10  11
ATOM     11  C   UNL     1     -20.225  -0.800  10.508  1.00  0.00     0.163 C 
ATOM     12  O   UNL     1     -19.516   0.201  10.212  1.00  0.00    -0.294 OA
BRANCH  11  13
ATOM     13  C   UNL     1     -21.707  -0.719  10.352  1.00  0.00    -0.002 C 
ATOM     14  C   UNL     1     -22.497  -0.284  11.380  1.00  0.00    -0.069 C 
ATOM     15  C   UNL     1     -24.007  -0.339  11.310  1.00  0.00     0.039 C 
ATOM     16  C   UNL     1     -21.892   0.276  12.649  1.00  0.00     0.039 C 
BRANCH  13  17
ATOM     17  C   UNL     1     -22.298  -1.226   9.047  1.00  0.00     0.066 CG0
ATOM     18  G   UNL     1     -22.625  -2.706   9.098  1.00  0.00     0.000 G0
ENDBRANCH  13  17
ENDBRANCH  11  13
ENDBRANCH  10  11
ENDBRANCH   1  10
TORSDOF 0
ENDMDL
MODEL 7
REMARK VINA RESULT:    -3.200      1.892      4.007
REMARK INTER + INTRA:          -4.205
REMARK INTER:                  -4.363
REMARK INTRA:                   0.157
REMARK UNBOUND:                 0.304
REMARK SMILES CC1=CCC(=C(C)C)C(=O)CC(C)=CCC1
REMARK SMILES IDX 12 1 14 2 13 3 15 4 16 5 2 6 1 7 3 8 11 10 9 11 10 12 5 13
REMARK SMILES IDX 6 14 7 15 8 16 4 17
REMARK H PARENT
REMARK Flexibility Score: 60.00
ROOT
ATOM      1  C   UNL     1     -17.924  -3.139   9.321  1.00  0.00    -0.070 C 
ATOM      2  C   UNL     1     -17.396  -1.991   9.803  1.00  0.00    -0.027 C 
ATOM      3  C   UNL     1     -17.157  -3.871   8.248  1.00  0.00     0.039 C 
ENDROOT
BRANCH   2   4
ATOM      4  C   UNL     1     -18.055  -1.069  10.806  1.00  0.00     0.032 C 
BRANCH   4   5
ATOM      5  C   UNL     1     -18.984  -0.001  10.191  1.00  0.00     0.034 C 
BRANCH   5   6
ATOM      6  C   UNL     1     -20.367   0.019  10.817  1.00  0.00    -0.077 C 
ATOM      7  C   UNL     1     -20.509   0.640  12.184  1.00  0.00     0.039 C 
ATOM      8  C   UNL     1     -21.466  -0.546  10.259  1.00  0.00    -0.023 CG0
ATOM      9  G   UNL     1     -21.565  -1.204   8.898  1.00  0.00     0.000 G0
ENDBRANCH   5   6
ENDBRANCH   4   5
ENDBRANCH   2   4
BRANCH   1  10
ATOM     10  C   UNL     1     -19.280  -3.669   9.736  1.00  0.00     0.111 C 
BRANCH  10  11
ATOM     11  C   UNL     1     -20.317  -3.438   8.669  1.00  0.00     0.163 C 
ATOM     12  O   UNL     1     -20.059  -3.824   7.496  1.00  0.00    -0.294 OA
BRANCH  11  13
ATOM     13  C   UNL     1     -21.599  -2.721   8.938  1.00  0.00    -0.002 C 
ATOM     14  C   UNL     1     -22.759  -3.416   9.142  1.00  0.00    -0.069 C 
ATOM     15  C   UNL     1     -24.099  -2.721   9.260  1.00  0.00     0.039 C 
ATOM     16  C   UNL     1     -22.760  -4.924   9.258  1.00  0.00     0.039 C 
BRANCH  13  17
ATOM     17  C   UNL     1     -21.572  -1.203   8.882  1.00  0.00     0.066 CG0
ATOM     18  G   UNL     1     -21.475  -0.576  10.258  1.00  0.00     0.000 G0
ENDBRANCH  13  17
ENDBRANCH  11  13
ENDBRANCH  10  11
ENDBRANCH   1  10
TORSDOF 0
ENDMDL
MODEL 8
REMARK VINA RESULT:    -3.170      1.382      1.662
REMARK INTER + INTRA:          -4.163
REMARK INTER:                  -4.650
REMARK INTRA:                   0.487
REMARK UNBOUND:                 0.304
REMARK SMILES CC1=CCC(=C(C)C)C(=O)CC(C)=CCC1
REMARK SMILES IDX 12 1 14 2 13 3 15 4 16 5 2 6 1 7 3 8 11 10 9 11 10 12 5 13
REMARK SMILES IDX 6 14 7 15 8 16 4 17
REMARK H PARENT
REMARK Flexibility Score: 60.00
ROOT
ATOM      1  C   UNL     1     -18.891  -1.477  10.517  1.00  0.00    -0.070 C 
ATOM      2  C   UNL     1     -18.062  -2.281   9.814  1.00  0.00    -0.027 C 
ATOM      3  C   UNL     1     -18.589  -0.000  10.539  1.00  0.00     0.039 C 
ENDROOT
BRANCH   2   4
ATOM      4  C   UNL     1     -18.142  -3.791   9.749  1.00  0.00     0.032 C 
BRANCH   4   5
ATOM      5  C   UNL     1     -18.796  -4.351   8.469  1.00  0.00     0.034 C 
BRANCH   5   6
ATOM      6  C   UNL     1     -20.263  -4.697   8.650  1.00  0.00    -0.077 C 
ATOM      7  C   UNL     1     -20.608  -6.114   9.033  1.00  0.00     0.039 C 
ATOM      8  C   UNL     1     -21.284  -3.834   8.423  1.00  0.00    -0.023 CG0
ATOM      9  G   UNL     1     -21.178  -2.369   8.051  1.00  0.00     0.000 G0
ENDBRANCH   5   6
ENDBRANCH   4   5
ENDBRANCH   2   4
BRANCH   1  10
ATOM     10  C   UNL     1     -20.043  -1.997  11.351  1.00  0.00     0.111 C 
BRANCH  10  11
ATOM     11  C   UNL     1     -21.337  -1.984  10.580  1.00  0.00     0.163 C 
ATOM     12  O   UNL     1     -22.349  -2.520  11.109  1.00  0.00    -0.294 OA
BRANCH  11  13
ATOM     13  C   UNL     1     -21.444  -1.419   9.202  1.00  0.00    -0.002 C 
ATOM     14  C   UNL     1     -21.850  -0.128   9.005  1.00  0.00    -0.069 C 
ATOM     15  C   UNL     1     -22.120   0.424   7.622  1.00  0.00     0.039 C 
ATOM     16  C   UNL     1     -22.052   0.816  10.169  1.00  0.00     0.039 C 
BRANCH  13  17
ATOM     17  C   UNL     1     -21.176  -2.362   8.041  1.00  0.00     0.066 CG0
ATOM     18  G   UNL     1     -21.289  -3.819   8.444  1.00  0.00     0.000 G0
ENDBRANCH  13  17
ENDBRANCH  11  13
ENDBRANCH  10  11
ENDBRANCH   1  10
TORSDOF 0
ENDMDL
MODEL 9
REMARK VINA RESULT:    -3.154      1.685      3.771
REMARK INTER + INTRA:          -4.140
REMARK INTER:                  -4.884
REMARK INTRA:                   0.744
REMARK UNBOUND:                 0.304
REMARK SMILES CC1=CCC(=C(C)C)C(=O)CC(C)=CCC1
REMARK SMILES IDX 12 1 14 2 13 3 15 4 16 5 2 6 1 7 3 8 11 10 9 11 10 12 5 13
REMARK SMILES IDX 6 14 7 15 8 16 4 17
REMARK H PARENT
REMARK Flexibility Score: 60.00
ROOT
ATOM      1  C   UNL     1     -18.080  -0.554  11.221  1.00  0.00    -0.070 C 
ATOM      2  C   UNL     1     -19.089   0.316  11.454  1.00  0.00    -0.027 C 
ATOM      3  C   UNL     1     -17.084  -0.789  12.329  1.00  0.00     0.039 C 
ENDROOT
BRANCH   2   4
ATOM      4  C   UNL     1     -20.126   0.755  10.443  1.00  0.00     0.032 C 
BRANCH   4   5
ATOM      5  C   UNL     1     -21.590   0.550  10.885  1.00  0.00     0.034 C 
BRANCH   5   6
ATOM      6  C   UNL     1     -21.931  -0.903  11.167  1.00  0.00    -0.077 C 
ATOM      7  C   UNL     1     -22.633  -1.219  12.463  1.00  0.00     0.039 C 
ATOM      8  C   UNL     1     -21.583  -1.938  10.364  1.00  0.00    -0.023 CG0
ATOM      9  G   UNL     1     -20.895  -1.860   9.016  1.00  0.00     0.000 G0
ENDBRANCH   5   6
ENDBRANCH   4   5
ENDBRANCH   2   4
BRANCH   1  10
ATOM     10  C   UNL     1     -17.852  -1.224   9.883  1.00  0.00     0.111 C 
BRANCH  10  11
ATOM     11  C   UNL     1     -18.548  -2.557   9.803  1.00  0.00     0.163 C 
ATOM     12  O   UNL     1     -18.092  -3.508  10.496  1.00  0.00    -0.294 OA
BRANCH  11  13
ATOM     13  C   UNL     1     -19.708  -2.803   8.897  1.00  0.00    -0.002 C 
ATOM     14  C   UNL     1     -19.659  -3.788   7.949  1.00  0.00    -0.069 C 
ATOM     15  C   UNL     1     -20.750  -3.959   6.914  1.00  0.00     0.039 C 
ATOM     16  C   UNL     1     -18.500  -4.758   7.886  1.00  0.00     0.039 C 
BRANCH  13  17
ATOM     17  C   UNL     1     -20.894  -1.860   9.012  1.00  0.00     0.066 CG0
ATOM     18  G   UNL     1     -21.574  -1.950  10.364  1.00  0.00     0.000 G0
ENDBRANCH  13  17
ENDBRANCH  11  13
ENDBRANCH  10  11
ENDBRANCH   1  10
TORSDOF 0
ENDMDL
