MODEL 1
REMARK VINA RESULT:    -3.333      0.000      0.000
REMARK INTER + INTRA:          -4.011
REMARK INTER:                  -3.917
REMARK INTRA:                  -0.093
REMARK UNBOUND:                -0.093
REMARK SMILES O=C([O-])CCC(=O)[O-]
REMARK SMILES IDX 4 1 2 2 1 3 3 4 5 5 6 6 7 7 8 8
REMARK H PARENT
REMARK Flexibility Score: inf
ROOT
ATOM      1  C   UNL     1     -18.843  13.726  -5.931  1.00  0.00     0.059 C 
ENDROOT
BRANCH   1   2
ATOM      2  C   UNL     1     -20.101  13.727  -5.121  1.00  0.00     0.042 C 
ATOM      3  O   UNL     1     -20.180  14.422  -4.074  1.00  0.00    -0.550 OA
ATOM      4  O   UNL     1     -21.205  13.000  -5.550  1.00  0.00    -0.550 OA
ENDBRANCH   1   2
BRANCH   1   5
ATOM      5  C   UNL     1     -17.850  14.751  -5.378  1.00  0.00     0.059 C 
BRANCH   5   6
ATOM      6  C   UNL     1     -16.803  14.072  -4.554  1.00  0.00     0.042 C 
ATOM      7  O   UNL     1     -15.857  13.457  -5.112  1.00  0.00    -0.550 OA
ATOM      8  O   UNL     1     -16.843  14.160  -3.169  1.00  0.00    -0.550 OA
ENDBRANCH   5   6
ENDBRANCH   1   5
TORSDOF 3
ENDMDL
MODEL 2
REMARK VINA RESULT:    -3.323      0.067      3.896
REMARK INTER + INTRA:          -3.999
REMARK INTER:                  -3.900
REMARK INTRA:                  -0.099
REMARK UNBOUND:                -0.093
REMARK SMILES O=C([O-])CCC(=O)[O-]
REMARK SMILES IDX 4 1 2 2 1 3 3 4 5 5 6 6 7 7 8 8
REMARK H PARENT
REMARK Flexibility Score: inf
ROOT
ATOM      1  C   UNL     1     -17.874  14.757  -5.323  1.00  0.00     0.059 C 
ENDROOT
BRANCH   1   2
ATOM      2  C   UNL     1     -16.819  14.078  -4.508  1.00  0.00     0.042 C 
ATOM      3  O   UNL     1     -15.841  13.524  -5.074  1.00  0.00    -0.550 OA
ATOM      4  O   UNL     1     -16.891  14.098  -3.120  1.00  0.00    -0.550 OA
ENDBRANCH   1   2
BRANCH   1   5
ATOM      5  C   UNL     1     -18.837  13.728  -5.918  1.00  0.00     0.059 C 
BRANCH   5   6
ATOM      6  C   UNL     1     -20.122  13.711  -5.154  1.00  0.00     0.042 C 
ATOM      7  O   UNL     1     -20.238  14.382  -4.094  1.00  0.00    -0.550 OA
ATOM      8  O   UNL     1     -21.209  12.994  -5.636  1.00  0.00    -0.550 OA
ENDBRANCH   5   6
ENDBRANCH   1   5
TORSDOF 3
ENDMDL
MODEL 3
REMARK VINA RESULT:    -3.235      0.896      3.621
REMARK INTER + INTRA:          -3.895
REMARK INTER:                  -3.813
REMARK INTRA:                  -0.082
REMARK UNBOUND:                -0.093
REMARK SMILES O=C([O-])CCC(=O)[O-]
REMARK SMILES IDX 4 1 2 2 1 3 3 4 5 5 6 6 7 7 8 8
REMARK H PARENT
REMARK Flexibility Score: inf
ROOT
ATOM      1  C   UNL     1     -18.137  14.820  -5.267  1.00  0.00     0.059 C 
ENDROOT
BRANCH   1   2
ATOM      2  C   UNL     1     -16.976  14.316  -4.469  1.00  0.00     0.042 C 
ATOM      3  O   UNL     1     -16.928  14.513  -3.227  1.00  0.00    -0.550 OA
ATOM      4  O   UNL     1     -15.971  13.584  -5.090  1.00  0.00    -0.550 OA
ENDBRANCH   1   2
BRANCH   1   5
ATOM      5  C   UNL     1     -18.828  13.665  -5.995  1.00  0.00     0.059 C 
BRANCH   5   6
ATOM      6  C   UNL     1     -19.886  13.059  -5.128  1.00  0.00     0.042 C 
ATOM      7  O   UNL     1     -21.102  13.303  -5.347  1.00  0.00    -0.550 OA
ATOM      8  O   UNL     1     -19.533  12.186  -4.108  1.00  0.00    -0.550 OA
ENDBRANCH   5   6
ENDBRANCH   1   5
TORSDOF 3
ENDMDL
MODEL 4
REMARK VINA RESULT:    -3.059      1.930      3.293
REMARK INTER + INTRA:          -3.689
REMARK INTER:                  -3.535
REMARK INTRA:                  -0.154
REMARK UNBOUND:                -0.093
REMARK SMILES O=C([O-])CCC(=O)[O-]
REMARK SMILES IDX 4 1 2 2 1 3 3 4 5 5 6 6 7 7 8 8
REMARK H PARENT
REMARK Flexibility Score: inf
ROOT
ATOM      1  C   UNL     1     -18.074  14.085  -5.968  1.00  0.00     0.059 C 
ENDROOT
BRANCH   1   2
ATOM      2  C   UNL     1     -17.101  13.103  -5.395  1.00  0.00     0.042 C 
ATOM      3  O   UNL     1     -17.438  11.901  -5.231  1.00  0.00    -0.550 OA
ATOM      4  O   UNL     1     -15.807  13.504  -5.087  1.00  0.00    -0.550 OA
ENDBRANCH   1   2
BRANCH   1   5
ATOM      5  C   UNL     1     -19.136  14.454  -4.931  1.00  0.00     0.059 C 
BRANCH   5   6
ATOM      6  C   UNL     1     -18.560  15.363  -3.892  1.00  0.00     0.042 C 
ATOM      7  O   UNL     1     -18.850  15.202  -2.678  1.00  0.00    -0.550 OA
ATOM      8  O   UNL     1     -17.663  16.357  -4.259  1.00  0.00    -0.550 OA
ENDBRANCH   5   6
ENDBRANCH   1   5
TORSDOF 3
ENDMDL
MODEL 5
REMARK VINA RESULT:    -3.038      2.388      3.041
REMARK INTER + INTRA:          -3.664
REMARK INTER:                  -3.622
REMARK INTRA:                  -0.042
REMARK UNBOUND:                -0.093
REMARK SMILES O=C([O-])CCC(=O)[O-]
REMARK SMILES IDX 4 1 2 2 1 3 3 4 5 5 6 6 7 7 8 8
REMARK H PARENT
REMARK Flexibility Score: inf
ROOT
ATOM      1  C   UNL     1     -18.945  14.911  -4.220  1.00  0.00     0.059 C 
ENDROOT
BRANCH   1   2
ATOM      2  C   UNL     1     -18.999  14.101  -5.477  1.00  0.00     0.042 C 
ATOM      3  O   UNL     1     -19.995  13.369  -5.717  1.00  0.00    -0.550 OA
ATOM      4  O   UNL     1     -17.970  14.192  -6.407  1.00  0.00    -0.550 OA
ENDBRANCH   1   2
BRANCH   1   5
ATOM      5  C   UNL     1     -17.674  15.761  -4.185  1.00  0.00     0.059 C 
BRANCH   5   6
ATOM      6  C   UNL     1     -17.848  16.925  -3.262  1.00  0.00     0.042 C 
ATOM      7  O   UNL     1     -16.845  17.568  -2.855  1.00  0.00    -0.550 OA
ATOM      8  O   UNL     1     -19.122  17.332  -2.889  1.00  0.00    -0.550 OA
ENDBRANCH   5   6
ENDBRANCH   1   5
TORSDOF 3
ENDMDL
MODEL 6
REMARK VINA RESULT:    -3.035      1.812      2.197
REMARK INTER + INTRA:          -3.660
REMARK INTER:                  -3.624
REMARK INTRA:                  -0.036
REMARK UNBOUND:                -0.093
REMARK SMILES O=C([O-])CCC(=O)[O-]
REMARK SMILES IDX 4 1 2 2 1 3 3 4 5 5 6 6 7 7 8 8
REMARK H PARENT
REMARK Flexibility Score: inf
ROOT
ATOM      1  C   UNL     1     -20.176  14.095  -4.241  1.00  0.00     0.059 C 
ENDROOT
BRANCH   1   2
ATOM      2  C   UNL     1     -21.652  13.884  -4.123  1.00  0.00     0.042 C 
ATOM      3  O   UNL     1     -22.390  14.803  -3.679  1.00  0.00    -0.550 OA
ATOM      4  O   UNL     1     -22.220  12.690  -4.550  1.00  0.00    -0.550 OA
ENDBRANCH   1   2
BRANCH   1   5
ATOM      5  C   UNL     1     -19.642  13.443  -5.519  1.00  0.00     0.059 C 
BRANCH   5   6
ATOM      6  C   UNL     1     -18.377  14.110  -5.957  1.00  0.00     0.042 C 
ATOM      7  O   UNL     1     -17.832  13.783  -7.044  1.00  0.00    -0.550 OA
ATOM      8  O   UNL     1     -17.826  15.128  -5.190  1.00  0.00    -0.550 OA
ENDBRANCH   5   6
ENDBRANCH   1   5
TORSDOF 3
ENDMDL
MODEL 7
REMARK VINA RESULT:    -2.983      1.495      4.069
REMARK INTER + INTRA:          -3.599
REMARK INTER:                  -3.566
REMARK INTRA:                  -0.034
REMARK UNBOUND:                -0.093
REMARK SMILES O=C([O-])CCC(=O)[O-]
REMARK SMILES IDX 4 1 2 2 1 3 3 4 5 5 6 6 7 7 8 8
REMARK H PARENT
REMARK Flexibility Score: inf
ROOT
ATOM      1  C   UNL     1     -19.056  14.262  -4.972  1.00  0.00     0.059 C 
ENDROOT
BRANCH   1   2
ATOM      2  C   UNL     1     -17.789  14.088  -5.748  1.00  0.00     0.042 C 
ATOM      3  O   UNL     1     -16.676  14.128  -5.161  1.00  0.00    -0.550 OA
ATOM      4  O   UNL     1     -17.839  13.833  -7.113  1.00  0.00    -0.550 OA
ENDBRANCH   1   2
BRANCH   1   5
ATOM      5  C   UNL     1     -20.150  13.343  -5.520  1.00  0.00     0.059 C 
BRANCH   5   6
ATOM      6  C   UNL     1     -21.324  13.317  -4.594  1.00  0.00     0.042 C 
ATOM      7  O   UNL     1     -21.600  14.326  -3.893  1.00  0.00    -0.550 OA
ATOM      8  O   UNL     1     -22.142  12.197  -4.539  1.00  0.00    -0.550 OA
ENDBRANCH   5   6
ENDBRANCH   1   5
TORSDOF 3
ENDMDL
MODEL 8
REMARK VINA RESULT:    -2.962      1.937      3.925
REMARK INTER + INTRA:          -3.575
REMARK INTER:                  -3.515
REMARK INTRA:                  -0.060
REMARK UNBOUND:                -0.093
REMARK SMILES O=C([O-])CCC(=O)[O-]
REMARK SMILES IDX 4 1 2 2 1 3 3 4 5 5 6 6 7 7 8 8
REMARK H PARENT
REMARK Flexibility Score: inf
ROOT
ATOM      1  C   UNL     1     -17.748  15.737  -4.158  1.00  0.00     0.059 C 
ENDROOT
BRANCH   1   2
ATOM      2  C   UNL     1     -17.233  15.746  -2.753  1.00  0.00     0.042 C 
ATOM      3  O   UNL     1     -17.131  14.670  -2.109  1.00  0.00    -0.550 OA
ATOM      4  O   UNL     1     -16.820  16.939  -2.172  1.00  0.00    -0.550 OA
ENDBRANCH   1   2
BRANCH   1   5
ATOM      5  C   UNL     1     -19.010  14.878  -4.260  1.00  0.00     0.059 C 
BRANCH   5   6
ATOM      6  C   UNL     1     -19.001  14.083  -5.527  1.00  0.00     0.042 C 
ATOM      7  O   UNL     1     -19.983  13.352  -5.823  1.00  0.00    -0.550 OA
ATOM      8  O   UNL     1     -17.930  14.185  -6.405  1.00  0.00    -0.550 OA
ENDBRANCH   5   6
ENDBRANCH   1   5
TORSDOF 3
ENDMDL
MODEL 9
REMARK VINA RESULT:    -2.921      7.105      8.551
REMARK INTER + INTRA:          -3.526
REMARK INTER:                  -3.414
REMARK INTRA:                  -0.113
REMARK UNBOUND:                -0.093
REMARK SMILES O=C([O-])CCC(=O)[O-]
REMARK SMILES IDX 4 1 2 2 1 3 3 4 5 5 6 6 7 7 8 8
REMARK H PARENT
REMARK Flexibility Score: inf
ROOT
ATOM      1  C   UNL     1     -17.860  20.919  -0.730  1.00  0.00     0.059 C 
ENDROOT
BRANCH   1   2
ATOM      2  C   UNL     1     -17.096  19.637  -0.619  1.00  0.00     0.042 C 
ATOM      3  O   UNL     1     -17.134  18.795  -1.553  1.00  0.00    -0.550 OA
ATOM      4  O   UNL     1     -16.302  19.395   0.495  1.00  0.00    -0.550 OA
ENDBRANCH   1   2
BRANCH   1   5
ATOM      5  C   UNL     1     -19.186  20.819   0.027  1.00  0.00     0.059 C 
BRANCH   5   6
ATOM      6  C   UNL     1     -20.338  20.866  -0.926  1.00  0.00     0.042 C 
ATOM      7  O   UNL     1     -21.385  21.495  -0.623  1.00  0.00    -0.550 OA
ATOM      8  O   UNL     1     -20.236  20.256  -2.169  1.00  0.00    -0.550 OA
ENDBRANCH   5   6
ENDBRANCH   1   5
TORSDOF 3
ENDMDL
