MODEL 1
REMARK VINA RESULT:     1.525      0.000      0.000
REMARK INTER + INTRA:           3.670
REMARK INTER:                   3.843
REMARK INTRA:                  -0.173
REMARK UNBOUND:                -0.173
REMARK SMILES CCCCCCCCCCCCCCCCCCCCCCCCCCCC(=O)[O-]
REMARK SMILES IDX 15 1 16 2 17 3 18 4 19 5 20 6 21 7 22 8 23 9 24 10 25 11
REMARK SMILES IDX 26 12 27 13 28 14 29 15 30 16 14 17 13 18 12 19 11 20 10 21
REMARK SMILES IDX 9 22 8 23 7 24 6 25 5 26 4 27 3 28 2 29 1 30
REMARK H PARENT
REMARK Flexibility Score: inf
ROOT
ATOM      1  C   UNL     1      45.938  13.385 -33.165  1.00  0.00     0.000 C 
ENDROOT
BRANCH   1   2
ATOM      2  C   UNL     1      46.285  12.142 -33.995  1.00  0.00     0.000 C 
BRANCH   2   3
ATOM      3  C   UNL     1      46.527  12.460 -35.483  1.00  0.00     0.000 C 
BRANCH   3   4
ATOM      4  C   UNL     1      45.380  12.064 -36.431  1.00  0.00     0.000 C 
BRANCH   4   5
ATOM      5  C   UNL     1      44.001  11.903 -35.762  1.00  0.00     0.000 C 
BRANCH   5   6
ATOM      6  C   UNL     1      42.843  12.552 -36.548  1.00  0.00     0.000 C 
BRANCH   6   7
ATOM      7  C   UNL     1      41.689  13.009 -35.638  1.00  0.00     0.000 C 
BRANCH   7   8
ATOM      8  C   UNL     1      40.440  13.421 -36.434  1.00  0.00     0.000 C 
BRANCH   8   9
ATOM      9  C   UNL     1      39.588  14.466 -35.697  1.00  0.00     0.000 C 
BRANCH   9  10
ATOM     10  C   UNL     1      38.153  13.963 -35.500  1.00  0.00     0.000 C 
BRANCH  10  11
ATOM     11  C   UNL     1      37.646  14.286 -34.087  1.00  0.00     0.000 C 
BRANCH  11  12
ATOM     12  C   UNL     1      37.465  13.029 -33.215  1.00  0.00     0.006 C 
BRANCH  12  13
ATOM     13  C   UNL     1      36.878  13.302 -31.821  1.00  0.00     0.053 C 
BRANCH  13  14
ATOM     14  C   UNL     1      37.442  14.547 -31.207  1.00  0.00     0.041 C 
ATOM     15  O   UNL     1      37.823  15.499 -31.939  1.00  0.00    -0.550 OA
ATOM     16  O   UNL     1      37.566  14.647 -29.827  1.00  0.00    -0.550 OA
ENDBRANCH  13  14
ENDBRANCH  12  13
ENDBRANCH  11  12
ENDBRANCH  10  11
ENDBRANCH   9  10
ENDBRANCH   8   9
ENDBRANCH   7   8
ENDBRANCH   6   7
ENDBRANCH   5   6
ENDBRANCH   4   5
ENDBRANCH   3   4
ENDBRANCH   2   3
ENDBRANCH   1   2
BRANCH   1  17
ATOM     17  C   UNL     1      45.504  12.998 -31.742  1.00  0.00     0.000 C 
BRANCH  17  18
ATOM     18  C   UNL     1      46.381  11.890 -31.139  1.00  0.00     0.000 C 
BRANCH  18  19
ATOM     19  C   UNL     1      45.853  11.381 -29.789  1.00  0.00     0.000 C 
BRANCH  19  20
ATOM     20  C   UNL     1      47.011  10.995 -28.860  1.00  0.00     0.000 C 
BRANCH  20  21
ATOM     21  C   UNL     1      46.600  10.934 -27.377  1.00  0.00     0.000 C 
BRANCH  21  22
ATOM     22  C   UNL     1      45.214  11.526 -27.058  1.00  0.00    -0.000 C 
BRANCH  22  23
ATOM     23  C   UNL     1      44.740  11.335 -25.605  1.00  0.00    -0.000 C 
BRANCH  23  24
ATOM     24  C   UNL     1      44.687  12.646 -24.791  1.00  0.00    -0.000 C 
BRANCH  24  25
ATOM     25  C   UNL     1      45.111  12.450 -23.326  1.00  0.00    -0.000 C 
BRANCH  25  26
ATOM     26  C   UNL     1      46.607  12.128 -23.175  1.00  0.00    -0.000 C 
BRANCH  26  27
ATOM     27  C   UNL     1      46.885  10.890 -22.297  1.00  0.00    -0.000 C 
BRANCH  27  28
ATOM     28  C   UNL     1      47.423  11.275 -20.907  1.00  0.00    -0.000 C 
BRANCH  28  29
ATOM     29  C   UNL     1      48.958  11.261 -20.843  1.00  0.00    -0.003 C 
ATOM     30  C   UNL     1      49.489  11.099 -19.419  1.00  0.00     0.004 C 
ENDBRANCH  28  29
ENDBRANCH  27  28
ENDBRANCH  26  27
ENDBRANCH  25  26
ENDBRANCH  24  25
ENDBRANCH  23  24
ENDBRANCH  22  23
ENDBRANCH  21  22
ENDBRANCH  20  21
ENDBRANCH  19  20
ENDBRANCH  18  19
ENDBRANCH  17  18
ENDBRANCH   1  17
TORSDOF 26
ENDMDL
MODEL 2
REMARK VINA RESULT:     2.332      1.218      2.040
REMARK INTER + INTRA:           5.703
REMARK INTER:                   5.159
REMARK INTRA:                   0.544
REMARK UNBOUND:                -0.173
REMARK SMILES CCCCCCCCCCCCCCCCCCCCCCCCCCCC(=O)[O-]
REMARK SMILES IDX 15 1 16 2 17 3 18 4 19 5 20 6 21 7 22 8 23 9 24 10 25 11
REMARK SMILES IDX 26 12 27 13 28 14 29 15 30 16 14 17 13 18 12 19 11 20 10 21
REMARK SMILES IDX 9 22 8 23 7 24 6 25 5 26 4 27 3 28 2 29 1 30
REMARK H PARENT
REMARK Flexibility Score: inf
ROOT
ATOM      1  C   UNL     1      45.987  12.176 -30.587  1.00  0.00     0.000 C 
ENDROOT
BRANCH   1   2
ATOM      2  C   UNL     1      45.715  11.791 -32.048  1.00  0.00     0.000 C 
BRANCH   2   3
ATOM      3  C   UNL     1      45.389  13.005 -32.940  1.00  0.00     0.000 C 
BRANCH   3   4
ATOM      4  C   UNL     1      43.939  13.065 -33.455  1.00  0.00     0.000 C 
BRANCH   4   5
ATOM      5  C   UNL     1      43.515  11.896 -34.366  1.00  0.00     0.000 C 
BRANCH   5   6
ATOM      6  C   UNL     1      42.155  12.106 -35.063  1.00  0.00     0.000 C 
BRANCH   6   7
ATOM      7  C   UNL     1      42.217  13.157 -36.185  1.00  0.00     0.000 C 
BRANCH   7   8
ATOM      8  C   UNL     1      40.823  13.573 -36.681  1.00  0.00     0.000 C 
BRANCH   8   9
ATOM      9  C   UNL     1      39.713  13.240 -35.672  1.00  0.00     0.000 C 
BRANCH   9  10
ATOM     10  C   UNL     1      38.756  14.425 -35.498  1.00  0.00     0.000 C 
BRANCH  10  11
ATOM     11  C   UNL     1      37.500  14.008 -34.720  1.00  0.00     0.000 C 
BRANCH  11  12
ATOM     12  C   UNL     1      37.695  14.070 -33.194  1.00  0.00     0.006 C 
BRANCH  12  13
ATOM     13  C   UNL     1      37.050  12.906 -32.424  1.00  0.00     0.053 C 
BRANCH  13  14
ATOM     14  C   UNL     1      37.604  12.773 -31.038  1.00  0.00     0.041 C 
ATOM     15  O   UNL     1      38.246  13.723 -30.517  1.00  0.00    -0.550 OA
ATOM     16  O   UNL     1      37.428  11.590 -30.330  1.00  0.00    -0.550 OA
ENDBRANCH  13  14
ENDBRANCH  12  13
ENDBRANCH  11  12
ENDBRANCH  10  11
ENDBRANCH   9  10
ENDBRANCH   8   9
ENDBRANCH   7   8
ENDBRANCH   6   7
ENDBRANCH   5   6
ENDBRANCH   4   5
ENDBRANCH   3   4
ENDBRANCH   2   3
ENDBRANCH   1   2
BRANCH   1  17
ATOM     17  C   UNL     1      45.868  10.955 -29.661  1.00  0.00     0.000 C 
BRANCH  17  18
ATOM     18  C   UNL     1      47.015  10.876 -28.640  1.00  0.00     0.000 C 
BRANCH  18  19
ATOM     19  C   UNL     1      46.518  10.875 -27.187  1.00  0.00     0.000 C 
BRANCH  19  20
ATOM     20  C   UNL     1      45.019  11.200 -27.122  1.00  0.00     0.000 C 
BRANCH  20  21
ATOM     21  C   UNL     1      44.478  11.262 -25.682  1.00  0.00     0.000 C 
BRANCH  21  22
ATOM     22  C   UNL     1      43.829  12.601 -25.284  1.00  0.00    -0.000 C 
BRANCH  22  23
ATOM     23  C   UNL     1      44.297  13.179 -23.935  1.00  0.00    -0.000 C 
BRANCH  23  24
ATOM     24  C   UNL     1      45.334  12.297 -23.206  1.00  0.00    -0.000 C 
BRANCH  24  25
ATOM     25  C   UNL     1      46.331  11.636 -24.172  1.00  0.00    -0.000 C 
BRANCH  25  26
ATOM     26  C   UNL     1      47.470  10.902 -23.444  1.00  0.00    -0.000 C 
BRANCH  26  27
ATOM     27  C   UNL     1      47.308  10.882 -21.910  1.00  0.00    -0.000 C 
BRANCH  27  28
ATOM     28  C   UNL     1      48.623  11.220 -21.184  1.00  0.00    -0.000 C 
BRANCH  28  29
ATOM     29  C   UNL     1      48.411  11.524 -19.693  1.00  0.00    -0.003 C 
ATOM     30  C   UNL     1      49.589  12.275 -19.071  1.00  0.00     0.004 C 
ENDBRANCH  28  29
ENDBRANCH  27  28
ENDBRANCH  26  27
ENDBRANCH  25  26
ENDBRANCH  24  25
ENDBRANCH  23  24
ENDBRANCH  22  23
ENDBRANCH  21  22
ENDBRANCH  20  21
ENDBRANCH  19  20
ENDBRANCH  18  19
ENDBRANCH  17  18
ENDBRANCH   1  17
TORSDOF 26
ENDMDL
MODEL 3
REMARK VINA RESULT:     3.186      1.282      2.966
REMARK INTER + INTRA:           7.855
REMARK INTER:                   8.889
REMARK INTRA:                  -1.035
REMARK UNBOUND:                -0.173
REMARK SMILES CCCCCCCCCCCCCCCCCCCCCCCCCCCC(=O)[O-]
REMARK SMILES IDX 15 1 16 2 17 3 18 4 19 5 20 6 21 7 22 8 23 9 24 10 25 11
REMARK SMILES IDX 26 12 27 13 28 14 29 15 30 16 14 17 13 18 12 19 11 20 10 21
REMARK SMILES IDX 9 22 8 23 7 24 6 25 5 26 4 27 3 28 2 29 1 30
REMARK H PARENT
REMARK Flexibility Score: inf
ROOT
ATOM      1  C   UNL     1      46.301  12.277 -29.725  1.00  0.00     0.000 C 
ENDROOT
BRANCH   1   2
ATOM      2  C   UNL     1      45.286  11.943 -30.827  1.00  0.00     0.000 C 
BRANCH   2   3
ATOM      3  C   UNL     1      45.018  13.125 -31.777  1.00  0.00     0.000 C 
BRANCH   3   4
ATOM      4  C   UNL     1      44.924  12.756 -33.270  1.00  0.00     0.000 C 
BRANCH   4   5
ATOM      5  C   UNL     1      43.618  12.057 -33.693  1.00  0.00     0.000 C 
BRANCH   5   6
ATOM      6  C   UNL     1      43.334  12.124 -35.208  1.00  0.00     0.000 C 
BRANCH   6   7
ATOM      7  C   UNL     1      41.830  12.176 -35.530  1.00  0.00     0.000 C 
BRANCH   7   8
ATOM      8  C   UNL     1      41.395  13.540 -36.089  1.00  0.00     0.000 C 
BRANCH   8   9
ATOM      9  C   UNL     1      39.904  13.579 -36.459  1.00  0.00     0.000 C 
BRANCH   9  10
ATOM     10  C   UNL     1      39.093  14.321 -35.390  1.00  0.00     0.000 C 
BRANCH  10  11
ATOM     11  C   UNL     1      37.996  13.417 -34.808  1.00  0.00     0.000 C 
BRANCH  11  12
ATOM     12  C   UNL     1      38.101  13.257 -33.280  1.00  0.00     0.006 C 
BRANCH  12  13
ATOM     13  C   UNL     1      36.875  13.763 -32.503  1.00  0.00     0.053 C 
BRANCH  13  14
ATOM     14  C   UNL     1      37.135  13.836 -31.029  1.00  0.00     0.041 C 
ATOM     15  O   UNL     1      37.139  14.949 -30.440  1.00  0.00    -0.550 OA
ATOM     16  O   UNL     1      37.392  12.675 -30.310  1.00  0.00    -0.550 OA
ENDBRANCH  13  14
ENDBRANCH  12  13
ENDBRANCH  11  12
ENDBRANCH  10  11
ENDBRANCH   9  10
ENDBRANCH   8   9
ENDBRANCH   7   8
ENDBRANCH   6   7
ENDBRANCH   5   6
ENDBRANCH   4   5
ENDBRANCH   3   4
ENDBRANCH   2   3
ENDBRANCH   1   2
BRANCH   1  17
ATOM     17  C   UNL     1      46.865  10.999 -29.084  1.00  0.00     0.000 C 
BRANCH  17  18
ATOM     18  C   UNL     1      46.522  10.888 -27.590  1.00  0.00     0.000 C 
BRANCH  18  19
ATOM     19  C   UNL     1      45.534  11.968 -27.125  1.00  0.00     0.000 C 
BRANCH  19  20
ATOM     20  C   UNL     1      44.847  11.554 -25.817  1.00  0.00     0.000 C 
BRANCH  20  21
ATOM     21  C   UNL     1      45.042  12.576 -24.683  1.00  0.00     0.000 C 
BRANCH  21  22
ATOM     22  C   UNL     1      45.008  11.989 -23.259  1.00  0.00    -0.000 C 
BRANCH  22  23
ATOM     23  C   UNL     1      46.226  11.126 -22.879  1.00  0.00    -0.000 C 
BRANCH  23  24
ATOM     24  C   UNL     1      46.362  10.876 -21.362  1.00  0.00    -0.000 C 
BRANCH  24  25
ATOM     25  C   UNL     1      47.430  11.768 -20.708  1.00  0.00    -0.000 C 
BRANCH  25  26
ATOM     26  C   UNL     1      48.488  10.964 -19.934  1.00  0.00    -0.000 C 
BRANCH  26  27
ATOM     27  C   UNL     1      49.575  11.844 -19.282  1.00  0.00    -0.000 C 
BRANCH  27  28
ATOM     28  C   UNL     1      50.958  11.623 -19.920  1.00  0.00    -0.000 C 
BRANCH  28  29
ATOM     29  C   UNL     1      52.081  11.531 -18.876  1.00  0.00    -0.003 C 
ATOM     30  C   UNL     1      53.189  12.559 -19.108  1.00  0.00     0.004 C 
ENDBRANCH  28  29
ENDBRANCH  27  28
ENDBRANCH  26  27
ENDBRANCH  25  26
ENDBRANCH  24  25
ENDBRANCH  23  24
ENDBRANCH  22  23
ENDBRANCH  21  22
ENDBRANCH  20  21
ENDBRANCH  19  20
ENDBRANCH  18  19
ENDBRANCH  17  18
ENDBRANCH   1  17
TORSDOF 26
ENDMDL
MODEL 4
REMARK VINA RESULT:     3.891      2.346      3.489
REMARK INTER + INTRA:           9.632
REMARK INTER:                   9.176
REMARK INTRA:                   0.456
REMARK UNBOUND:                -0.173
REMARK SMILES CCCCCCCCCCCCCCCCCCCCCCCCCCCC(=O)[O-]
REMARK SMILES IDX 15 1 16 2 17 3 18 4 19 5 20 6 21 7 22 8 23 9 24 10 25 11
REMARK SMILES IDX 26 12 27 13 28 14 29 15 30 16 14 17 13 18 12 19 11 20 10 21
REMARK SMILES IDX 9 22 8 23 7 24 6 25 5 26 4 27 3 28 2 29 1 30
REMARK H PARENT
REMARK Flexibility Score: inf
ROOT
ATOM      1  C   UNL     1      47.304  10.879 -30.371  1.00  0.00     0.000 C 
ENDROOT
BRANCH   1   2
ATOM      2  C   UNL     1      46.536  11.154 -31.672  1.00  0.00     0.000 C 
BRANCH   2   3
ATOM      3  C   UNL     1      46.276  12.654 -31.911  1.00  0.00     0.000 C 
BRANCH   3   4
ATOM      4  C   UNL     1      44.941  12.983 -32.604  1.00  0.00     0.000 C 
BRANCH   4   5
ATOM      5  C   UNL     1      44.469  11.950 -33.647  1.00  0.00     0.000 C 
BRANCH   5   6
ATOM      6  C   UNL     1      45.036  12.185 -35.062  1.00  0.00     0.000 C 
BRANCH   6   7
ATOM      7  C   UNL     1      43.963  12.069 -36.159  1.00  0.00     0.000 C 
BRANCH   7   8
ATOM      8  C   UNL     1      42.630  12.716 -35.751  1.00  0.00     0.000 C 
BRANCH   8   9
ATOM      9  C   UNL     1      41.487  11.696 -35.642  1.00  0.00     0.000 C 
BRANCH   9  10
ATOM     10  C   UNL     1      40.138  12.401 -35.458  1.00  0.00     0.000 C 
BRANCH  10  11
ATOM     11  C   UNL     1      40.305  13.927 -35.508  1.00  0.00     0.000 C 
BRANCH  11  12
ATOM     12  C   UNL     1      39.051  14.681 -35.028  1.00  0.00     0.006 C 
BRANCH  12  13
ATOM     13  C   UNL     1      37.745  14.239 -35.708  1.00  0.00     0.053 C 
BRANCH  13  14
ATOM     14  C   UNL     1      37.997  13.534 -37.005  1.00  0.00     0.041 C 
ATOM     15  O   UNL     1      38.410  14.176 -38.007  1.00  0.00    -0.550 OA
ATOM     16  O   UNL     1      37.756  12.170 -37.113  1.00  0.00    -0.550 OA
ENDBRANCH  13  14
ENDBRANCH  12  13
ENDBRANCH  11  12
ENDBRANCH  10  11
ENDBRANCH   9  10
ENDBRANCH   8   9
ENDBRANCH   7   8
ENDBRANCH   6   7
ENDBRANCH   5   6
ENDBRANCH   4   5
ENDBRANCH   3   4
ENDBRANCH   2   3
ENDBRANCH   1   2
BRANCH   1  17
ATOM     17  C   UNL     1      46.756  11.730 -29.214  1.00  0.00     0.000 C 
BRANCH  17  18
ATOM     18  C   UNL     1      45.469  11.146 -28.610  1.00  0.00     0.000 C 
BRANCH  18  19
ATOM     19  C   UNL     1      45.494  11.114 -27.075  1.00  0.00     0.000 C 
BRANCH  19  20
ATOM     20  C   UNL     1      44.764  12.331 -26.491  1.00  0.00     0.000 C 
BRANCH  20  21
ATOM     21  C   UNL     1      43.864  11.976 -25.293  1.00  0.00     0.000 C 
BRANCH  21  22
ATOM     22  C   UNL     1      43.939  12.956 -24.106  1.00  0.00    -0.000 C 
BRANCH  22  23
ATOM     23  C   UNL     1      44.703  12.434 -22.875  1.00  0.00    -0.000 C 
BRANCH  23  24
ATOM     24  C   UNL     1      46.169  12.050 -23.168  1.00  0.00    -0.000 C 
BRANCH  24  25
ATOM     25  C   UNL     1      46.657  10.875 -22.305  1.00  0.00    -0.000 C 
BRANCH  25  26
ATOM     26  C   UNL     1      47.977  11.179 -21.574  1.00  0.00    -0.000 C 
BRANCH  26  27
ATOM     27  C   UNL     1      47.777  11.745 -20.153  1.00  0.00    -0.000 C 
BRANCH  27  28
ATOM     28  C   UNL     1      48.458  10.875 -19.082  1.00  0.00    -0.000 C 
BRANCH  28  29
ATOM     29  C   UNL     1      49.983  11.058 -19.056  1.00  0.00    -0.003 C 
ATOM     30  C   UNL     1      50.545  11.518 -20.401  1.00  0.00     0.004 C 
ENDBRANCH  28  29
ENDBRANCH  27  28
ENDBRANCH  26  27
ENDBRANCH  25  26
ENDBRANCH  24  25
ENDBRANCH  23  24
ENDBRANCH  22  23
ENDBRANCH  21  22
ENDBRANCH  20  21
ENDBRANCH  19  20
ENDBRANCH  18  19
ENDBRANCH  17  18
ENDBRANCH   1  17
TORSDOF 26
ENDMDL
MODEL 5
REMARK VINA RESULT:     4.202      4.182     11.795
REMARK INTER + INTRA:          10.417
REMARK INTER:                  11.666
REMARK INTRA:                  -1.249
REMARK UNBOUND:                -0.173
REMARK SMILES CCCCCCCCCCCCCCCCCCCCCCCCCCCC(=O)[O-]
REMARK SMILES IDX 15 1 16 2 17 3 18 4 19 5 20 6 21 7 22 8 23 9 24 10 25 11
REMARK SMILES IDX 26 12 27 13 28 14 29 15 30 16 14 17 13 18 12 19 11 20 10 21
REMARK SMILES IDX 9 22 8 23 7 24 6 25 5 26 4 27 3 28 2 29 1 30
REMARK H PARENT
REMARK Flexibility Score: inf
ROOT
ATOM      1  C   UNL     1      44.377  12.411 -33.072  1.00  0.00     0.000 C 
ENDROOT
BRANCH   1   2
ATOM      2  C   UNL     1      45.181  13.314 -32.127  1.00  0.00     0.000 C 
BRANCH   2   3
ATOM      3  C   UNL     1      46.599  12.780 -31.845  1.00  0.00     0.000 C 
BRANCH   3   4
ATOM      4  C   UNL     1      46.676  11.656 -30.795  1.00  0.00     0.000 C 
BRANCH   4   5
ATOM      5  C   UNL     1      46.115  12.015 -29.405  1.00  0.00     0.000 C 
BRANCH   5   6
ATOM      6  C   UNL     1      46.224  10.876 -28.371  1.00  0.00     0.000 C 
BRANCH   6   7
ATOM      7  C   UNL     1      46.077  11.371 -26.922  1.00  0.00     0.000 C 
BRANCH   7   8
ATOM      8  C   UNL     1      44.617  11.663 -26.544  1.00  0.00     0.000 C 
BRANCH   8   9
ATOM      9  C   UNL     1      44.491  12.453 -25.232  1.00  0.00     0.000 C 
BRANCH   9  10
ATOM     10  C   UNL     1      45.587  12.045 -24.240  1.00  0.00     0.000 C 
BRANCH  10  11
ATOM     11  C   UNL     1      45.822  13.149 -23.198  1.00  0.00     0.000 C 
BRANCH  11  12
ATOM     12  C   UNL     1      46.456  12.619 -21.899  1.00  0.00     0.006 C 
BRANCH  12  13
ATOM     13  C   UNL     1      47.485  11.496 -22.105  1.00  0.00     0.053 C 
BRANCH  13  14
ATOM     14  C   UNL     1      48.499  11.453 -21.004  1.00  0.00     0.041 C 
ATOM     15  O   UNL     1      48.186  11.812 -19.838  1.00  0.00    -0.550 OA
ATOM     16  O   UNL     1      49.797  11.034 -21.271  1.00  0.00    -0.550 OA
ENDBRANCH  13  14
ENDBRANCH  12  13
ENDBRANCH  11  12
ENDBRANCH  10  11
ENDBRANCH   9  10
ENDBRANCH   8   9
ENDBRANCH   7   8
ENDBRANCH   6   7
ENDBRANCH   5   6
ENDBRANCH   4   5
ENDBRANCH   3   4
ENDBRANCH   2   3
ENDBRANCH   1   2
BRANCH   1  17
ATOM     17  C   UNL     1      44.991  12.398 -34.482  1.00  0.00     0.000 C 
BRANCH  17  18
ATOM     18  C   UNL     1      44.112  13.121 -35.514  1.00  0.00     0.000 C 
BRANCH  18  19
ATOM     19  C   UNL     1      42.611  12.970 -35.228  1.00  0.00     0.000 C 
BRANCH  19  20
ATOM     20  C   UNL     1      41.945  12.062 -36.271  1.00  0.00     0.000 C 
BRANCH  20  21
ATOM     21  C   UNL     1      40.730  12.718 -36.952  1.00  0.00     0.000 C 
BRANCH  21  22
ATOM     22  C   UNL     1      39.392  12.550 -36.207  1.00  0.00    -0.000 C 
BRANCH  22  23
ATOM     23  C   UNL     1      38.133  12.731 -37.075  1.00  0.00    -0.000 C 
BRANCH  23  24
ATOM     24  C   UNL     1      36.886  13.170 -36.277  1.00  0.00    -0.000 C 
BRANCH  24  25
ATOM     25  C   UNL     1      37.238  14.041 -35.060  1.00  0.00    -0.000 C 
BRANCH  25  26
ATOM     26  C   UNL     1      37.034  13.308 -33.723  1.00  0.00    -0.000 C 
BRANCH  26  27
ATOM     27  C   UNL     1      36.985  14.252 -32.504  1.00  0.00    -0.000 C 
BRANCH  27  28
ATOM     28  C   UNL     1      37.085  13.486 -31.173  1.00  0.00    -0.000 C 
BRANCH  28  29
ATOM     29  C   UNL     1      37.701  14.334 -30.050  1.00  0.00    -0.003 C 
ATOM     30  C   UNL     1      38.210  15.689 -30.544  1.00  0.00     0.004 C 
ENDBRANCH  28  29
ENDBRANCH  27  28
ENDBRANCH  26  27
ENDBRANCH  25  26
ENDBRANCH  24  25
ENDBRANCH  23  24
ENDBRANCH  22  23
ENDBRANCH  21  22
ENDBRANCH  20  21
ENDBRANCH  19  20
ENDBRANCH  18  19
ENDBRANCH  17  18
ENDBRANCH   1  17
TORSDOF 26
ENDMDL
MODEL 6
REMARK VINA RESULT:     4.266      1.253      3.184
REMARK INTER + INTRA:          10.577
REMARK INTER:                  12.018
REMARK INTRA:                  -1.440
REMARK UNBOUND:                -0.173
REMARK SMILES CCCCCCCCCCCCCCCCCCCCCCCCCCCC(=O)[O-]
REMARK SMILES IDX 15 1 16 2 17 3 18 4 19 5 20 6 21 7 22 8 23 9 24 10 25 11
REMARK SMILES IDX 26 12 27 13 28 14 29 15 30 16 14 17 13 18 12 19 11 20 10 21
REMARK SMILES IDX 9 22 8 23 7 24 6 25 5 26 4 27 3 28 2 29 1 30
REMARK H PARENT
REMARK Flexibility Score: inf
ROOT
ATOM      1  C   UNL     1      43.306  11.626 -33.995  1.00  0.00     0.000 C 
ENDROOT
BRANCH   1   2
ATOM      2  C   UNL     1      43.532  12.027 -35.460  1.00  0.00     0.000 C 
BRANCH   2   3
ATOM      3  C   UNL     1      42.577  13.139 -35.934  1.00  0.00     0.000 C 
BRANCH   3   4
ATOM      4  C   UNL     1      41.129  13.018 -35.422  1.00  0.00     0.000 C 
BRANCH   4   5
ATOM      5  C   UNL     1      40.049  13.582 -36.365  1.00  0.00     0.000 C 
BRANCH   5   6
ATOM      6  C   UNL     1      38.605  13.330 -35.887  1.00  0.00     0.000 C 
BRANCH   6   7
ATOM      7  C   UNL     1      37.985  14.556 -35.193  1.00  0.00     0.000 C 
BRANCH   7   8
ATOM      8  C   UNL     1      36.909  14.171 -34.166  1.00  0.00     0.000 C 
BRANCH   8   9
ATOM      9  C   UNL     1      36.908  12.669 -33.845  1.00  0.00     0.000 C 
BRANCH   9  10
ATOM     10  C   UNL     1      36.876  12.431 -32.331  1.00  0.00     0.000 C 
BRANCH  10  11
ATOM     11  C   UNL     1      38.298  12.331 -31.760  1.00  0.00     0.000 C 
BRANCH  11  12
ATOM     12  C   UNL     1      38.450  13.047 -30.405  1.00  0.00     0.006 C 
BRANCH  12  13
ATOM     13  C   UNL     1      37.429  14.171 -30.163  1.00  0.00     0.053 C 
BRANCH  13  14
ATOM     14  C   UNL     1      37.971  15.514 -30.542  1.00  0.00     0.041 C 
ATOM     15  O   UNL     1      38.394  16.302 -29.655  1.00  0.00    -0.550 OA
ATOM     16  O   UNL     1      37.991  15.905 -31.875  1.00  0.00    -0.550 OA
ENDBRANCH  13  14
ENDBRANCH  12  13
ENDBRANCH  11  12
ENDBRANCH  10  11
ENDBRANCH   9  10
ENDBRANCH   8   9
ENDBRANCH   7   8
ENDBRANCH   6   7
ENDBRANCH   5   6
ENDBRANCH   4   5
ENDBRANCH   3   4
ENDBRANCH   2   3
ENDBRANCH   1   2
BRANCH   1  17
ATOM     17  C   UNL     1      43.381  12.849 -33.067  1.00  0.00     0.000 C 
BRANCH  17  18
ATOM     18  C   UNL     1      44.822  13.183 -32.648  1.00  0.00     0.000 C 
BRANCH  18  19
ATOM     19  C   UNL     1      45.741  11.953 -32.649  1.00  0.00     0.000 C 
BRANCH  19  20
ATOM     20  C   UNL     1      45.697  11.237 -31.292  1.00  0.00     0.000 C 
BRANCH  20  21
ATOM     21  C   UNL     1      47.064  11.198 -30.586  1.00  0.00     0.000 C 
BRANCH  21  22
ATOM     22  C   UNL     1      47.014  10.875 -29.081  1.00  0.00    -0.000 C 
BRANCH  22  23
ATOM     23  C   UNL     1      46.216  11.876 -28.223  1.00  0.00    -0.000 C 
BRANCH  23  24
ATOM     24  C   UNL     1      45.430  11.218 -27.069  1.00  0.00    -0.000 C 
BRANCH  24  25
ATOM     25  C   UNL     1      44.588  12.229 -26.275  1.00  0.00    -0.000 C 
BRANCH  25  26
ATOM     26  C   UNL     1      44.232  11.733 -24.863  1.00  0.00    -0.000 C 
BRANCH  26  27
ATOM     27  C   UNL     1      44.974  12.487 -23.740  1.00  0.00    -0.000 C 
BRANCH  27  28
ATOM     28  C   UNL     1      46.277  11.779 -23.329  1.00  0.00    -0.000 C 
BRANCH  28  29
ATOM     29  C   UNL     1      46.903  12.385 -22.064  1.00  0.00    -0.003 C 
ATOM     30  C   UNL     1      47.935  11.461 -21.415  1.00  0.00     0.004 C 
ENDBRANCH  28  29
ENDBRANCH  27  28
ENDBRANCH  26  27
ENDBRANCH  25  26
ENDBRANCH  24  25
ENDBRANCH  23  24
ENDBRANCH  22  23
ENDBRANCH  21  22
ENDBRANCH  20  21
ENDBRANCH  19  20
ENDBRANCH  18  19
ENDBRANCH  17  18
ENDBRANCH   1  17
TORSDOF 26
ENDMDL
