MODEL 1
REMARK VINA RESULT:    -4.866      0.000      0.000
REMARK INTER + INTRA:          -5.725
REMARK INTER:                  -5.577
REMARK INTRA:                  -0.148
REMARK UNBOUND:                -0.148
REMARK SMILES O=C([O-])C=Cc1ccc(O)cc1
REMARK SMILES IDX 6 1 7 2 12 3 8 4 11 5 9 6 5 7 4 8 2 9 1 10 3 11 10 12
REMARK H PARENT 10 13
REMARK Flexibility Score: inf
ROOT
ATOM      1  C   UNL     1      -8.120  66.418  31.771  1.00  0.00    -0.025 A 
ATOM      2  C   UNL     1      -9.468  66.774  31.559  1.00  0.00     0.012 A 
ATOM      3  C   UNL     1      -7.444  65.697  30.772  1.00  0.00     0.012 A 
ATOM      4  C   UNL     1     -10.109  66.433  30.363  1.00  0.00     0.047 A 
ATOM      5  C   UNL     1      -8.089  65.360  29.578  1.00  0.00     0.047 A 
ATOM      6  C   UNL     1      -9.420  65.729  29.368  1.00  0.00     0.115 A 
ENDROOT
BRANCH   1   7
ATOM      7  C   UNL     1      -7.396  66.742  33.025  1.00  0.00     0.010 C 
ATOM      8  C   UNL     1      -6.067  66.900  33.100  1.00  0.00     0.025 C 
BRANCH   8   9
ATOM      9  C   UNL     1      -5.383  67.210  34.366  1.00  0.00     0.064 C 
ATOM     10  O   UNL     1      -4.238  66.747  34.620  1.00  0.00    -0.545 OA
ATOM     11  O   UNL     1      -6.010  68.026  35.298  1.00  0.00    -0.545 OA
ENDBRANCH   8   9
ENDBRANCH   1   7
BRANCH   6  12
ATOM     12  O   UNL     1     -10.049  65.388  28.174  1.00  0.00    -0.508 OA
ATOM     13  H   UNL     1     -10.534  66.079  27.614  1.00  0.00     0.293 HD
ENDBRANCH   6  12
TORSDOF 3
ENDMDL
MODEL 2
REMARK VINA RESULT:    -4.834      0.100      1.401
REMARK INTER + INTRA:          -5.689
REMARK INTER:                  -5.550
REMARK INTRA:                  -0.140
REMARK UNBOUND:                -0.148
REMARK SMILES O=C([O-])C=Cc1ccc(O)cc1
REMARK SMILES IDX 6 1 7 2 12 3 8 4 11 5 9 6 5 7 4 8 2 9 1 10 3 11 10 12
REMARK H PARENT 10 13
REMARK Flexibility Score: inf
ROOT
ATOM      1  C   UNL     1      -8.104  66.423  31.699  1.00  0.00    -0.025 A 
ATOM      2  C   UNL     1      -7.471  65.672  30.687  1.00  0.00     0.012 A 
ATOM      3  C   UNL     1      -9.437  66.825  31.510  1.00  0.00     0.012 A 
ATOM      4  C   UNL     1      -8.170  65.318  29.528  1.00  0.00     0.047 A 
ATOM      5  C   UNL     1     -10.132  66.468  30.350  1.00  0.00     0.047 A 
ATOM      6  C   UNL     1      -9.503  65.712  29.358  1.00  0.00     0.115 A 
ENDROOT
BRANCH   1   7
ATOM      7  C   UNL     1      -7.407  66.836  32.941  1.00  0.00     0.010 C 
ATOM      8  C   UNL     1      -6.079  66.759  33.112  1.00  0.00     0.025 C 
BRANCH   8   9
ATOM      9  C   UNL     1      -5.423  67.168  34.365  1.00  0.00     0.064 C 
ATOM     10  O   UNL     1      -4.278  66.740  34.673  1.00  0.00    -0.545 OA
ATOM     11  O   UNL     1      -6.079  68.039  35.226  1.00  0.00    -0.545 OA
ENDBRANCH   8   9
ENDBRANCH   1   7
BRANCH   6  12
ATOM     12  O   UNL     1     -10.206  65.362  28.209  1.00  0.00    -0.508 OA
ATOM     13  H   UNL     1     -10.231  64.406  27.872  1.00  0.00     0.293 HD
ENDBRANCH   6  12
TORSDOF 3
ENDMDL
MODEL 3
REMARK VINA RESULT:    -4.666      2.000      5.733
REMARK INTER + INTRA:          -5.496
REMARK INTER:                  -5.351
REMARK INTRA:                  -0.145
REMARK UNBOUND:                -0.148
REMARK SMILES O=C([O-])C=Cc1ccc(O)cc1
REMARK SMILES IDX 6 1 7 2 12 3 8 4 11 5 9 6 5 7 4 8 2 9 1 10 3 11 10 12
REMARK H PARENT 10 13
REMARK Flexibility Score: inf
ROOT
ATOM      1  C   UNL     1      -7.131  67.532  32.117  1.00  0.00    -0.025 A 
ATOM      2  C   UNL     1      -5.918  68.248  32.196  1.00  0.00     0.012 A 
ATOM      3  C   UNL     1      -7.344  66.460  32.999  1.00  0.00     0.012 A 
ATOM      4  C   UNL     1      -4.958  67.906  33.154  1.00  0.00     0.047 A 
ATOM      5  C   UNL     1      -6.382  66.123  33.956  1.00  0.00     0.047 A 
ATOM      6  C   UNL     1      -5.188  66.846  34.039  1.00  0.00     0.115 A 
ENDROOT
BRANCH   1   7
ATOM      7  C   UNL     1      -8.177  67.845  31.112  1.00  0.00     0.010 C 
ATOM      8  C   UNL     1      -9.490  67.859  31.382  1.00  0.00     0.025 C 
BRANCH   8   9
ATOM      9  C   UNL     1     -10.500  68.162  30.355  1.00  0.00     0.064 C 
ATOM     10  O   UNL     1     -10.279  69.015  29.453  1.00  0.00    -0.545 OA
ATOM     11  O   UNL     1     -11.720  67.499  30.382  1.00  0.00    -0.545 OA
ENDBRANCH   8   9
ENDBRANCH   1   7
BRANCH   6  12
ATOM     12  O   UNL     1      -4.239  66.500  34.997  1.00  0.00    -0.508 OA
ATOM     13  H   UNL     1      -3.952  65.538  35.136  1.00  0.00     0.293 HD
ENDBRANCH   6  12
TORSDOF 3
ENDMDL
MODEL 4
REMARK VINA RESULT:    -4.606      1.973      5.687
REMARK INTER + INTRA:          -5.427
REMARK INTER:                  -5.287
REMARK INTRA:                  -0.140
REMARK UNBOUND:                -0.148
REMARK SMILES O=C([O-])C=Cc1ccc(O)cc1
REMARK SMILES IDX 6 1 7 2 12 3 8 4 11 5 9 6 5 7 4 8 2 9 1 10 3 11 10 12
REMARK H PARENT 10 13
REMARK Flexibility Score: inf
ROOT
ATOM      1  C   UNL     1      -7.190  67.431  32.102  1.00  0.00    -0.025 A 
ATOM      2  C   UNL     1      -7.364  66.373  33.019  1.00  0.00     0.012 A 
ATOM      3  C   UNL     1      -6.014  68.198  32.167  1.00  0.00     0.012 A 
ATOM      4  C   UNL     1      -6.369  66.082  33.958  1.00  0.00     0.047 A 
ATOM      5  C   UNL     1      -5.022  67.902  33.108  1.00  0.00     0.047 A 
ATOM      6  C   UNL     1      -5.195  66.843  34.003  1.00  0.00     0.115 A 
ENDROOT
BRANCH   1   7
ATOM      7  C   UNL     1      -8.217  67.791  31.094  1.00  0.00     0.010 C 
ATOM      8  C   UNL     1      -9.536  67.769  31.333  1.00  0.00     0.025 C 
BRANCH   8   9
ATOM      9  C   UNL     1     -10.527  68.121  30.302  1.00  0.00     0.064 C 
ATOM     10  O   UNL     1     -10.264  68.967  29.406  1.00  0.00    -0.545 OA
ATOM     11  O   UNL     1     -11.776  67.514  30.321  1.00  0.00    -0.545 OA
ENDBRANCH   8   9
ENDBRANCH   1   7
BRANCH   6  12
ATOM     12  O   UNL     1      -4.199  66.559  34.934  1.00  0.00    -0.508 OA
ATOM     13  H   UNL     1      -3.223  66.754  34.742  1.00  0.00     0.293 HD
ENDBRANCH   6  12
TORSDOF 3
ENDMDL
MODEL 5
REMARK VINA RESULT:    -4.596      1.275      2.143
REMARK INTER + INTRA:          -5.417
REMARK INTER:                  -5.284
REMARK INTRA:                  -0.133
REMARK UNBOUND:                -0.148
REMARK SMILES O=C([O-])C=Cc1ccc(O)cc1
REMARK SMILES IDX 6 1 7 2 12 3 8 4 11 5 9 6 5 7 4 8 2 9 1 10 3 11 10 12
REMARK H PARENT 10 13
REMARK Flexibility Score: inf
ROOT
ATOM      1  C   UNL     1      -9.356  66.750  31.076  1.00  0.00    -0.025 A 
ATOM      2  C   UNL     1      -8.969  66.145  29.863  1.00  0.00     0.012 A 
ATOM      3  C   UNL     1     -10.725  66.941  31.331  1.00  0.00     0.012 A 
ATOM      4  C   UNL     1      -9.935  65.722  28.944  1.00  0.00     0.047 A 
ATOM      5  C   UNL     1     -11.687  66.516  30.410  1.00  0.00     0.047 A 
ATOM      6  C   UNL     1     -11.296  65.904  29.216  1.00  0.00     0.115 A 
ENDROOT
BRANCH   1   7
ATOM      7  C   UNL     1      -8.373  67.227  32.080  1.00  0.00     0.010 C 
ATOM      8  C   UNL     1      -7.610  66.413  32.823  1.00  0.00     0.025 C 
BRANCH   8   9
ATOM      9  C   UNL     1      -6.654  66.924  33.818  1.00  0.00     0.064 C 
ATOM     10  O   UNL     1      -5.410  66.853  33.625  1.00  0.00    -0.545 OA
ATOM     11  O   UNL     1      -7.130  67.491  34.993  1.00  0.00    -0.545 OA
ENDBRANCH   8   9
ENDBRANCH   1   7
BRANCH   6  12
ATOM     12  O   UNL     1     -12.265  65.485  28.308  1.00  0.00    -0.508 OA
ATOM     13  H   UNL     1     -12.098  65.502  27.309  1.00  0.00     0.293 HD
ENDBRANCH   6  12
TORSDOF 3
ENDMDL
MODEL 6
REMARK VINA RESULT:    -4.535      3.508      5.486
REMARK INTER + INTRA:          -5.347
REMARK INTER:                  -5.202
REMARK INTRA:                  -0.145
REMARK UNBOUND:                -0.148
REMARK SMILES O=C([O-])C=Cc1ccc(O)cc1
REMARK SMILES IDX 6 1 7 2 12 3 8 4 11 5 9 6 5 7 4 8 2 9 1 10 3 11 10 12
REMARK H PARENT 10 13
REMARK Flexibility Score: inf
ROOT
ATOM      1  C   UNL     1      -5.466  66.686  31.679  1.00  0.00    -0.025 A 
ATOM      2  C   UNL     1      -6.692  66.106  32.065  1.00  0.00     0.012 A 
ATOM      3  C   UNL     1      -4.816  67.553  32.574  1.00  0.00     0.012 A 
ATOM      4  C   UNL     1      -7.236  66.375  33.325  1.00  0.00     0.047 A 
ATOM      5  C   UNL     1      -5.363  67.819  33.833  1.00  0.00     0.047 A 
ATOM      6  C   UNL     1      -6.571  67.229  34.213  1.00  0.00     0.115 A 
ENDROOT
BRANCH   1   7
ATOM      7  C   UNL     1      -4.851  66.444  30.351  1.00  0.00     0.010 C 
ATOM      8  C   UNL     1      -3.539  66.242  30.161  1.00  0.00     0.025 C 
BRANCH   8   9
ATOM      9  C   UNL     1      -2.964  66.017  28.825  1.00  0.00     0.064 C 
ATOM     10  O   UNL     1      -3.326  66.706  27.834  1.00  0.00    -0.545 OA
ATOM     11  O   UNL     1      -2.007  65.025  28.653  1.00  0.00    -0.545 OA
ENDBRANCH   8   9
ENDBRANCH   1   7
BRANCH   6  12
ATOM     12  O   UNL     1      -7.104  67.501  35.471  1.00  0.00    -0.508 OA
ATOM     13  H   UNL     1      -8.034  67.193  35.731  1.00  0.00     0.293 HD
ENDBRANCH   6  12
TORSDOF 3
ENDMDL
MODEL 7
REMARK VINA RESULT:    -4.520      1.881      5.553
REMARK INTER + INTRA:          -5.329
REMARK INTER:                  -5.195
REMARK INTRA:                  -0.135
REMARK UNBOUND:                -0.148
REMARK SMILES O=C([O-])C=Cc1ccc(O)cc1
REMARK SMILES IDX 6 1 7 2 12 3 8 4 11 5 9 6 5 7 4 8 2 9 1 10 3 11 10 12
REMARK H PARENT 10 13
REMARK Flexibility Score: inf
ROOT
ATOM      1  C   UNL     1      -7.293  66.719  32.406  1.00  0.00    -0.025 A 
ATOM      2  C   UNL     1      -7.062  66.859  33.791  1.00  0.00     0.012 A 
ATOM      3  C   UNL     1      -6.208  66.842  31.522  1.00  0.00     0.012 A 
ATOM      4  C   UNL     1      -5.769  67.092  34.271  1.00  0.00     0.047 A 
ATOM      5  C   UNL     1      -4.917  67.074  32.007  1.00  0.00     0.047 A 
ATOM      6  C   UNL     1      -4.693  67.197  33.381  1.00  0.00     0.115 A 
ENDROOT
BRANCH   1   7
ATOM      7  C   UNL     1      -8.645  66.484  31.843  1.00  0.00     0.010 C 
ATOM      8  C   UNL     1      -9.542  67.456  31.623  1.00  0.00     0.025 C 
BRANCH   8   9
ATOM      9  C   UNL     1     -10.879  67.182  31.073  1.00  0.00     0.064 C 
ATOM     10  O   UNL     1     -11.692  66.431  31.677  1.00  0.00    -0.545 OA
ATOM     11  O   UNL     1     -11.252  67.759  29.866  1.00  0.00    -0.545 OA
ENDBRANCH   8   9
ENDBRANCH   1   7
BRANCH   6  12
ATOM     12  O   UNL     1      -3.402  67.427  33.849  1.00  0.00    -0.508 OA
ATOM     13  H   UNL     1      -2.692  66.704  33.823  1.00  0.00     0.293 HD
ENDBRANCH   6  12
TORSDOF 3
ENDMDL
MODEL 8
REMARK VINA RESULT:    -4.472      4.192      5.003
REMARK INTER + INTRA:          -5.274
REMARK INTER:                  -5.123
REMARK INTRA:                  -0.151
REMARK UNBOUND:                -0.148
REMARK SMILES O=C([O-])C=Cc1ccc(O)cc1
REMARK SMILES IDX 6 1 7 2 12 3 8 4 11 5 9 6 5 7 4 8 2 9 1 10 3 11 10 12
REMARK H PARENT 10 13
REMARK Flexibility Score: inf
ROOT
ATOM      1  C   UNL     1      -5.262  65.599  29.328  1.00  0.00    -0.025 A 
ATOM      2  C   UNL     1      -6.259  64.924  30.063  1.00  0.00     0.012 A 
ATOM      3  C   UNL     1      -5.622  66.735  28.583  1.00  0.00     0.012 A 
ATOM      4  C   UNL     1      -7.576  65.395  30.066  1.00  0.00     0.047 A 
ATOM      5  C   UNL     1      -6.940  67.203  28.590  1.00  0.00     0.047 A 
ATOM      6  C   UNL     1      -7.919  66.537  29.333  1.00  0.00     0.115 A 
ENDROOT
BRANCH   1   7
ATOM      7  C   UNL     1      -3.854  65.135  29.280  1.00  0.00     0.010 C 
ATOM      8  C   UNL     1      -2.835  65.888  28.841  1.00  0.00     0.025 C 
BRANCH   8   9
ATOM      9  C   UNL     1      -1.451  65.389  28.797  1.00  0.00     0.064 C 
ATOM     10  O   UNL     1      -0.480  66.128  29.112  1.00  0.00    -0.545 OA
ATOM     11  O   UNL     1      -1.210  64.080  28.398  1.00  0.00    -0.545 OA
ENDBRANCH   8   9
ENDBRANCH   1   7
BRANCH   6  12
ATOM     12  O   UNL     1      -9.227  67.015  29.332  1.00  0.00    -0.508 OA
ATOM     13  H   UNL     1      -9.484  67.858  29.832  1.00  0.00     0.293 HD
ENDBRANCH   6  12
TORSDOF 3
ENDMDL
MODEL 9
REMARK VINA RESULT:    -4.445      3.716      5.832
REMARK INTER + INTRA:          -5.243
REMARK INTER:                  -5.104
REMARK INTRA:                  -0.139
REMARK UNBOUND:                -0.148
REMARK SMILES O=C([O-])C=Cc1ccc(O)cc1
REMARK SMILES IDX 6 1 7 2 12 3 8 4 11 5 9 6 5 7 4 8 2 9 1 10 3 11 10 12
REMARK H PARENT 10 13
REMARK Flexibility Score: inf
ROOT
ATOM      1  C   UNL     1      -6.498  66.414  29.197  1.00  0.00    -0.025 A 
ATOM      2  C   UNL     1      -5.824  67.265  28.296  1.00  0.00     0.012 A 
ATOM      3  C   UNL     1      -5.792  65.346  29.777  1.00  0.00     0.012 A 
ATOM      4  C   UNL     1      -4.471  67.059  28.007  1.00  0.00     0.047 A 
ATOM      5  C   UNL     1      -4.439  65.145  29.485  1.00  0.00     0.047 A 
ATOM      6  C   UNL     1      -3.775  66.000  28.603  1.00  0.00     0.115 A 
ENDROOT
BRANCH   1   7
ATOM      7  C   UNL     1      -7.934  66.580  29.529  1.00  0.00     0.010 C 
ATOM      8  C   UNL     1      -8.912  65.819  29.015  1.00  0.00     0.025 C 
BRANCH   8   9
ATOM      9  C   UNL     1     -10.328  66.021  29.360  1.00  0.00     0.064 C 
ATOM     10  O   UNL     1     -10.720  67.082  29.916  1.00  0.00    -0.545 OA
ATOM     11  O   UNL     1     -11.250  65.023  29.071  1.00  0.00    -0.545 OA
ENDBRANCH   8   9
ENDBRANCH   1   7
BRANCH   6  12
ATOM     12  O   UNL     1      -2.427  65.789  28.323  1.00  0.00    -0.508 OA
ATOM     13  H   UNL     1      -1.756  66.548  28.344  1.00  0.00     0.293 HD
ENDBRANCH   6  12
TORSDOF 3
ENDMDL
