MODEL 1
REMARK VINA RESULT:    -3.708      0.000      0.000
REMARK INTER + INTRA:          -6.445
REMARK INTER:                  -5.659
REMARK INTRA:                  -0.786
REMARK UNBOUND:                -0.786
REMARK SMILES O=C([O-])CCCCCCCCC(=O)[O-]
REMARK SMILES IDX 7 1 6 2 5 3 4 4 2 5 1 6 3 7 8 8 9 9 10 10 11 11 12 12 13 13
REMARK SMILES IDX 14 14
REMARK H PARENT
REMARK Flexibility Score: inf
ROOT
ATOM      1  C   UNL     1      22.548  34.266  13.064  1.00  0.00     0.000 C 
ENDROOT
BRANCH   1   2
ATOM      2  C   UNL     1      22.621  35.445  14.042  1.00  0.00     0.000 C 
BRANCH   2   3
ATOM      3  C   UNL     1      23.710  36.440  13.626  1.00  0.00     0.006 C 
BRANCH   3   4
ATOM      4  C   UNL     1      24.101  37.348  14.797  1.00  0.00     0.053 C 
BRANCH   4   5
ATOM      5  C   UNL     1      24.321  38.749  14.322  1.00  0.00     0.041 C 
ATOM      6  O   UNL     1      24.791  39.618  15.105  1.00  0.00    -0.550 OA
ATOM      7  O   UNL     1      24.052  39.086  13.002  1.00  0.00    -0.550 OA
ENDBRANCH   4   5
ENDBRANCH   3   4
ENDBRANCH   2   3
ENDBRANCH   1   2
BRANCH   1   8
ATOM      8  C   UNL     1      22.872  34.717  11.633  1.00  0.00     0.000 C 
BRANCH   8   9
ATOM      9  C   UNL     1      23.892  33.801  10.939  1.00  0.00     0.000 C 
BRANCH   9  10
ATOM     10  C   UNL     1      24.228  32.553  11.768  1.00  0.00     0.006 C 
BRANCH  10  11
ATOM     11  C   UNL     1      25.743  32.353  11.867  1.00  0.00     0.053 C 
BRANCH  11  12
ATOM     12  C   UNL     1      26.378  33.501  12.585  1.00  0.00     0.041 C 
ATOM     13  O   UNL     1      26.029  33.785  13.761  1.00  0.00    -0.550 OA
ATOM     14  O   UNL     1      27.320  34.290  11.937  1.00  0.00    -0.550 OA
ENDBRANCH  11  12
ENDBRANCH  10  11
ENDBRANCH   9  10
ENDBRANCH   8   9
ENDBRANCH   1   8
TORSDOF 9
ENDMDL
MODEL 2
REMARK VINA RESULT:    -3.631      0.563      5.033
REMARK INTER + INTRA:          -6.328
REMARK INTER:                  -5.609
REMARK INTRA:                  -0.719
REMARK UNBOUND:                -0.786
REMARK SMILES O=C([O-])CCCCCCCCC(=O)[O-]
REMARK SMILES IDX 7 1 6 2 5 3 4 4 2 5 1 6 3 7 8 8 9 9 10 10 11 11 12 12 13 13
REMARK SMILES IDX 14 14
REMARK H PARENT
REMARK Flexibility Score: inf
ROOT
ATOM      1  C   UNL     1      22.810  34.304  11.460  1.00  0.00     0.000 C 
ENDROOT
BRANCH   1   2
ATOM      2  C   UNL     1      24.058  33.602  10.909  1.00  0.00     0.000 C 
BRANCH   2   3
ATOM      3  C   UNL     1      24.384  32.341  11.717  1.00  0.00     0.006 C 
BRANCH   3   4
ATOM      4  C   UNL     1      25.888  32.234  11.987  1.00  0.00     0.053 C 
BRANCH   4   5
ATOM      5  C   UNL     1      26.388  33.472  12.662  1.00  0.00     0.041 C 
ATOM      6  O   UNL     1      25.997  33.763  13.824  1.00  0.00    -0.550 OA
ATOM      7  O   UNL     1      27.324  34.280  12.029  1.00  0.00    -0.550 OA
ENDBRANCH   4   5
ENDBRANCH   3   4
ENDBRANCH   2   3
ENDBRANCH   1   2
BRANCH   1   8
ATOM      8  C   UNL     1      23.196  35.460  12.393  1.00  0.00     0.000 C 
BRANCH   8   9
ATOM      9  C   UNL     1      22.595  35.313  13.799  1.00  0.00     0.000 C 
BRANCH   9  10
ATOM     10  C   UNL     1      23.100  36.386  14.775  1.00  0.00     0.006 C 
BRANCH  10  11
ATOM     11  C   UNL     1      24.383  37.040  14.254  1.00  0.00     0.053 C 
BRANCH  11  12
ATOM     12  C   UNL     1      24.260  38.531  14.281  1.00  0.00     0.041 C 
ATOM     13  O   UNL     1      24.325  39.152  15.375  1.00  0.00    -0.550 OA
ATOM     14  O   UNL     1      24.025  39.231  13.105  1.00  0.00    -0.550 OA
ENDBRANCH  11  12
ENDBRANCH  10  11
ENDBRANCH   9  10
ENDBRANCH   8   9
ENDBRANCH   1   8
TORSDOF 9
ENDMDL
MODEL 3
REMARK VINA RESULT:    -3.629      1.772      2.470
REMARK INTER + INTRA:          -6.325
REMARK INTER:                  -5.543
REMARK INTRA:                  -0.782
REMARK UNBOUND:                -0.786
REMARK SMILES O=C([O-])CCCCCCCCC(=O)[O-]
REMARK SMILES IDX 7 1 6 2 5 3 4 4 2 5 1 6 3 7 8 8 9 9 10 10 11 11 12 12 13 13
REMARK SMILES IDX 14 14
REMARK H PARENT
REMARK Flexibility Score: inf
ROOT
ATOM      1  C   UNL     1      24.639  34.678  14.947  1.00  0.00     0.000 C 
ENDROOT
BRANCH   1   2
ATOM      2  C   UNL     1      23.607  35.022  13.867  1.00  0.00     0.000 C 
BRANCH   2   3
ATOM      3  C   UNL     1      23.553  36.533  13.616  1.00  0.00     0.006 C 
BRANCH   3   4
ATOM      4  C   UNL     1      24.199  37.305  14.771  1.00  0.00     0.053 C 
BRANCH   4   5
ATOM      5  C   UNL     1      24.365  38.747  14.409  1.00  0.00     0.041 C 
ATOM      6  O   UNL     1      24.815  39.566  15.254  1.00  0.00    -0.550 OA
ATOM      7  O   UNL     1      24.068  39.179  13.122  1.00  0.00    -0.550 OA
ENDBRANCH   4   5
ENDBRANCH   3   4
ENDBRANCH   2   3
ENDBRANCH   1   2
BRANCH   1   8
ATOM      8  C   UNL     1      25.722  33.740  14.395  1.00  0.00     0.000 C 
BRANCH   8   9
ATOM      9  C   UNL     1      26.674  34.445  13.416  1.00  0.00     0.000 C 
BRANCH   9  10
ATOM     10  C   UNL     1      26.712  33.770  12.037  1.00  0.00     0.006 C 
BRANCH  10  11
ATOM     11  C   UNL     1      25.709  32.615  11.965  1.00  0.00     0.053 C 
BRANCH  11  12
ATOM     12  C   UNL     1      24.858  32.734  10.740  1.00  0.00     0.041 C 
ATOM     13  O   UNL     1      24.083  33.717  10.599  1.00  0.00    -0.550 OA
ATOM     14  O   UNL     1      24.884  31.734   9.776  1.00  0.00    -0.550 OA
ENDBRANCH  11  12
ENDBRANCH  10  11
ENDBRANCH   9  10
ENDBRANCH   8   9
ENDBRANCH   1   8
TORSDOF 9
ENDMDL
MODEL 4
REMARK VINA RESULT:    -3.614      1.924      3.025
REMARK INTER + INTRA:          -6.302
REMARK INTER:                  -5.520
REMARK INTRA:                  -0.782
REMARK UNBOUND:                -0.786
REMARK SMILES O=C([O-])CCCCCCCCC(=O)[O-]
REMARK SMILES IDX 7 1 6 2 5 3 4 4 2 5 1 6 3 7 8 8 9 9 10 10 11 11 12 12 13 13
REMARK SMILES IDX 14 14
REMARK H PARENT
REMARK Flexibility Score: inf
ROOT
ATOM      1  C   UNL     1      26.468  34.550  14.721  1.00  0.00     0.000 C 
ENDROOT
BRANCH   1   2
ATOM      2  C   UNL     1      25.163  35.299  15.015  1.00  0.00     0.000 C 
BRANCH   2   3
ATOM      3  C   UNL     1      24.965  36.467  14.042  1.00  0.00     0.006 C 
BRANCH   3   4
ATOM      4  C   UNL     1      23.864  37.412  14.534  1.00  0.00     0.053 C 
BRANCH   4   5
ATOM      5  C   UNL     1      24.215  38.831  14.221  1.00  0.00     0.041 C 
ATOM      6  O   UNL     1      23.970  39.309  13.081  1.00  0.00    -0.550 OA
ATOM      7  O   UNL     1      24.769  39.643  15.202  1.00  0.00    -0.550 OA
ENDBRANCH   4   5
ENDBRANCH   3   4
ENDBRANCH   2   3
ENDBRANCH   1   2
BRANCH   1   8
ATOM      8  C   UNL     1      26.225  33.375  13.764  1.00  0.00     0.000 C 
BRANCH   8   9
ATOM      9  C   UNL     1      26.501  33.739  12.296  1.00  0.00     0.000 C 
BRANCH   9  10
ATOM     10  C   UNL     1      25.332  33.379  11.367  1.00  0.00     0.006 C 
BRANCH  10  11
ATOM     11  C   UNL     1      24.065  33.078  12.172  1.00  0.00     0.053 C 
BRANCH  11  12
ATOM     12  C   UNL     1      23.033  34.137  11.941  1.00  0.00     0.041 C 
ATOM     13  O   UNL     1      22.914  34.669  10.805  1.00  0.00    -0.550 OA
ATOM     14  O   UNL     1      22.236  34.572  12.992  1.00  0.00    -0.550 OA
ENDBRANCH  11  12
ENDBRANCH  10  11
ENDBRANCH   9  10
ENDBRANCH   8   9
ENDBRANCH   1   8
TORSDOF 9
ENDMDL
MODEL 5
REMARK VINA RESULT:    -3.596      1.876      5.289
REMARK INTER + INTRA:          -6.274
REMARK INTER:                  -5.346
REMARK INTRA:                  -0.928
REMARK UNBOUND:                -0.786
REMARK SMILES O=C([O-])CCCCCCCCC(=O)[O-]
REMARK SMILES IDX 7 1 6 2 5 3 4 4 2 5 1 6 3 7 8 8 9 9 10 10 11 11 12 12 13 13
REMARK SMILES IDX 14 14
REMARK H PARENT
REMARK Flexibility Score: inf
ROOT
ATOM      1  C   UNL     1      26.678  34.198  13.110  1.00  0.00     0.000 C 
ENDROOT
BRANCH   1   2
ATOM      2  C   UNL     1      26.585  32.985  12.177  1.00  0.00     0.000 C 
BRANCH   2   3
ATOM      3  C   UNL     1      25.131  32.532  12.004  1.00  0.00     0.006 C 
BRANCH   3   4
ATOM      4  C   UNL     1      24.425  33.350  10.918  1.00  0.00     0.053 C 
BRANCH   4   5
ATOM      5  C   UNL     1      23.275  34.109  11.500  1.00  0.00     0.041 C 
ATOM      6  O   UNL     1      22.672  34.974  10.811  1.00  0.00    -0.550 OA
ATOM      7  O   UNL     1      22.838  33.829  12.789  1.00  0.00    -0.550 OA
ENDBRANCH   4   5
ENDBRANCH   3   4
ENDBRANCH   2   3
ENDBRANCH   1   2
BRANCH   1   8
ATOM      8  C   UNL     1      25.985  33.915  14.451  1.00  0.00     0.000 C 
BRANCH   8   9
ATOM      9  C   UNL     1      25.261  35.147  15.016  1.00  0.00     0.000 C 
BRANCH   9  10
ATOM     10  C   UNL     1      25.108  36.271  13.981  1.00  0.00     0.006 C 
BRANCH  10  11
ATOM     11  C   UNL     1      23.774  37.001  14.158  1.00  0.00     0.053 C 
BRANCH  11  12
ATOM     12  C   UNL     1      24.001  38.462  14.389  1.00  0.00     0.041 C 
ATOM     13  O   UNL     1      24.239  38.891  15.549  1.00  0.00    -0.550 OA
ATOM     14  O   UNL     1      23.902  39.356  13.331  1.00  0.00    -0.550 OA
ENDBRANCH  11  12
ENDBRANCH  10  11
ENDBRANCH   9  10
ENDBRANCH   8   9
ENDBRANCH   1   8
TORSDOF 9
ENDMDL
MODEL 6
REMARK VINA RESULT:    -3.553      1.818      5.869
REMARK INTER + INTRA:          -6.208
REMARK INTER:                  -5.575
REMARK INTRA:                  -0.633
REMARK UNBOUND:                -0.786
REMARK SMILES O=C([O-])CCCCCCCCC(=O)[O-]
REMARK SMILES IDX 7 1 6 2 5 3 4 4 2 5 1 6 3 7 8 8 9 9 10 10 11 11 12 12 13 13
REMARK SMILES IDX 14 14
REMARK H PARENT
REMARK Flexibility Score: inf
ROOT
ATOM      1  C   UNL     1      25.486  35.315  13.922  1.00  0.00     0.000 C 
ENDROOT
BRANCH   1   2
ATOM      2  C   UNL     1      26.261  34.026  13.623  1.00  0.00     0.000 C 
BRANCH   2   3
ATOM      3  C   UNL     1      26.403  33.806  12.113  1.00  0.00     0.006 C 
BRANCH   3   4
ATOM      4  C   UNL     1      25.827  32.449  11.698  1.00  0.00     0.053 C 
BRANCH   4   5
ATOM      5  C   UNL     1      24.828  32.618  10.598  1.00  0.00     0.041 C 
ATOM      6  O   UNL     1      24.703  31.731   9.712  1.00  0.00    -0.550 OA
ATOM      7  O   UNL     1      23.999  33.732  10.578  1.00  0.00    -0.550 OA
ENDBRANCH   4   5
ENDBRANCH   3   4
ENDBRANCH   2   3
ENDBRANCH   1   2
BRANCH   1   8
ATOM      8  C   UNL     1      23.973  35.093  13.784  1.00  0.00     0.000 C 
BRANCH   8   9
ATOM      9  C   UNL     1      23.184  35.616  14.994  1.00  0.00     0.000 C 
BRANCH   9  10
ATOM     10  C   UNL     1      23.886  36.787  15.698  1.00  0.00     0.006 C 
BRANCH  10  11
ATOM     11  C   UNL     1      23.268  38.125  15.282  1.00  0.00     0.053 C 
BRANCH  11  12
ATOM     12  C   UNL     1      24.286  38.983  14.600  1.00  0.00     0.041 C 
ATOM     13  O   UNL     1      24.558  38.800  13.384  1.00  0.00    -0.550 OA
ATOM     14  O   UNL     1      24.972  39.953  15.319  1.00  0.00    -0.550 OA
ENDBRANCH  11  12
ENDBRANCH  10  11
ENDBRANCH   9  10
ENDBRANCH   8   9
ENDBRANCH   1   8
TORSDOF 9
ENDMDL
MODEL 7
REMARK VINA RESULT:    -3.441      2.855      3.680
REMARK INTER + INTRA:          -6.037
REMARK INTER:                  -5.349
REMARK INTRA:                  -0.689
REMARK UNBOUND:                -0.786
REMARK SMILES O=C([O-])CCCCCCCCC(=O)[O-]
REMARK SMILES IDX 7 1 6 2 5 3 4 4 2 5 1 6 3 7 8 8 9 9 10 10 11 11 12 12 13 13
REMARK SMILES IDX 14 14
REMARK H PARENT
REMARK Flexibility Score: inf
ROOT
ATOM      1  C   UNL     1      25.639  33.574  14.616  1.00  0.00     0.000 C 
ENDROOT
BRANCH   1   2
ATOM      2  C   UNL     1      24.205  34.035  14.900  1.00  0.00     0.000 C 
BRANCH   2   3
ATOM      3  C   UNL     1      23.722  35.026  13.835  1.00  0.00     0.006 C 
BRANCH   3   4
ATOM      4  C   UNL     1      22.195  35.014  13.724  1.00  0.00     0.053 C 
BRANCH   4   5
ATOM      5  C   UNL     1      21.575  35.553  14.974  1.00  0.00     0.041 C 
ATOM      6  O   UNL     1      21.865  36.710  15.378  1.00  0.00    -0.550 OA
ATOM      7  O   UNL     1      20.638  34.797  15.667  1.00  0.00    -0.550 OA
ENDBRANCH   4   5
ENDBRANCH   3   4
ENDBRANCH   2   3
ENDBRANCH   1   2
BRANCH   1   8
ATOM      8  C   UNL     1      26.397  34.615  13.780  1.00  0.00     0.000 C 
BRANCH   8   9
ATOM      9  C   UNL     1      26.858  34.063  12.422  1.00  0.00     0.000 C 
BRANCH   9  10
ATOM     10  C   UNL     1      26.138  32.762  12.036  1.00  0.00     0.006 C 
BRANCH  10  11
ATOM     11  C   UNL     1      25.135  33.006  10.905  1.00  0.00     0.053 C 
BRANCH  11  12
ATOM     12  C   UNL     1      24.595  31.708  10.393  1.00  0.00     0.041 C 
ATOM     13  O   UNL     1      24.084  30.877  11.189  1.00  0.00    -0.550 OA
ATOM     14  O   UNL     1      24.701  31.395   9.044  1.00  0.00    -0.550 OA
ENDBRANCH  11  12
ENDBRANCH  10  11
ENDBRANCH   9  10
ENDBRANCH   8   9
ENDBRANCH   1   8
TORSDOF 9
ENDMDL
MODEL 8
REMARK VINA RESULT:    -3.372      2.642      5.738
REMARK INTER + INTRA:          -5.933
REMARK INTER:                  -5.093
REMARK INTRA:                  -0.840
REMARK UNBOUND:                -0.786
REMARK SMILES O=C([O-])CCCCCCCCC(=O)[O-]
REMARK SMILES IDX 7 1 6 2 5 3 4 4 2 5 1 6 3 7 8 8 9 9 10 10 11 11 12 12 13 13
REMARK SMILES IDX 14 14
REMARK H PARENT
REMARK Flexibility Score: inf
ROOT
ATOM      1  C   UNL     1      26.247  33.521  13.141  1.00  0.00     0.000 C 
ENDROOT
BRANCH   1   2
ATOM      2  C   UNL     1      25.353  32.428  13.737  1.00  0.00     0.000 C 
BRANCH   2   3
ATOM      3  C   UNL     1      24.644  31.632  12.635  1.00  0.00     0.006 C 
BRANCH   3   4
ATOM      4  C   UNL     1      25.507  31.553  11.372  1.00  0.00     0.053 C 
BRANCH   4   5
ATOM      5  C   UNL     1      24.745  32.050  10.185  1.00  0.00     0.041 C 
ATOM      6  O   UNL     1      24.211  33.191  10.207  1.00  0.00    -0.550 OA
ATOM      7  O   UNL     1      24.665  31.275   9.036  1.00  0.00    -0.550 OA
ENDBRANCH   4   5
ENDBRANCH   3   4
ENDBRANCH   2   3
ENDBRANCH   1   2
BRANCH   1   8
ATOM      8  C   UNL     1      26.441  34.676  14.134  1.00  0.00     0.000 C 
BRANCH   8   9
ATOM      9  C   UNL     1      25.318  34.752  15.180  1.00  0.00     0.000 C 
BRANCH   9  10
ATOM     10  C   UNL     1      24.579  36.098  15.159  1.00  0.00     0.006 C 
BRANCH  10  11
ATOM     11  C   UNL     1      23.833  36.294  13.836  1.00  0.00     0.053 C 
BRANCH  11  12
ATOM     12  C   UNL     1      22.620  35.421  13.784  1.00  0.00     0.041 C 
ATOM     13  O   UNL     1      21.717  35.537  14.654  1.00  0.00    -0.550 OA
ATOM     14  O   UNL     1      22.508  34.444  12.803  1.00  0.00    -0.550 OA
ENDBRANCH  11  12
ENDBRANCH  10  11
ENDBRANCH   9  10
ENDBRANCH   8   9
ENDBRANCH   1   8
TORSDOF 9
ENDMDL
MODEL 9
REMARK VINA RESULT:    -3.352      1.840      5.763
REMARK INTER + INTRA:          -5.902
REMARK INTER:                  -5.207
REMARK INTRA:                  -0.695
REMARK UNBOUND:                -0.786
REMARK SMILES O=C([O-])CCCCCCCCC(=O)[O-]
REMARK SMILES IDX 7 1 6 2 5 3 4 4 2 5 1 6 3 7 8 8 9 9 10 10 11 11 12 12 13 13
REMARK SMILES IDX 14 14
REMARK H PARENT
REMARK Flexibility Score: inf
ROOT
ATOM      1  C   UNL     1      25.232  35.434  13.923  1.00  0.00     0.000 C 
ENDROOT
BRANCH   1   2
ATOM      2  C   UNL     1      26.022  34.176  14.301  1.00  0.00     0.000 C 
BRANCH   2   3
ATOM      3  C   UNL     1      25.724  33.025  13.334  1.00  0.00     0.006 C 
BRANCH   3   4
ATOM      4  C   UNL     1      26.104  33.400  11.898  1.00  0.00     0.053 C 
BRANCH   4   5
ATOM      5  C   UNL     1      24.985  33.079  10.959  1.00  0.00     0.041 C 
ATOM      6  O   UNL     1      23.960  33.810  10.920  1.00  0.00    -0.550 OA
ATOM      7  O   UNL     1      25.094  32.000  10.091  1.00  0.00    -0.550 OA
ENDBRANCH   4   5
ENDBRANCH   3   4
ENDBRANCH   2   3
ENDBRANCH   1   2
BRANCH   1   8
ATOM      8  C   UNL     1      23.728  35.230  14.156  1.00  0.00     0.000 C 
BRANCH   8   9
ATOM      9  C   UNL     1      23.248  35.828  15.487  1.00  0.00     0.000 C 
BRANCH   9  10
ATOM     10  C   UNL     1      22.762  37.278  15.345  1.00  0.00     0.006 C 
BRANCH  10  11
ATOM     11  C   UNL     1      23.731  38.249  16.025  1.00  0.00     0.053 C 
BRANCH  11  12
ATOM     12  C   UNL     1      24.428  39.096  15.007  1.00  0.00     0.041 C 
ATOM     13  O   UNL     1      25.186  40.032  15.372  1.00  0.00    -0.550 OA
ATOM     14  O   UNL     1      24.201  38.882  13.653  1.00  0.00    -0.550 OA
ENDBRANCH  11  12
ENDBRANCH  10  11
ENDBRANCH   9  10
ENDBRANCH   8   9
ENDBRANCH   1   8
TORSDOF 9
ENDMDL
