MODEL 1
REMARK VINA RESULT:    -5.301      0.000      0.000
REMARK INTER + INTRA:          -9.914
REMARK INTER:                  -8.090
REMARK INTRA:                  -1.824
REMARK UNBOUND:                -1.824
REMARK SMILES OC[C@H]1O[C@@H](O[C@]2(CO)O[C@H](CO)[C@H](O)[C@H]2O)[C@H](O)[C@@H](O)[C@H]1O
REMARK SMILES IDX 6 1 5 2 3 3 22 4 4 5 20 6 18 7 2 8 1 9 23 11 21 13 19 15
REMARK SMILES IDX 7 17 16 18 10 19 14 20 11 21 8 22 9 23 17 25 15 27 12 29
REMARK SMILES IDX 13 30
REMARK H PARENT 1 10 23 12 21 14 19 16 9 24 17 26 15 28 13 31
REMARK Flexibility Score: inf
ROOT
ATOM      1  O   UNL     1      22.417  -2.314   0.938  1.00  0.00    -0.313 OA
ENDROOT
BRANCH   1   2
ATOM      2  C   UNL     1      23.465  -2.675   1.829  1.00  0.00     0.285 C 
ATOM      3  C   UNL     1      23.500  -0.880   3.417  1.00  0.00     0.178 C 
ATOM      4  C   UNL     1      25.041  -0.641   3.315  1.00  0.00     0.177 C 
ATOM      5  O   UNL     1      23.142  -2.230   3.146  1.00  0.00    -0.341 OA
ATOM      6  C   UNL     1      25.724  -1.728   2.459  1.00  0.00     0.179 C 
ATOM      7  C   UNL     1      24.812  -2.127   1.288  1.00  0.00     0.202 C 
BRANCH   3   8
ATOM      8  C   UNL     1      22.631   0.126   2.625  1.00  0.00     0.191 C 
BRANCH   8   9
ATOM      9  O   UNL     1      21.279  -0.244   2.672  1.00  0.00    -0.394 OA
ATOM     10  H   UNL     1      20.771   0.469   2.203  1.00  0.00     0.210 HD
ENDBRANCH   8   9
ENDBRANCH   3   8
BRANCH   4  11
ATOM     11  O   UNL     1      25.309   0.643   2.805  1.00  0.00    -0.387 OA
ATOM     12  H   UNL     1      26.293   0.715   2.689  1.00  0.00     0.211 HD
ENDBRANCH   4  11
BRANCH   6  13
ATOM     13  O   UNL     1      26.998  -1.321   2.016  1.00  0.00    -0.387 OA
ATOM     14  H   UNL     1      27.449  -2.107   1.611  1.00  0.00     0.211 HD
ENDBRANCH   6  13
BRANCH   7  15
ATOM     15  O   UNL     1      25.438  -3.065   0.447  1.00  0.00    -0.385 OA
ATOM     16  H   UNL     1      24.965  -3.933   0.553  1.00  0.00     0.211 HD
ENDBRANCH   7  15
ENDBRANCH   1   2
BRANCH   1  17
ATOM     17  C   UNL     1      21.376  -3.280   0.838  1.00  0.00     0.224 C 
ATOM     18  C   UNL     1      21.940  -4.621   1.347  1.00  0.00     0.208 C 
ATOM     19  O   UNL     1      20.286  -2.929   1.679  1.00  0.00    -0.337 OA
ATOM     20  C   UNL     1      20.762  -5.239   2.047  1.00  0.00     0.180 C 
ATOM     21  C   UNL     1      19.997  -4.010   2.540  1.00  0.00     0.179 C 
BRANCH  17  22
ATOM     22  C   UNL     1      20.862  -3.383  -0.623  1.00  0.00     0.225 C 
BRANCH  22  23
ATOM     23  O   UNL     1      21.938  -3.453  -1.518  1.00  0.00    -0.391 OA
ATOM     24  H   UNL     1      22.756  -3.291  -0.980  1.00  0.00     0.210 HD
ENDBRANCH  22  23
ENDBRANCH  17  22
BRANCH  18  25
ATOM     25  O   UNL     1      22.419  -5.445   0.313  1.00  0.00    -0.385 OA
ATOM     26  H   UNL     1      22.271  -6.381   0.604  1.00  0.00     0.211 HD
ENDBRANCH  18  25
BRANCH  20  27
ATOM     27  O   UNL     1      21.166  -6.087   3.091  1.00  0.00    -0.387 OA
ATOM     28  H   UNL     1      20.390  -6.171   3.704  1.00  0.00     0.211 HD
ENDBRANCH  20  27
BRANCH  21  29
ATOM     29  C   UNL     1      20.337  -3.591   3.980  1.00  0.00     0.191 C 
BRANCH  29  30
ATOM     30  O   UNL     1      20.105  -2.220   4.154  1.00  0.00    -0.394 OA
ATOM     31  H   UNL     1      20.766  -1.912   4.826  1.00  0.00     0.210 HD
ENDBRANCH  29  30
ENDBRANCH  21  29
ENDBRANCH   1  17
TORSDOF 13
ENDMDL
MODEL 2
REMARK VINA RESULT:    -5.094      2.975      5.454
REMARK INTER + INTRA:          -9.598
REMARK INTER:                  -7.966
REMARK INTRA:                  -1.632
REMARK UNBOUND:                -1.824
REMARK SMILES OC[C@H]1O[C@@H](O[C@]2(CO)O[C@H](CO)[C@H](O)[C@H]2O)[C@H](O)[C@@H](O)[C@H]1O
REMARK SMILES IDX 6 1 5 2 3 3 22 4 4 5 20 6 18 7 2 8 1 9 23 11 21 13 19 15
REMARK SMILES IDX 7 17 16 18 10 19 14 20 11 21 8 22 9 23 17 25 15 27 12 29
REMARK SMILES IDX 13 30
REMARK H PARENT 1 10 23 12 21 14 19 16 9 24 17 26 15 28 13 31
REMARK Flexibility Score: inf
ROOT
ATOM      1  O   UNL     1      20.523  -3.749   3.655  1.00  0.00    -0.313 OA
ENDROOT
BRANCH   1   2
ATOM      2  C   UNL     1      21.540  -4.470   2.971  1.00  0.00     0.285 C 
ATOM      3  C   UNL     1      21.390  -3.661   0.720  1.00  0.00     0.178 C 
ATOM      4  C   UNL     1      21.359  -5.080   0.069  1.00  0.00     0.177 C 
ATOM      5  O   UNL     1      22.102  -3.644   1.952  1.00  0.00    -0.341 OA
ATOM      6  C   UNL     1      21.618  -6.186   1.115  1.00  0.00     0.179 C 
ATOM      7  C   UNL     1      20.959  -5.811   2.451  1.00  0.00     0.202 C 
BRANCH   3   8
ATOM      8  C   UNL     1      20.011  -2.965   0.832  1.00  0.00     0.191 C 
BRANCH   8   9
ATOM      9  O   UNL     1      20.142  -1.702   1.428  1.00  0.00    -0.394 OA
ATOM     10  H   UNL     1      21.096  -1.441   1.338  1.00  0.00     0.210 HD
ENDBRANCH   8   9
ENDBRANCH   3   8
BRANCH   4  11
ATOM     11  O   UNL     1      20.135  -5.294  -0.594  1.00  0.00    -0.387 OA
ATOM     12  H   UNL     1      20.110  -6.248  -0.866  1.00  0.00     0.211 HD
ENDBRANCH   4  11
BRANCH   6  13
ATOM     13  O   UNL     1      21.196  -7.448   0.657  1.00  0.00    -0.387 OA
ATOM     14  H   UNL     1      20.822  -7.335  -0.256  1.00  0.00     0.211 HD
ENDBRANCH   6  13
BRANCH   7  15
ATOM     15  O   UNL     1      21.118  -6.833   3.405  1.00  0.00    -0.385 OA
ATOM     16  H   UNL     1      21.831  -7.444   3.083  1.00  0.00     0.211 HD
ENDBRANCH   7  15
ENDBRANCH   1   2
BRANCH   1  17
ATOM     17  C   UNL     1      20.924  -3.228   4.918  1.00  0.00     0.224 C 
ATOM     18  C   UNL     1      20.157  -4.009   6.004  1.00  0.00     0.208 C 
ATOM     19  O   UNL     1      22.310  -3.450   5.134  1.00  0.00    -0.337 OA
ATOM     20  C   UNL     1      21.162  -4.114   7.117  1.00  0.00     0.180 C 
ATOM     21  C   UNL     1      22.488  -4.133   6.356  1.00  0.00     0.179 C 
BRANCH  17  22
ATOM     22  C   UNL     1      20.648  -1.703   4.996  1.00  0.00     0.225 C 
BRANCH  22  23
ATOM     23  O   UNL     1      19.500  -1.374   4.262  1.00  0.00    -0.391 OA
ATOM     24  H   UNL     1      19.496  -0.384   4.184  1.00  0.00     0.210 HD
ENDBRANCH  22  23
ENDBRANCH  17  22
BRANCH  18  25
ATOM     25  O   UNL     1      18.984  -3.357   6.425  1.00  0.00    -0.385 OA
ATOM     26  H   UNL     1      19.248  -2.741   7.157  1.00  0.00     0.211 HD
ENDBRANCH  18  25
BRANCH  20  27
ATOM     27  O   UNL     1      20.959  -5.269   7.891  1.00  0.00    -0.387 OA
ATOM     28  H   UNL     1      21.179  -6.042   7.309  1.00  0.00     0.211 HD
ENDBRANCH  20  27
BRANCH  21  29
ATOM     29  C   UNL     1      23.021  -5.544   6.053  1.00  0.00     0.191 C 
BRANCH  29  30
ATOM     30  O   UNL     1      23.921  -5.946   7.049  1.00  0.00    -0.394 OA
ATOM     31  H   UNL     1      23.787  -5.323   7.809  1.00  0.00     0.210 HD
ENDBRANCH  29  30
ENDBRANCH  21  29
ENDBRANCH   1  17
TORSDOF 13
ENDMDL
MODEL 3
REMARK VINA RESULT:    -5.076     13.603     16.266
REMARK INTER + INTRA:          -9.571
REMARK INTER:                  -7.913
REMARK INTRA:                  -1.658
REMARK UNBOUND:                -1.824
REMARK SMILES OC[C@H]1O[C@@H](O[C@]2(CO)O[C@H](CO)[C@H](O)[C@H]2O)[C@H](O)[C@@H](O)[C@H]1O
REMARK SMILES IDX 6 1 5 2 3 3 22 4 4 5 20 6 18 7 2 8 1 9 23 11 21 13 19 15
REMARK SMILES IDX 7 17 16 18 10 19 14 20 11 21 8 22 9 23 17 25 15 27 12 29
REMARK SMILES IDX 13 30
REMARK H PARENT 1 10 23 12 21 14 19 16 9 24 17 26 15 28 13 31
REMARK Flexibility Score: inf
ROOT
ATOM      1  O   UNL     1      20.575   7.369  14.472  1.00  0.00    -0.313 OA
ENDROOT
BRANCH   1   2
ATOM      2  C   UNL     1      20.203   6.005  14.616  1.00  0.00     0.285 C 
ATOM      3  C   UNL     1      17.807   6.074  14.648  1.00  0.00     0.178 C 
ATOM      4  C   UNL     1      17.665   5.196  15.933  1.00  0.00     0.177 C 
ATOM      5  O   UNL     1      18.985   5.769  13.911  1.00  0.00    -0.341 OA
ATOM      6  C   UNL     1      19.026   4.617  16.374  1.00  0.00     0.179 C 
ATOM      7  C   UNL     1      20.141   5.646  16.125  1.00  0.00     0.202 C 
BRANCH   3   8
ATOM      8  C   UNL     1      17.637   7.595  14.877  1.00  0.00     0.191 C 
BRANCH   8   9
ATOM      9  O   UNL     1      16.296   7.909  15.142  1.00  0.00    -0.394 OA
ATOM     10  H   UNL     1      15.745   7.253  14.639  1.00  0.00     0.210 HD
ENDBRANCH   8   9
ENDBRANCH   3   8
BRANCH   4  11
ATOM     11  O   UNL     1      17.072   5.935  16.974  1.00  0.00    -0.387 OA
ATOM     12  H   UNL     1      16.449   6.585  16.556  1.00  0.00     0.211 HD
ENDBRANCH   4  11
BRANCH   6  13
ATOM     13  O   UNL     1      19.001   4.185  17.714  1.00  0.00    -0.387 OA
ATOM     14  H   UNL     1      18.116   4.420  18.097  1.00  0.00     0.211 HD
ENDBRANCH   6  13
BRANCH   7  15
ATOM     15  O   UNL     1      21.385   5.175  16.583  1.00  0.00    -0.385 OA
ATOM     16  H   UNL     1      21.314   5.025  17.562  1.00  0.00     0.211 HD
ENDBRANCH   7  15
ENDBRANCH   1   2
BRANCH   1  17
ATOM     17  C   UNL     1      21.755   7.575  13.701  1.00  0.00     0.224 C 
ATOM     18  C   UNL     1      22.525   6.239  13.671  1.00  0.00     0.208 C 
ATOM     19  O   UNL     1      21.425   7.907  12.360  1.00  0.00    -0.337 OA
ATOM     20  C   UNL     1      23.111   6.219  12.287  1.00  0.00     0.180 C 
ATOM     21  C   UNL     1      22.077   7.011  11.485  1.00  0.00     0.179 C 
BRANCH  17  22
ATOM     22  C   UNL     1      22.609   8.724  14.300  1.00  0.00     0.225 C 
BRANCH  22  23
ATOM     23  O   UNL     1      22.445   8.784  15.690  1.00  0.00    -0.391 OA
ATOM     24  H   UNL     1      22.676   7.882  16.035  1.00  0.00     0.210 HD
ENDBRANCH  22  23
ENDBRANCH  17  22
BRANCH  18  25
ATOM     25  O   UNL     1      23.523   6.158  14.657  1.00  0.00    -0.385 OA
ATOM     26  H   UNL     1      23.960   7.048  14.694  1.00  0.00     0.211 HD
ENDBRANCH  18  25
BRANCH  20  27
ATOM     27  O   UNL     1      23.280   4.906  11.815  1.00  0.00    -0.387 OA
ATOM     28  H   UNL     1      24.120   4.902  11.286  1.00  0.00     0.211 HD
ENDBRANCH  20  27
BRANCH  21  29
ATOM     29  C   UNL     1      21.012   6.140  10.796  1.00  0.00     0.191 C 
BRANCH  29  30
ATOM     30  O   UNL     1      19.727   6.591  11.130  1.00  0.00    -0.394 OA
ATOM     31  H   UNL     1      19.854   7.303  11.809  1.00  0.00     0.210 HD
ENDBRANCH  29  30
ENDBRANCH  21  29
ENDBRANCH   1  17
TORSDOF 13
ENDMDL
MODEL 4
REMARK VINA RESULT:    -5.040     13.733     16.626
REMARK INTER + INTRA:          -9.516
REMARK INTER:                  -7.991
REMARK INTRA:                  -1.525
REMARK UNBOUND:                -1.824
REMARK SMILES OC[C@H]1O[C@@H](O[C@]2(CO)O[C@H](CO)[C@H](O)[C@H]2O)[C@H](O)[C@@H](O)[C@H]1O
REMARK SMILES IDX 6 1 5 2 3 3 22 4 4 5 20 6 18 7 2 8 1 9 23 11 21 13 19 15
REMARK SMILES IDX 7 17 16 18 10 19 14 20 11 21 8 22 9 23 17 25 15 27 12 29
REMARK SMILES IDX 13 30
REMARK H PARENT 1 10 23 12 21 14 19 16 9 24 17 26 15 28 13 31
REMARK Flexibility Score: inf
ROOT
ATOM      1  O   UNL     1      20.258   7.328  13.665  1.00  0.00    -0.313 OA
ENDROOT
BRANCH   1   2
ATOM      2  C   UNL     1      20.156   6.690  14.931  1.00  0.00     0.285 C 
ATOM      3  C   UNL     1      19.490   4.454  14.385  1.00  0.00     0.178 C 
ATOM      4  C   UNL     1      18.306   4.413  15.404  1.00  0.00     0.177 C 
ATOM      5  O   UNL     1      20.536   5.321  14.804  1.00  0.00    -0.341 OA
ATOM      6  C   UNL     1      18.297   5.665  16.307  1.00  0.00     0.179 C 
ATOM      7  C   UNL     1      18.727   6.900  15.500  1.00  0.00     0.202 C 
BRANCH   3   8
ATOM      8  C   UNL     1      19.075   4.705  12.915  1.00  0.00     0.191 C 
BRANCH   8   9
ATOM      9  O   UNL     1      18.571   3.531  12.336  1.00  0.00    -0.394 OA
ATOM     10  H   UNL     1      17.919   3.151  12.982  1.00  0.00     0.210 HD
ENDBRANCH   8   9
ENDBRANCH   3   8
BRANCH   4  11
ATOM     11  O   UNL     1      17.078   4.271  14.730  1.00  0.00    -0.387 OA
ATOM     12  H   UNL     1      16.382   4.701  15.292  1.00  0.00     0.211 HD
ENDBRANCH   4  11
BRANCH   6  13
ATOM     13  O   UNL     1      17.047   5.853  16.927  1.00  0.00    -0.387 OA
ATOM     14  H   UNL     1      16.438   5.133  16.617  1.00  0.00     0.211 HD
ENDBRANCH   6  13
BRANCH   7  15
ATOM     15  O   UNL     1      18.660   8.070  16.278  1.00  0.00    -0.385 OA
ATOM     16  H   UNL     1      19.590   8.346  16.495  1.00  0.00     0.211 HD
ENDBRANCH   7  15
ENDBRANCH   1   2
BRANCH   1  17
ATOM     17  C   UNL     1      21.401   8.166  13.523  1.00  0.00     0.224 C 
ATOM     18  C   UNL     1      22.225   8.045  14.820  1.00  0.00     0.208 C 
ATOM     19  O   UNL     1      22.220   7.717  12.453  1.00  0.00    -0.337 OA
ATOM     20  C   UNL     1      23.643   8.121  14.326  1.00  0.00     0.180 C 
ATOM     21  C   UNL     1      23.533   7.509  12.929  1.00  0.00     0.179 C 
BRANCH  17  22
ATOM     22  C   UNL     1      20.976   9.631  13.240  1.00  0.00     0.225 C 
BRANCH  22  23
ATOM     23  O   UNL     1      19.879   9.987  14.037  1.00  0.00    -0.391 OA
ATOM     24  H   UNL     1      20.014  10.939  14.284  1.00  0.00     0.210 HD
ENDBRANCH  22  23
ENDBRANCH  17  22
BRANCH  18  25
ATOM     25  O   UNL     1      21.945   9.064  15.747  1.00  0.00    -0.385 OA
ATOM     26  H   UNL     1      22.612   8.975  16.477  1.00  0.00     0.211 HD
ENDBRANCH  18  25
BRANCH  20  27
ATOM     27  O   UNL     1      24.522   7.414  15.164  1.00  0.00    -0.387 OA
ATOM     28  H   UNL     1      25.164   8.079  15.526  1.00  0.00     0.211 HD
ENDBRANCH  20  27
BRANCH  21  29
ATOM     29  C   UNL     1      23.839   6.003  12.874  1.00  0.00     0.191 C 
BRANCH  29  30
ATOM     30  O   UNL     1      22.658   5.275  12.674  1.00  0.00    -0.394 OA
ATOM     31  H   UNL     1      22.503   5.266  11.694  1.00  0.00     0.210 HD
ENDBRANCH  29  30
ENDBRANCH  21  29
ENDBRANCH   1  17
TORSDOF 13
ENDMDL
MODEL 5
REMARK VINA RESULT:    -4.990     13.838     15.624
REMARK INTER + INTRA:          -9.439
REMARK INTER:                  -7.830
REMARK INTRA:                  -1.609
REMARK UNBOUND:                -1.824
REMARK SMILES OC[C@H]1O[C@@H](O[C@]2(CO)O[C@H](CO)[C@H](O)[C@H]2O)[C@H](O)[C@@H](O)[C@H]1O
REMARK SMILES IDX 6 1 5 2 3 3 22 4 4 5 20 6 18 7 2 8 1 9 23 11 21 13 19 15
REMARK SMILES IDX 7 17 16 18 10 19 14 20 11 21 8 22 9 23 17 25 15 27 12 29
REMARK SMILES IDX 13 30
REMARK H PARENT 1 10 23 12 21 14 19 16 9 24 17 26 15 28 13 31
REMARK Flexibility Score: inf
ROOT
ATOM      1  O   UNL     1      20.225   5.823  13.429  1.00  0.00    -0.313 OA
ENDROOT
BRANCH   1   2
ATOM      2  C   UNL     1      20.745   6.692  14.427  1.00  0.00     0.285 C 
ATOM      3  C   UNL     1      21.264   8.695  13.216  1.00  0.00     0.178 C 
ATOM      4  C   UNL     1      22.712   8.825  13.788  1.00  0.00     0.177 C 
ATOM      5  O   UNL     1      20.382   8.038  14.119  1.00  0.00    -0.341 OA
ATOM      6  C   UNL     1      22.974   7.789  14.901  1.00  0.00     0.179 C 
ATOM      7  C   UNL     1      22.274   6.464  14.562  1.00  0.00     0.202 C 
BRANCH   3   8
ATOM      8  C   UNL     1      21.179   8.110  11.785  1.00  0.00     0.191 C 
BRANCH   8   9
ATOM      9  O   UNL     1      21.452   9.100  10.830  1.00  0.00    -0.394 OA
ATOM     10  H   UNL     1      21.619   8.630   9.971  1.00  0.00     0.210 HD
ENDBRANCH   8   9
ENDBRANCH   3   8
BRANCH   4  11
ATOM     11  O   UNL     1      23.663   8.707  12.756  1.00  0.00    -0.387 OA
ATOM     12  H   UNL     1      23.384   9.318  12.026  1.00  0.00     0.211 HD
ENDBRANCH   4  11
BRANCH   6  13
ATOM     13  O   UNL     1      24.351   7.610  15.134  1.00  0.00    -0.387 OA
ATOM     14  H   UNL     1      24.526   6.636  15.218  1.00  0.00     0.211 HD
ENDBRANCH   6  13
BRANCH   7  15
ATOM     15  O   UNL     1      22.553   5.476  15.524  1.00  0.00    -0.385 OA
ATOM     16  H   UNL     1      22.842   5.934  16.357  1.00  0.00     0.211 HD
ENDBRANCH   7  15
ENDBRANCH   1   2
BRANCH   1  17
ATOM     17  C   UNL     1      19.241   4.910  13.905  1.00  0.00     0.224 C 
ATOM     18  C   UNL     1      19.044   5.186  15.409  1.00  0.00     0.208 C 
ATOM     19  O   UNL     1      17.994   5.139  13.263  1.00  0.00    -0.337 OA
ATOM     20  C   UNL     1      17.572   4.954  15.605  1.00  0.00     0.180 C 
ATOM     21  C   UNL     1      16.998   5.344  14.242  1.00  0.00     0.179 C 
BRANCH  17  22
ATOM     22  C   UNL     1      19.674   3.445  13.635  1.00  0.00     0.225 C 
BRANCH  22  23
ATOM     23  O   UNL     1      21.015   3.255  13.999  1.00  0.00    -0.391 OA
ATOM     24  H   UNL     1      21.295   4.086  14.465  1.00  0.00     0.210 HD
ENDBRANCH  22  23
ENDBRANCH  17  22
BRANCH  18  25
ATOM     25  O   UNL     1      19.815   4.342  16.228  1.00  0.00    -0.385 OA
ATOM     26  H   UNL     1      19.332   4.265  17.091  1.00  0.00     0.211 HD
ENDBRANCH  18  25
BRANCH  20  27
ATOM     27  O   UNL     1      17.060   5.732  16.657  1.00  0.00    -0.387 OA
ATOM     28  H   UNL     1      17.617   6.552  16.699  1.00  0.00     0.211 HD
ENDBRANCH  20  27
BRANCH  21  29
ATOM     29  C   UNL     1      16.521   6.804  14.154  1.00  0.00     0.191 C 
BRANCH  29  30
ATOM     30  O   UNL     1      15.165   6.893  14.499  1.00  0.00    -0.394 OA
ATOM     31  H   UNL     1      14.658   6.585  13.703  1.00  0.00     0.210 HD
ENDBRANCH  29  30
ENDBRANCH  21  29
ENDBRANCH   1  17
TORSDOF 13
ENDMDL
MODEL 6
REMARK VINA RESULT:    -4.983      2.224      4.990
REMARK INTER + INTRA:          -9.430
REMARK INTER:                  -8.117
REMARK INTRA:                  -1.312
REMARK UNBOUND:                -1.824
REMARK SMILES OC[C@H]1O[C@@H](O[C@]2(CO)O[C@H](CO)[C@H](O)[C@H]2O)[C@H](O)[C@@H](O)[C@H]1O
REMARK SMILES IDX 6 1 5 2 3 3 22 4 4 5 20 6 18 7 2 8 1 9 23 11 21 13 19 15
REMARK SMILES IDX 7 17 16 18 10 19 14 20 11 21 8 22 9 23 17 25 15 27 12 29
REMARK SMILES IDX 13 30
REMARK H PARENT 1 10 23 12 21 14 19 16 9 24 17 26 15 28 13 31
REMARK Flexibility Score: inf
ROOT
ATOM      1  O   UNL     1      21.455  -2.261   2.848  1.00  0.00    -0.313 OA
ENDROOT
BRANCH   1   2
ATOM      2  C   UNL     1      21.611  -3.575   2.329  1.00  0.00     0.285 C 
ATOM      3  C   UNL     1      23.006  -3.262   0.406  1.00  0.00     0.178 C 
ATOM      4  C   UNL     1      22.091  -4.082  -0.558  1.00  0.00     0.177 C 
ATOM      5  O   UNL     1      22.910  -3.706   1.753  1.00  0.00    -0.341 OA
ATOM      6  C   UNL     1      20.950  -4.784   0.208  1.00  0.00     0.179 C 
ATOM      7  C   UNL     1      20.449  -3.882   1.348  1.00  0.00     0.202 C 
BRANCH   3   8
ATOM      8  C   UNL     1      22.866  -1.724   0.285  1.00  0.00     0.191 C 
BRANCH   8   9
ATOM      9  O   UNL     1      23.646  -1.239  -0.774  1.00  0.00    -0.394 OA
ATOM     10  H   UNL     1      23.567  -1.899  -1.512  1.00  0.00     0.210 HD
ENDBRANCH   8   9
ENDBRANCH   3   8
BRANCH   4  11
ATOM     11  O   UNL     1      21.579  -3.256  -1.577  1.00  0.00    -0.387 OA
ATOM     12  H   UNL     1      21.255  -3.851  -2.303  1.00  0.00     0.211 HD
ENDBRANCH   4  11
BRANCH   6  13
ATOM     13  O   UNL     1      19.904  -5.172  -0.651  1.00  0.00    -0.387 OA
ATOM     14  H   UNL     1      19.898  -6.164  -0.701  1.00  0.00     0.211 HD
ENDBRANCH   6  13
BRANCH   7  15
ATOM     15  O   UNL     1      19.360  -4.464   2.022  1.00  0.00    -0.385 OA
ATOM     16  H   UNL     1      18.991  -3.787   2.647  1.00  0.00     0.211 HD
ENDBRANCH   7  15
ENDBRANCH   1   2
BRANCH   1  17
ATOM     17  C   UNL     1      21.578  -2.173   4.265  1.00  0.00     0.224 C 
ATOM     18  C   UNL     1      20.159  -1.993   4.840  1.00  0.00     0.208 C 
ATOM     19  O   UNL     1      22.104  -3.380   4.797  1.00  0.00    -0.337 OA
ATOM     20  C   UNL     1      20.214  -2.775   6.123  1.00  0.00     0.180 C 
ATOM     21  C   UNL     1      21.230  -3.869   5.792  1.00  0.00     0.179 C 
BRANCH  17  22
ATOM     22  C   UNL     1      22.518  -1.004   4.663  1.00  0.00     0.225 C 
BRANCH  22  23
ATOM     23  O   UNL     1      22.423   0.041   3.733  1.00  0.00    -0.391 OA
ATOM     24  H   UNL     1      22.496  -0.379   2.836  1.00  0.00     0.210 HD
ENDBRANCH  22  23
ENDBRANCH  17  22
BRANCH  18  25
ATOM     25  O   UNL     1      19.825  -0.646   5.069  1.00  0.00    -0.385 OA
ATOM     26  H   UNL     1      19.975  -0.476   6.035  1.00  0.00     0.211 HD
ENDBRANCH  18  25
BRANCH  20  27
ATOM     27  O   UNL     1      18.953  -3.288   6.472  1.00  0.00    -0.387 OA
ATOM     28  H   UNL     1      18.606  -3.754   5.668  1.00  0.00     0.211 HD
ENDBRANCH  20  27
BRANCH  21  29
ATOM     29  C   UNL     1      20.604  -5.181   5.290  1.00  0.00     0.191 C 
BRANCH  29  30
ATOM     30  O   UNL     1      20.272  -6.006   6.373  1.00  0.00    -0.394 OA
ATOM     31  H   UNL     1      20.792  -5.666   7.147  1.00  0.00     0.210 HD
ENDBRANCH  29  30
ENDBRANCH  21  29
ENDBRANCH   1  17
TORSDOF 13
ENDMDL
MODEL 7
REMARK VINA RESULT:    -4.978     13.459     15.723
REMARK INTER + INTRA:          -9.421
REMARK INTER:                  -8.318
REMARK INTRA:                  -1.103
REMARK UNBOUND:                -1.824
REMARK SMILES OC[C@H]1O[C@@H](O[C@]2(CO)O[C@H](CO)[C@H](O)[C@H]2O)[C@H](O)[C@@H](O)[C@H]1O
REMARK SMILES IDX 6 1 5 2 3 3 22 4 4 5 20 6 18 7 2 8 1 9 23 11 21 13 19 15
REMARK SMILES IDX 7 17 16 18 10 19 14 20 11 21 8 22 9 23 17 25 15 27 12 29
REMARK SMILES IDX 13 30
REMARK H PARENT 1 10 23 12 21 14 19 16 9 24 17 26 15 28 13 31
REMARK Flexibility Score: inf
ROOT
ATOM      1  O   UNL     1      20.670   6.341  15.049  1.00  0.00    -0.313 OA
ENDROOT
BRANCH   1   2
ATOM      2  C   UNL     1      21.802   5.625  14.575  1.00  0.00     0.285 C 
ATOM      3  C   UNL     1      23.500   7.307  14.392  1.00  0.00     0.178 C 
ATOM      4  C   UNL     1      23.914   6.921  12.935  1.00  0.00     0.177 C 
ATOM      5  O   UNL     1      22.989   6.198  15.121  1.00  0.00    -0.341 OA
ATOM      6  C   UNL     1      23.208   5.630  12.471  1.00  0.00     0.179 C 
ATOM      7  C   UNL     1      21.774   5.586  13.023  1.00  0.00     0.202 C 
BRANCH   3   8
ATOM      8  C   UNL     1      22.584   8.550  14.501  1.00  0.00     0.191 C 
BRANCH   8   9
ATOM      9  O   UNL     1      22.350   8.875  15.845  1.00  0.00    -0.394 OA
ATOM     10  H   UNL     1      22.232   9.861  15.884  1.00  0.00     0.210 HD
ENDBRANCH   8   9
ENDBRANCH   3   8
BRANCH   4  11
ATOM     11  O   UNL     1      23.652   7.983  12.049  1.00  0.00    -0.387 OA
ATOM     12  H   UNL     1      23.775   7.635  11.128  1.00  0.00     0.211 HD
ENDBRANCH   4  11
BRANCH   6  13
ATOM     13  O   UNL     1      23.235   5.494  11.070  1.00  0.00    -0.387 OA
ATOM     14  H   UNL     1      23.544   6.354  10.683  1.00  0.00     0.211 HD
ENDBRANCH   6  13
BRANCH   7  15
ATOM     15  O   UNL     1      21.080   4.454  12.559  1.00  0.00    -0.385 OA
ATOM     16  H   UNL     1      20.817   4.622  11.616  1.00  0.00     0.211 HD
ENDBRANCH   7  15
ENDBRANCH   1   2
BRANCH   1  17
ATOM     17  C   UNL     1      19.649   5.519  15.607  1.00  0.00     0.224 C 
ATOM     18  C   UNL     1      18.413   6.411  15.837  1.00  0.00     0.208 C 
ATOM     19  O   UNL     1      19.274   4.497  14.694  1.00  0.00    -0.337 OA
ATOM     20  C   UNL     1      17.268   5.486  15.527  1.00  0.00     0.180 C 
ATOM     21  C   UNL     1      17.880   4.553  14.481  1.00  0.00     0.179 C 
BRANCH  17  22
ATOM     22  C   UNL     1      20.138   4.854  16.921  1.00  0.00     0.225 C 
BRANCH  22  23
ATOM     23  O   UNL     1      19.053   4.339  17.643  1.00  0.00    -0.391 OA
ATOM     24  H   UNL     1      18.827   5.022  18.328  1.00  0.00     0.210 HD
ENDBRANCH  22  23
ENDBRANCH  17  22
BRANCH  18  25
ATOM     25  O   UNL     1      18.332   6.912  17.148  1.00  0.00    -0.385 OA
ATOM     26  H   UNL     1      19.065   7.575  17.244  1.00  0.00     0.211 HD
ENDBRANCH  18  25
BRANCH  20  27
ATOM     27  O   UNL     1      16.151   6.189  15.045  1.00  0.00    -0.387 OA
ATOM     28  H   UNL     1      15.743   6.643  15.828  1.00  0.00     0.211 HD
ENDBRANCH  20  27
BRANCH  21  29
ATOM     29  C   UNL     1      17.625   4.981  13.026  1.00  0.00     0.191 C 
BRANCH  29  30
ATOM     30  O   UNL     1      16.310   4.671  12.653  1.00  0.00    -0.394 OA
ATOM     31  H   UNL     1      16.094   3.811  13.099  1.00  0.00     0.210 HD
ENDBRANCH  29  30
ENDBRANCH  21  29
ENDBRANCH   1  17
TORSDOF 13
ENDMDL
MODEL 8
REMARK VINA RESULT:    -4.968      1.782      5.288
REMARK INTER + INTRA:          -9.407
REMARK INTER:                  -7.559
REMARK INTRA:                  -1.848
REMARK UNBOUND:                -1.824
REMARK SMILES OC[C@H]1O[C@@H](O[C@]2(CO)O[C@H](CO)[C@H](O)[C@H]2O)[C@H](O)[C@@H](O)[C@H]1O
REMARK SMILES IDX 6 1 5 2 3 3 22 4 4 5 20 6 18 7 2 8 1 9 23 11 21 13 19 15
REMARK SMILES IDX 7 17 16 18 10 19 14 20 11 21 8 22 9 23 17 25 15 27 12 29
REMARK SMILES IDX 13 30
REMARK H PARENT 1 10 23 12 21 14 19 16 9 24 17 26 15 28 13 31
REMARK Flexibility Score: inf
ROOT
ATOM      1  O   UNL     1      23.031  -1.494   1.986  1.00  0.00    -0.313 OA
ENDROOT
BRANCH   1   2
ATOM      2  C   UNL     1      22.106  -2.553   1.777  1.00  0.00     0.285 C 
ATOM      3  C   UNL     1      23.177  -3.924   0.129  1.00  0.00     0.178 C 
ATOM      4  C   UNL     1      21.929  -4.006  -0.808  1.00  0.00     0.177 C 
ATOM      5  O   UNL     1      22.818  -3.757   1.495  1.00  0.00    -0.341 OA
ATOM      6  C   UNL     1      20.685  -3.375  -0.147  1.00  0.00     0.179 C 
ATOM      7  C   UNL     1      21.094  -2.142   0.675  1.00  0.00     0.202 C 
BRANCH   3   8
ATOM      8  C   UNL     1      24.262  -2.915  -0.319  1.00  0.00     0.191 C 
BRANCH   8   9
ATOM      9  O   UNL     1      25.405  -3.029   0.486  1.00  0.00    -0.394 OA
ATOM     10  H   UNL     1      25.736  -2.106   0.644  1.00  0.00     0.210 HD
ENDBRANCH   8   9
ENDBRANCH   3   8
BRANCH   4  11
ATOM     11  O   UNL     1      22.202  -3.398  -2.049  1.00  0.00    -0.387 OA
ATOM     12  H   UNL     1      21.343  -3.043  -2.398  1.00  0.00     0.211 HD
ENDBRANCH   4  11
BRANCH   6  13
ATOM     13  O   UNL     1      19.690  -3.067  -1.094  1.00  0.00    -0.387 OA
ATOM     14  H   UNL     1      19.362  -2.148  -0.910  1.00  0.00     0.211 HD
ENDBRANCH   6  13
BRANCH   7  15
ATOM     15  O   UNL     1      19.972  -1.503   1.232  1.00  0.00    -0.385 OA
ATOM     16  H   UNL     1      20.083  -0.524   1.105  1.00  0.00     0.211 HD
ENDBRANCH   7  15
ENDBRANCH   1   2
BRANCH   1  17
ATOM     17  C   UNL     1      23.284  -1.200   3.356  1.00  0.00     0.224 C 
ATOM     18  C   UNL     1      23.338   0.335   3.497  1.00  0.00     0.208 C 
ATOM     19  O   UNL     1      22.220  -1.666   4.173  1.00  0.00    -0.337 OA
ATOM     20  C   UNL     1      22.710   0.572   4.842  1.00  0.00     0.180 C 
ATOM     21  C   UNL     1      21.730  -0.596   4.953  1.00  0.00     0.179 C 
BRANCH  17  22
ATOM     22  C   UNL     1      24.601  -1.872   3.827  1.00  0.00     0.225 C 
BRANCH  22  23
ATOM     23  O   UNL     1      25.613  -1.690   2.875  1.00  0.00    -0.391 OA
ATOM     24  H   UNL     1      26.396  -2.209   3.200  1.00  0.00     0.210 HD
ENDBRANCH  22  23
ENDBRANCH  17  22
BRANCH  18  25
ATOM     25  O   UNL     1      24.646   0.847   3.437  1.00  0.00    -0.385 OA
ATOM     26  H   UNL     1      24.744   1.464   4.208  1.00  0.00     0.211 HD
ENDBRANCH  18  25
BRANCH  20  27
ATOM     27  O   UNL     1      22.078   1.824   4.905  1.00  0.00    -0.387 OA
ATOM     28  H   UNL     1      21.527   1.822   5.731  1.00  0.00     0.211 HD
ENDBRANCH  20  27
BRANCH  21  29
ATOM     29  C   UNL     1      20.301  -0.267   4.487  1.00  0.00     0.191 C 
BRANCH  29  30
ATOM     30  O   UNL     1      19.629  -1.441   4.119  1.00  0.00    -0.394 OA
ATOM     31  H   UNL     1      20.207  -1.891   3.451  1.00  0.00     0.210 HD
ENDBRANCH  29  30
ENDBRANCH  21  29
ENDBRANCH   1  17
TORSDOF 13
ENDMDL
MODEL 9
REMARK VINA RESULT:    -4.939      1.893      3.319
REMARK INTER + INTRA:          -9.362
REMARK INTER:                  -7.403
REMARK INTRA:                  -1.959
REMARK UNBOUND:                -1.824
REMARK SMILES OC[C@H]1O[C@@H](O[C@]2(CO)O[C@H](CO)[C@H](O)[C@H]2O)[C@H](O)[C@@H](O)[C@H]1O
REMARK SMILES IDX 6 1 5 2 3 3 22 4 4 5 20 6 18 7 2 8 1 9 23 11 21 13 19 15
REMARK SMILES IDX 7 17 16 18 10 19 14 20 11 21 8 22 9 23 17 25 15 27 12 29
REMARK SMILES IDX 13 30
REMARK H PARENT 1 10 23 12 21 14 19 16 9 24 17 26 15 28 13 31
REMARK Flexibility Score: inf
ROOT
ATOM      1  O   UNL     1      22.215  -4.133   2.709  1.00  0.00    -0.313 OA
ENDROOT
BRANCH   1   2
ATOM      2  C   UNL     1      22.491  -2.740   2.647  1.00  0.00     0.285 C 
ATOM      3  C   UNL     1      23.365  -2.435   0.436  1.00  0.00     0.178 C 
ATOM      4  C   UNL     1      24.623  -1.633   0.899  1.00  0.00     0.177 C 
ATOM      5  O   UNL     1      22.262  -2.270   1.319  1.00  0.00    -0.341 OA
ATOM      6  C   UNL     1      24.559  -1.304   2.406  1.00  0.00     0.179 C 
ATOM      7  C   UNL     1      23.926  -2.476   3.173  1.00  0.00     0.202 C 
BRANCH   3   8
ATOM      8  C   UNL     1      23.629  -3.924   0.101  1.00  0.00     0.191 C 
BRANCH   8   9
ATOM      9  O   UNL     1      22.429  -4.580  -0.210  1.00  0.00    -0.394 OA
ATOM     10  H   UNL     1      21.950  -4.721   0.649  1.00  0.00     0.210 HD
ENDBRANCH   8   9
ENDBRANCH   3   8
BRANCH   4  11
ATOM     11  O   UNL     1      25.801  -2.337   0.588  1.00  0.00    -0.387 OA
ATOM     12  H   UNL     1      26.486  -1.667   0.328  1.00  0.00     0.211 HD
ENDBRANCH   4  11
BRANCH   6  13
ATOM     13  O   UNL     1      25.825  -0.963   2.920  1.00  0.00    -0.387 OA
ATOM     14  H   UNL     1      25.782  -1.027   3.910  1.00  0.00     0.211 HD
ENDBRANCH   6  13
BRANCH   7  15
ATOM     15  O   UNL     1      23.919  -2.236   4.560  1.00  0.00    -0.385 OA
ATOM     16  H   UNL     1      23.926  -3.115   5.022  1.00  0.00     0.211 HD
ENDBRANCH   7  15
ENDBRANCH   1   2
BRANCH   1  17
ATOM     17  C   UNL     1      21.061  -4.467   3.474  1.00  0.00     0.224 C 
ATOM     18  C   UNL     1      21.176  -5.956   3.857  1.00  0.00     0.208 C 
ATOM     19  O   UNL     1      21.026  -3.718   4.681  1.00  0.00    -0.337 OA
ATOM     20  C   UNL     1      20.582  -5.996   5.238  1.00  0.00     0.180 C 
ATOM     21  C   UNL     1      20.916  -4.603   5.775  1.00  0.00     0.179 C 
BRANCH  17  22
ATOM     22  C   UNL     1      19.766  -4.173   2.671  1.00  0.00     0.225 C 
BRANCH  22  23
ATOM     23  O   UNL     1      19.947  -4.486   1.317  1.00  0.00    -0.391 OA
ATOM     24  H   UNL     1      19.991  -5.476   1.265  1.00  0.00     0.210 HD
ENDBRANCH  22  23
ENDBRANCH  17  22
BRANCH  18  25
ATOM     25  O   UNL     1      20.489  -6.806   2.973  1.00  0.00    -0.385 OA
ATOM     26  H   UNL     1      20.951  -7.683   3.006  1.00  0.00     0.211 HD
ENDBRANCH  18  25
BRANCH  20  27
ATOM     27  O   UNL     1      21.139  -7.028   6.012  1.00  0.00    -0.387 OA
ATOM     28  H   UNL     1      21.881  -7.413   5.478  1.00  0.00     0.211 HD
ENDBRANCH  20  27
BRANCH  21  29
ATOM     29  C   UNL     1      22.219  -4.537   6.589  1.00  0.00     0.191 C 
BRANCH  29  30
ATOM     30  O   UNL     1      23.321  -4.798   5.762  1.00  0.00    -0.394 OA
ATOM     31  H   UNL     1      24.106  -4.393   6.214  1.00  0.00     0.210 HD
ENDBRANCH  29  30
ENDBRANCH  21  29
ENDBRANCH   1  17
TORSDOF 13
ENDMDL
