MODEL 1
REMARK VINA RESULT:    -3.925      0.000      0.000
REMARK INTER + INTRA:          -5.340
REMARK INTER:                  -4.843
REMARK INTRA:                  -0.498
REMARK UNBOUND:                -0.498
REMARK SMILES CC(C)=CCC[C@@H](C)c1ccc(C)cc1
REMARK SMILES IDX 6 1 7 2 8 3 9 4 13 5 12 6 11 7 14 8 10 9 15 10 5 11 4 12
REMARK SMILES IDX 2 13 1 14 3 15
REMARK H PARENT
REMARK Flexibility Score: inf
ROOT
ATOM      1  C   UNL     1      49.012  42.046  44.255  1.00  0.00     0.012 C 
ENDROOT
BRANCH   1   2
ATOM      2  C   UNL     1      47.726  41.925  43.408  1.00  0.00     0.016 C 
ATOM      3  C   UNL     1      46.712  43.007  43.800  1.00  0.00     0.013 C 
BRANCH   2   4
ATOM      4  C   UNL     1      48.019  41.983  41.919  1.00  0.00    -0.045 A 
ATOM      5  C   UNL     1      48.818  42.070  37.674  1.00  0.00     0.044 C 
ATOM      6  C   UNL     1      48.536  42.070  39.148  1.00  0.00    -0.051 A 
ATOM      7  C   UNL     1      47.233  41.859  39.618  1.00  0.00     0.004 A 
ATOM      8  C   UNL     1      49.585  42.212  40.067  1.00  0.00     0.004 A 
ATOM      9  C   UNL     1      46.975  41.821  40.991  1.00  0.00     0.004 A 
ATOM     10  C   UNL     1      49.329  42.174  41.440  1.00  0.00     0.004 A 
ENDBRANCH   2   4
ENDBRANCH   1   2
BRANCH   1  11
ATOM     11  C   UNL     1      48.997  41.101  45.466  1.00  0.00     0.028 C 
BRANCH  11  12
ATOM     12  C   UNL     1      48.691  41.862  46.733  1.00  0.00    -0.028 C 
ATOM     13  C   UNL     1      49.097  41.488  47.966  1.00  0.00    -0.080 C 
ATOM     14  C   UNL     1      49.965  40.270  48.188  1.00  0.00     0.039 C 
ATOM     15  C   UNL     1      48.679  42.327  49.145  1.00  0.00     0.039 C 
ENDBRANCH  11  12
ENDBRANCH   1  11
TORSDOF 4
ENDMDL
MODEL 2
REMARK VINA RESULT:    -3.879      1.247      6.936
REMARK INTER + INTRA:          -5.283
REMARK INTER:                  -4.575
REMARK INTRA:                  -0.709
REMARK UNBOUND:                -0.498
REMARK SMILES CC(C)=CCC[C@@H](C)c1ccc(C)cc1
REMARK SMILES IDX 6 1 7 2 8 3 9 4 13 5 12 6 11 7 14 8 10 9 15 10 5 11 4 12
REMARK SMILES IDX 2 13 1 14 3 15
REMARK H PARENT
REMARK Flexibility Score: inf
ROOT
ATOM      1  C   UNL     1      47.623  41.844  42.191  1.00  0.00     0.012 C 
ENDROOT
BRANCH   1   2
ATOM      2  C   UNL     1      49.077  41.753  42.702  1.00  0.00     0.016 C 
ATOM      3  C   UNL     1      49.862  43.020  42.341  1.00  0.00     0.013 C 
BRANCH   2   4
ATOM      4  C   UNL     1      49.139  41.495  44.198  1.00  0.00    -0.045 A 
ATOM      5  C   UNL     1      49.353  40.837  48.462  1.00  0.00     0.044 C 
ATOM      6  C   UNL     1      49.253  41.050  46.981  1.00  0.00    -0.051 A 
ATOM      7  C   UNL     1      48.608  42.185  46.471  1.00  0.00     0.004 A 
ATOM      8  C   UNL     1      49.863  40.149  46.095  1.00  0.00     0.004 A 
ATOM      9  C   UNL     1      48.547  42.404  45.093  1.00  0.00     0.004 A 
ATOM     10  C   UNL     1      49.803  40.367  44.716  1.00  0.00     0.004 A 
ENDBRANCH   2   4
ENDBRANCH   1   2
BRANCH   1  11
ATOM     11  C   UNL     1      47.374  43.125  41.381  1.00  0.00     0.028 C 
BRANCH  11  12
ATOM     12  C   UNL     1      46.788  42.796  40.030  1.00  0.00    -0.028 C 
ATOM     13  C   UNL     1      47.509  42.678  38.893  1.00  0.00    -0.080 C 
ATOM     14  C   UNL     1      49.014  42.816  38.881  1.00  0.00     0.039 C 
ATOM     15  C   UNL     1      46.780  42.386  37.607  1.00  0.00     0.039 C 
ENDBRANCH  11  12
ENDBRANCH   1  11
TORSDOF 4
ENDMDL
MODEL 3
REMARK VINA RESULT:    -3.703      1.125      7.049
REMARK INTER + INTRA:          -5.066
REMARK INTER:                  -4.927
REMARK INTRA:                  -0.140
REMARK UNBOUND:                -0.498
REMARK SMILES CC(C)=CCC[C@@H](C)c1ccc(C)cc1
REMARK SMILES IDX 6 1 7 2 8 3 9 4 13 5 12 6 11 7 14 8 10 9 15 10 5 11 4 12
REMARK SMILES IDX 2 13 1 14 3 15
REMARK H PARENT
REMARK Flexibility Score: inf
ROOT
ATOM      1  C   UNL     1      47.331  42.501  41.997  1.00  0.00     0.012 C 
ENDROOT
BRANCH   1   2
ATOM      2  C   UNL     1      48.764  42.012  42.302  1.00  0.00     0.016 C 
ATOM      3  C   UNL     1      49.802  43.030  41.813  1.00  0.00     0.013 C 
BRANCH   2   4
ATOM      4  C   UNL     1      48.961  41.715  43.778  1.00  0.00    -0.045 A 
ATOM      5  C   UNL     1      49.509  40.787  47.961  1.00  0.00     0.044 C 
ATOM      6  C   UNL     1      49.339  41.132  46.512  1.00  0.00    -0.051 A 
ATOM      7  C   UNL     1      50.125  40.500  45.538  1.00  0.00     0.004 A 
ATOM      8  C   UNL     1      48.346  42.038  46.113  1.00  0.00     0.004 A 
ATOM      9  C   UNL     1      49.942  40.792  44.184  1.00  0.00     0.004 A 
ATOM     10  C   UNL     1      48.161  42.331  44.759  1.00  0.00     0.004 A 
ENDBRANCH   2   4
ENDBRANCH   1   2
BRANCH   1  11
ATOM     11  C   UNL     1      46.853  42.061  40.605  1.00  0.00     0.028 C 
BRANCH  11  12
ATOM     12  C   UNL     1      48.020  41.923  39.659  1.00  0.00    -0.028 C 
ATOM     13  C   UNL     1      47.958  42.162  38.330  1.00  0.00    -0.080 C 
ATOM     14  C   UNL     1      46.695  42.654  37.663  1.00  0.00     0.039 C 
ATOM     15  C   UNL     1      49.198  41.941  37.503  1.00  0.00     0.039 C 
ENDBRANCH  11  12
ENDBRANCH   1  11
TORSDOF 4
ENDMDL
MODEL 4
REMARK VINA RESULT:    -3.596      1.099      1.973
REMARK INTER + INTRA:          -4.934
REMARK INTER:                  -4.202
REMARK INTRA:                  -0.732
REMARK UNBOUND:                -0.498
REMARK SMILES CC(C)=CCC[C@@H](C)c1ccc(C)cc1
REMARK SMILES IDX 6 1 7 2 8 3 9 4 13 5 12 6 11 7 14 8 10 9 15 10 5 11 4 12
REMARK SMILES IDX 2 13 1 14 3 15
REMARK H PARENT
REMARK Flexibility Score: inf
ROOT
ATOM      1  C   UNL     1      48.763  40.937  44.628  1.00  0.00     0.012 C 
ENDROOT
BRANCH   1   2
ATOM      2  C   UNL     1      48.772  42.320  43.940  1.00  0.00     0.016 C 
ATOM      3  C   UNL     1      50.125  43.016  44.134  1.00  0.00     0.013 C 
BRANCH   2   4
ATOM      4  C   UNL     1      48.428  42.223  42.464  1.00  0.00    -0.045 A 
ATOM      5  C   UNL     1      47.490  42.021  38.252  1.00  0.00     0.044 C 
ATOM      6  C   UNL     1      47.818  42.060  39.715  1.00  0.00    -0.051 A 
ATOM      7  C   UNL     1      49.148  42.185  40.139  1.00  0.00     0.004 A 
ATOM      8  C   UNL     1      46.790  42.043  40.670  1.00  0.00     0.004 A 
ATOM      9  C   UNL     1      49.452  42.260  41.501  1.00  0.00     0.004 A 
ATOM     10  C   UNL     1      47.092  42.118  42.032  1.00  0.00     0.004 A 
ENDBRANCH   2   4
ENDBRANCH   1   2
BRANCH   1  11
ATOM     11  C   UNL     1      50.064  40.665  45.397  1.00  0.00     0.028 C 
BRANCH  11  12
ATOM     12  C   UNL     1      49.768  40.118  46.772  1.00  0.00    -0.028 C 
ATOM     13  C   UNL     1      49.707  40.867  47.895  1.00  0.00    -0.080 C 
ATOM     14  C   UNL     1      49.883  42.368  47.867  1.00  0.00     0.039 C 
ATOM     15  C   UNL     1      49.442  40.174  49.206  1.00  0.00     0.039 C 
ENDBRANCH  11  12
ENDBRANCH   1  11
TORSDOF 4
ENDMDL
MODEL 5
REMARK VINA RESULT:    -3.529      0.935      6.980
REMARK INTER + INTRA:          -4.852
REMARK INTER:                  -4.289
REMARK INTRA:                  -0.563
REMARK UNBOUND:                -0.498
REMARK SMILES CC(C)=CCC[C@@H](C)c1ccc(C)cc1
REMARK SMILES IDX 6 1 7 2 8 3 9 4 13 5 12 6 11 7 14 8 10 9 15 10 5 11 4 12
REMARK SMILES IDX 2 13 1 14 3 15
REMARK H PARENT
REMARK Flexibility Score: inf
ROOT
ATOM      1  C   UNL     1      49.337  42.776  43.612  1.00  0.00     0.012 C 
ENDROOT
BRANCH   1   2
ATOM      2  C   UNL     1      48.279  42.834  44.735  1.00  0.00     0.016 C 
ATOM      3  C   UNL     1      46.941  42.259  44.253  1.00  0.00     0.013 C 
BRANCH   2   4
ATOM      4  C   UNL     1      48.745  42.120  45.992  1.00  0.00    -0.045 A 
ATOM      5  C   UNL     1      50.026  40.020  49.543  1.00  0.00     0.044 C 
ATOM      6  C   UNL     1      49.608  40.764  48.310  1.00  0.00    -0.051 A 
ATOM      7  C   UNL     1      49.882  40.240  47.040  1.00  0.00     0.004 A 
ATOM      8  C   UNL     1      48.878  41.957  48.419  1.00  0.00     0.004 A 
ATOM      9  C   UNL     1      49.460  40.913  45.891  1.00  0.00     0.004 A 
ATOM     10  C   UNL     1      48.454  42.632  47.271  1.00  0.00     0.004 A 
ENDBRANCH   2   4
ENDBRANCH   1   2
BRANCH   1  11
ATOM     11  C   UNL     1      49.056  41.646  42.610  1.00  0.00     0.028 C 
BRANCH  11  12
ATOM     12  C   UNL     1      49.171  42.149  41.192  1.00  0.00    -0.028 C 
ATOM     13  C   UNL     1      48.205  42.022  40.256  1.00  0.00    -0.080 C 
ATOM     14  C   UNL     1      46.865  41.397  40.568  1.00  0.00     0.039 C 
ATOM     15  C   UNL     1      48.478  42.538  38.867  1.00  0.00     0.039 C 
ENDBRANCH  11  12
ENDBRANCH   1  11
TORSDOF 4
ENDMDL
MODEL 6
REMARK VINA RESULT:    -1.075      2.649      6.445
REMARK INTER + INTRA:          -1.823
REMARK INTER:                  -1.146
REMARK INTRA:                  -0.678
REMARK UNBOUND:                -0.498
REMARK SMILES CC(C)=CCC[C@@H](C)c1ccc(C)cc1
REMARK SMILES IDX 6 1 7 2 8 3 9 4 13 5 12 6 11 7 14 8 10 9 15 10 5 11 4 12
REMARK SMILES IDX 2 13 1 14 3 15
REMARK H PARENT
REMARK Flexibility Score: inf
ROOT
ATOM      1  C   UNL     1      47.149  40.476  40.247  1.00  0.00     0.012 C 
ENDROOT
BRANCH   1   2
ATOM      2  C   UNL     1      47.367  41.922  40.744  1.00  0.00     0.016 C 
ATOM      3  C   UNL     1      46.157  42.803  40.405  1.00  0.00     0.013 C 
BRANCH   2   4
ATOM      4  C   UNL     1      47.664  41.974  42.232  1.00  0.00    -0.045 A 
ATOM      5  C   UNL     1      48.531  42.040  46.463  1.00  0.00     0.044 C 
ATOM      6  C   UNL     1      48.240  42.046  44.992  1.00  0.00    -0.051 A 
ATOM      7  C   UNL     1      49.212  41.620  44.077  1.00  0.00     0.004 A 
ATOM      8  C   UNL     1      46.969  42.413  44.525  1.00  0.00     0.004 A 
ATOM      9  C   UNL     1      48.930  41.589  42.709  1.00  0.00     0.004 A 
ATOM     10  C   UNL     1      46.685  42.382  43.157  1.00  0.00     0.004 A 
ENDBRANCH   2   4
ENDBRANCH   1   2
BRANCH   1  11
ATOM     11  C   UNL     1      45.660  40.141  40.077  1.00  0.00     0.028 C 
BRANCH  11  12
ATOM     12  C   UNL     1      45.268  38.984  40.962  1.00  0.00    -0.028 C 
ATOM     13  C   UNL     1      44.095  38.320  40.876  1.00  0.00    -0.080 C 
ATOM     14  C   UNL     1      43.062  38.650  39.824  1.00  0.00     0.039 C 
ATOM     15  C   UNL     1      43.826  37.208  41.858  1.00  0.00     0.039 C 
ENDBRANCH  11  12
ENDBRANCH   1  11
TORSDOF 4
ENDMDL
