MODEL 1
REMARK VINA RESULT:    -5.877      0.000      0.000
REMARK INTER + INTRA:          -6.424
REMARK INTER:                  -6.393
REMARK INTRA:                  -0.032
REMARK UNBOUND:                -0.032
REMARK SMILES O=C([O-])c1ccc(O)cc1
REMARK SMILES IDX 4 1 5 2 10 3 6 4 9 5 7 6 2 7 1 8 3 9 8 10
REMARK H PARENT 8 11
REMARK Flexibility Score: inf
ROOT
ATOM      1  C   UNL     1      13.156 -46.797  38.226  1.00  0.00    -0.003 A 
ATOM      2  C   UNL     1      12.319 -46.051  37.376  1.00  0.00     0.014 A 
ATOM      3  C   UNL     1      12.614 -47.363  39.393  1.00  0.00     0.014 A 
ATOM      4  C   UNL     1      10.967 -45.876  37.689  1.00  0.00     0.047 A 
ATOM      5  C   UNL     1      11.261 -47.185  39.703  1.00  0.00     0.047 A 
ATOM      6  C   UNL     1      10.434 -46.442  38.851  1.00  0.00     0.115 A 
ENDROOT
BRANCH   1   7
ATOM      7  C   UNL     1      14.587 -46.986  37.899  1.00  0.00     0.071 C 
ATOM      8  O   UNL     1      15.464 -46.921  38.801  1.00  0.00    -0.545 OA
ATOM      9  O   UNL     1      14.983 -47.240  36.591  1.00  0.00    -0.545 OA
ENDBRANCH   1   7
BRANCH   6  10
ATOM     10  O   UNL     1       9.086 -46.259  39.150  1.00  0.00    -0.508 OA
ATOM     11  H   UNL     1       8.419 -45.984  38.438  1.00  0.00     0.293 HD
ENDBRANCH   6  10
TORSDOF 2
ENDMDL
MODEL 2
REMARK VINA RESULT:    -5.772      1.095      4.191
REMARK INTER + INTRA:          -6.310
REMARK INTER:                  -6.278
REMARK INTRA:                  -0.031
REMARK UNBOUND:                -0.032
REMARK SMILES O=C([O-])c1ccc(O)cc1
REMARK SMILES IDX 4 1 5 2 10 3 6 4 9 5 7 6 2 7 1 8 3 9 8 10
REMARK H PARENT 8 11
REMARK Flexibility Score: inf
ROOT
ATOM      1  C   UNL     1      11.390 -46.192  38.092  1.00  0.00    -0.003 A 
ATOM      2  C   UNL     1      12.427 -45.851  37.203  1.00  0.00     0.014 A 
ATOM      3  C   UNL     1      11.698 -46.937  39.245  1.00  0.00     0.014 A 
ATOM      4  C   UNL     1      13.742 -46.248  37.463  1.00  0.00     0.047 A 
ATOM      5  C   UNL     1      13.015 -47.331  39.502  1.00  0.00     0.047 A 
ATOM      6  C   UNL     1      14.041 -46.987  38.612  1.00  0.00     0.115 A 
ENDROOT
BRANCH   1   7
ATOM      7  C   UNL     1       9.997 -45.775  37.821  1.00  0.00     0.071 C 
ATOM      8  O   UNL     1       9.508 -45.884  36.665  1.00  0.00    -0.545 OA
ATOM      9  O   UNL     1       9.206 -45.258  38.841  1.00  0.00    -0.545 OA
ENDBRANCH   1   7
BRANCH   6  10
ATOM     10  O   UNL     1      15.356 -47.375  38.858  1.00  0.00    -0.508 OA
ATOM     11  H   UNL     1      16.082 -47.256  38.160  1.00  0.00     0.293 HD
ENDBRANCH   6  10
TORSDOF 2
ENDMDL
MODEL 3
REMARK VINA RESULT:    -5.768      1.107      4.435
REMARK INTER + INTRA:          -6.306
REMARK INTER:                  -6.275
REMARK INTRA:                  -0.031
REMARK UNBOUND:                -0.032
REMARK SMILES O=C([O-])c1ccc(O)cc1
REMARK SMILES IDX 4 1 5 2 10 3 6 4 9 5 7 6 2 7 1 8 3 9 8 10
REMARK H PARENT 8 11
REMARK Flexibility Score: inf
ROOT
ATOM      1  C   UNL     1      11.383 -46.182  38.076  1.00  0.00    -0.003 A 
ATOM      2  C   UNL     1      11.683 -46.929  39.230  1.00  0.00     0.014 A 
ATOM      3  C   UNL     1      12.423 -45.845  37.192  1.00  0.00     0.014 A 
ATOM      4  C   UNL     1      12.997 -47.330  39.492  1.00  0.00     0.047 A 
ATOM      5  C   UNL     1      13.736 -46.249  37.457  1.00  0.00     0.047 A 
ATOM      6  C   UNL     1      14.026 -46.993  38.608  1.00  0.00     0.115 A 
ENDROOT
BRANCH   1   7
ATOM      7  C   UNL     1       9.995 -45.754  37.794  1.00  0.00     0.071 C 
ATOM      8  O   UNL     1       9.511 -45.870  36.637  1.00  0.00    -0.545 OA
ATOM      9  O   UNL     1       9.204 -45.220  38.805  1.00  0.00    -0.545 OA
ENDBRANCH   1   7
BRANCH   6  10
ATOM     10  O   UNL     1      15.330 -47.399  38.882  1.00  0.00    -0.508 OA
ATOM     11  H   UNL     1      15.532 -48.331  39.226  1.00  0.00     0.293 HD
ENDBRANCH   6  10
TORSDOF 2
ENDMDL
MODEL 4
REMARK VINA RESULT:    -5.551      1.994      4.073
REMARK INTER + INTRA:          -6.070
REMARK INTER:                  -6.036
REMARK INTRA:                  -0.034
REMARK UNBOUND:                -0.032
REMARK SMILES O=C([O-])c1ccc(O)cc1
REMARK SMILES IDX 4 1 5 2 10 3 6 4 9 5 7 6 2 7 1 8 3 9 8 10
REMARK H PARENT 8 11
REMARK Flexibility Score: inf
ROOT
ATOM      1  C   UNL     1      10.492 -46.384  37.382  1.00  0.00    -0.003 A 
ATOM      2  C   UNL     1      11.867 -46.105  37.275  1.00  0.00     0.014 A 
ATOM      3  C   UNL     1      10.020 -47.056  38.524  1.00  0.00     0.014 A 
ATOM      4  C   UNL     1      12.749 -46.491  38.289  1.00  0.00     0.047 A 
ATOM      5  C   UNL     1      10.906 -47.440  39.536  1.00  0.00     0.047 A 
ATOM      6  C   UNL     1      12.273 -47.158  39.421  1.00  0.00     0.115 A 
ENDROOT
BRANCH   1   7
ATOM      7  C   UNL     1       9.554 -45.978  36.313  1.00  0.00     0.071 C 
ATOM      8  O   UNL     1       9.957 -45.833  35.128  1.00  0.00    -0.545 OA
ATOM      9  O   UNL     1       8.213 -45.752  36.600  1.00  0.00    -0.545 OA
ENDBRANCH   1   7
BRANCH   6  10
ATOM     10  O   UNL     1      13.164 -47.536  40.423  1.00  0.00    -0.508 OA
ATOM     11  H   UNL     1      14.137 -47.731  40.219  1.00  0.00     0.293 HD
ENDBRANCH   6  10
TORSDOF 2
ENDMDL
MODEL 5
REMARK VINA RESULT:    -5.516      1.976      4.382
REMARK INTER + INTRA:          -6.031
REMARK INTER:                  -6.002
REMARK INTRA:                  -0.029
REMARK UNBOUND:                -0.032
REMARK SMILES O=C([O-])c1ccc(O)cc1
REMARK SMILES IDX 4 1 5 2 10 3 6 4 9 5 7 6 2 7 1 8 3 9 8 10
REMARK H PARENT 8 11
REMARK Flexibility Score: inf
ROOT
ATOM      1  C   UNL     1      10.259 -46.426  37.482  1.00  0.00    -0.003 A 
ATOM      2  C   UNL     1       9.914 -47.152  38.637  1.00  0.00     0.014 A 
ATOM      3  C   UNL     1      11.603 -46.064  37.280  1.00  0.00     0.014 A 
ATOM      4  C   UNL     1      10.894 -47.507  39.569  1.00  0.00     0.047 A 
ATOM      5  C   UNL     1      12.581 -46.422  38.214  1.00  0.00     0.047 A 
ATOM      6  C   UNL     1      12.229 -47.145  39.361  1.00  0.00     0.115 A 
ENDROOT
BRANCH   1   7
ATOM      7  C   UNL     1       9.226 -46.048  36.492  1.00  0.00     0.071 C 
ATOM      8  O   UNL     1       9.341 -46.387  35.284  1.00  0.00    -0.545 OA
ATOM      9  O   UNL     1       8.113 -45.313  36.883  1.00  0.00    -0.545 OA
ENDBRANCH   1   7
BRANCH   6  10
ATOM     10  O   UNL     1      13.194 -47.505  40.298  1.00  0.00    -0.508 OA
ATOM     11  H   UNL     1      14.022 -46.941  40.449  1.00  0.00     0.293 HD
ENDBRANCH   6  10
TORSDOF 2
ENDMDL
MODEL 6
REMARK VINA RESULT:    -5.458      2.613      4.251
REMARK INTER + INTRA:          -5.968
REMARK INTER:                  -5.937
REMARK INTRA:                  -0.031
REMARK UNBOUND:                -0.032
REMARK SMILES O=C([O-])c1ccc(O)cc1
REMARK SMILES IDX 4 1 5 2 10 3 6 4 9 5 7 6 2 7 1 8 3 9 8 10
REMARK H PARENT 8 11
REMARK Flexibility Score: inf
ROOT
ATOM      1  C   UNL     1       9.912 -46.685  36.704  1.00  0.00    -0.003 A 
ATOM      2  C   UNL     1      11.201 -46.123  36.715  1.00  0.00     0.014 A 
ATOM      3  C   UNL     1       9.403 -47.247  37.889  1.00  0.00     0.014 A 
ATOM      4  C   UNL     1      11.964 -46.123  37.887  1.00  0.00     0.047 A 
ATOM      5  C   UNL     1      10.169 -47.245  39.059  1.00  0.00     0.047 A 
ATOM      6  C   UNL     1      11.451 -46.683  39.061  1.00  0.00     0.115 A 
ENDROOT
BRANCH   1   7
ATOM      7  C   UNL     1       9.100 -46.688  35.467  1.00  0.00     0.071 C 
ATOM      8  O   UNL     1       7.876 -46.392  35.503  1.00  0.00    -0.545 OA
ATOM      9  O   UNL     1       9.679 -47.014  34.246  1.00  0.00    -0.545 OA
ENDBRANCH   1   7
BRANCH   6  10
ATOM     10  O   UNL     1      12.223 -46.676  40.221  1.00  0.00    -0.508 OA
ATOM     11  H   UNL     1      12.798 -47.470  40.479  1.00  0.00     0.293 HD
ENDBRANCH   6  10
TORSDOF 2
ENDMDL
MODEL 7
REMARK VINA RESULT:    -5.389      1.750      2.419
REMARK INTER + INTRA:          -5.894
REMARK INTER:                  -5.861
REMARK INTRA:                  -0.033
REMARK UNBOUND:                -0.032
REMARK SMILES O=C([O-])c1ccc(O)cc1
REMARK SMILES IDX 4 1 5 2 10 3 6 4 9 5 7 6 2 7 1 8 3 9 8 10
REMARK H PARENT 8 11
REMARK Flexibility Score: inf
ROOT
ATOM      1  C   UNL     1      11.597 -46.861  38.794  1.00  0.00    -0.003 A 
ATOM      2  C   UNL     1      11.662 -46.126  37.596  1.00  0.00     0.014 A 
ATOM      3  C   UNL     1      10.344 -47.304  39.255  1.00  0.00     0.014 A 
ATOM      4  C   UNL     1      10.497 -45.842  36.875  1.00  0.00     0.047 A 
ATOM      5  C   UNL     1       9.182 -47.019  38.532  1.00  0.00     0.047 A 
ATOM      6  C   UNL     1       9.256 -46.287  37.339  1.00  0.00     0.115 A 
ENDROOT
BRANCH   1   7
ATOM      7  C   UNL     1      12.825 -47.164  39.560  1.00  0.00     0.071 C 
ATOM      8  O   UNL     1      13.920 -47.357  38.967  1.00  0.00    -0.545 OA
ATOM      9  O   UNL     1      12.789 -47.239  40.948  1.00  0.00    -0.545 OA
ENDBRANCH   1   7
BRANCH   6  10
ATOM     10  O   UNL     1       8.104 -45.997  36.611  1.00  0.00    -0.508 OA
ATOM     11  H   UNL     1       7.199 -45.923  37.060  1.00  0.00     0.293 HD
ENDBRANCH   6  10
TORSDOF 2
ENDMDL
MODEL 8
REMARK VINA RESULT:    -5.111      7.588      8.481
REMARK INTER + INTRA:          -5.592
REMARK INTER:                  -5.559
REMARK INTRA:                  -0.033
REMARK UNBOUND:                -0.032
REMARK SMILES O=C([O-])c1ccc(O)cc1
REMARK SMILES IDX 4 1 5 2 10 3 6 4 9 5 7 6 2 7 1 8 3 9 8 10
REMARK H PARENT 8 11
REMARK Flexibility Score: inf
ROOT
ATOM      1  C   UNL     1      13.199 -47.410  45.888  1.00  0.00    -0.003 A 
ATOM      2  C   UNL     1      13.002 -46.051  46.196  1.00  0.00     0.014 A 
ATOM      3  C   UNL     1      13.031 -48.370  46.902  1.00  0.00     0.014 A 
ATOM      4  C   UNL     1      12.645 -45.663  47.491  1.00  0.00     0.047 A 
ATOM      5  C   UNL     1      12.674 -47.978  48.196  1.00  0.00     0.047 A 
ATOM      6  C   UNL     1      12.479 -46.623  48.494  1.00  0.00     0.115 A 
ENDROOT
BRANCH   1   7
ATOM      7  C   UNL     1      13.577 -47.826  44.520  1.00  0.00     0.071 C 
ATOM      8  O   UNL     1      14.356 -48.799  44.338  1.00  0.00    -0.545 OA
ATOM      9  O   UNL     1      13.075 -47.149  43.414  1.00  0.00    -0.545 OA
ENDBRANCH   1   7
BRANCH   6  10
ATOM     10  O   UNL     1      12.123 -46.221  49.779  1.00  0.00    -0.508 OA
ATOM     11  H   UNL     1      12.809 -45.846  50.425  1.00  0.00     0.293 HD
ENDBRANCH   6  10
TORSDOF 2
ENDMDL
MODEL 9
REMARK VINA RESULT:    -5.071      5.092      6.292
REMARK INTER + INTRA:          -5.547
REMARK INTER:                  -5.514
REMARK INTRA:                  -0.034
REMARK UNBOUND:                -0.032
REMARK SMILES O=C([O-])c1ccc(O)cc1
REMARK SMILES IDX 4 1 5 2 10 3 6 4 9 5 7 6 2 7 1 8 3 9 8 10
REMARK H PARENT 8 11
REMARK Flexibility Score: inf
ROOT
ATOM      1  C   UNL     1       9.647 -46.104  34.389  1.00  0.00    -0.003 A 
ATOM      2  C   UNL     1      10.119 -44.948  33.739  1.00  0.00     0.014 A 
ATOM      3  C   UNL     1       8.680 -46.900  33.749  1.00  0.00     0.014 A 
ATOM      4  C   UNL     1       9.633 -44.599  32.475  1.00  0.00     0.047 A 
ATOM      5  C   UNL     1       8.197 -46.547  32.485  1.00  0.00     0.047 A 
ATOM      6  C   UNL     1       8.673 -45.395  31.844  1.00  0.00     0.115 A 
ENDROOT
BRANCH   1   7
ATOM      7  C   UNL     1      10.157 -46.478  35.727  1.00  0.00     0.071 C 
ATOM      8  O   UNL     1       9.430 -47.115  36.535  1.00  0.00    -0.545 OA
ATOM      9  O   UNL     1      11.448 -46.133  36.110  1.00  0.00    -0.545 OA
ENDBRANCH   1   7
BRANCH   6  10
ATOM     10  O   UNL     1       8.199 -45.034  30.586  1.00  0.00    -0.508 OA
ATOM     11  H   UNL     1       8.774 -45.128  29.756  1.00  0.00     0.293 HD
ENDBRANCH   6  10
TORSDOF 2
ENDMDL
