MODEL 1
REMARK VINA RESULT:    -3.795      0.000      0.000
REMARK INTER + INTRA:          -5.440
REMARK INTER:                  -5.127
REMARK INTRA:                  -0.313
REMARK UNBOUND:                -0.313
REMARK SMILES CCCCCCCC(=O)[O-]
REMARK SMILES IDX 5 1 6 2 7 3 8 4 9 5 10 6 4 7 3 8 2 9 1 10
REMARK H PARENT
REMARK Flexibility Score: inf
ROOT
ATOM      1  C   UNL     1      27.909  27.128 -16.400  1.00  0.00     0.000 C 
ENDROOT
BRANCH   1   2
ATOM      2  C   UNL     1      28.062  25.773 -17.114  1.00  0.00     0.006 C 
BRANCH   2   3
ATOM      3  C   UNL     1      26.828  25.395 -17.944  1.00  0.00     0.053 C 
BRANCH   3   4
ATOM      4  C   UNL     1      27.178  24.348 -18.954  1.00  0.00     0.041 C 
ATOM      5  O   UNL     1      26.474  24.204 -19.987  1.00  0.00    -0.550 OA
ATOM      6  O   UNL     1      28.254  23.498 -18.729  1.00  0.00    -0.550 OA
ENDBRANCH   3   4
ENDBRANCH   2   3
ENDBRANCH   1   2
BRANCH   1   7
ATOM      7  C   UNL     1      29.027  28.149 -16.689  1.00  0.00     0.000 C 
BRANCH   7   8
ATOM      8  C   UNL     1      28.598  29.364 -17.532  1.00  0.00    -0.000 C 
BRANCH   8   9
ATOM      9  C   UNL     1      27.076  29.562 -17.560  1.00  0.00    -0.003 C 
ATOM     10  C   UNL     1      26.629  30.204 -18.870  1.00  0.00     0.004 C 
ENDBRANCH   8   9
ENDBRANCH   7   8
ENDBRANCH   1   7
TORSDOF 6
ENDMDL
MODEL 2
REMARK VINA RESULT:    -3.686      1.194      1.874
REMARK INTER + INTRA:          -5.292
REMARK INTER:                  -5.055
REMARK INTRA:                  -0.237
REMARK UNBOUND:                -0.313
REMARK SMILES CCCCCCCC(=O)[O-]
REMARK SMILES IDX 5 1 6 2 7 3 8 4 9 5 10 6 4 7 3 8 2 9 1 10
REMARK H PARENT
REMARK Flexibility Score: inf
ROOT
ATOM      1  C   UNL     1      29.432  25.319 -17.407  1.00  0.00     0.000 C 
ENDROOT
BRANCH   1   2
ATOM      2  C   UNL     1      27.928  25.097 -17.646  1.00  0.00     0.006 C 
BRANCH   2   3
ATOM      3  C   UNL     1      27.638  23.870 -18.519  1.00  0.00     0.053 C 
BRANCH   3   4
ATOM      4  C   UNL     1      26.812  24.256 -19.706  1.00  0.00     0.041 C 
ATOM      5  O   UNL     1      27.032  23.731 -20.829  1.00  0.00    -0.550 OA
ATOM      6  O   UNL     1      25.832  25.233 -19.582  1.00  0.00    -0.550 OA
ENDBRANCH   3   4
ENDBRANCH   2   3
ENDBRANCH   1   2
BRANCH   1   7
ATOM      7  C   UNL     1      29.801  26.677 -16.779  1.00  0.00     0.000 C 
BRANCH   7   8
ATOM      8  C   UNL     1      28.609  27.607 -16.487  1.00  0.00    -0.000 C 
BRANCH   8   9
ATOM      9  C   UNL     1      28.753  28.985 -17.148  1.00  0.00    -0.003 C 
ATOM     10  C   UNL     1      27.402  29.510 -17.624  1.00  0.00     0.004 C 
ENDBRANCH   8   9
ENDBRANCH   7   8
ENDBRANCH   1   7
TORSDOF 6
ENDMDL
MODEL 3
REMARK VINA RESULT:    -3.587      2.840      4.618
REMARK INTER + INTRA:          -5.158
REMARK INTER:                  -4.784
REMARK INTRA:                  -0.374
REMARK UNBOUND:                -0.313
REMARK SMILES CCCCCCCC(=O)[O-]
REMARK SMILES IDX 5 1 6 2 7 3 8 4 9 5 10 6 4 7 3 8 2 9 1 10
REMARK H PARENT
REMARK Flexibility Score: inf
ROOT
ATOM      1  C   UNL     1      29.119  25.068 -17.522  1.00  0.00     0.000 C 
ENDROOT
BRANCH   1   2
ATOM      2  C   UNL     1      28.945  26.290 -16.603  1.00  0.00     0.006 C 
BRANCH   2   3
ATOM      3  C   UNL     1      27.639  27.050 -16.864  1.00  0.00     0.053 C 
BRANCH   3   4
ATOM      4  C   UNL     1      27.927  28.465 -17.255  1.00  0.00     0.041 C 
ATOM      5  O   UNL     1      26.989  29.231 -17.600  1.00  0.00    -0.550 OA
ATOM      6  O   UNL     1      29.238  28.925 -17.285  1.00  0.00    -0.550 OA
ENDBRANCH   3   4
ENDBRANCH   2   3
ENDBRANCH   1   2
BRANCH   1   7
ATOM      7  C   UNL     1      27.807  24.424 -18.011  1.00  0.00     0.000 C 
BRANCH   7   8
ATOM      8  C   UNL     1      27.896  23.713 -19.373  1.00  0.00    -0.000 C 
BRANCH   8   9
ATOM      9  C   UNL     1      26.779  24.134 -20.339  1.00  0.00    -0.003 C 
ATOM     10  C   UNL     1      25.898  25.217 -19.722  1.00  0.00     0.004 C 
ENDBRANCH   8   9
ENDBRANCH   7   8
ENDBRANCH   1   7
TORSDOF 6
ENDMDL
MODEL 4
REMARK VINA RESULT:    -3.586      3.510      5.240
REMARK INTER + INTRA:          -5.157
REMARK INTER:                  -4.915
REMARK INTRA:                  -0.243
REMARK UNBOUND:                -0.313
REMARK SMILES CCCCCCCC(=O)[O-]
REMARK SMILES IDX 5 1 6 2 7 3 8 4 9 5 10 6 4 7 3 8 2 9 1 10
REMARK H PARENT
REMARK Flexibility Score: inf
ROOT
ATOM      1  C   UNL     1      28.638  28.411 -16.988  1.00  0.00     0.000 C 
ENDROOT
BRANCH   1   2
ATOM      2  C   UNL     1      28.102  29.764 -17.490  1.00  0.00     0.006 C 
BRANCH   2   3
ATOM      3  C   UNL     1      26.832  29.624 -18.338  1.00  0.00     0.053 C 
BRANCH   3   4
ATOM      4  C   UNL     1      26.687  30.795 -19.260  1.00  0.00     0.041 C 
ATOM      5  O   UNL     1      25.872  31.716 -18.990  1.00  0.00    -0.550 OA
ATOM      6  O   UNL     1      27.415  30.843 -20.442  1.00  0.00    -0.550 OA
ENDBRANCH   3   4
ENDBRANCH   2   3
ENDBRANCH   1   2
BRANCH   1   7
ATOM      7  C   UNL     1      27.620  27.254 -17.015  1.00  0.00     0.000 C 
BRANCH   7   8
ATOM      8  C   UNL     1      27.940  26.082 -16.070  1.00  0.00    -0.000 C 
BRANCH   8   9
ATOM      9  C   UNL     1      27.529  26.359 -14.617  1.00  0.00    -0.003 C 
ATOM     10  C   UNL     1      28.752  26.449 -13.708  1.00  0.00     0.004 C 
ENDBRANCH   8   9
ENDBRANCH   7   8
ENDBRANCH   1   7
TORSDOF 6
ENDMDL
MODEL 5
REMARK VINA RESULT:    -3.539      1.790      2.998
REMARK INTER + INTRA:          -5.094
REMARK INTER:                  -4.862
REMARK INTRA:                  -0.233
REMARK UNBOUND:                -0.313
REMARK SMILES CCCCCCCC(=O)[O-]
REMARK SMILES IDX 5 1 6 2 7 3 8 4 9 5 10 6 4 7 3 8 2 9 1 10
REMARK H PARENT
REMARK Flexibility Score: inf
ROOT
ATOM      1  C   UNL     1      27.783  25.970 -16.553  1.00  0.00     0.000 C 
ENDROOT
BRANCH   1   2
ATOM      2  C   UNL     1      26.758  25.382 -17.539  1.00  0.00     0.006 C 
BRANCH   2   3
ATOM      3  C   UNL     1      27.360  24.308 -18.453  1.00  0.00     0.053 C 
BRANCH   3   4
ATOM      4  C   UNL     1      26.738  24.371 -19.813  1.00  0.00     0.041 C 
ATOM      5  O   UNL     1      27.171  23.638 -20.742  1.00  0.00    -0.550 OA
ATOM      6  O   UNL     1      25.714  25.274 -20.068  1.00  0.00    -0.550 OA
ENDBRANCH   3   4
ENDBRANCH   2   3
ENDBRANCH   1   2
BRANCH   1   7
ATOM      7  C   UNL     1      28.062  27.477 -16.721  1.00  0.00     0.000 C 
BRANCH   7   8
ATOM      8  C   UNL     1      29.550  27.869 -16.724  1.00  0.00    -0.000 C 
BRANCH   8   9
ATOM      9  C   UNL     1      30.356  27.159 -15.628  1.00  0.00    -0.003 C 
ATOM     10  C   UNL     1      31.616  26.516 -16.200  1.00  0.00     0.004 C 
ENDBRANCH   8   9
ENDBRANCH   7   8
ENDBRANCH   1   7
TORSDOF 6
ENDMDL
MODEL 6
REMARK VINA RESULT:    -3.537      1.695      2.718
REMARK INTER + INTRA:          -5.091
REMARK INTER:                  -4.624
REMARK INTRA:                  -0.467
REMARK UNBOUND:                -0.313
REMARK SMILES CCCCCCCC(=O)[O-]
REMARK SMILES IDX 5 1 6 2 7 3 8 4 9 5 10 6 4 7 3 8 2 9 1 10
REMARK H PARENT
REMARK Flexibility Score: inf
ROOT
ATOM      1  C   UNL     1      27.749  26.436 -15.844  1.00  0.00     0.000 C 
ENDROOT
BRANCH   1   2
ATOM      2  C   UNL     1      26.986  25.299 -16.546  1.00  0.00     0.006 C 
BRANCH   2   3
ATOM      3  C   UNL     1      27.673  24.827 -17.833  1.00  0.00     0.053 C 
BRANCH   3   4
ATOM      4  C   UNL     1      26.668  24.648 -18.927  1.00  0.00     0.041 C 
ATOM      5  O   UNL     1      25.465  24.971 -18.741  1.00  0.00    -0.550 OA
ATOM      6  O   UNL     1      27.049  24.080 -20.136  1.00  0.00    -0.550 OA
ENDBRANCH   3   4
ENDBRANCH   2   3
ENDBRANCH   1   2
BRANCH   1   7
ATOM      7  C   UNL     1      28.019  27.678 -16.715  1.00  0.00     0.000 C 
BRANCH   7   8
ATOM      8  C   UNL     1      29.490  28.127 -16.775  1.00  0.00    -0.000 C 
BRANCH   8   9
ATOM      9  C   UNL     1      30.437  27.162 -16.048  1.00  0.00    -0.003 C 
ATOM     10  C   UNL     1      31.191  26.280 -17.039  1.00  0.00     0.004 C 
ENDBRANCH   8   9
ENDBRANCH   7   8
ENDBRANCH   1   7
TORSDOF 6
ENDMDL
MODEL 7
REMARK VINA RESULT:    -3.514      3.270      5.200
REMARK INTER + INTRA:          -5.059
REMARK INTER:                  -4.788
REMARK INTRA:                  -0.271
REMARK UNBOUND:                -0.313
REMARK SMILES CCCCCCCC(=O)[O-]
REMARK SMILES IDX 5 1 6 2 7 3 8 4 9 5 10 6 4 7 3 8 2 9 1 10
REMARK H PARENT
REMARK Flexibility Score: inf
ROOT
ATOM      1  C   UNL     1      28.842  28.221 -16.793  1.00  0.00     0.000 C 
ENDROOT
BRANCH   1   2
ATOM      2  C   UNL     1      28.528  29.503 -17.585  1.00  0.00     0.006 C 
BRANCH   2   3
ATOM      3  C   UNL     1      27.034  29.661 -17.893  1.00  0.00     0.053 C 
BRANCH   3   4
ATOM      4  C   UNL     1      26.829  30.661 -18.988  1.00  0.00     0.041 C 
ATOM      5  O   UNL     1      27.567  30.644 -20.008  1.00  0.00    -0.550 OA
ATOM      6  O   UNL     1      25.856  31.644 -18.858  1.00  0.00    -0.550 OA
ENDBRANCH   3   4
ENDBRANCH   2   3
ENDBRANCH   1   2
BRANCH   1   7
ATOM      7  C   UNL     1      27.644  27.276 -16.576  1.00  0.00     0.000 C 
BRANCH   7   8
ATOM      8  C   UNL     1      27.754  25.911 -17.277  1.00  0.00    -0.000 C 
BRANCH   8   9
ATOM      9  C   UNL     1      29.191  25.372 -17.311  1.00  0.00    -0.003 C 
ATOM     10  C   UNL     1      29.323  24.221 -18.304  1.00  0.00     0.004 C 
ENDBRANCH   8   9
ENDBRANCH   7   8
ENDBRANCH   1   7
TORSDOF 6
ENDMDL
MODEL 8
REMARK VINA RESULT:    -3.483      3.224      5.037
REMARK INTER + INTRA:          -5.018
REMARK INTER:                  -4.581
REMARK INTRA:                  -0.437
REMARK UNBOUND:                -0.313
REMARK SMILES CCCCCCCC(=O)[O-]
REMARK SMILES IDX 5 1 6 2 7 3 8 4 9 5 10 6 4 7 3 8 2 9 1 10
REMARK H PARENT
REMARK Flexibility Score: inf
ROOT
ATOM      1  C   UNL     1      26.640  25.225 -17.302  1.00  0.00     0.000 C 
ENDROOT
BRANCH   1   2
ATOM      2  C   UNL     1      27.495  26.502 -17.221  1.00  0.00     0.006 C 
BRANCH   2   3
ATOM      3  C   UNL     1      28.967  26.213 -16.899  1.00  0.00     0.053 C 
BRANCH   3   4
ATOM      4  C   UNL     1      29.658  27.463 -16.451  1.00  0.00     0.041 C 
ATOM      5  O   UNL     1      29.308  28.581 -16.912  1.00  0.00    -0.550 OA
ATOM      6  O   UNL     1      30.723  27.387 -15.562  1.00  0.00    -0.550 OA
ENDBRANCH   3   4
ENDBRANCH   2   3
ENDBRANCH   1   2
BRANCH   1   7
ATOM      7  C   UNL     1      25.929  24.998 -18.651  1.00  0.00     0.000 C 
BRANCH   7   8
ATOM      8  C   UNL     1      26.808  24.390 -19.759  1.00  0.00    -0.000 C 
BRANCH   8   9
ATOM      9  C   UNL     1      27.803  23.350 -19.225  1.00  0.00    -0.003 C 
ATOM     10  C   UNL     1      29.170  23.508 -19.883  1.00  0.00     0.004 C 
ENDBRANCH   8   9
ENDBRANCH   7   8
ENDBRANCH   1   7
TORSDOF 6
ENDMDL
MODEL 9
REMARK VINA RESULT:    -3.418      3.285      4.846
REMARK INTER + INTRA:          -4.930
REMARK INTER:                  -4.653
REMARK INTRA:                  -0.277
REMARK UNBOUND:                -0.313
REMARK SMILES CCCCCCCC(=O)[O-]
REMARK SMILES IDX 5 1 6 2 7 3 8 4 9 5 10 6 4 7 3 8 2 9 1 10
REMARK H PARENT
REMARK Flexibility Score: inf
ROOT
ATOM      1  C   UNL     1      27.186  26.023 -17.285  1.00  0.00     0.000 C 
ENDROOT
BRANCH   1   2
ATOM      2  C   UNL     1      27.981  25.710 -16.005  1.00  0.00     0.006 C 
BRANCH   2   3
ATOM      3  C   UNL     1      27.185  25.994 -14.725  1.00  0.00     0.053 C 
BRANCH   3   4
ATOM      4  C   UNL     1      26.316  24.825 -14.380  1.00  0.00     0.041 C 
ATOM      5  O   UNL     1      26.729  23.651 -14.570  1.00  0.00    -0.550 OA
ATOM      6  O   UNL     1      25.031  25.033 -13.895  1.00  0.00    -0.550 OA
ENDBRANCH   3   4
ENDBRANCH   2   3
ENDBRANCH   1   2
BRANCH   1   7
ATOM      7  C   UNL     1      26.594  24.794 -18.004  1.00  0.00     0.000 C 
BRANCH   7   8
ATOM      8  C   UNL     1      26.037  25.068 -19.412  1.00  0.00    -0.000 C 
BRANCH   8   9
ATOM      9  C   UNL     1      26.742  24.247 -20.501  1.00  0.00    -0.003 C 
ATOM     10  C   UNL     1      27.930  23.480 -19.929  1.00  0.00     0.004 C 
ENDBRANCH   8   9
ENDBRANCH   7   8
ENDBRANCH   1   7
TORSDOF 6
ENDMDL
