MODEL 1
REMARK VINA RESULT:    -4.936      0.000      0.000
REMARK INTER + INTRA:         -10.053
REMARK INTER:                  -8.687
REMARK INTRA:                  -1.367
REMARK UNBOUND:                -1.367
REMARK SMILES CCCCCCCCCCCCCCC(=O)[O-]
REMARK SMILES IDX 9 1 10 2 11 3 12 4 13 5 14 6 15 7 16 8 17 9 8 10 7 11 6 12
REMARK SMILES IDX 5 13 4 14 3 15 2 16 1 17
REMARK H PARENT
REMARK Flexibility Score: inf
ROOT
ATOM      1  C   UNL     1      39.802  61.957   8.224  1.00  0.00     0.000 C 
ENDROOT
BRANCH   1   2
ATOM      2  C   UNL     1      40.852  62.961   8.735  1.00  0.00     0.000 C 
BRANCH   2   3
ATOM      3  C   UNL     1      40.675  64.366   8.135  1.00  0.00     0.000 C 
BRANCH   3   4
ATOM      4  C   UNL     1      39.198  64.780   8.031  1.00  0.00     0.000 C 
BRANCH   4   5
ATOM      5  C   UNL     1      38.823  65.299   6.632  1.00  0.00     0.006 C 
BRANCH   5   6
ATOM      6  C   UNL     1      37.494  66.065   6.636  1.00  0.00     0.053 C 
BRANCH   6   7
ATOM      7  C   UNL     1      37.482  67.164   5.618  1.00  0.00     0.041 C 
ATOM      8  O   UNL     1      36.779  68.191   5.804  1.00  0.00    -0.550 OA
ATOM      9  O   UNL     1      38.219  67.038   4.447  1.00  0.00    -0.550 OA
ENDBRANCH   6   7
ENDBRANCH   5   6
ENDBRANCH   4   5
ENDBRANCH   3   4
ENDBRANCH   2   3
ENDBRANCH   1   2
BRANCH   1  10
ATOM     10  C   UNL     1      40.331  60.534   7.957  1.00  0.00     0.000 C 
BRANCH  10  11
ATOM     11  C   UNL     1      41.863  60.418   7.824  1.00  0.00    -0.000 C 
BRANCH  11  12
ATOM     12  C   UNL     1      42.372  60.151   6.396  1.00  0.00    -0.000 C 
BRANCH  12  13
ATOM     13  C   UNL     1      41.944  61.236   5.398  1.00  0.00    -0.000 C 
BRANCH  13  14
ATOM     14  C   UNL     1      42.981  62.368   5.337  1.00  0.00    -0.000 C 
BRANCH  14  15
ATOM     15  C   UNL     1      42.322  63.764   5.312  1.00  0.00    -0.000 C 
BRANCH  15  16
ATOM     16  C   UNL     1      43.323  64.915   5.119  1.00  0.00    -0.003 C 
ATOM     17  C   UNL     1      42.951  66.170   5.905  1.00  0.00     0.004 C 
ENDBRANCH  15  16
ENDBRANCH  14  15
ENDBRANCH  13  14
ENDBRANCH  12  13
ENDBRANCH  11  12
ENDBRANCH  10  11
ENDBRANCH   1  10
TORSDOF 13
ENDMDL
MODEL 2
REMARK VINA RESULT:    -4.812      1.906      4.225
REMARK INTER + INTRA:          -9.835
REMARK INTER:                  -7.814
REMARK INTRA:                  -2.022
REMARK UNBOUND:                -1.367
REMARK SMILES CCCCCCCCCCCCCCC(=O)[O-]
REMARK SMILES IDX 9 1 10 2 11 3 12 4 13 5 14 6 15 7 16 8 17 9 8 10 7 11 6 12
REMARK SMILES IDX 5 13 4 14 3 15 2 16 1 17
REMARK H PARENT
REMARK Flexibility Score: inf
ROOT
ATOM      1  C   UNL     1      41.992  61.304   6.802  1.00  0.00     0.000 C 
ENDROOT
BRANCH   1   2
ATOM      2  C   UNL     1      41.458  61.412   8.241  1.00  0.00     0.000 C 
BRANCH   2   3
ATOM      3  C   UNL     1      40.337  62.456   8.385  1.00  0.00     0.000 C 
BRANCH   3   4
ATOM      4  C   UNL     1      40.872  63.897   8.391  1.00  0.00     0.000 C 
BRANCH   4   5
ATOM      5  C   UNL     1      40.271  64.760   7.268  1.00  0.00     0.006 C 
BRANCH   5   6
ATOM      6  C   UNL     1      38.746  64.879   7.384  1.00  0.00     0.053 C 
BRANCH   6   7
ATOM      7  C   UNL     1      38.193  65.893   6.430  1.00  0.00     0.041 C 
ATOM      8  O   UNL     1      37.095  66.458   6.673  1.00  0.00    -0.550 OA
ATOM      9  O   UNL     1      38.872  66.188   5.255  1.00  0.00    -0.550 OA
ENDBRANCH   6   7
ENDBRANCH   5   6
ENDBRANCH   4   5
ENDBRANCH   3   4
ENDBRANCH   2   3
ENDBRANCH   1   2
BRANCH   1  10
ATOM     10  C   UNL     1      40.916  61.349   5.698  1.00  0.00     0.000 C 
BRANCH  10  11
ATOM     11  C   UNL     1      40.732  60.038   4.908  1.00  0.00    -0.000 C 
BRANCH  11  12
ATOM     12  C   UNL     1      39.375  59.341   5.114  1.00  0.00    -0.000 C 
BRANCH  12  13
ATOM     13  C   UNL     1      38.453  60.103   6.077  1.00  0.00    -0.000 C 
BRANCH  13  14
ATOM     14  C   UNL     1      38.365  59.390   7.435  1.00  0.00    -0.000 C 
BRANCH  14  15
ATOM     15  C   UNL     1      39.115  58.040   7.436  1.00  0.00    -0.000 C 
BRANCH  15  16
ATOM     16  C   UNL     1      40.252  57.968   8.468  1.00  0.00    -0.003 C 
ATOM     17  C   UNL     1      41.604  57.624   7.847  1.00  0.00     0.004 C 
ENDBRANCH  15  16
ENDBRANCH  14  15
ENDBRANCH  13  14
ENDBRANCH  12  13
ENDBRANCH  11  12
ENDBRANCH  10  11
ENDBRANCH   1  10
TORSDOF 13
ENDMDL
MODEL 3
REMARK VINA RESULT:    -4.770      2.120      4.264
REMARK INTER + INTRA:          -9.762
REMARK INTER:                  -7.770
REMARK INTRA:                  -1.992
REMARK UNBOUND:                -1.367
REMARK SMILES CCCCCCCCCCCCCCC(=O)[O-]
REMARK SMILES IDX 9 1 10 2 11 3 12 4 13 5 14 6 15 7 16 8 17 9 8 10 7 11 6 12
REMARK SMILES IDX 5 13 4 14 3 15 2 16 1 17
REMARK H PARENT
REMARK Flexibility Score: inf
ROOT
ATOM      1  C   UNL     1      41.766  61.525   6.934  1.00  0.00     0.000 C 
ENDROOT
BRANCH   1   2
ATOM      2  C   UNL     1      41.183  61.679   8.350  1.00  0.00     0.000 C 
BRANCH   2   3
ATOM      3  C   UNL     1      39.725  62.170   8.344  1.00  0.00     0.000 C 
BRANCH   3   4
ATOM      4  C   UNL     1      39.564  63.543   9.016  1.00  0.00     0.000 C 
BRANCH   4   5
ATOM      5  C   UNL     1      39.244  64.663   8.011  1.00  0.00     0.006 C 
BRANCH   5   6
ATOM      6  C   UNL     1      40.475  65.076   7.194  1.00  0.00     0.053 C 
BRANCH   6   7
ATOM      7  C   UNL     1      40.189  65.084   5.723  1.00  0.00     0.041 C 
ATOM      8  O   UNL     1      40.776  64.273   4.960  1.00  0.00    -0.550 OA
ATOM      9  O   UNL     1      39.303  66.011   5.190  1.00  0.00    -0.550 OA
ENDBRANCH   6   7
ENDBRANCH   5   6
ENDBRANCH   4   5
ENDBRANCH   3   4
ENDBRANCH   2   3
ENDBRANCH   1   2
BRANCH   1  10
ATOM     10  C   UNL     1      42.555  60.223   6.687  1.00  0.00     0.000 C 
BRANCH  10  11
ATOM     11  C   UNL     1      42.673  59.288   7.907  1.00  0.00    -0.000 C 
BRANCH  11  12
ATOM     12  C   UNL     1      42.644  57.784   7.577  1.00  0.00    -0.000 C 
BRANCH  12  13
ATOM     13  C   UNL     1      41.218  57.233   7.431  1.00  0.00    -0.000 C 
BRANCH  13  14
ATOM     14  C   UNL     1      40.278  57.855   8.475  1.00  0.00    -0.000 C 
BRANCH  14  15
ATOM     15  C   UNL     1      39.074  58.571   7.826  1.00  0.00    -0.000 C 
BRANCH  15  16
ATOM     16  C   UNL     1      39.166  58.665   6.295  1.00  0.00    -0.003 C 
ATOM     17  C   UNL     1      38.530  59.935   5.733  1.00  0.00     0.004 C 
ENDBRANCH  15  16
ENDBRANCH  14  15
ENDBRANCH  13  14
ENDBRANCH  12  13
ENDBRANCH  11  12
ENDBRANCH  10  11
ENDBRANCH   1  10
TORSDOF 13
ENDMDL
MODEL 4
REMARK VINA RESULT:    -4.712      2.226      3.631
REMARK INTER + INTRA:          -9.659
REMARK INTER:                  -8.140
REMARK INTRA:                  -1.520
REMARK UNBOUND:                -1.367
REMARK SMILES CCCCCCCCCCCCCCC(=O)[O-]
REMARK SMILES IDX 9 1 10 2 11 3 12 4 13 5 14 6 15 7 16 8 17 9 8 10 7 11 6 12
REMARK SMILES IDX 5 13 4 14 3 15 2 16 1 17
REMARK H PARENT
REMARK Flexibility Score: inf
ROOT
ATOM      1  C   UNL     1      41.626  60.470   7.949  1.00  0.00     0.000 C 
ENDROOT
BRANCH   1   2
ATOM      2  C   UNL     1      41.398  61.964   7.658  1.00  0.00     0.000 C 
BRANCH   2   3
ATOM      3  C   UNL     1      39.928  62.386   7.827  1.00  0.00     0.000 C 
BRANCH   3   4
ATOM      4  C   UNL     1      39.748  63.481   8.892  1.00  0.00     0.000 C 
BRANCH   4   5
ATOM      5  C   UNL     1      39.054  64.738   8.340  1.00  0.00     0.006 C 
BRANCH   5   6
ATOM      6  C   UNL     1      39.101  64.800   6.808  1.00  0.00     0.053 C 
BRANCH   6   7
ATOM      7  C   UNL     1      38.243  65.903   6.269  1.00  0.00     0.041 C 
ATOM      8  O   UNL     1      37.258  66.321   6.931  1.00  0.00    -0.550 OA
ATOM      9  O   UNL     1      38.510  66.446   5.018  1.00  0.00    -0.550 OA
ENDBRANCH   6   7
ENDBRANCH   5   6
ENDBRANCH   4   5
ENDBRANCH   3   4
ENDBRANCH   2   3
ENDBRANCH   1   2
BRANCH   1  10
ATOM     10  C   UNL     1      40.399  59.714   8.498  1.00  0.00     0.000 C 
BRANCH  10  11
ATOM     11  C   UNL     1      40.226  58.275   7.970  1.00  0.00    -0.000 C 
BRANCH  11  12
ATOM     12  C   UNL     1      39.589  58.168   6.573  1.00  0.00    -0.000 C 
BRANCH  12  13
ATOM     13  C   UNL     1      38.276  58.955   6.455  1.00  0.00    -0.000 C 
BRANCH  13  14
ATOM     14  C   UNL     1      38.290  59.866   5.218  1.00  0.00    -0.000 C 
BRANCH  14  15
ATOM     15  C   UNL     1      39.724  60.199   4.753  1.00  0.00    -0.000 C 
BRANCH  15  16
ATOM     16  C   UNL     1      39.869  60.302   3.226  1.00  0.00    -0.003 C 
ATOM     17  C   UNL     1      38.557  60.062   2.482  1.00  0.00     0.004 C 
ENDBRANCH  15  16
ENDBRANCH  14  15
ENDBRANCH  13  14
ENDBRANCH  12  13
ENDBRANCH  11  12
ENDBRANCH  10  11
ENDBRANCH   1  10
TORSDOF 13
ENDMDL
MODEL 5
REMARK VINA RESULT:    -4.711     15.247     16.744
REMARK INTER + INTRA:          -9.657
REMARK INTER:                  -8.564
REMARK INTRA:                  -1.093
REMARK UNBOUND:                -1.367
REMARK SMILES CCCCCCCCCCCCCCC(=O)[O-]
REMARK SMILES IDX 9 1 10 2 11 3 12 4 13 5 14 6 15 7 16 8 17 9 8 10 7 11 6 12
REMARK SMILES IDX 5 13 4 14 3 15 2 16 1 17
REMARK H PARENT
REMARK Flexibility Score: inf
ROOT
ATOM      1  C   UNL     1      28.815  57.481  -1.144  1.00  0.00     0.000 C 
ENDROOT
BRANCH   1   2
ATOM      2  C   UNL     1      29.287  58.638  -2.044  1.00  0.00     0.000 C 
BRANCH   2   3
ATOM      3  C   UNL     1      30.702  58.418  -2.606  1.00  0.00     0.000 C 
BRANCH   3   4
ATOM      4  C   UNL     1      30.829  58.863  -4.072  1.00  0.00     0.000 C 
BRANCH   4   5
ATOM      5  C   UNL     1      30.941  57.677  -5.046  1.00  0.00     0.006 C 
BRANCH   5   6
ATOM      6  C   UNL     1      29.655  56.843  -5.091  1.00  0.00     0.053 C 
BRANCH   6   7
ATOM      7  C   UNL     1      29.037  56.847  -6.457  1.00  0.00     0.041 C 
ATOM      8  O   UNL     1      28.363  55.860  -6.850  1.00  0.00    -0.550 OA
ATOM      9  O   UNL     1      29.237  57.926  -7.308  1.00  0.00    -0.550 OA
ENDBRANCH   6   7
ENDBRANCH   5   6
ENDBRANCH   4   5
ENDBRANCH   3   4
ENDBRANCH   2   3
ENDBRANCH   1   2
BRANCH   1  10
ATOM     10  C   UNL     1      27.814  56.508  -1.799  1.00  0.00     0.000 C 
BRANCH  10  11
ATOM     11  C   UNL     1      26.653  56.054  -0.892  1.00  0.00    -0.000 C 
BRANCH  11  12
ATOM     12  C   UNL     1      26.176  57.105   0.127  1.00  0.00    -0.000 C 
BRANCH  12  13
ATOM     13  C   UNL     1      26.536  56.738   1.574  1.00  0.00    -0.000 C 
BRANCH  13  14
ATOM     14  C   UNL     1      26.497  57.978   2.481  1.00  0.00    -0.000 C 
BRANCH  14  15
ATOM     15  C   UNL     1      27.441  59.094   1.987  1.00  0.00    -0.000 C 
BRANCH  15  16
ATOM     16  C   UNL     1      28.900  58.913   2.438  1.00  0.00    -0.003 C 
ATOM     17  C   UNL     1      29.222  59.652   3.735  1.00  0.00     0.004 C 
ENDBRANCH  15  16
ENDBRANCH  14  15
ENDBRANCH  13  14
ENDBRANCH  12  13
ENDBRANCH  11  12
ENDBRANCH  10  11
ENDBRANCH   1  10
TORSDOF 13
ENDMDL
MODEL 6
REMARK VINA RESULT:    -4.703      1.499      2.216
REMARK INTER + INTRA:          -9.644
REMARK INTER:                  -7.963
REMARK INTRA:                  -1.681
REMARK UNBOUND:                -1.367
REMARK SMILES CCCCCCCCCCCCCCC(=O)[O-]
REMARK SMILES IDX 9 1 10 2 11 3 12 4 13 5 14 6 15 7 16 8 17 9 8 10 7 11 6 12
REMARK SMILES IDX 5 13 4 14 3 15 2 16 1 17
REMARK H PARENT
REMARK Flexibility Score: inf
ROOT
ATOM      1  C   UNL     1      41.136  61.136   8.276  1.00  0.00     0.000 C 
ENDROOT
BRANCH   1   2
ATOM      2  C   UNL     1      40.197  62.356   8.249  1.00  0.00     0.000 C 
BRANCH   2   3
ATOM      3  C   UNL     1      40.882  63.645   8.733  1.00  0.00     0.000 C 
BRANCH   3   4
ATOM      4  C   UNL     1      40.678  64.820   7.763  1.00  0.00     0.000 C 
BRANCH   4   5
ATOM      5  C   UNL     1      39.273  64.837   7.136  1.00  0.00     0.006 C 
BRANCH   5   6
ATOM      6  C   UNL     1      39.246  65.582   5.795  1.00  0.00     0.053 C 
BRANCH   6   7
ATOM      7  C   UNL     1      38.006  66.409   5.643  1.00  0.00     0.041 C 
ATOM      8  O   UNL     1      37.821  67.086   4.598  1.00  0.00    -0.550 OA
ATOM      9  O   UNL     1      37.073  66.461   6.670  1.00  0.00    -0.550 OA
ENDBRANCH   6   7
ENDBRANCH   5   6
ENDBRANCH   4   5
ENDBRANCH   3   4
ENDBRANCH   2   3
ENDBRANCH   1   2
BRANCH   1  10
ATOM     10  C   UNL     1      40.431  59.768   8.375  1.00  0.00     0.000 C 
BRANCH  10  11
ATOM     11  C   UNL     1      40.906  58.711   7.358  1.00  0.00    -0.000 C 
BRANCH  11  12
ATOM     12  C   UNL     1      39.941  58.459   6.185  1.00  0.00    -0.000 C 
BRANCH  12  13
ATOM     13  C   UNL     1      40.487  58.973   4.845  1.00  0.00    -0.000 C 
BRANCH  13  14
ATOM     14  C   UNL     1      40.073  60.433   4.606  1.00  0.00    -0.000 C 
BRANCH  14  15
ATOM     15  C   UNL     1      41.259  61.312   4.155  1.00  0.00    -0.000 C 
BRANCH  15  16
ATOM     16  C   UNL     1      41.267  62.711   4.791  1.00  0.00    -0.003 C 
ATOM     17  C   UNL     1      42.675  63.252   5.030  1.00  0.00     0.004 C 
ENDBRANCH  15  16
ENDBRANCH  14  15
ENDBRANCH  13  14
ENDBRANCH  12  13
ENDBRANCH  11  12
ENDBRANCH  10  11
ENDBRANCH   1  10
TORSDOF 13
ENDMDL
MODEL 7
REMARK VINA RESULT:    -4.638      3.350      6.220
REMARK INTER + INTRA:          -9.529
REMARK INTER:                  -8.442
REMARK INTRA:                  -1.087
REMARK UNBOUND:                -1.367
REMARK SMILES CCCCCCCCCCCCCCC(=O)[O-]
REMARK SMILES IDX 9 1 10 2 11 3 12 4 13 5 14 6 15 7 16 8 17 9 8 10 7 11 6 12
REMARK SMILES IDX 5 13 4 14 3 15 2 16 1 17
REMARK H PARENT
REMARK Flexibility Score: inf
ROOT
ATOM      1  C   UNL     1      42.334  65.356   6.419  1.00  0.00     0.000 C 
ENDROOT
BRANCH   1   2
ATOM      2  C   UNL     1      43.267  66.337   5.685  1.00  0.00     0.000 C 
BRANCH   2   3
ATOM      3  C   UNL     1      44.249  65.629   4.736  1.00  0.00     0.000 C 
BRANCH   3   4
ATOM      4  C   UNL     1      45.168  66.615   3.997  1.00  0.00     0.000 C 
BRANCH   4   5
ATOM      5  C   UNL     1      44.514  67.992   3.784  1.00  0.00     0.006 C 
BRANCH   5   6
ATOM      6  C   UNL     1      45.339  68.885   2.849  1.00  0.00     0.053 C 
BRANCH   6   7
ATOM      7  C   UNL     1      44.465  69.720   1.963  1.00  0.00     0.041 C 
ATOM      8  O   UNL     1      44.564  70.975   1.978  1.00  0.00    -0.550 OA
ATOM      9  O   UNL     1      43.518  69.114   1.148  1.00  0.00    -0.550 OA
ENDBRANCH   6   7
ENDBRANCH   5   6
ENDBRANCH   4   5
ENDBRANCH   3   4
ENDBRANCH   2   3
ENDBRANCH   1   2
BRANCH   1  10
ATOM     10  C   UNL     1      41.037  64.998   5.666  1.00  0.00     0.000 C 
BRANCH  10  11
ATOM     11  C   UNL     1      39.798  64.785   6.558  1.00  0.00    -0.000 C 
BRANCH  11  12
ATOM     12  C   UNL     1      40.079  64.790   8.071  1.00  0.00    -0.000 C 
BRANCH  12  13
ATOM     13  C   UNL     1      39.747  63.450   8.744  1.00  0.00    -0.000 C 
BRANCH  13  14
ATOM     14  C   UNL     1      40.815  62.393   8.422  1.00  0.00    -0.000 C 
BRANCH  14  15
ATOM     15  C   UNL     1      40.206  60.991   8.212  1.00  0.00    -0.000 C 
BRANCH  15  16
ATOM     16  C   UNL     1      39.460  60.837   6.877  1.00  0.00    -0.003 C 
ATOM     17  C   UNL     1      40.312  61.213   5.667  1.00  0.00     0.004 C 
ENDBRANCH  15  16
ENDBRANCH  14  15
ENDBRANCH  13  14
ENDBRANCH  12  13
ENDBRANCH  11  12
ENDBRANCH  10  11
ENDBRANCH   1  10
TORSDOF 13
ENDMDL
MODEL 8
REMARK VINA RESULT:    -4.637      2.125      3.736
REMARK INTER + INTRA:          -9.527
REMARK INTER:                  -7.270
REMARK INTRA:                  -2.258
REMARK UNBOUND:                -1.367
REMARK SMILES CCCCCCCCCCCCCCC(=O)[O-]
REMARK SMILES IDX 9 1 10 2 11 3 12 4 13 5 14 6 15 7 16 8 17 9 8 10 7 11 6 12
REMARK SMILES IDX 5 13 4 14 3 15 2 16 1 17
REMARK H PARENT
REMARK Flexibility Score: inf
ROOT
ATOM      1  C   UNL     1      40.405  59.195   8.245  1.00  0.00     0.000 C 
ENDROOT
BRANCH   1   2
ATOM      2  C   UNL     1      40.094  60.688   8.454  1.00  0.00     0.000 C 
BRANCH   2   3
ATOM      3  C   UNL     1      41.325  61.587   8.246  1.00  0.00     0.000 C 
BRANCH   3   4
ATOM      4  C   UNL     1      40.967  62.936   7.602  1.00  0.00     0.000 C 
BRANCH   4   5
ATOM      5  C   UNL     1      39.448  63.179   7.535  1.00  0.00     0.006 C 
BRANCH   5   6
ATOM      6  C   UNL     1      39.073  64.610   7.938  1.00  0.00     0.053 C 
BRANCH   6   7
ATOM      7  C   UNL     1      38.671  65.435   6.753  1.00  0.00     0.041 C 
ATOM      8  O   UNL     1      39.437  65.531   5.759  1.00  0.00    -0.550 OA
ATOM      9  O   UNL     1      37.467  66.127   6.763  1.00  0.00    -0.550 OA
ENDBRANCH   6   7
ENDBRANCH   5   6
ENDBRANCH   4   5
ENDBRANCH   3   4
ENDBRANCH   2   3
ENDBRANCH   1   2
BRANCH   1  10
ATOM     10  C   UNL     1      41.892  58.861   8.009  1.00  0.00     0.000 C 
BRANCH  10  11
ATOM     11  C   UNL     1      42.178  57.981   6.776  1.00  0.00    -0.000 C 
BRANCH  11  12
ATOM     12  C   UNL     1      43.063  58.638   5.701  1.00  0.00    -0.000 C 
BRANCH  12  13
ATOM     13  C   UNL     1      42.471  59.947   5.160  1.00  0.00    -0.000 C 
BRANCH  13  14
ATOM     14  C   UNL     1      41.191  59.680   4.353  1.00  0.00    -0.000 C 
BRANCH  14  15
ATOM     15  C   UNL     1      40.031  60.608   4.773  1.00  0.00    -0.000 C 
BRANCH  15  16
ATOM     16  C   UNL     1      38.708  59.867   5.021  1.00  0.00    -0.003 C 
ATOM     17  C   UNL     1      38.861  58.348   5.014  1.00  0.00     0.004 C 
ENDBRANCH  15  16
ENDBRANCH  14  15
ENDBRANCH  13  14
ENDBRANCH  12  13
ENDBRANCH  11  12
ENDBRANCH  10  11
ENDBRANCH   1  10
TORSDOF 13
ENDMDL
MODEL 9
REMARK VINA RESULT:    -4.618      1.722      3.656
REMARK INTER + INTRA:          -9.494
REMARK INTER:                  -7.794
REMARK INTRA:                  -1.700
REMARK UNBOUND:                -1.367
REMARK SMILES CCCCCCCCCCCCCCC(=O)[O-]
REMARK SMILES IDX 9 1 10 2 11 3 12 4 13 5 14 6 15 7 16 8 17 9 8 10 7 11 6 12
REMARK SMILES IDX 5 13 4 14 3 15 2 16 1 17
REMARK H PARENT
REMARK Flexibility Score: inf
ROOT
ATOM      1  C   UNL     1      40.489  60.916   8.467  1.00  0.00     0.000 C 
ENDROOT
BRANCH   1   2
ATOM      2  C   UNL     1      39.823  62.259   8.116  1.00  0.00     0.000 C 
BRANCH   2   3
ATOM      3  C   UNL     1      40.570  63.467   8.707  1.00  0.00     0.000 C 
BRANCH   3   4
ATOM      4  C   UNL     1      40.443  64.724   7.831  1.00  0.00     0.000 C 
BRANCH   4   5
ATOM      5  C   UNL     1      39.142  64.746   7.009  1.00  0.00     0.006 C 
BRANCH   5   6
ATOM      6  C   UNL     1      39.306  65.511   5.689  1.00  0.00     0.053 C 
BRANCH   6   7
ATOM      7  C   UNL     1      38.137  66.408   5.417  1.00  0.00     0.041 C 
ATOM      8  O   UNL     1      38.057  67.030   4.326  1.00  0.00    -0.550 OA
ATOM      9  O   UNL     1      37.155  66.585   6.383  1.00  0.00    -0.550 OA
ENDBRANCH   6   7
ENDBRANCH   5   6
ENDBRANCH   4   5
ENDBRANCH   3   4
ENDBRANCH   2   3
ENDBRANCH   1   2
BRANCH   1  10
ATOM     10  C   UNL     1      41.878  60.689   7.836  1.00  0.00     0.000 C 
BRANCH  10  11
ATOM     11  C   UNL     1      42.116  61.415   6.497  1.00  0.00    -0.000 C 
BRANCH  11  12
ATOM     12  C   UNL     1      41.811  60.579   5.242  1.00  0.00    -0.000 C 
BRANCH  12  13
ATOM     13  C   UNL     1      40.557  61.058   4.496  1.00  0.00    -0.000 C 
BRANCH  13  14
ATOM     14  C   UNL     1      39.525  59.927   4.370  1.00  0.00    -0.000 C 
BRANCH  14  15
ATOM     15  C   UNL     1      38.495  59.945   5.519  1.00  0.00    -0.000 C 
BRANCH  15  16
ATOM     16  C   UNL     1      38.299  58.578   6.194  1.00  0.00    -0.003 C 
ATOM     17  C   UNL     1      39.615  57.891   6.549  1.00  0.00     0.004 C 
ENDBRANCH  15  16
ENDBRANCH  14  15
ENDBRANCH  13  14
ENDBRANCH  12  13
ENDBRANCH  11  12
ENDBRANCH  10  11
ENDBRANCH   1  10
TORSDOF 13
ENDMDL
