MODEL 1
REMARK VINA RESULT:    -3.101      0.000      0.000
REMARK INTER + INTRA:          -6.681
REMARK INTER:                  -5.367
REMARK INTRA:                  -1.313
REMARK UNBOUND:                -1.313
REMARK SMILES CCCCCCCCCCCCCCO
REMARK SMILES IDX 8 1 7 2 6 3 5 4 4 5 3 6 2 7 1 8 9 9 10 10 11 11 12 12 13 13
REMARK SMILES IDX 14 14 15 15
REMARK H PARENT 15 16
REMARK Flexibility Score: inf
ROOT
ATOM      1  C   UNL     1       0.648   3.873  -7.496  1.00  0.00     0.000 C 
ENDROOT
BRANCH   1   2
ATOM      2  C   UNL     1      -0.759   4.018  -8.101  1.00  0.00    -0.000 C 
BRANCH   2   3
ATOM      3  C   UNL     1      -1.657   2.807  -7.803  1.00  0.00    -0.000 C 
BRANCH   3   4
ATOM      4  C   UNL     1      -2.853   3.167  -6.907  1.00  0.00    -0.000 C 
BRANCH   4   5
ATOM      5  C   UNL     1      -2.650   2.742  -5.442  1.00  0.00    -0.000 C 
BRANCH   5   6
ATOM      6  C   UNL     1      -2.346   3.920  -4.494  1.00  0.00    -0.000 C 
BRANCH   6   7
ATOM      7  C   UNL     1      -3.011   5.226  -4.955  1.00  0.00    -0.003 C 
ATOM      8  C   UNL     1      -4.256   5.533  -4.129  1.00  0.00     0.004 C 
ENDBRANCH   6   7
ENDBRANCH   5   6
ENDBRANCH   4   5
ENDBRANCH   3   4
ENDBRANCH   2   3
ENDBRANCH   1   2
BRANCH   1   9
ATOM      9  C   UNL     1       0.775   2.636  -6.593  1.00  0.00     0.000 C 
BRANCH   9  10
ATOM     10  C   UNL     1       1.264   2.987  -5.178  1.00  0.00     0.000 C 
BRANCH  10  11
ATOM     11  C   UNL     1       0.790   1.981  -4.116  1.00  0.00     0.000 C 
BRANCH  11  12
ATOM     12  C   UNL     1       1.925   1.108  -3.541  1.00  0.00     0.002 C 
BRANCH  12  13
ATOM     13  C   UNL     1       3.302   1.775  -3.687  1.00  0.00     0.028 C 
BRANCH  13  14
ATOM     14  C   UNL     1       4.301   1.206  -2.680  1.00  0.00     0.156 C 
BRANCH  14  15
ATOM     15  O   UNL     1       4.472   2.113  -1.629  1.00  0.00    -0.396 OA
ATOM     16  H   UNL     1       3.631   2.084  -1.101  1.00  0.00     0.210 HD
ENDBRANCH  14  15
ENDBRANCH  13  14
ENDBRANCH  12  13
ENDBRANCH  11  12
ENDBRANCH  10  11
ENDBRANCH   9  10
ENDBRANCH   1   9
TORSDOF 13
ENDMDL
MODEL 2
REMARK VINA RESULT:    -3.095      1.584      2.991
REMARK INTER + INTRA:          -6.670
REMARK INTER:                  -4.659
REMARK INTRA:                  -2.011
REMARK UNBOUND:                -1.313
REMARK SMILES CCCCCCCCCCCCCCO
REMARK SMILES IDX 8 1 7 2 6 3 5 4 4 5 3 6 2 7 1 8 9 9 10 10 11 11 12 12 13 13
REMARK SMILES IDX 14 14 15 15
REMARK H PARENT 15 16
REMARK Flexibility Score: inf
ROOT
ATOM      1  C   UNL     1       1.004   5.390  -6.931  1.00  0.00     0.000 C 
ENDROOT
BRANCH   1   2
ATOM      2  C   UNL     1       0.373   6.216  -5.796  1.00  0.00    -0.000 C 
BRANCH   2   3
ATOM      3  C   UNL     1      -1.161   6.131  -5.789  1.00  0.00    -0.000 C 
BRANCH   3   4
ATOM      4  C   UNL     1      -1.713   5.565  -4.470  1.00  0.00    -0.000 C 
BRANCH   4   5
ATOM      5  C   UNL     1      -2.873   4.577  -4.685  1.00  0.00    -0.000 C 
BRANCH   5   6
ATOM      6  C   UNL     1      -3.398   4.547  -6.136  1.00  0.00    -0.000 C 
BRANCH   6   7
ATOM      7  C   UNL     1      -3.400   3.128  -6.724  1.00  0.00    -0.003 C 
ATOM      8  C   UNL     1      -3.443   3.163  -8.249  1.00  0.00     0.004 C 
ENDBRANCH   6   7
ENDBRANCH   5   6
ENDBRANCH   4   5
ENDBRANCH   3   4
ENDBRANCH   2   3
ENDBRANCH   1   2
BRANCH   1   9
ATOM      9  C   UNL     1      -0.034   4.554  -7.698  1.00  0.00     0.000 C 
BRANCH   9  10
ATOM     10  C   UNL     1       0.271   3.048  -7.649  1.00  0.00     0.000 C 
BRANCH  10  11
ATOM     11  C   UNL     1       0.852   2.599  -6.298  1.00  0.00     0.000 C 
BRANCH  11  12
ATOM     12  C   UNL     1      -0.224   2.279  -5.239  1.00  0.00     0.002 C 
BRANCH  12  13
ATOM     13  C   UNL     1       0.378   2.081  -3.840  1.00  0.00     0.028 C 
BRANCH  13  14
ATOM     14  C   UNL     1       1.845   1.660  -3.924  1.00  0.00     0.156 C 
BRANCH  14  15
ATOM     15  O   UNL     1       2.105   0.677  -2.963  1.00  0.00    -0.396 OA
ATOM     16  H   UNL     1       2.960   0.250  -3.232  1.00  0.00     0.210 HD
ENDBRANCH  14  15
ENDBRANCH  13  14
ENDBRANCH  12  13
ENDBRANCH  11  12
ENDBRANCH  10  11
ENDBRANCH   9  10
ENDBRANCH   1   9
TORSDOF 13
ENDMDL
MODEL 3
REMARK VINA RESULT:    -3.044      3.048      7.482
REMARK INTER + INTRA:          -6.581
REMARK INTER:                  -5.819
REMARK INTRA:                  -0.762
REMARK UNBOUND:                -1.313
REMARK SMILES CCCCCCCCCCCCCCO
REMARK SMILES IDX 8 1 7 2 6 3 5 4 4 5 3 6 2 7 1 8 9 9 10 10 11 11 12 12 13 13
REMARK SMILES IDX 14 14 15 15
REMARK H PARENT 15 16
REMARK Flexibility Score: inf
ROOT
ATOM      1  C   UNL     1       1.409   2.699  -4.794  1.00  0.00     0.000 C 
ENDROOT
BRANCH   1   2
ATOM      2  C   UNL     1       1.150   1.557  -3.796  1.00  0.00    -0.000 C 
BRANCH   2   3
ATOM      3  C   UNL     1       2.443   0.850  -3.361  1.00  0.00    -0.000 C 
BRANCH   3   4
ATOM      4  C   UNL     1       3.674   1.767  -3.451  1.00  0.00    -0.000 C 
BRANCH   4   5
ATOM      5  C   UNL     1       4.955   1.098  -2.923  1.00  0.00    -0.000 C 
BRANCH   5   6
ATOM      6  C   UNL     1       5.548   0.049  -3.887  1.00  0.00    -0.000 C 
BRANCH   6   7
ATOM      7  C   UNL     1       5.703  -1.328  -3.224  1.00  0.00    -0.003 C 
ATOM      8  C   UNL     1       5.339  -1.272  -1.744  1.00  0.00     0.004 C 
ENDBRANCH   6   7
ENDBRANCH   5   6
ENDBRANCH   4   5
ENDBRANCH   3   4
ENDBRANCH   2   3
ENDBRANCH   1   2
BRANCH   1   9
ATOM      9  C   UNL     1       0.293   3.757  -4.781  1.00  0.00     0.000 C 
BRANCH   9  10
ATOM     10  C   UNL     1      -1.027   3.214  -4.207  1.00  0.00     0.000 C 
BRANCH  10  11
ATOM     11  C   UNL     1      -2.201   4.191  -4.385  1.00  0.00     0.000 C 
BRANCH  11  12
ATOM     12  C   UNL     1      -2.967   4.000  -5.712  1.00  0.00     0.002 C 
BRANCH  12  13
ATOM     13  C   UNL     1      -2.928   2.544  -6.200  1.00  0.00     0.028 C 
BRANCH  13  14
ATOM     14  C   UNL     1      -2.936   2.473  -7.727  1.00  0.00     0.156 C 
BRANCH  14  15
ATOM     15  O   UNL     1      -3.564   1.291  -8.136  1.00  0.00    -0.396 OA
ATOM     16  H   UNL     1      -4.174   1.547  -8.877  1.00  0.00     0.210 HD
ENDBRANCH  14  15
ENDBRANCH  13  14
ENDBRANCH  12  13
ENDBRANCH  11  12
ENDBRANCH  10  11
ENDBRANCH   9  10
ENDBRANCH   1   9
TORSDOF 13
ENDMDL
MODEL 4
REMARK VINA RESULT:    -3.013      3.191      5.261
REMARK INTER + INTRA:          -6.529
REMARK INTER:                  -4.365
REMARK INTRA:                  -2.164
REMARK UNBOUND:                -1.313
REMARK SMILES CCCCCCCCCCCCCCO
REMARK SMILES IDX 8 1 7 2 6 3 5 4 4 5 3 6 2 7 1 8 9 9 10 10 11 11 12 12 13 13
REMARK SMILES IDX 14 14 15 15
REMARK H PARENT 15 16
REMARK Flexibility Score: inf
ROOT
ATOM      1  C   UNL     1       0.925   2.506  -5.050  1.00  0.00     0.000 C 
ENDROOT
BRANCH   1   2
ATOM      2  C   UNL     1       1.483   2.979  -6.404  1.00  0.00    -0.000 C 
BRANCH   2   3
ATOM      3  C   UNL     1       0.476   2.798  -7.551  1.00  0.00    -0.000 C 
BRANCH   3   4
ATOM      4  C   UNL     1      -0.037   4.139  -8.101  1.00  0.00    -0.000 C 
BRANCH   4   5
ATOM      5  C   UNL     1       0.756   5.345  -7.567  1.00  0.00    -0.000 C 
BRANCH   5   6
ATOM      6  C   UNL     1      -0.131   6.431  -6.921  1.00  0.00    -0.000 C 
BRANCH   6   7
ATOM      7  C   UNL     1       0.516   7.040  -5.668  1.00  0.00    -0.003 C 
ATOM      8  C   UNL     1      -0.521   7.751  -4.803  1.00  0.00     0.004 C 
ENDBRANCH   6   7
ENDBRANCH   5   6
ENDBRANCH   4   5
ENDBRANCH   3   4
ENDBRANCH   2   3
ENDBRANCH   1   2
BRANCH   1   9
ATOM      9  C   UNL     1       0.154   3.612  -4.312  1.00  0.00     0.000 C 
BRANCH   9  10
ATOM     10  C   UNL     1      -1.347   3.302  -4.188  1.00  0.00     0.000 C 
BRANCH  10  11
ATOM     11  C   UNL     1      -2.238   4.465  -4.654  1.00  0.00     0.000 C 
BRANCH  11  12
ATOM     12  C   UNL     1      -3.069   4.139  -5.914  1.00  0.00     0.002 C 
BRANCH  12  13
ATOM     13  C   UNL     1      -3.032   2.644  -6.264  1.00  0.00     0.028 C 
BRANCH  13  14
ATOM     14  C   UNL     1      -3.284   2.419  -7.754  1.00  0.00     0.156 C 
BRANCH  14  15
ATOM     15  O   UNL     1      -3.542   1.063  -7.984  1.00  0.00    -0.396 OA
ATOM     16  H   UNL     1      -4.529   0.960  -7.939  1.00  0.00     0.210 HD
ENDBRANCH  14  15
ENDBRANCH  13  14
ENDBRANCH  12  13
ENDBRANCH  11  12
ENDBRANCH  10  11
ENDBRANCH   9  10
ENDBRANCH   1   9
TORSDOF 13
ENDMDL
MODEL 5
REMARK VINA RESULT:    -3.010      1.809      2.679
REMARK INTER + INTRA:          -6.523
REMARK INTER:                  -5.301
REMARK INTRA:                  -1.222
REMARK UNBOUND:                -1.313
REMARK SMILES CCCCCCCCCCCCCCO
REMARK SMILES IDX 8 1 7 2 6 3 5 4 4 5 3 6 2 7 1 8 9 9 10 10 11 11 12 12 13 13
REMARK SMILES IDX 14 14 15 15
REMARK H PARENT 15 16
REMARK Flexibility Score: inf
ROOT
ATOM      1  C   UNL     1       1.901   3.033  -4.958  1.00  0.00     0.000 C 
ENDROOT
BRANCH   1   2
ATOM      2  C   UNL     1       1.300   3.509  -6.292  1.00  0.00    -0.000 C 
BRANCH   2   3
ATOM      3  C   UNL     1       0.220   2.554  -6.825  1.00  0.00    -0.000 C 
BRANCH   3   4
ATOM      4  C   UNL     1      -1.046   3.295  -7.285  1.00  0.00    -0.000 C 
BRANCH   4   5
ATOM      5  C   UNL     1      -2.291   2.915  -6.464  1.00  0.00    -0.000 C 
BRANCH   5   6
ATOM      6  C   UNL     1      -2.839   4.072  -5.602  1.00  0.00    -0.000 C 
BRANCH   6   7
ATOM      7  C   UNL     1      -2.037   4.263  -4.306  1.00  0.00    -0.003 C 
ATOM      8  C   UNL     1      -1.193   5.533  -4.362  1.00  0.00     0.004 C 
ENDBRANCH   6   7
ENDBRANCH   5   6
ENDBRANCH   4   5
ENDBRANCH   3   4
ENDBRANCH   2   3
ENDBRANCH   1   2
BRANCH   1   9
ATOM      9  C   UNL     1       0.937   2.137  -4.164  1.00  0.00     0.000 C 
BRANCH   9  10
ATOM     10  C   UNL     1       1.661   0.994  -3.432  1.00  0.00     0.000 C 
BRANCH  10  11
ATOM     11  C   UNL     1       3.191   1.146  -3.455  1.00  0.00     0.000 C 
BRANCH  11  12
ATOM     12  C   UNL     1       3.946  -0.172  -3.180  1.00  0.00     0.002 C 
BRANCH  12  13
ATOM     13  C   UNL     1       5.454   0.050  -2.993  1.00  0.00     0.028 C 
BRANCH  13  14
ATOM     14  C   UNL     1       6.262  -1.090  -3.613  1.00  0.00     0.156 C 
BRANCH  14  15
ATOM     15  O   UNL     1       5.486  -1.739  -4.580  1.00  0.00    -0.396 OA
ATOM     16  H   UNL     1       4.548  -1.694  -4.256  1.00  0.00     0.210 HD
ENDBRANCH  14  15
ENDBRANCH  13  14
ENDBRANCH  12  13
ENDBRANCH  11  12
ENDBRANCH  10  11
ENDBRANCH   9  10
ENDBRANCH   1   9
TORSDOF 13
ENDMDL
MODEL 6
REMARK VINA RESULT:    -2.994      1.555      3.222
REMARK INTER + INTRA:          -6.495
REMARK INTER:                  -4.632
REMARK INTRA:                  -1.863
REMARK UNBOUND:                -1.313
REMARK SMILES CCCCCCCCCCCCCCO
REMARK SMILES IDX 8 1 7 2 6 3 5 4 4 5 3 6 2 7 1 8 9 9 10 10 11 11 12 12 13 13
REMARK SMILES IDX 14 14 15 15
REMARK H PARENT 15 16
REMARK Flexibility Score: inf
ROOT
ATOM      1  C   UNL     1      -0.265   5.919  -5.564  1.00  0.00     0.000 C 
ENDROOT
BRANCH   1   2
ATOM      2  C   UNL     1      -1.749   5.662  -5.881  1.00  0.00    -0.000 C 
BRANCH   2   3
ATOM      3  C   UNL     1      -2.034   5.634  -7.391  1.00  0.00    -0.000 C 
BRANCH   3   4
ATOM      4  C   UNL     1      -2.910   4.440  -7.803  1.00  0.00    -0.000 C 
BRANCH   4   5
ATOM      5  C   UNL     1      -2.227   3.084  -7.550  1.00  0.00    -0.000 C 
BRANCH   5   6
ATOM      6  C   UNL     1      -1.217   2.687  -8.647  1.00  0.00    -0.000 C 
BRANCH   6   7
ATOM      7  C   UNL     1       0.181   2.403  -8.076  1.00  0.00    -0.003 C 
ATOM      8  C   UNL     1       1.084   3.627  -8.193  1.00  0.00     0.004 C 
ENDBRANCH   6   7
ENDBRANCH   5   6
ENDBRANCH   4   5
ENDBRANCH   3   4
ENDBRANCH   2   3
ENDBRANCH   1   2
BRANCH   1   9
ATOM      9  C   UNL     1       0.339   4.836  -4.655  1.00  0.00     0.000 C 
BRANCH   9  10
ATOM     10  C   UNL     1      -0.706   3.810  -4.186  1.00  0.00     0.000 C 
BRANCH  10  11
ATOM     11  C   UNL     1      -0.281   2.358  -4.461  1.00  0.00     0.000 C 
BRANCH  11  12
ATOM     12  C   UNL     1       1.249   2.158  -4.491  1.00  0.00     0.002 C 
BRANCH  12  13
ATOM     13  C   UNL     1       1.715   1.078  -3.502  1.00  0.00     0.028 C 
BRANCH  13  14
ATOM     14  C   UNL     1       3.190   1.254  -3.146  1.00  0.00     0.156 C 
BRANCH  14  15
ATOM     15  O   UNL     1       3.477   0.536  -1.980  1.00  0.00    -0.396 OA
ATOM     16  H   UNL     1       2.984   0.991  -1.248  1.00  0.00     0.210 HD
ENDBRANCH  14  15
ENDBRANCH  13  14
ENDBRANCH  12  13
ENDBRANCH  11  12
ENDBRANCH  10  11
ENDBRANCH   9  10
ENDBRANCH   1   9
TORSDOF 13
ENDMDL
MODEL 7
REMARK VINA RESULT:    -2.945      1.436      3.226
REMARK INTER + INTRA:          -6.411
REMARK INTER:                  -5.142
REMARK INTRA:                  -1.268
REMARK UNBOUND:                -1.313
REMARK SMILES CCCCCCCCCCCCCCO
REMARK SMILES IDX 8 1 7 2 6 3 5 4 4 5 3 6 2 7 1 8 9 9 10 10 11 11 12 12 13 13
REMARK SMILES IDX 14 14 15 15
REMARK H PARENT 15 16
REMARK Flexibility Score: inf
ROOT
ATOM      1  C   UNL     1       0.662   2.011  -4.267  1.00  0.00     0.000 C 
ENDROOT
BRANCH   1   2
ATOM      2  C   UNL     1      -0.853   2.212  -4.450  1.00  0.00    -0.000 C 
BRANCH   2   3
ATOM      3  C   UNL     1      -1.270   3.686  -4.330  1.00  0.00    -0.000 C 
BRANCH   3   4
ATOM      4  C   UNL     1      -2.045   4.181  -5.563  1.00  0.00    -0.000 C 
BRANCH   4   5
ATOM      5  C   UNL     1      -2.947   3.095  -6.175  1.00  0.00    -0.000 C 
BRANCH   5   6
ATOM      6  C   UNL     1      -2.565   2.716  -7.621  1.00  0.00    -0.000 C 
BRANCH   6   7
ATOM      7  C   UNL     1      -1.193   3.278  -8.026  1.00  0.00    -0.003 C 
ATOM      8  C   UNL     1      -0.286   2.179  -8.572  1.00  0.00     0.004 C 
ENDBRANCH   6   7
ENDBRANCH   5   6
ENDBRANCH   4   5
ENDBRANCH   3   4
ENDBRANCH   2   3
ENDBRANCH   1   2
BRANCH   1   9
ATOM      9  C   UNL     1       1.484   2.697  -5.369  1.00  0.00     0.000 C 
BRANCH   9  10
ATOM     10  C   UNL     1       2.602   3.588  -4.802  1.00  0.00     0.000 C 
BRANCH  10  11
ATOM     11  C   UNL     1       4.007   3.013  -5.051  1.00  0.00     0.000 C 
BRANCH  11  12
ATOM     12  C   UNL     1       4.717   2.541  -3.764  1.00  0.00     0.002 C 
BRANCH  12  13
ATOM     13  C   UNL     1       4.874   1.013  -3.715  1.00  0.00     0.028 C 
BRANCH  13  14
ATOM     14  C   UNL     1       3.660   0.354  -3.061  1.00  0.00     0.156 C 
BRANCH  14  15
ATOM     15  O   UNL     1       3.703   0.563  -1.678  1.00  0.00    -0.396 OA
ATOM     16  H   UNL     1       2.774   0.436  -1.352  1.00  0.00     0.210 HD
ENDBRANCH  14  15
ENDBRANCH  13  14
ENDBRANCH  12  13
ENDBRANCH  11  12
ENDBRANCH  10  11
ENDBRANCH   9  10
ENDBRANCH   1   9
TORSDOF 13
ENDMDL
MODEL 8
REMARK VINA RESULT:    -2.914      3.042      5.360
REMARK INTER + INTRA:          -6.357
REMARK INTER:                  -4.369
REMARK INTRA:                  -1.988
REMARK UNBOUND:                -1.313
REMARK SMILES CCCCCCCCCCCCCCO
REMARK SMILES IDX 8 1 7 2 6 3 5 4 4 5 3 6 2 7 1 8 9 9 10 10 11 11 12 12 13 13
REMARK SMILES IDX 14 14 15 15
REMARK H PARENT 15 16
REMARK Flexibility Score: inf
ROOT
ATOM      1  C   UNL     1       0.937   5.829  -6.730  1.00  0.00     0.000 C 
ENDROOT
BRANCH   1   2
ATOM      2  C   UNL     1       0.289   5.937  -5.339  1.00  0.00    -0.000 C 
BRANCH   2   3
ATOM      3  C   UNL     1      -1.242   5.826  -5.391  1.00  0.00    -0.000 C 
BRANCH   3   4
ATOM      4  C   UNL     1      -1.749   4.450  -4.929  1.00  0.00    -0.000 C 
BRANCH   4   5
ATOM      5  C   UNL     1      -0.681   3.647  -4.167  1.00  0.00    -0.000 C 
BRANCH   5   6
ATOM      6  C   UNL     1      -0.564   2.179  -4.629  1.00  0.00    -0.000 C 
BRANCH   6   7
ATOM      7  C   UNL     1       0.624   1.456  -3.977  1.00  0.00    -0.003 C 
ATOM      8  C   UNL     1       1.915   2.252  -4.145  1.00  0.00     0.004 C 
ENDBRANCH   6   7
ENDBRANCH   5   6
ENDBRANCH   4   5
ENDBRANCH   3   4
ENDBRANCH   2   3
ENDBRANCH   1   2
BRANCH   1   9
ATOM      9  C   UNL     1       2.085   4.807  -6.767  1.00  0.00     0.000 C 
BRANCH   9  10
ATOM     10  C   UNL     1       1.713   3.530  -7.538  1.00  0.00     0.000 C 
BRANCH  10  11
ATOM     11  C   UNL     1       0.467   3.707  -8.421  1.00  0.00     0.000 C 
BRANCH  11  12
ATOM     12  C   UNL     1      -0.485   2.493  -8.396  1.00  0.00     0.002 C 
BRANCH  12  13
ATOM     13  C   UNL     1      -1.949   2.907  -8.180  1.00  0.00     0.028 C 
BRANCH  13  14
ATOM     14  C   UNL     1      -2.906   1.793  -8.603  1.00  0.00     0.156 C 
BRANCH  14  15
ATOM     15  O   UNL     1      -3.625   1.346  -7.488  1.00  0.00    -0.396 OA
ATOM     16  H   UNL     1      -4.434   1.920  -7.435  1.00  0.00     0.210 HD
ENDBRANCH  14  15
ENDBRANCH  13  14
ENDBRANCH  12  13
ENDBRANCH  11  12
ENDBRANCH  10  11
ENDBRANCH   9  10
ENDBRANCH   1   9
TORSDOF 13
ENDMDL
MODEL 9
REMARK VINA RESULT:    -2.882      2.840      3.818
REMARK INTER + INTRA:          -6.302
REMARK INTER:                  -4.030
REMARK INTRA:                  -2.271
REMARK UNBOUND:                -1.313
REMARK SMILES CCCCCCCCCCCCCCO
REMARK SMILES IDX 8 1 7 2 6 3 5 4 4 5 3 6 2 7 1 8 9 9 10 10 11 11 12 12 13 13
REMARK SMILES IDX 14 14 15 15
REMARK H PARENT 15 16
REMARK Flexibility Score: inf
ROOT
ATOM      1  C   UNL     1      -0.326   6.957  -4.936  1.00  0.00     0.000 C 
ENDROOT
BRANCH   1   2
ATOM      2  C   UNL     1      -0.276   6.639  -6.441  1.00  0.00    -0.000 C 
BRANCH   2   3
ATOM      3  C   UNL     1      -1.676   6.507  -7.062  1.00  0.00    -0.000 C 
BRANCH   3   4
ATOM      4  C   UNL     1      -1.994   5.066  -7.494  1.00  0.00    -0.000 C 
BRANCH   4   5
ATOM      5  C   UNL     1      -3.206   4.475  -6.753  1.00  0.00    -0.000 C 
BRANCH   5   6
ATOM      6  C   UNL     1      -2.824   3.488  -5.631  1.00  0.00    -0.000 C 
BRANCH   6   7
ATOM      7  C   UNL     1      -2.699   4.179  -4.265  1.00  0.00    -0.003 C 
ATOM      8  C   UNL     1      -3.737   5.286  -4.110  1.00  0.00     0.004 C 
ENDBRANCH   6   7
ENDBRANCH   5   6
ENDBRANCH   4   5
ENDBRANCH   3   4
ENDBRANCH   2   3
ENDBRANCH   1   2
BRANCH   1   9
ATOM      9  C   UNL     1       0.493   5.963  -4.097  1.00  0.00     0.000 C 
BRANCH   9  10
ATOM     10  C   UNL     1       1.240   4.935  -4.963  1.00  0.00     0.000 C 
BRANCH  10  11
ATOM     11  C   UNL     1       0.896   3.482  -4.596  1.00  0.00     0.000 C 
BRANCH  11  12
ATOM     12  C   UNL     1       0.663   2.574  -5.822  1.00  0.00     0.002 C 
BRANCH  12  13
ATOM     13  C   UNL     1       1.251   3.173  -7.109  1.00  0.00     0.028 C 
BRANCH  13  14
ATOM     14  C   UNL     1       0.595   2.568  -8.350  1.00  0.00     0.156 C 
BRANCH  14  15
ATOM     15  O   UNL     1      -0.576   1.899  -7.979  1.00  0.00    -0.396 OA
ATOM     16  H   UNL     1      -1.192   1.973  -8.755  1.00  0.00     0.210 HD
ENDBRANCH  14  15
ENDBRANCH  13  14
ENDBRANCH  12  13
ENDBRANCH  11  12
ENDBRANCH  10  11
ENDBRANCH   9  10
ENDBRANCH   1   9
TORSDOF 13
ENDMDL
