MODEL 1
REMARK VINA RESULT:    -7.139      0.000      0.000
REMARK INTER + INTRA:         -10.308
REMARK INTER:                 -10.478
REMARK INTRA:                   0.170
REMARK UNBOUND:                 0.170
REMARK SMILES Cc1cc2c(C(C)C)c(O)c(O)c(C=O)c2c(O)c1-c1c(C)cc2c(C(C)C)c(O)c(O)c(C=O)c2c1O
REMARK SMILES IDX 1 1 2 2 3 3 4 4 16 5 13 6 11 7 9 8 5 9 17 10 19 11 20 12
REMARK SMILES IDX 37 13 21 14 36 15 23 16 22 17 24 18 33 19 25 20 31 21 29 22
REMARK SMILES IDX 38 23 34 25 35 26 26 27 27 28 28 29 32 30 30 32 18 34 6 36
REMARK SMILES IDX 7 37 8 38 14 39 15 40 10 41 12 43
REMARK H PARENT 38 24 32 31 30 33 18 35 10 42 12 44
REMARK Flexibility Score: inf
ROOT
ATOM      1  C   UNL     1     -10.097  -4.892   7.914  1.00  0.00     0.045 C 
ATOM      2  C   UNL     1      -8.843  -5.304   7.182  1.00  0.00    -0.039 A 
ATOM      3  C   UNL     1      -8.767  -6.578   6.614  1.00  0.00     0.013 A 
ATOM      4  C   UNL     1      -7.623  -7.011   5.910  1.00  0.00    -0.006 A 
ATOM      5  C   UNL     1      -6.466  -6.179   5.911  1.00  0.00     0.039 A 
ATOM      6  C   UNL     1      -5.237  -6.708   5.419  1.00  0.00     0.072 A 
ATOM      7  C   UNL     1      -5.191  -8.009   4.885  1.00  0.00     0.169 A 
ATOM      8  C   UNL     1      -6.358  -8.797   4.822  1.00  0.00     0.162 A 
ATOM      9  C   UNL     1      -7.601  -8.269   5.237  1.00  0.00     0.008 A 
ATOM     10  C   UNL     1      -6.588  -4.838   6.379  1.00  0.00     0.132 A 
ATOM     11  C   UNL     1      -7.772  -4.411   7.019  1.00  0.00     0.031 A 
ENDROOT
BRANCH  11  12
ATOM     12  C   UNL     1      -7.888  -3.019   7.525  1.00  0.00     0.031 A 
ATOM     13  C   UNL     1      -8.222  -1.967   6.645  1.00  0.00     0.132 A 
ATOM     14  C   UNL     1      -7.652  -2.749   8.884  1.00  0.00    -0.039 A 
ATOM     15  C   UNL     1      -8.297  -0.624   7.120  1.00  0.00     0.039 A 
ATOM     16  C   UNL     1      -7.831  -1.454   9.369  1.00  0.00     0.013 A 
ATOM     17  C   UNL     1      -7.272  -3.852   9.842  1.00  0.00     0.045 C 
ATOM     18  C   UNL     1      -8.213  -0.388   8.526  1.00  0.00    -0.006 A 
ATOM     19  C   UNL     1      -8.465   0.490   6.244  1.00  0.00     0.072 A 
ATOM     20  C   UNL     1      -8.488   0.909   9.053  1.00  0.00     0.008 A 
ATOM     21  C   UNL     1      -8.543   1.794   6.775  1.00  0.00     0.169 A 
ATOM     22  C   UNL     1      -8.561   1.999   8.159  1.00  0.00     0.162 A 
BRANCH  13  23
ATOM     23  O   UNL     1      -8.507  -2.261   5.306  1.00  0.00    -0.507 OA
ATOM     24  H   UNL     1      -8.772  -1.567   4.619  1.00  0.00     0.293 HD
ENDBRANCH  13  23
BRANCH  19  25
ATOM     25  C   UNL     1      -8.464   0.333   4.775  1.00  0.00     0.264 C 
ATOM     26  O   UNL     1      -7.400   0.052   4.162  1.00  0.00    -0.298 OA
ENDBRANCH  19  25
BRANCH  20  27
ATOM     27  C   UNL     1      -8.688   1.143  10.561  1.00  0.00     0.017 C 
ATOM     28  C   UNL     1      -8.634   2.636  10.896  1.00  0.00     0.012 C 
ATOM     29  C   UNL     1      -9.964   0.488  11.125  1.00  0.00     0.012 C 
ENDBRANCH  20  27
BRANCH  21  30
ATOM     30  O   UNL     1      -8.582   2.922   5.946  1.00  0.00    -0.504 OA
ATOM     31  H   UNL     1      -8.909   3.832   6.242  1.00  0.00     0.293 HD
ENDBRANCH  21  30
BRANCH  22  32
ATOM     32  O   UNL     1      -8.624   3.303   8.656  1.00  0.00    -0.504 OA
ATOM     33  H   UNL     1      -8.864   3.518   9.616  1.00  0.00     0.293 HD
ENDBRANCH  22  32
ENDBRANCH  11  12
BRANCH  10  34
ATOM     34  O   UNL     1      -5.552  -3.920   6.172  1.00  0.00    -0.507 OA
ATOM     35  H   UNL     1      -4.581  -4.107   6.388  1.00  0.00     0.293 HD
ENDBRANCH  10  34
BRANCH   9  36
ATOM     36  C   UNL     1      -8.895  -9.057   4.964  1.00  0.00     0.017 C 
ATOM     37  C   UNL     1      -9.899  -8.213   4.174  1.00  0.00     0.012 C 
ATOM     38  C   UNL     1      -9.535  -9.652   6.232  1.00  0.00     0.012 C 
ENDBRANCH   9  36
BRANCH   6  39
ATOM     39  C   UNL     1      -3.953  -5.982   5.572  1.00  0.00     0.264 C 
ATOM     40  O   UNL     1      -2.921  -6.569   5.990  1.00  0.00    -0.298 OA
ENDBRANCH   6  39
BRANCH   8  41
ATOM     41  O   UNL     1      -6.303 -10.125   4.388  1.00  0.00    -0.504 OA
ATOM     42  H   UNL     1      -6.614 -10.921   4.923  1.00  0.00     0.293 HD
ENDBRANCH   8  41
BRANCH   7  43
ATOM     43  O   UNL     1      -3.960  -8.495   4.425  1.00  0.00    -0.504 OA
ATOM     44  H   UNL     1      -3.635  -8.433   3.472  1.00  0.00     0.293 HD
ENDBRANCH   7  43
TORSDOF 11
ENDMDL
MODEL 2
REMARK VINA RESULT:    -7.114      1.527      8.913
REMARK INTER + INTRA:         -10.272
REMARK INTER:                  -9.883
REMARK INTRA:                  -0.389
REMARK UNBOUND:                 0.170
REMARK SMILES Cc1cc2c(C(C)C)c(O)c(O)c(C=O)c2c(O)c1-c1c(C)cc2c(C(C)C)c(O)c(O)c(C=O)c2c1O
REMARK SMILES IDX 1 1 2 2 3 3 4 4 16 5 13 6 11 7 9 8 5 9 17 10 19 11 20 12
REMARK SMILES IDX 37 13 21 14 36 15 23 16 22 17 24 18 33 19 25 20 31 21 29 22
REMARK SMILES IDX 38 23 34 25 35 26 26 27 27 28 28 29 32 30 30 32 18 34 6 36
REMARK SMILES IDX 7 37 8 38 14 39 15 40 10 41 12 43
REMARK H PARENT 38 24 32 31 30 33 18 35 10 42 12 44
REMARK Flexibility Score: inf
ROOT
ATOM      1  C   UNL     1      -7.634  -3.889  10.141  1.00  0.00     0.045 C 
ATOM      2  C   UNL     1      -7.769  -2.807   9.097  1.00  0.00    -0.039 A 
ATOM      3  C   UNL     1      -8.287  -1.562   9.461  1.00  0.00     0.013 A 
ATOM      4  C   UNL     1      -8.424  -0.512   8.527  1.00  0.00    -0.006 A 
ATOM      5  C   UNL     1      -8.165  -0.783   7.153  1.00  0.00     0.039 A 
ATOM      6  C   UNL     1      -8.534   0.188   6.177  1.00  0.00     0.072 A 
ATOM      7  C   UNL     1      -9.085   1.419   6.580  1.00  0.00     0.169 A 
ATOM      8  C   UNL     1      -9.269   1.706   7.947  1.00  0.00     0.162 A 
ATOM      9  C   UNL     1      -8.845   0.789   8.934  1.00  0.00     0.008 A 
ATOM     10  C   UNL     1      -7.521  -2.008   6.806  1.00  0.00     0.132 A 
ATOM     11  C   UNL     1      -7.334  -3.015   7.778  1.00  0.00     0.031 A 
ENDROOT
BRANCH  11  12
ATOM     12  C   UNL     1      -6.682  -4.298   7.409  1.00  0.00     0.031 A 
ATOM     13  C   UNL     1      -7.383  -5.260   6.650  1.00  0.00     0.132 A 
ATOM     14  C   UNL     1      -5.367  -4.558   7.828  1.00  0.00    -0.039 A 
ATOM     15  C   UNL     1      -6.774  -6.509   6.325  1.00  0.00     0.039 A 
ATOM     16  C   UNL     1      -4.734  -5.732   7.419  1.00  0.00     0.013 A 
ATOM     17  C   UNL     1      -4.602  -3.556   8.659  1.00  0.00     0.045 C 
ATOM     18  C   UNL     1      -5.389  -6.692   6.618  1.00  0.00    -0.006 A 
ATOM     19  C   UNL     1      -7.495  -7.575   5.708  1.00  0.00     0.072 A 
ATOM     20  C   UNL     1      -4.699  -7.840   6.127  1.00  0.00     0.008 A 
ATOM     21  C   UNL     1      -6.834  -8.782   5.402  1.00  0.00     0.169 A 
ATOM     22  C   UNL     1      -5.455  -8.910   5.603  1.00  0.00     0.162 A 
BRANCH  13  23
ATOM     23  O   UNL     1      -8.674  -4.962   6.195  1.00  0.00    -0.507 OA
ATOM     24  H   UNL     1      -9.520  -5.290   6.642  1.00  0.00     0.293 HD
ENDBRANCH  13  23
BRANCH  19  25
ATOM     25  C   UNL     1      -8.949  -7.492   5.463  1.00  0.00     0.264 C 
ATOM     26  O   UNL     1      -9.396  -7.387   4.289  1.00  0.00    -0.298 OA
ENDBRANCH  19  25
BRANCH  20  27
ATOM     27  C   UNL     1      -3.163  -7.939   6.172  1.00  0.00     0.017 C 
ATOM     28  C   UNL     1      -2.716  -9.157   6.987  1.00  0.00     0.012 C 
ATOM     29  C   UNL     1      -2.501  -7.922   4.781  1.00  0.00     0.012 C 
ENDBRANCH  20  27
BRANCH  21  30
ATOM     30  O   UNL     1      -7.530  -9.895   4.912  1.00  0.00    -0.504 OA
ATOM     31  H   UNL     1      -7.386 -10.294   3.994  1.00  0.00     0.293 HD
ENDBRANCH  21  30
BRANCH  22  32
ATOM     32  O   UNL     1      -4.831 -10.123   5.303  1.00  0.00    -0.504 OA
ATOM     33  H   UNL     1      -3.980 -10.433   5.757  1.00  0.00     0.293 HD
ENDBRANCH  22  32
ENDBRANCH  11  12
BRANCH  10  34
ATOM     34  O   UNL     1      -7.032  -2.206   5.510  1.00  0.00    -0.507 OA
ATOM     35  H   UNL     1      -6.292  -1.655   5.096  1.00  0.00     0.293 HD
ENDBRANCH  10  34
BRANCH   9  36
ATOM     36  C   UNL     1      -8.854   1.204  10.417  1.00  0.00     0.017 C 
ATOM     37  C   UNL     1     -10.115   0.698  11.124  1.00  0.00     0.012 C 
ATOM     38  C   UNL     1      -8.654   2.715  10.636  1.00  0.00     0.012 C 
ENDBRANCH   9  36
BRANCH   6  39
ATOM     39  C   UNL     1      -8.485  -0.100   4.724  1.00  0.00     0.264 C 
ATOM     40  O   UNL     1      -7.474   0.203   4.036  1.00  0.00    -0.298 OA
ENDBRANCH   6  39
BRANCH   8  41
ATOM     41  O   UNL     1      -9.908   2.882   8.352  1.00  0.00    -0.504 OA
ATOM     42  H   UNL     1     -10.091   3.139   9.310  1.00  0.00     0.293 HD
ENDBRANCH   8  41
BRANCH   7  43
ATOM     43  O   UNL     1      -9.447   2.341   5.588  1.00  0.00    -0.504 OA
ATOM     44  H   UNL     1      -9.960   3.194   5.754  1.00  0.00     0.293 HD
ENDBRANCH   7  43
TORSDOF 11
ENDMDL
MODEL 3
REMARK VINA RESULT:    -5.909      1.462      8.922
REMARK INTER + INTRA:          -8.503
REMARK INTER:                  -9.242
REMARK INTRA:                   0.739
REMARK UNBOUND:                 0.170
REMARK SMILES Cc1cc2c(C(C)C)c(O)c(O)c(C=O)c2c(O)c1-c1c(C)cc2c(C(C)C)c(O)c(O)c(C=O)c2c1O
REMARK SMILES IDX 1 1 2 2 3 3 4 4 16 5 13 6 11 7 9 8 5 9 17 10 19 11 20 12
REMARK SMILES IDX 37 13 21 14 36 15 23 16 22 17 24 18 33 19 25 20 31 21 29 22
REMARK SMILES IDX 38 23 34 25 35 26 26 27 27 28 28 29 32 30 30 32 18 34 6 36
REMARK SMILES IDX 7 37 8 38 14 39 15 40 10 41 12 43
REMARK H PARENT 38 24 32 31 30 33 18 35 10 42 12 44
REMARK Flexibility Score: inf
ROOT
ATOM      1  C   UNL     1      -9.912  -3.466   9.125  1.00  0.00     0.045 C 
ATOM      2  C   UNL     1      -9.437  -2.235   8.391  1.00  0.00    -0.039 A 
ATOM      3  C   UNL     1      -9.765  -0.971   8.886  1.00  0.00     0.013 A 
ATOM      4  C   UNL     1      -9.338   0.212   8.245  1.00  0.00    -0.006 A 
ATOM      5  C   UNL     1      -8.684   0.107   6.984  1.00  0.00     0.039 A 
ATOM      6  C   UNL     1      -8.471   1.290   6.217  1.00  0.00     0.072 A 
ATOM      7  C   UNL     1      -8.846   2.543   6.735  1.00  0.00     0.169 A 
ATOM      8  C   UNL     1      -9.426   2.643   8.015  1.00  0.00     0.162 A 
ATOM      9  C   UNL     1      -9.581   1.494   8.822  1.00  0.00     0.008 A 
ATOM     10  C   UNL     1      -8.243  -1.177   6.547  1.00  0.00     0.132 A 
ATOM     11  C   UNL     1      -8.628  -2.340   7.248  1.00  0.00     0.031 A 
ENDROOT
BRANCH  11  12
ATOM     12  C   UNL     1      -8.184  -3.678   6.778  1.00  0.00     0.031 A 
ATOM     13  C   UNL     1      -7.036  -4.283   7.333  1.00  0.00     0.132 A 
ATOM     14  C   UNL     1      -8.906  -4.336   5.768  1.00  0.00    -0.039 A 
ATOM     15  C   UNL     1      -6.585  -5.550   6.857  1.00  0.00     0.039 A 
ATOM     16  C   UNL     1      -8.528  -5.622   5.379  1.00  0.00     0.013 A 
ATOM     17  C   UNL     1     -10.125  -3.703   5.142  1.00  0.00     0.045 C 
ATOM     18  C   UNL     1      -7.414  -6.276   5.950  1.00  0.00    -0.006 A 
ATOM     19  C   UNL     1      -5.343  -6.123   7.265  1.00  0.00     0.072 A 
ATOM     20  C   UNL     1      -7.098  -7.626   5.614  1.00  0.00     0.008 A 
ATOM     21  C   UNL     1      -4.957  -7.385   6.768  1.00  0.00     0.169 A 
ATOM     22  C   UNL     1      -5.825  -8.127   5.960  1.00  0.00     0.162 A 
BRANCH  13  23
ATOM     23  O   UNL     1      -6.360  -3.637   8.375  1.00  0.00    -0.507 OA
ATOM     24  H   UNL     1      -6.543  -3.805   9.357  1.00  0.00     0.293 HD
ENDBRANCH  13  23
BRANCH  19  25
ATOM     25  C   UNL     1      -4.392  -5.390   8.124  1.00  0.00     0.264 C 
ATOM     26  O   UNL     1      -3.692  -4.454   7.653  1.00  0.00    -0.298 OA
ENDBRANCH  19  25
BRANCH  20  27
ATOM     27  C   UNL     1      -8.101  -8.531   4.876  1.00  0.00     0.017 C 
ATOM     28  C   UNL     1      -8.780  -9.503   5.846  1.00  0.00     0.012 C 
ATOM     29  C   UNL     1      -9.139  -7.754   4.043  1.00  0.00     0.012 C 
ENDBRANCH  20  27
BRANCH  21  30
ATOM     30  O   UNL     1      -3.694  -7.926   7.042  1.00  0.00    -0.504 OA
ATOM     31  H   UNL     1      -3.288  -7.975   7.967  1.00  0.00     0.293 HD
ENDBRANCH  21  30
BRANCH  22  32
ATOM     32  O   UNL     1      -5.409  -9.368   5.470  1.00  0.00    -0.504 OA
ATOM     33  H   UNL     1      -4.618  -9.875   5.849  1.00  0.00     0.293 HD
ENDBRANCH  22  32
ENDBRANCH  11  12
BRANCH  10  34
ATOM     34  O   UNL     1      -7.389  -1.293   5.444  1.00  0.00    -0.507 OA
ATOM     35  H   UNL     1      -7.660  -1.071   4.495  1.00  0.00     0.293 HD
ENDBRANCH  10  34
BRANCH   9  36
ATOM     36  C   UNL     1     -10.013   1.646  10.292  1.00  0.00     0.017 C 
ATOM     37  C   UNL     1      -9.106   2.631  11.035  1.00  0.00     0.012 C 
ATOM     38  C   UNL     1     -10.125   0.307  11.045  1.00  0.00     0.012 C 
ENDBRANCH   9  36
BRANCH   6  39
ATOM     39  C   UNL     1      -7.984   1.241   4.818  1.00  0.00     0.264 C 
ATOM     40  O   UNL     1      -7.198   2.119   4.373  1.00  0.00    -0.298 OA
ENDBRANCH   6  39
BRANCH   8  41
ATOM     41  O   UNL     1      -9.894   3.870   8.496  1.00  0.00    -0.504 OA
ATOM     42  H   UNL     1      -9.309   4.635   8.796  1.00  0.00     0.293 HD
ENDBRANCH   8  41
BRANCH   7  43
ATOM     43  O   UNL     1      -8.632   3.679   5.943  1.00  0.00    -0.504 OA
ATOM     44  H   UNL     1      -8.063   4.469   6.210  1.00  0.00     0.293 HD
ENDBRANCH   7  43
TORSDOF 11
ENDMDL
MODEL 4
REMARK VINA RESULT:    -5.575     12.951     17.051
REMARK INTER + INTRA:          -8.013
REMARK INTER:                  -8.522
REMARK INTRA:                   0.509
REMARK UNBOUND:                 0.170
REMARK SMILES Cc1cc2c(C(C)C)c(O)c(O)c(C=O)c2c(O)c1-c1c(C)cc2c(C(C)C)c(O)c(O)c(C=O)c2c1O
REMARK SMILES IDX 1 1 2 2 3 3 4 4 16 5 13 6 11 7 9 8 5 9 17 10 19 11 20 12
REMARK SMILES IDX 37 13 21 14 36 15 23 16 22 17 24 18 33 19 25 20 31 21 29 22
REMARK SMILES IDX 38 23 34 25 35 26 26 27 27 28 28 29 32 30 30 32 18 34 6 36
REMARK SMILES IDX 7 37 8 38 14 39 15 40 10 41 12 43
REMARK H PARENT 38 24 32 31 30 33 18 35 10 42 12 44
REMARK Flexibility Score: inf
ROOT
ATOM      1  C   UNL     1      -3.223  -7.369  -5.313  1.00  0.00     0.045 C 
ATOM      2  C   UNL     1      -3.623  -6.052  -5.932  1.00  0.00    -0.039 A 
ATOM      3  C   UNL     1      -4.809  -5.435  -5.526  1.00  0.00     0.013 A 
ATOM      4  C   UNL     1      -5.225  -4.198  -6.065  1.00  0.00    -0.006 A 
ATOM      5  C   UNL     1      -4.490  -3.646  -7.153  1.00  0.00     0.039 A 
ATOM      6  C   UNL     1      -5.036  -2.535  -7.861  1.00  0.00     0.072 A 
ATOM      7  C   UNL     1      -6.251  -1.960  -7.443  1.00  0.00     0.169 A 
ATOM      8  C   UNL     1      -6.933  -2.468  -6.319  1.00  0.00     0.162 A 
ATOM      9  C   UNL     1      -6.375  -3.521  -5.560  1.00  0.00     0.008 A 
ATOM     10  C   UNL     1      -3.221  -4.209  -7.478  1.00  0.00     0.132 A 
ATOM     11  C   UNL     1      -2.799  -5.412  -6.871  1.00  0.00     0.031 A 
ENDROOT
BRANCH  11  12
ATOM     12  C   UNL     1      -1.485  -6.008  -7.228  1.00  0.00     0.031 A 
ATOM     13  C   UNL     1      -0.328  -5.671  -6.493  1.00  0.00     0.132 A 
ATOM     14  C   UNL     1      -1.395  -6.901  -8.309  1.00  0.00    -0.039 A 
ATOM     15  C   UNL     1       0.941  -6.212  -6.856  1.00  0.00     0.039 A 
ATOM     16  C   UNL     1      -0.175  -7.513  -8.596  1.00  0.00     0.013 A 
ATOM     17  C   UNL     1      -2.613  -7.262  -9.125  1.00  0.00     0.045 C 
ATOM     18  C   UNL     1       0.991  -7.237  -7.849  1.00  0.00    -0.006 A 
ATOM     19  C   UNL     1       2.160  -5.776  -6.255  1.00  0.00     0.072 A 
ATOM     20  C   UNL     1       2.208  -7.942  -8.091  1.00  0.00     0.008 A 
ATOM     21  C   UNL     1       3.383  -6.357  -6.649  1.00  0.00     0.169 A 
ATOM     22  C   UNL     1       3.405  -7.428  -7.548  1.00  0.00     0.162 A 
BRANCH  13  23
ATOM     23  O   UNL     1      -0.445  -4.822  -5.386  1.00  0.00    -0.507 OA
ATOM     24  H   UNL     1      -1.270  -4.273  -5.181  1.00  0.00     0.293 HD
ENDBRANCH  13  23
BRANCH  19  25
ATOM     25  C   UNL     1       2.196  -4.656  -5.292  1.00  0.00     0.264 C 
ATOM     26  O   UNL     1       1.899  -4.843  -4.082  1.00  0.00    -0.298 OA
ENDBRANCH  19  25
BRANCH  20  27
ATOM     27  C   UNL     1       2.242  -9.229  -8.935  1.00  0.00     0.017 C 
ATOM     28  C   UNL     1       3.484 -10.064  -8.612  1.00  0.00     0.012 C 
ATOM     29  C   UNL     1       0.956 -10.072  -8.830  1.00  0.00     0.012 C 
ENDBRANCH  20  27
BRANCH  21  30
ATOM     30  O   UNL     1       4.610  -5.873  -6.177  1.00  0.00    -0.504 OA
ATOM     31  H   UNL     1       4.774  -5.581  -5.223  1.00  0.00     0.293 HD
ENDBRANCH  21  30
BRANCH  22  32
ATOM     32  O   UNL     1       4.633  -7.974  -7.931  1.00  0.00    -0.504 OA
ATOM     33  H   UNL     1       4.829  -8.967  -7.902  1.00  0.00     0.293 HD
ENDBRANCH  22  32
ENDBRANCH  11  12
BRANCH  10  34
ATOM     34  O   UNL     1      -2.364  -3.553  -8.369  1.00  0.00    -0.507 OA
ATOM     35  H   UNL     1      -1.962  -2.641  -8.197  1.00  0.00     0.293 HD
ENDBRANCH  10  34
BRANCH   9  36
ATOM     36  C   UNL     1      -7.020  -3.921  -4.220  1.00  0.00     0.017 C 
ATOM     37  C   UNL     1      -6.459  -3.083  -3.067  1.00  0.00     0.012 C 
ATOM     38  C   UNL     1      -6.929  -5.428  -3.916  1.00  0.00     0.012 C 
ENDBRANCH   9  36
BRANCH   6  39
ATOM     39  C   UNL     1      -4.436  -2.035  -9.121  1.00  0.00     0.264 C 
ATOM     40  O   UNL     1      -3.683  -1.026  -9.125  1.00  0.00    -0.298 OA
ENDBRANCH   6  39
BRANCH   8  41
ATOM     41  O   UNL     1      -8.188  -1.971  -5.958  1.00  0.00    -0.504 OA
ATOM     42  H   UNL     1      -8.881  -2.478  -5.428  1.00  0.00     0.293 HD
ENDBRANCH   8  41
BRANCH   7  43
ATOM     43  O   UNL     1      -6.760  -0.879  -8.174  1.00  0.00    -0.504 OA
ATOM     44  H   UNL     1      -7.687  -0.837  -8.571  1.00  0.00     0.293 HD
ENDBRANCH   7  43
TORSDOF 11
ENDMDL
MODEL 5
REMARK VINA RESULT:    -5.372     13.417     17.458
REMARK INTER + INTRA:          -7.714
REMARK INTER:                  -6.474
REMARK INTRA:                  -1.240
REMARK UNBOUND:                 0.170
REMARK SMILES Cc1cc2c(C(C)C)c(O)c(O)c(C=O)c2c(O)c1-c1c(C)cc2c(C(C)C)c(O)c(O)c(C=O)c2c1O
REMARK SMILES IDX 1 1 2 2 3 3 4 4 16 5 13 6 11 7 9 8 5 9 17 10 19 11 20 12
REMARK SMILES IDX 37 13 21 14 36 15 23 16 22 17 24 18 33 19 25 20 31 21 29 22
REMARK SMILES IDX 38 23 34 25 35 26 26 27 27 28 28 29 32 30 30 32 18 34 6 36
REMARK SMILES IDX 7 37 8 38 14 39 15 40 10 41 12 43
REMARK H PARENT 38 24 32 31 30 33 18 35 10 42 12 44
REMARK Flexibility Score: inf
ROOT
ATOM      1  C   UNL     1      -1.432  -7.305  -4.681  1.00  0.00     0.045 C 
ATOM      2  C   UNL     1      -1.966  -6.138  -5.475  1.00  0.00    -0.039 A 
ATOM      3  C   UNL     1      -3.293  -5.740  -5.304  1.00  0.00     0.013 A 
ATOM      4  C   UNL     1      -3.840  -4.649  -6.014  1.00  0.00    -0.006 A 
ATOM      5  C   UNL     1      -3.057  -4.039  -7.036  1.00  0.00     0.039 A 
ATOM      6  C   UNL     1      -3.680  -3.109  -7.918  1.00  0.00     0.072 A 
ATOM      7  C   UNL     1      -5.030  -2.757  -7.734  1.00  0.00     0.169 A 
ATOM      8  C   UNL     1      -5.775  -3.311  -6.675  1.00  0.00     0.162 A 
ATOM      9  C   UNL     1      -5.160  -4.179  -5.745  1.00  0.00     0.008 A 
ATOM     10  C   UNL     1      -1.671  -4.363  -7.121  1.00  0.00     0.132 A 
ATOM     11  C   UNL     1      -1.135  -5.415  -6.347  1.00  0.00     0.031 A 
ENDROOT
BRANCH  11  12
ATOM     12  C   UNL     1       0.305  -5.764  -6.454  1.00  0.00     0.031 A 
ATOM     13  C   UNL     1       0.742  -6.690  -7.426  1.00  0.00     0.132 A 
ATOM     14  C   UNL     1       1.232  -5.178  -5.576  1.00  0.00    -0.039 A 
ATOM     15  C   UNL     1       2.119  -7.056  -7.507  1.00  0.00     0.039 A 
ATOM     16  C   UNL     1       2.591  -5.453  -5.726  1.00  0.00     0.013 A 
ATOM     17  C   UNL     1       0.788  -4.201  -4.513  1.00  0.00     0.045 C 
ATOM     18  C   UNL     1       3.067  -6.336  -6.719  1.00  0.00    -0.006 A 
ATOM     19  C   UNL     1       2.583  -8.106  -8.355  1.00  0.00     0.072 A 
ATOM     20  C   UNL     1       4.466  -6.532  -6.925  1.00  0.00     0.008 A 
ATOM     21  C   UNL     1       3.959  -8.414  -8.399  1.00  0.00     0.169 A 
ATOM     22  C   UNL     1       4.886  -7.634  -7.700  1.00  0.00     0.162 A 
BRANCH  13  23
ATOM     23  O   UNL     1      -0.186  -7.223  -8.327  1.00  0.00    -0.507 OA
ATOM     24  H   UNL     1      -0.694  -6.672  -9.007  1.00  0.00     0.293 HD
ENDBRANCH  13  23
BRANCH  19  25
ATOM     25  C   UNL     1       1.652  -8.955  -9.124  1.00  0.00     0.264 C 
ATOM     26  O   UNL     1       1.243 -10.050  -8.651  1.00  0.00    -0.298 OA
ENDBRANCH  19  25
BRANCH  20  27
ATOM     27  C   UNL     1       5.513  -5.586  -6.311  1.00  0.00     0.017 C 
ATOM     28  C   UNL     1       6.095  -6.173  -5.022  1.00  0.00     0.012 C 
ATOM     29  C   UNL     1       6.627  -5.175  -7.293  1.00  0.00     0.012 C 
ENDBRANCH  20  27
BRANCH  21  30
ATOM     30  O   UNL     1       4.441  -9.514  -9.120  1.00  0.00    -0.504 OA
ATOM     31  H   UNL     1       4.557  -9.526 -10.125  1.00  0.00     0.293 HD
ENDBRANCH  21  30
BRANCH  22  32
ATOM     32  O   UNL     1       6.241  -7.972  -7.752  1.00  0.00    -0.504 OA
ATOM     33  H   UNL     1       6.656  -8.682  -7.161  1.00  0.00     0.293 HD
ENDBRANCH  22  32
ENDBRANCH  11  12
BRANCH  10  34
ATOM     34  O   UNL     1      -0.820  -3.614  -7.942  1.00  0.00    -0.507 OA
ATOM     35  H   UNL     1       0.027  -3.978  -8.359  1.00  0.00     0.293 HD
ENDBRANCH  10  34
BRANCH   9  36
ATOM     36  C   UNL     1      -5.923  -4.604  -4.477  1.00  0.00     0.017 C 
ATOM     37  C   UNL     1      -6.985  -5.659  -4.800  1.00  0.00     0.012 C 
ATOM     38  C   UNL     1      -6.523  -3.423  -3.692  1.00  0.00     0.012 C 
ENDBRANCH   9  36
BRANCH   6  39
ATOM     39  C   UNL     1      -2.991  -2.589  -9.124  1.00  0.00     0.264 C 
ATOM     40  O   UNL     1      -2.378  -1.488  -9.097  1.00  0.00    -0.298 OA
ENDBRANCH   6  39
BRANCH   8  41
ATOM     41  O   UNL     1      -7.142  -3.046  -6.544  1.00  0.00    -0.504 OA
ATOM     42  H   UNL     1      -7.879  -3.711  -6.725  1.00  0.00     0.293 HD
ENDBRANCH   8  41
BRANCH   7  43
ATOM     43  O   UNL     1      -5.607  -1.850  -8.633  1.00  0.00    -0.504 OA
ATOM     44  H   UNL     1      -6.562  -1.890  -8.959  1.00  0.00     0.293 HD
ENDBRANCH   7  43
TORSDOF 11
ENDMDL
MODEL 6
REMARK VINA RESULT:    -5.034     13.218     16.055
REMARK INTER + INTRA:          -7.219
REMARK INTER:                  -8.364
REMARK INTRA:                   1.145
REMARK UNBOUND:                 0.170
REMARK SMILES Cc1cc2c(C(C)C)c(O)c(O)c(C=O)c2c(O)c1-c1c(C)cc2c(C(C)C)c(O)c(O)c(C=O)c2c1O
REMARK SMILES IDX 1 1 2 2 3 3 4 4 16 5 13 6 11 7 9 8 5 9 17 10 19 11 20 12
REMARK SMILES IDX 37 13 21 14 36 15 23 16 22 17 24 18 33 19 25 20 31 21 29 22
REMARK SMILES IDX 38 23 34 25 35 26 26 27 27 28 28 29 32 30 30 32 18 34 6 36
REMARK SMILES IDX 7 37 8 38 14 39 15 40 10 41 12 43
REMARK H PARENT 38 24 32 31 30 33 18 35 10 42 12 44
REMARK Flexibility Score: inf
ROOT
ATOM      1  C   UNL     1      -1.813  -8.569  -8.045  1.00  0.00     0.045 C 
ATOM      2  C   UNL     1      -0.589  -7.791  -7.627  1.00  0.00    -0.039 A 
ATOM      3  C   UNL     1       0.679  -8.287  -7.935  1.00  0.00     0.013 A 
ATOM      4  C   UNL     1       1.856  -7.595  -7.578  1.00  0.00    -0.006 A 
ATOM      5  C   UNL     1       1.743  -6.438  -6.754  1.00  0.00     0.039 A 
ATOM      6  C   UNL     1       2.925  -5.878  -6.186  1.00  0.00     0.072 A 
ATOM      7  C   UNL     1       4.184  -6.426  -6.494  1.00  0.00     0.169 A 
ATOM      8  C   UNL     1       4.290  -7.526  -7.369  1.00  0.00     0.162 A 
ATOM      9  C   UNL     1       3.140  -8.052  -7.999  1.00  0.00     0.008 A 
ATOM     10  C   UNL     1       0.452  -5.868  -6.548  1.00  0.00     0.132 A 
ATOM     11  C   UNL     1      -0.706  -6.551  -6.978  1.00  0.00     0.031 A 
ENDROOT
BRANCH  11  12
ATOM     12  C   UNL     1      -2.051  -5.964  -6.743  1.00  0.00     0.031 A 
ATOM     13  C   UNL     1      -2.558  -4.975  -7.614  1.00  0.00     0.132 A 
ATOM     14  C   UNL     1      -2.814  -6.388  -5.643  1.00  0.00    -0.039 A 
ATOM     15  C   UNL     1      -3.832  -4.382  -7.369  1.00  0.00     0.039 A 
ATOM     16  C   UNL     1      -4.104  -5.887  -5.466  1.00  0.00     0.013 A 
ATOM     17  C   UNL     1      -2.287  -7.428  -4.684  1.00  0.00     0.045 C 
ATOM     18  C   UNL     1      -4.660  -4.934  -6.346  1.00  0.00    -0.006 A 
ATOM     19  C   UNL     1      -4.313  -3.266  -8.118  1.00  0.00     0.072 A 
ATOM     20  C   UNL     1      -6.014  -4.505  -6.210  1.00  0.00     0.008 A 
ATOM     21  C   UNL     1      -5.588  -2.731  -7.837  1.00  0.00     0.169 A 
ATOM     22  C   UNL     1      -6.427  -3.345  -6.901  1.00  0.00     0.162 A 
BRANCH  13  23
ATOM     23  O   UNL     1      -1.807  -4.603  -8.735  1.00  0.00    -0.507 OA
ATOM     24  H   UNL     1      -1.774  -5.137  -9.595  1.00  0.00     0.293 HD
ENDBRANCH  13  23
BRANCH  19  25
ATOM     25  C   UNL     1      -3.476  -2.584  -9.125  1.00  0.00     0.264 C 
ATOM     26  O   UNL     1      -3.367  -1.328  -9.124  1.00  0.00    -0.298 OA
ENDBRANCH  19  25
BRANCH  20  27
ATOM     27  C   UNL     1      -7.017  -5.263  -5.322  1.00  0.00     0.017 C 
ATOM     28  C   UNL     1      -7.042  -6.753  -5.672  1.00  0.00     0.012 C 
ATOM     29  C   UNL     1      -6.794  -5.045  -3.813  1.00  0.00     0.012 C 
ENDBRANCH  20  27
BRANCH  21  30
ATOM     30  O   UNL     1      -6.046  -1.563  -8.460  1.00  0.00    -0.504 OA
ATOM     31  H   UNL     1      -6.190  -0.684  -7.980  1.00  0.00     0.293 HD
ENDBRANCH  21  30
BRANCH  22  32
ATOM     32  O   UNL     1      -7.678  -2.784  -6.633  1.00  0.00    -0.504 OA
ATOM     33  H   UNL     1      -8.197  -2.241  -7.312  1.00  0.00     0.293 HD
ENDBRANCH  22  32
ENDBRANCH  11  12
BRANCH  10  34
ATOM     34  O   UNL     1       0.324  -4.606  -5.955  1.00  0.00    -0.507 OA
ATOM     35  H   UNL     1      -0.479  -4.317  -5.412  1.00  0.00     0.293 HD
ENDBRANCH  10  34
BRANCH   9  36
ATOM     36  C   UNL     1       3.293  -9.106  -9.111  1.00  0.00     0.017 C 
ATOM     37  C   UNL     1       2.104 -10.071  -9.125  1.00  0.00     0.012 C 
ATOM     38  C   UNL     1       4.632  -9.866  -9.062  1.00  0.00     0.012 C 
ENDBRANCH   9  36
BRANCH   6  39
ATOM     39  C   UNL     1       2.873  -4.806  -5.163  1.00  0.00     0.264 C 
ATOM     40  O   UNL     1       2.232  -4.963  -4.091  1.00  0.00    -0.298 OA
ENDBRANCH   6  39
BRANCH   8  41
ATOM     41  O   UNL     1       5.524  -8.141  -7.600  1.00  0.00    -0.504 OA
ATOM     42  H   UNL     1       6.401  -7.655  -7.706  1.00  0.00     0.293 HD
ENDBRANCH   8  41
BRANCH   7  43
ATOM     43  O   UNL     1       5.319  -5.855  -5.904  1.00  0.00    -0.504 OA
ATOM     44  H   UNL     1       5.328  -5.377  -5.015  1.00  0.00     0.293 HD
ENDBRANCH   7  43
TORSDOF 11
ENDMDL
MODEL 7
REMARK VINA RESULT:    -4.745      1.715      8.960
REMARK INTER + INTRA:          -6.794
REMARK INTER:                  -6.623
REMARK INTRA:                  -0.171
REMARK UNBOUND:                 0.170
REMARK SMILES Cc1cc2c(C(C)C)c(O)c(O)c(C=O)c2c(O)c1-c1c(C)cc2c(C(C)C)c(O)c(O)c(C=O)c2c1O
REMARK SMILES IDX 1 1 2 2 3 3 4 4 16 5 13 6 11 7 9 8 5 9 17 10 19 11 20 12
REMARK SMILES IDX 37 13 21 14 36 15 23 16 22 17 24 18 33 19 25 20 31 21 29 22
REMARK SMILES IDX 38 23 34 25 35 26 26 27 27 28 28 29 32 30 30 32 18 34 6 36
REMARK SMILES IDX 7 37 8 38 14 39 15 40 10 41 12 43
REMARK H PARENT 38 24 32 31 30 33 18 35 10 42 12 44
REMARK Flexibility Score: inf
ROOT
ATOM      1  C   UNL     1      -7.667  -2.067   4.077  1.00  0.00     0.045 C 
ATOM      2  C   UNL     1      -8.039  -1.712   5.496  1.00  0.00    -0.039 A 
ATOM      3  C   UNL     1      -8.401  -0.398   5.803  1.00  0.00     0.013 A 
ATOM      4  C   UNL     1      -8.768  -0.015   7.111  1.00  0.00    -0.006 A 
ATOM      5  C   UNL     1      -8.620  -0.960   8.166  1.00  0.00     0.039 A 
ATOM      6  C   UNL     1      -8.750  -0.515   9.514  1.00  0.00     0.072 A 
ATOM      7  C   UNL     1      -9.084   0.825   9.786  1.00  0.00     0.169 A 
ATOM      8  C   UNL     1      -9.300   1.735   8.732  1.00  0.00     0.162 A 
ATOM      9  C   UNL     1      -9.247   1.300   7.389  1.00  0.00     0.008 A 
ATOM     10  C   UNL     1      -8.373  -2.325   7.833  1.00  0.00     0.132 A 
ATOM     11  C   UNL     1      -8.076  -2.691   6.502  1.00  0.00     0.031 A 
ENDROOT
BRANCH  11  12
ATOM     12  C   UNL     1      -7.798  -4.111   6.162  1.00  0.00     0.031 A 
ATOM     13  C   UNL     1      -6.545  -4.683   6.468  1.00  0.00     0.132 A 
ATOM     14  C   UNL     1      -8.784  -4.880   5.522  1.00  0.00    -0.039 A 
ATOM     15  C   UNL     1      -6.261  -6.034   6.109  1.00  0.00     0.039 A 
ATOM     16  C   UNL     1      -8.545  -6.231   5.268  1.00  0.00     0.013 A 
ATOM     17  C   UNL     1     -10.125  -4.286   5.163  1.00  0.00     0.045 C 
ATOM     18  C   UNL     1      -7.321  -6.848   5.607  1.00  0.00    -0.006 A 
ATOM     19  C   UNL     1      -4.960  -6.605   6.244  1.00  0.00     0.072 A 
ATOM     20  C   UNL     1      -7.127  -8.251   5.432  1.00  0.00     0.008 A 
ATOM     21  C   UNL     1      -4.744  -7.951   5.882  1.00  0.00     0.169 A 
ATOM     22  C   UNL     1      -5.813  -8.762   5.488  1.00  0.00     0.162 A 
BRANCH  13  23
ATOM     23  O   UNL     1      -5.594  -3.918   7.154  1.00  0.00    -0.507 OA
ATOM     24  H   UNL     1      -5.074  -3.156   6.736  1.00  0.00     0.293 HD
ENDBRANCH  13  23
BRANCH  19  25
ATOM     25  C   UNL     1      -3.795  -5.800   6.665  1.00  0.00     0.264 C 
ATOM     26  O   UNL     1      -3.570  -5.588   7.887  1.00  0.00    -0.298 OA
ENDBRANCH  19  25
BRANCH  20  27
ATOM     27  C   UNL     1      -8.308  -9.203   5.170  1.00  0.00     0.017 C 
ATOM     28  C   UNL     1      -9.360  -9.090   6.277  1.00  0.00     0.012 C 
ATOM     29  C   UNL     1      -8.942  -9.034   3.775  1.00  0.00     0.012 C 
ENDBRANCH  20  27
BRANCH  21  30
ATOM     30  O   UNL     1      -3.461  -8.513   5.881  1.00  0.00    -0.504 OA
ATOM     31  H   UNL     1      -2.757  -8.317   5.181  1.00  0.00     0.293 HD
ENDBRANCH  21  30
BRANCH  22  32
ATOM     32  O   UNL     1      -5.567 -10.088   5.121  1.00  0.00    -0.504 OA
ATOM     33  H   UNL     1      -6.015 -10.535   4.331  1.00  0.00     0.293 HD
ENDBRANCH  22  32
ENDBRANCH  11  12
BRANCH  10  34
ATOM     34  O   UNL     1      -8.463  -3.319   8.814  1.00  0.00    -0.507 OA
ATOM     35  H   UNL     1      -7.796  -3.432   9.566  1.00  0.00     0.293 HD
ENDBRANCH  10  34
BRANCH   9  36
ATOM     36  C   UNL     1      -9.695   2.248   6.261  1.00  0.00     0.017 C 
ATOM     37  C   UNL     1     -10.125   1.463   5.019  1.00  0.00     0.012 C 
ATOM     38  C   UNL     1      -8.653   3.327   5.912  1.00  0.00     0.012 C 
ENDBRANCH   9  36
BRANCH   6  39
ATOM     39  C   UNL     1      -8.413  -1.387  10.665  1.00  0.00     0.264 C 
ATOM     40  O   UNL     1      -7.220  -1.532  11.042  1.00  0.00    -0.298 OA
ENDBRANCH   6  39
BRANCH   8  41
ATOM     41  O   UNL     1      -9.531   3.090   8.991  1.00  0.00    -0.504 OA
ATOM     42  H   UNL     1      -9.605   3.498   9.911  1.00  0.00     0.293 HD
ENDBRANCH   8  41
BRANCH   7  43
ATOM     43  O   UNL     1      -9.188   1.225  11.125  1.00  0.00    -0.504 OA
ATOM     44  H   UNL     1      -9.869   0.871  11.781  1.00  0.00     0.293 HD
ENDBRANCH   7  43
TORSDOF 11
ENDMDL
