MODEL 1
REMARK VINA RESULT:    -3.597      0.000      0.000
REMARK INTER + INTRA:          -4.445
REMARK INTER:                  -4.228
REMARK INTRA:                  -0.217
REMARK UNBOUND:                -0.217
REMARK SMILES [NH3+][C@@H](CO)C(=O)[O-]
REMARK SMILES IDX 3 1 2 2 1 3 5 7 6 8 7 9 4 10
REMARK H PARENT 1 4 1 5 1 6 4 11
REMARK Flexibility Score: inf
ROOT
ATOM      1  C   UNL     1      24.392   4.260  15.423  1.00  0.00     0.227 C 
ENDROOT
BRANCH   1   2
ATOM      2  C   UNL     1      24.485   5.363  14.352  1.00  0.00     0.253 C 
BRANCH   2   3
ATOM      3  N   UNL     1      25.823   5.967  14.318  1.00  0.00    -0.348 N 
ATOM      4  H   UNL     1      26.226   5.937  13.353  1.00  0.00     0.345 HD
ATOM      5  H   UNL     1      26.458   5.450  14.968  1.00  0.00     0.345 HD
ATOM      6  H   UNL     1      25.770   6.962  14.635  1.00  0.00     0.345 HD
ENDBRANCH   2   3
BRANCH   2   7
ATOM      7  C   UNL     1      23.424   6.410  14.568  1.00  0.00     0.102 C 
ATOM      8  O   UNL     1      23.657   7.623  14.315  1.00  0.00    -0.544 OA
ATOM      9  O   UNL     1      22.187   6.046  15.086  1.00  0.00    -0.544 OA
ENDBRANCH   2   7
ENDBRANCH   1   2
BRANCH   1  10
ATOM     10  O   UNL     1      23.450   3.281  15.069  1.00  0.00    -0.390 OA
ATOM     11  H   UNL     1      22.897   3.663  14.340  1.00  0.00     0.210 HD
ENDBRANCH   1  10
TORSDOF 4
ENDMDL
MODEL 2
REMARK VINA RESULT:    -3.552      1.848      2.616
REMARK INTER + INTRA:          -4.392
REMARK INTER:                  -4.166
REMARK INTRA:                  -0.227
REMARK UNBOUND:                -0.217
REMARK SMILES [NH3+][C@@H](CO)C(=O)[O-]
REMARK SMILES IDX 3 1 2 2 1 3 5 7 6 8 7 9 4 10
REMARK H PARENT 1 4 1 5 1 6 4 11
REMARK Flexibility Score: inf
ROOT
ATOM      1  C   UNL     1      25.828   6.611  14.229  1.00  0.00     0.227 C 
ENDROOT
BRANCH   1   2
ATOM      2  C   UNL     1      24.476   6.191  13.624  1.00  0.00     0.253 C 
BRANCH   2   3
ATOM      3  N   UNL     1      24.386   6.552  12.204  1.00  0.00    -0.348 N 
ATOM      4  H   UNL     1      24.923   5.880  11.609  1.00  0.00     0.345 HD
ATOM      5  H   UNL     1      24.769   7.514  12.061  1.00  0.00     0.345 HD
ATOM      6  H   UNL     1      23.384   6.551  11.901  1.00  0.00     0.345 HD
ENDBRANCH   2   3
BRANCH   2   7
ATOM      7  C   UNL     1      23.332   6.783  14.406  1.00  0.00     0.102 C 
ATOM      8  O   UNL     1      23.221   8.031  14.536  1.00  0.00    -0.544 OA
ATOM      9  O   UNL     1      22.408   5.947  15.022  1.00  0.00    -0.544 OA
ENDBRANCH   2   7
ENDBRANCH   1   2
BRANCH   1  10
ATOM     10  O   UNL     1      26.098   7.966  13.986  1.00  0.00    -0.390 OA
ATOM     11  H   UNL     1      25.872   8.140  13.035  1.00  0.00     0.210 HD
ENDBRANCH   1  10
TORSDOF 4
ENDMDL
MODEL 3
REMARK VINA RESULT:    -3.462      2.131      3.369
REMARK INTER + INTRA:          -4.286
REMARK INTER:                  -4.058
REMARK INTRA:                  -0.228
REMARK UNBOUND:                -0.217
REMARK SMILES [NH3+][C@@H](CO)C(=O)[O-]
REMARK SMILES IDX 3 1 2 2 1 3 5 7 6 8 7 9 4 10
REMARK H PARENT 1 4 1 5 1 6 4 11
REMARK Flexibility Score: inf
ROOT
ATOM      1  C   UNL     1      24.457   6.794  14.000  1.00  0.00     0.227 C 
ENDROOT
BRANCH   1   2
ATOM      2  C   UNL     1      23.735   5.487  14.375  1.00  0.00     0.253 C 
BRANCH   2   3
ATOM      3  N   UNL     1      22.500   5.750  15.125  1.00  0.00    -0.348 N 
ATOM      4  H   UNL     1      21.760   5.049  14.893  1.00  0.00     0.345 HD
ATOM      5  H   UNL     1      22.147   6.707  14.894  1.00  0.00     0.345 HD
ATOM      6  H   UNL     1      22.696   5.714  16.152  1.00  0.00     0.345 HD
ENDBRANCH   2   3
BRANCH   2   7
ATOM      7  C   UNL     1      24.649   4.570  15.144  1.00  0.00     0.102 C 
ATOM      8  O   UNL     1      24.261   3.425  15.500  1.00  0.00    -0.544 OA
ATOM      9  O   UNL     1      25.922   5.000  15.500  1.00  0.00    -0.544 OA
ENDBRANCH   2   7
ENDBRANCH   1   2
BRANCH   1  10
ATOM     10  O   UNL     1      25.500   6.560  13.090  1.00  0.00    -0.390 OA
ATOM     11  H   UNL     1      25.612   7.391  12.559  1.00  0.00     0.210 HD
ENDBRANCH   1  10
TORSDOF 4
ENDMDL
MODEL 4
REMARK VINA RESULT:    -3.439      2.188      2.301
REMARK INTER + INTRA:          -4.259
REMARK INTER:                  -4.252
REMARK INTRA:                  -0.007
REMARK UNBOUND:                -0.217
REMARK SMILES [NH3+][C@@H](CO)C(=O)[O-]
REMARK SMILES IDX 3 1 2 2 1 3 5 7 6 8 7 9 4 10
REMARK H PARENT 1 4 1 5 1 6 4 11
REMARK Flexibility Score: inf
ROOT
ATOM      1  C   UNL     1      25.353   4.269  16.292  1.00  0.00     0.227 C 
ENDROOT
BRANCH   1   2
ATOM      2  C   UNL     1      23.895   4.195  15.802  1.00  0.00     0.253 C 
BRANCH   2   3
ATOM      3  N   UNL     1      23.613   2.911  15.147  1.00  0.00    -0.348 N 
ATOM      4  H   UNL     1      24.181   2.140  15.567  1.00  0.00     0.345 HD
ATOM      5  H   UNL     1      23.835   2.981  14.128  1.00  0.00     0.345 HD
ATOM      6  H   UNL     1      22.597   2.680  15.245  1.00  0.00     0.345 HD
ENDBRANCH   2   3
BRANCH   2   7
ATOM      7  C   UNL     1      23.576   5.349  14.889  1.00  0.00     0.102 C 
ATOM      8  O   UNL     1      24.389   5.704  13.994  1.00  0.00    -0.544 OA
ATOM      9  O   UNL     1      22.391   6.056  15.054  1.00  0.00    -0.544 OA
ENDBRANCH   2   7
ENDBRANCH   1   2
BRANCH   1  10
ATOM     10  O   UNL     1      25.460   3.900  17.641  1.00  0.00    -0.390 OA
ATOM     11  H   UNL     1      25.077   2.988  17.722  1.00  0.00     0.210 HD
ENDBRANCH   1  10
TORSDOF 4
ENDMDL
MODEL 5
REMARK VINA RESULT:    -3.381      2.339      3.781
REMARK INTER + INTRA:          -4.191
REMARK INTER:                  -3.965
REMARK INTRA:                  -0.226
REMARK UNBOUND:                -0.217
REMARK SMILES [NH3+][C@@H](CO)C(=O)[O-]
REMARK SMILES IDX 3 1 2 2 1 3 5 7 6 8 7 9 4 10
REMARK H PARENT 1 4 1 5 1 6 4 11
REMARK Flexibility Score: inf
ROOT
ATOM      1  C   UNL     1      22.926   8.492  14.992  1.00  0.00     0.227 C 
ENDROOT
BRANCH   1   2
ATOM      2  C   UNL     1      22.841   7.082  14.378  1.00  0.00     0.253 C 
BRANCH   2   3
ATOM      3  N   UNL     1      21.961   6.206  15.163  1.00  0.00    -0.348 N 
ATOM      4  H   UNL     1      21.443   6.747  15.892  1.00  0.00     0.345 HD
ATOM      5  H   UNL     1      22.530   5.464  15.630  1.00  0.00     0.345 HD
ATOM      6  H   UNL     1      21.272   5.739  14.530  1.00  0.00     0.345 HD
ENDBRANCH   2   3
BRANCH   2   7
ATOM      7  C   UNL     1      24.213   6.477  14.232  1.00  0.00     0.102 C 
ATOM      8  O   UNL     1      24.385   5.235  14.354  1.00  0.00    -0.544 OA
ATOM      9  O   UNL     1      25.310   7.298  13.997  1.00  0.00    -0.544 OA
ENDBRANCH   2   7
ENDBRANCH   1   2
BRANCH   1  10
ATOM     10  O   UNL     1      23.329   9.441  14.040  1.00  0.00    -0.390 OA
ATOM     11  H   UNL     1      24.290   9.626  14.205  1.00  0.00     0.210 HD
ENDBRANCH   1  10
TORSDOF 4
ENDMDL
MODEL 6
REMARK VINA RESULT:    -3.343      1.826      3.215
REMARK INTER + INTRA:          -4.147
REMARK INTER:                  -4.138
REMARK INTRA:                  -0.009
REMARK UNBOUND:                -0.217
REMARK SMILES [NH3+][C@@H](CO)C(=O)[O-]
REMARK SMILES IDX 3 1 2 2 1 3 5 7 6 8 7 9 4 10
REMARK H PARENT 1 4 1 5 1 6 4 11
REMARK Flexibility Score: inf
ROOT
ATOM      1  C   UNL     1      22.876   6.719  14.467  1.00  0.00     0.227 C 
ENDROOT
BRANCH   1   2
ATOM      2  C   UNL     1      24.363   6.665  14.070  1.00  0.00     0.253 C 
BRANCH   2   3
ATOM      3  N   UNL     1      24.529   6.602  12.612  1.00  0.00    -0.348 N 
ATOM      4  H   UNL     1      25.518   6.803  12.336  1.00  0.00     0.345 HD
ATOM      5  H   UNL     1      23.900   7.303  12.157  1.00  0.00     0.345 HD
ATOM      6  H   UNL     1      24.264   5.652  12.266  1.00  0.00     0.345 HD
ENDBRANCH   2   3
BRANCH   2   7
ATOM      7  C   UNL     1      25.055   5.507  14.742  1.00  0.00     0.102 C 
ATOM      8  O   UNL     1      24.420   4.458  15.031  1.00  0.00    -0.544 OA
ATOM      9  O   UNL     1      26.399   5.608  15.083  1.00  0.00    -0.544 OA
ENDBRANCH   2   7
ENDBRANCH   1   2
BRANCH   1  10
ATOM     10  O   UNL     1      22.454   8.039  14.687  1.00  0.00    -0.390 OA
ATOM     11  H   UNL     1      21.549   8.123  14.288  1.00  0.00     0.210 HD
ENDBRANCH   1  10
TORSDOF 4
ENDMDL
MODEL 7
REMARK VINA RESULT:    -3.329      1.722      2.805
REMARK INTER + INTRA:          -4.130
REMARK INTER:                  -4.125
REMARK INTRA:                  -0.005
REMARK UNBOUND:                -0.217
REMARK SMILES [NH3+][C@@H](CO)C(=O)[O-]
REMARK SMILES IDX 3 1 2 2 1 3 5 7 6 8 7 9 4 10
REMARK H PARENT 1 4 1 5 1 6 4 11
REMARK Flexibility Score: inf
ROOT
ATOM      1  C   UNL     1      24.728   6.127  12.484  1.00  0.00     0.227 C 
ENDROOT
BRANCH   1   2
ATOM      2  C   UNL     1      24.915   6.315  14.001  1.00  0.00     0.253 C 
BRANCH   2   3
ATOM      3  N   UNL     1      26.313   6.108  14.400  1.00  0.00    -0.348 N 
ATOM      4  H   UNL     1      26.904   5.840  13.581  1.00  0.00     0.345 HD
ATOM      5  H   UNL     1      26.363   5.349  15.118  1.00  0.00     0.345 HD
ATOM      6  H   UNL     1      26.693   6.984  14.824  1.00  0.00     0.345 HD
ENDBRANCH   2   3
BRANCH   2   7
ATOM      7  C   UNL     1      23.992   5.406  14.771  1.00  0.00     0.102 C 
ATOM      8  O   UNL     1      24.370   4.258  15.126  1.00  0.00    -0.544 OA
ATOM      9  O   UNL     1      22.699   5.820  15.064  1.00  0.00    -0.544 OA
ENDBRANCH   2   7
ENDBRANCH   1   2
BRANCH   1  10
ATOM     10  O   UNL     1      25.876   6.512  11.775  1.00  0.00    -0.390 OA
ATOM     11  H   UNL     1      26.132   5.745  11.201  1.00  0.00     0.210 HD
ENDBRANCH   1  10
TORSDOF 4
ENDMDL
MODEL 8
REMARK VINA RESULT:    -3.324      2.113      2.467
REMARK INTER + INTRA:          -4.124
REMARK INTER:                  -3.909
REMARK INTRA:                  -0.216
REMARK UNBOUND:                -0.217
REMARK SMILES [NH3+][C@@H](CO)C(=O)[O-]
REMARK SMILES IDX 3 1 2 2 1 3 5 7 6 8 7 9 4 10
REMARK H PARENT 1 4 1 5 1 6 4 11
REMARK Flexibility Score: inf
ROOT
ATOM      1  C   UNL     1      25.958   4.989  15.497  1.00  0.00     0.227 C 
ENDROOT
BRANCH   1   2
ATOM      2  C   UNL     1      24.454   4.992  15.169  1.00  0.00     0.253 C 
BRANCH   2   3
ATOM      3  N   UNL     1      23.998   3.670  14.721  1.00  0.00    -0.348 N 
ATOM      4  H   UNL     1      23.607   3.115  15.517  1.00  0.00     0.345 HD
ATOM      5  H   UNL     1      24.801   3.145  14.304  1.00  0.00     0.345 HD
ATOM      6  H   UNL     1      23.262   3.779  13.986  1.00  0.00     0.345 HD
ENDBRANCH   2   3
BRANCH   2   7
ATOM      7  C   UNL     1      24.130   6.050  14.147  1.00  0.00     0.102 C 
ATOM      8  O   UNL     1      23.318   6.976  14.415  1.00  0.00    -0.544 OA
ATOM      9  O   UNL     1      24.701   5.987  12.882  1.00  0.00    -0.544 OA
ENDBRANCH   2   7
ENDBRANCH   1   2
BRANCH   1  10
ATOM     10  O   UNL     1      26.646   5.961  14.755  1.00  0.00    -0.390 OA
ATOM     11  H   UNL     1      26.423   6.841  15.156  1.00  0.00     0.210 HD
ENDBRANCH   1  10
TORSDOF 4
ENDMDL
MODEL 9
REMARK VINA RESULT:    -3.250      4.902      5.539
REMARK INTER + INTRA:          -4.038
REMARK INTER:                  -4.022
REMARK INTRA:                  -0.016
REMARK UNBOUND:                -0.217
REMARK SMILES [NH3+][C@@H](CO)C(=O)[O-]
REMARK SMILES IDX 3 1 2 2 1 3 5 7 6 8 7 9 4 10
REMARK H PARENT 1 4 1 5 1 6 4 11
REMARK Flexibility Score: inf
ROOT
ATOM      1  C   UNL     1      25.492   6.162  11.735  1.00  0.00     0.227 C 
ENDROOT
BRANCH   1   2
ATOM      2  C   UNL     1      25.358   6.530  10.246  1.00  0.00     0.253 C 
BRANCH   2   3
ATOM      3  N   UNL     1      23.979   6.903   9.905  1.00  0.00    -0.348 N 
ATOM      4  H   UNL     1      23.290   6.340  10.454  1.00  0.00     0.345 HD
ATOM      5  H   UNL     1      23.814   6.742   8.885  1.00  0.00     0.345 HD
ATOM      6  H   UNL     1      23.828   7.918  10.104  1.00  0.00     0.345 HD
ENDBRANCH   2   3
BRANCH   2   7
ATOM      7  C   UNL     1      25.846   5.406   9.370  1.00  0.00     0.102 C 
ATOM      8  O   UNL     1      26.305   4.348   9.878  1.00  0.00    -0.544 OA
ATOM      9  O   UNL     1      25.826   5.547   7.988  1.00  0.00    -0.544 OA
ENDBRANCH   2   7
ENDBRANCH   1   2
BRANCH   1  10
ATOM     10  O   UNL     1      24.365   6.570  12.466  1.00  0.00    -0.390 OA
ATOM     11  H   UNL     1      24.263   7.546  12.319  1.00  0.00     0.210 HD
ENDBRANCH   1  10
TORSDOF 4
ENDMDL
