MODEL 1
REMARK VINA RESULT:    -4.527      0.000      0.000
REMARK INTER + INTRA:          -9.300
REMARK INTER:                  -8.365
REMARK INTRA:                  -0.934
REMARK UNBOUND:                -0.934
REMARK SMILES CCCCCCCCCCCCCCCCO
REMARK SMILES IDX 9 1 8 2 7 3 6 4 5 5 4 6 3 7 2 8 1 9 10 10 11 11 12 12 13 13
REMARK SMILES IDX 14 14 15 15 16 16 17 17
REMARK H PARENT 17 18
REMARK Flexibility Score: inf
ROOT
ATOM      1  C   UNL     1      32.522  26.553  70.714  1.00  0.00     0.000 C 
ENDROOT
BRANCH   1   2
ATOM      2  C   UNL     1      33.677  25.992  71.557  1.00  0.00    -0.000 C 
BRANCH   2   3
ATOM      3  C   UNL     1      34.959  25.778  70.733  1.00  0.00    -0.000 C 
BRANCH   3   4
ATOM      4  C   UNL     1      35.452  24.320  70.763  1.00  0.00    -0.000 C 
BRANCH   4   5
ATOM      5  C   UNL     1      36.474  23.959  69.670  1.00  0.00    -0.000 C 
BRANCH   5   6
ATOM      6  C   UNL     1      37.926  24.014  70.165  1.00  0.00    -0.000 C 
BRANCH   6   7
ATOM      7  C   UNL     1      37.983  24.140  71.691  1.00  0.00    -0.000 C 
BRANCH   7   8
ATOM      8  C   UNL     1      39.432  24.228  72.184  1.00  0.00    -0.003 C 
ATOM      9  C   UNL     1      39.535  25.080  73.445  1.00  0.00     0.004 C 
ENDBRANCH   7   8
ENDBRANCH   6   7
ENDBRANCH   5   6
ENDBRANCH   4   5
ENDBRANCH   3   4
ENDBRANCH   2   3
ENDBRANCH   1   2
BRANCH   1  10
ATOM     10  C   UNL     1      31.336  25.577  70.617  1.00  0.00     0.000 C 
BRANCH  10  11
ATOM     11  C   UNL     1      31.751  24.194  70.092  1.00  0.00     0.000 C 
BRANCH  11  12
ATOM     12  C   UNL     1      32.342  24.252  68.675  1.00  0.00     0.000 C 
BRANCH  12  13
ATOM     13  C   UNL     1      31.232  24.278  67.618  1.00  0.00     0.000 C 
BRANCH  13  14
ATOM     14  C   UNL     1      31.774  24.745  66.261  1.00  0.00     0.002 C 
BRANCH  14  15
ATOM     15  C   UNL     1      30.791  24.414  65.133  1.00  0.00     0.028 C 
BRANCH  15  16
ATOM     16  C   UNL     1      31.087  25.245  63.881  1.00  0.00     0.156 C 
BRANCH  16  17
ATOM     17  O   UNL     1      32.170  26.103  64.114  1.00  0.00    -0.396 OA
ATOM     18  H   UNL     1      32.009  26.533  64.995  1.00  0.00     0.210 HD
ENDBRANCH  16  17
ENDBRANCH  15  16
ENDBRANCH  14  15
ENDBRANCH  13  14
ENDBRANCH  12  13
ENDBRANCH  11  12
ENDBRANCH  10  11
ENDBRANCH   1  10
TORSDOF 15
ENDMDL
MODEL 2
REMARK VINA RESULT:    -4.446      2.286      4.806
REMARK INTER + INTRA:          -9.149
REMARK INTER:                  -8.004
REMARK INTRA:                  -1.145
REMARK UNBOUND:                -0.934
REMARK SMILES CCCCCCCCCCCCCCCCO
REMARK SMILES IDX 9 1 8 2 7 3 6 4 5 5 4 6 3 7 2 8 1 9 10 10 11 11 12 12 13 13
REMARK SMILES IDX 14 14 15 15 16 16 17 17
REMARK H PARENT 17 18
REMARK Flexibility Score: inf
ROOT
ATOM      1  C   UNL     1      33.386  24.213  66.995  1.00  0.00     0.000 C 
ENDROOT
BRANCH   1   2
ATOM      2  C   UNL     1      33.876  23.965  68.429  1.00  0.00    -0.000 C 
BRANCH   2   3
ATOM      3  C   UNL     1      35.297  24.505  68.670  1.00  0.00    -0.000 C 
BRANCH   3   4
ATOM      4  C   UNL     1      35.545  24.902  70.136  1.00  0.00    -0.000 C 
BRANCH   4   5
ATOM      5  C   UNL     1      34.924  26.247  70.558  1.00  0.00    -0.000 C 
BRANCH   5   6
ATOM      6  C   UNL     1      33.746  26.085  71.529  1.00  0.00    -0.000 C 
BRANCH   6   7
ATOM      7  C   UNL     1      32.470  26.708  70.954  1.00  0.00    -0.000 C 
BRANCH   7   8
ATOM      8  C   UNL     1      31.226  25.932  71.403  1.00  0.00    -0.003 C 
ATOM      9  C   UNL     1      31.021  24.680  70.555  1.00  0.00     0.004 C 
ENDBRANCH   7   8
ENDBRANCH   6   7
ENDBRANCH   5   6
ENDBRANCH   4   5
ENDBRANCH   3   4
ENDBRANCH   2   3
ENDBRANCH   1   2
BRANCH   1  10
ATOM     10  C   UNL     1      31.856  24.364  66.912  1.00  0.00     0.000 C 
BRANCH  10  11
ATOM     11  C   UNL     1      31.370  24.672  65.488  1.00  0.00     0.000 C 
BRANCH  11  12
ATOM     12  C   UNL     1      32.527  24.877  64.499  1.00  0.00     0.000 C 
BRANCH  12  13
ATOM     13  C   UNL     1      32.203  25.993  63.499  1.00  0.00     0.000 C 
BRANCH  13  14
ATOM     14  C   UNL     1      30.733  25.933  63.065  1.00  0.00     0.002 C 
BRANCH  14  15
ATOM     15  C   UNL     1      30.205  27.330  62.717  1.00  0.00     0.028 C 
BRANCH  15  16
ATOM     16  C   UNL     1      28.754  27.503  63.177  1.00  0.00     0.156 C 
BRANCH  16  17
ATOM     17  O   UNL     1      28.191  26.256  63.480  1.00  0.00    -0.396 OA
ATOM     18  H   UNL     1      28.005  26.257  64.455  1.00  0.00     0.210 HD
ENDBRANCH  16  17
ENDBRANCH  15  16
ENDBRANCH  14  15
ENDBRANCH  13  14
ENDBRANCH  12  13
ENDBRANCH  11  12
ENDBRANCH  10  11
ENDBRANCH   1  10
TORSDOF 15
ENDMDL
MODEL 3
REMARK VINA RESULT:    -4.423      3.133      7.689
REMARK INTER + INTRA:          -9.106
REMARK INTER:                  -8.146
REMARK INTRA:                  -0.960
REMARK UNBOUND:                -0.934
REMARK SMILES CCCCCCCCCCCCCCCCO
REMARK SMILES IDX 9 1 8 2 7 3 6 4 5 5 4 6 3 7 2 8 1 9 10 10 11 11 12 12 13 13
REMARK SMILES IDX 14 14 15 15 16 16 17 17
REMARK H PARENT 17 18
REMARK Flexibility Score: inf
ROOT
ATOM      1  C   UNL     1      33.301  26.273  71.375  1.00  0.00     0.000 C 
ENDROOT
BRANCH   1   2
ATOM      2  C   UNL     1      32.140  25.961  70.418  1.00  0.00    -0.000 C 
BRANCH   2   3
ATOM      3  C   UNL     1      32.155  24.503  69.927  1.00  0.00    -0.000 C 
BRANCH   3   4
ATOM      4  C   UNL     1      31.973  24.383  68.403  1.00  0.00    -0.000 C 
BRANCH   4   5
ATOM      5  C   UNL     1      33.256  24.044  67.622  1.00  0.00    -0.000 C 
BRANCH   5   6
ATOM      6  C   UNL     1      33.142  24.348  66.121  1.00  0.00    -0.000 C 
BRANCH   6   7
ATOM      7  C   UNL     1      31.704  24.716  65.743  1.00  0.00    -0.000 C 
BRANCH   7   8
ATOM      8  C   UNL     1      31.664  25.501  64.426  1.00  0.00    -0.003 C 
ATOM      9  C   UNL     1      32.626  24.909  63.401  1.00  0.00     0.004 C 
ENDBRANCH   7   8
ENDBRANCH   6   7
ENDBRANCH   5   6
ENDBRANCH   4   5
ENDBRANCH   3   4
ENDBRANCH   2   3
ENDBRANCH   1   2
BRANCH   1  10
ATOM     10  C   UNL     1      34.668  26.263  70.667  1.00  0.00     0.000 C 
BRANCH  10  11
ATOM     11  C   UNL     1      35.380  24.907  70.778  1.00  0.00     0.000 C 
BRANCH  11  12
ATOM     12  C   UNL     1      36.149  24.536  69.500  1.00  0.00     0.000 C 
BRANCH  12  13
ATOM     13  C   UNL     1      37.528  23.959  69.838  1.00  0.00     0.000 C 
BRANCH  13  14
ATOM     14  C   UNL     1      37.764  23.946  71.353  1.00  0.00     0.002 C 
BRANCH  14  15
ATOM     15  C   UNL     1      39.119  24.572  71.705  1.00  0.00     0.028 C 
BRANCH  15  16
ATOM     16  C   UNL     1      39.411  24.452  73.203  1.00  0.00     0.156 C 
BRANCH  16  17
ATOM     17  O   UNL     1      40.188  25.535  73.633  1.00  0.00    -0.396 OA
ATOM     18  H   UNL     1      39.698  25.955  74.388  1.00  0.00     0.210 HD
ENDBRANCH  16  17
ENDBRANCH  15  16
ENDBRANCH  14  15
ENDBRANCH  13  14
ENDBRANCH  12  13
ENDBRANCH  11  12
ENDBRANCH  10  11
ENDBRANCH   1  10
TORSDOF 15
ENDMDL
MODEL 4
REMARK VINA RESULT:    -4.411      1.902      4.000
REMARK INTER + INTRA:          -9.085
REMARK INTER:                  -8.213
REMARK INTRA:                  -0.872
REMARK UNBOUND:                -0.934
REMARK SMILES CCCCCCCCCCCCCCCCO
REMARK SMILES IDX 9 1 8 2 7 3 6 4 5 5 4 6 3 7 2 8 1 9 10 10 11 11 12 12 13 13
REMARK SMILES IDX 14 14 15 15 16 16 17 17
REMARK H PARENT 17 18
REMARK Flexibility Score: inf
ROOT
ATOM      1  C   UNL     1      32.124  24.493  67.930  1.00  0.00     0.000 C 
ENDROOT
BRANCH   1   2
ATOM      2  C   UNL     1      30.878  24.248  68.795  1.00  0.00    -0.000 C 
BRANCH   2   3
ATOM      3  C   UNL     1      31.019  24.830  70.212  1.00  0.00    -0.000 C 
BRANCH   3   4
ATOM      4  C   UNL     1      32.482  24.902  70.686  1.00  0.00    -0.000 C 
BRANCH   4   5
ATOM      5  C   UNL     1      32.989  26.319  71.012  1.00  0.00    -0.000 C 
BRANCH   5   6
ATOM      6  C   UNL     1      34.521  26.420  71.022  1.00  0.00    -0.000 C 
BRANCH   6   7
ATOM      7  C   UNL     1      35.140  25.497  69.967  1.00  0.00    -0.000 C 
BRANCH   7   8
ATOM      8  C   UNL     1      36.163  24.546  70.598  1.00  0.00    -0.003 C 
ATOM      9  C   UNL     1      37.209  24.105  69.579  1.00  0.00     0.004 C 
ENDBRANCH   7   8
ENDBRANCH   6   7
ENDBRANCH   5   6
ENDBRANCH   4   5
ENDBRANCH   3   4
ENDBRANCH   2   3
ENDBRANCH   1   2
BRANCH   1  10
ATOM     10  C   UNL     1      31.868  24.221  66.436  1.00  0.00     0.000 C 
BRANCH  10  11
ATOM     11  C   UNL     1      33.151  24.293  65.595  1.00  0.00     0.000 C 
BRANCH  11  12
ATOM     12  C   UNL     1      32.865  24.414  64.090  1.00  0.00     0.000 C 
BRANCH  12  13
ATOM     13  C   UNL     1      32.443  25.841  63.724  1.00  0.00     0.000 C 
BRANCH  13  14
ATOM     14  C   UNL     1      31.013  25.868  63.170  1.00  0.00     0.002 C 
BRANCH  14  15
ATOM     15  C   UNL     1      30.529  27.308  62.965  1.00  0.00     0.028 C 
BRANCH  15  16
ATOM     16  C   UNL     1      29.000  27.384  62.975  1.00  0.00     0.156 C 
BRANCH  16  17
ATOM     17  O   UNL     1      28.470  26.372  63.785  1.00  0.00    -0.396 OA
ATOM     18  H   UNL     1      27.573  26.154  63.420  1.00  0.00     0.210 HD
ENDBRANCH  16  17
ENDBRANCH  15  16
ENDBRANCH  14  15
ENDBRANCH  13  14
ENDBRANCH  12  13
ENDBRANCH  11  12
ENDBRANCH  10  11
ENDBRANCH   1  10
TORSDOF 15
ENDMDL
MODEL 5
REMARK VINA RESULT:    -4.182      3.008      8.175
REMARK INTER + INTRA:          -8.661
REMARK INTER:                  -7.537
REMARK INTRA:                  -1.124
REMARK UNBOUND:                -0.934
REMARK SMILES CCCCCCCCCCCCCCCCO
REMARK SMILES IDX 9 1 8 2 7 3 6 4 5 5 4 6 3 7 2 8 1 9 10 10 11 11 12 12 13 13
REMARK SMILES IDX 14 14 15 15 16 16 17 17
REMARK H PARENT 17 18
REMARK Flexibility Score: inf
ROOT
ATOM      1  C   UNL     1      31.395  24.579  66.942  1.00  0.00     0.000 C 
ENDROOT
BRANCH   1   2
ATOM      2  C   UNL     1      31.072  24.367  65.455  1.00  0.00    -0.000 C 
BRANCH   2   3
ATOM      3  C   UNL     1      32.327  24.083  64.612  1.00  0.00    -0.000 C 
BRANCH   3   4
ATOM      4  C   UNL     1      32.135  24.414  63.122  1.00  0.00    -0.000 C 
BRANCH   4   5
ATOM      5  C   UNL     1      32.770  25.741  62.666  1.00  0.00    -0.000 C 
BRANCH   5   6
ATOM      6  C   UNL     1      32.071  26.974  63.254  1.00  0.00    -0.000 C 
BRANCH   6   7
ATOM      7  C   UNL     1      30.916  27.432  62.357  1.00  0.00    -0.000 C 
BRANCH   7   8
ATOM      8  C   UNL     1      29.577  27.355  63.100  1.00  0.00    -0.003 C 
ATOM      9  C   UNL     1      28.848  26.051  62.791  1.00  0.00     0.004 C 
ENDBRANCH   7   8
ENDBRANCH   6   7
ENDBRANCH   5   6
ENDBRANCH   4   5
ENDBRANCH   3   4
ENDBRANCH   2   3
ENDBRANCH   1   2
BRANCH   1  10
ATOM     10  C   UNL     1      32.892  24.396  67.251  1.00  0.00     0.000 C 
BRANCH  10  11
ATOM     11  C   UNL     1      33.146  23.969  68.705  1.00  0.00     0.000 C 
BRANCH  11  12
ATOM     12  C   UNL     1      34.508  24.446  69.232  1.00  0.00     0.000 C 
BRANCH  12  13
ATOM     13  C   UNL     1      34.453  24.704  70.742  1.00  0.00     0.000 C 
BRANCH  13  14
ATOM     14  C   UNL     1      34.563  26.203  71.049  1.00  0.00     0.002 C 
BRANCH  14  15
ATOM     15  C   UNL     1      33.261  26.933  70.699  1.00  0.00     0.028 C 
BRANCH  15  16
ATOM     16  C   UNL     1      32.067  26.313  71.431  1.00  0.00     0.156 C 
BRANCH  16  17
ATOM     17  O   UNL     1      30.884  26.973  71.072  1.00  0.00    -0.396 OA
ATOM     18  H   UNL     1      30.707  26.746  70.122  1.00  0.00     0.210 HD
ENDBRANCH  16  17
ENDBRANCH  15  16
ENDBRANCH  14  15
ENDBRANCH  13  14
ENDBRANCH  12  13
ENDBRANCH  11  12
ENDBRANCH  10  11
ENDBRANCH   1  10
TORSDOF 15
ENDMDL
MODEL 6
REMARK VINA RESULT:    -4.078      4.232     10.033
REMARK INTER + INTRA:          -8.469
REMARK INTER:                  -7.360
REMARK INTRA:                  -1.109
REMARK UNBOUND:                -0.934
REMARK SMILES CCCCCCCCCCCCCCCCO
REMARK SMILES IDX 9 1 8 2 7 3 6 4 5 5 4 6 3 7 2 8 1 9 10 10 11 11 12 12 13 13
REMARK SMILES IDX 14 14 15 15 16 16 17 17
REMARK H PARENT 17 18
REMARK Flexibility Score: inf
ROOT
ATOM      1  C   UNL     1      31.840  26.491  63.449  1.00  0.00     0.000 C 
ENDROOT
BRANCH   1   2
ATOM      2  C   UNL     1      30.842  27.083  62.442  1.00  0.00    -0.000 C 
BRANCH   2   3
ATOM      3  C   UNL     1      29.538  27.552  63.109  1.00  0.00    -0.000 C 
BRANCH   3   4
ATOM      4  C   UNL     1      28.456  26.458  63.143  1.00  0.00    -0.000 C 
BRANCH   4   5
ATOM      5  C   UNL     1      28.771  25.209  62.299  1.00  0.00    -0.000 C 
BRANCH   5   6
ATOM      6  C   UNL     1      27.524  24.372  61.977  1.00  0.00    -0.000 C 
BRANCH   6   7
ATOM      7  C   UNL     1      26.247  25.203  62.144  1.00  0.00    -0.000 C 
BRANCH   7   8
ATOM      8  C   UNL     1      25.015  24.300  62.271  1.00  0.00    -0.003 C 
ATOM      9  C   UNL     1      24.023  24.859  63.286  1.00  0.00     0.004 C 
ENDBRANCH   7   8
ENDBRANCH   6   7
ENDBRANCH   5   6
ENDBRANCH   4   5
ENDBRANCH   3   4
ENDBRANCH   2   3
ENDBRANCH   1   2
BRANCH   1  10
ATOM     10  C   UNL     1      32.420  25.144  62.981  1.00  0.00     0.000 C 
BRANCH  10  11
ATOM     11  C   UNL     1      32.445  24.091  64.099  1.00  0.00     0.000 C 
BRANCH  11  12
ATOM     12  C   UNL     1      32.181  24.696  65.487  1.00  0.00     0.000 C 
BRANCH  12  13
ATOM     13  C   UNL     1      30.787  24.313  65.996  1.00  0.00     0.000 C 
BRANCH  13  14
ATOM     14  C   UNL     1      30.788  24.132  67.520  1.00  0.00     0.002 C 
BRANCH  14  15
ATOM     15  C   UNL     1      32.165  24.454  68.111  1.00  0.00     0.028 C 
BRANCH  15  16
ATOM     16  C   UNL     1      32.080  24.669  69.624  1.00  0.00     0.156 C 
BRANCH  16  17
ATOM     17  O   UNL     1      31.032  25.547  69.931  1.00  0.00    -0.396 OA
ATOM     18  H   UNL     1      30.968  25.580  70.921  1.00  0.00     0.210 HD
ENDBRANCH  16  17
ENDBRANCH  15  16
ENDBRANCH  14  15
ENDBRANCH  13  14
ENDBRANCH  12  13
ENDBRANCH  11  12
ENDBRANCH  10  11
ENDBRANCH   1  10
TORSDOF 15
ENDMDL
MODEL 7
REMARK VINA RESULT:    -4.058      7.318     11.033
REMARK INTER + INTRA:          -8.432
REMARK INTER:                  -7.491
REMARK INTRA:                  -0.941
REMARK UNBOUND:                -0.934
REMARK SMILES CCCCCCCCCCCCCCCCO
REMARK SMILES IDX 9 1 8 2 7 3 6 4 5 5 4 6 3 7 2 8 1 9 10 10 11 11 12 12 13 13
REMARK SMILES IDX 14 14 15 15 16 16 17 17
REMARK H PARENT 17 18
REMARK Flexibility Score: inf
ROOT
ATOM      1  C   UNL     1      29.928  27.138  62.784  1.00  0.00     0.000 C 
ENDROOT
BRANCH   1   2
ATOM      2  C   UNL     1      28.702  26.496  63.451  1.00  0.00    -0.000 C 
BRANCH   2   3
ATOM      3  C   UNL     1      27.631  26.070  62.432  1.00  0.00    -0.000 C 
BRANCH   3   4
ATOM      4  C   UNL     1      27.745  24.589  62.029  1.00  0.00    -0.000 C 
BRANCH   4   5
ATOM      5  C   UNL     1      26.401  23.876  61.790  1.00  0.00    -0.000 C 
BRANCH   5   6
ATOM      6  C   UNL     1      25.278  24.837  61.376  1.00  0.00    -0.000 C 
BRANCH   6   7
ATOM      7  C   UNL     1      23.916  24.338  61.872  1.00  0.00    -0.000 C 
BRANCH   7   8
ATOM      8  C   UNL     1      23.966  23.999  63.367  1.00  0.00    -0.003 C 
ATOM      9  C   UNL     1      23.105  24.961  64.179  1.00  0.00     0.004 C 
ENDBRANCH   7   8
ENDBRANCH   6   7
ENDBRANCH   5   6
ENDBRANCH   4   5
ENDBRANCH   3   4
ENDBRANCH   2   3
ENDBRANCH   1   2
BRANCH   1  10
ATOM     10  C   UNL     1      31.240  26.420  63.149  1.00  0.00     0.000 C 
BRANCH  10  11
ATOM     11  C   UNL     1      31.003  25.024  63.743  1.00  0.00     0.000 C 
BRANCH  11  12
ATOM     12  C   UNL     1      32.240  24.118  63.637  1.00  0.00     0.000 C 
BRANCH  12  13
ATOM     13  C   UNL     1      33.431  24.883  63.049  1.00  0.00     0.000 C 
BRANCH  13  14
ATOM     14  C   UNL     1      34.410  23.927  62.355  1.00  0.00     0.002 C 
BRANCH  14  15
ATOM     15  C   UNL     1      34.493  24.220  60.852  1.00  0.00     0.028 C 
BRANCH  15  16
ATOM     16  C   UNL     1      35.939  24.477  60.419  1.00  0.00     0.156 C 
BRANCH  16  17
ATOM     17  O   UNL     1      35.972  24.963  59.105  1.00  0.00    -0.396 OA
ATOM     18  H   UNL     1      35.202  24.554  58.630  1.00  0.00     0.210 HD
ENDBRANCH  16  17
ENDBRANCH  15  16
ENDBRANCH  14  15
ENDBRANCH  13  14
ENDBRANCH  12  13
ENDBRANCH  11  12
ENDBRANCH  10  11
ENDBRANCH   1  10
TORSDOF 15
ENDMDL
MODEL 8
REMARK VINA RESULT:    -4.050      2.738      5.127
REMARK INTER + INTRA:          -8.417
REMARK INTER:                  -7.185
REMARK INTRA:                  -1.232
REMARK UNBOUND:                -0.934
REMARK SMILES CCCCCCCCCCCCCCCCO
REMARK SMILES IDX 9 1 8 2 7 3 6 4 5 5 4 6 3 7 2 8 1 9 10 10 11 11 12 12 13 13
REMARK SMILES IDX 14 14 15 15 16 16 17 17
REMARK H PARENT 17 18
REMARK Flexibility Score: inf
ROOT
ATOM      1  C   UNL     1      31.846  24.987  65.988  1.00  0.00     0.000 C 
ENDROOT
BRANCH   1   2
ATOM      2  C   UNL     1      31.306  24.091  67.113  1.00  0.00    -0.000 C 
BRANCH   2   3
ATOM      3  C   UNL     1      32.269  24.001  68.310  1.00  0.00    -0.000 C 
BRANCH   3   4
ATOM      4  C   UNL     1      33.730  24.295  67.926  1.00  0.00    -0.000 C 
BRANCH   4   5
ATOM      5  C   UNL     1      34.675  24.547  69.115  1.00  0.00    -0.000 C 
BRANCH   5   6
ATOM      6  C   UNL     1      33.936  24.661  70.455  1.00  0.00    -0.000 C 
BRANCH   6   7
ATOM      7  C   UNL     1      34.049  26.080  71.026  1.00  0.00    -0.000 C 
BRANCH   7   8
ATOM      8  C   UNL     1      32.702  26.809  70.960  1.00  0.00    -0.003 C 
ATOM      9  C   UNL     1      31.554  25.884  71.353  1.00  0.00     0.004 C 
ENDBRANCH   7   8
ENDBRANCH   6   7
ENDBRANCH   5   6
ENDBRANCH   4   5
ENDBRANCH   3   4
ENDBRANCH   2   3
ENDBRANCH   1   2
BRANCH   1  10
ATOM     10  C   UNL     1      31.851  24.278  64.622  1.00  0.00     0.000 C 
BRANCH  10  11
ATOM     11  C   UNL     1      33.125  24.563  63.813  1.00  0.00     0.000 C 
BRANCH  11  12
ATOM     12  C   UNL     1      32.871  25.490  62.615  1.00  0.00     0.000 C 
BRANCH  12  13
ATOM     13  C   UNL     1      32.253  26.817  63.068  1.00  0.00     0.000 C 
BRANCH  13  14
ATOM     14  C   UNL     1      31.074  27.211  62.169  1.00  0.00     0.002 C 
BRANCH  14  15
ATOM     15  C   UNL     1      29.826  27.519  63.004  1.00  0.00     0.028 C 
BRANCH  15  16
ATOM     16  C   UNL     1      28.929  26.284  63.133  1.00  0.00     0.156 C 
BRANCH  16  17
ATOM     17  O   UNL     1      29.324  25.301  62.216  1.00  0.00    -0.396 OA
ATOM     18  H   UNL     1      30.057  24.787  62.646  1.00  0.00     0.210 HD
ENDBRANCH  16  17
ENDBRANCH  15  16
ENDBRANCH  14  15
ENDBRANCH  13  14
ENDBRANCH  12  13
ENDBRANCH  11  12
ENDBRANCH  10  11
ENDBRANCH   1  10
TORSDOF 15
ENDMDL
MODEL 9
REMARK VINA RESULT:    -4.046      6.146      8.927
REMARK INTER + INTRA:          -8.409
REMARK INTER:                  -7.324
REMARK INTRA:                  -1.086
REMARK UNBOUND:                -0.934
REMARK SMILES CCCCCCCCCCCCCCCCO
REMARK SMILES IDX 9 1 8 2 7 3 6 4 5 5 4 6 3 7 2 8 1 9 10 10 11 11 12 12 13 13
REMARK SMILES IDX 14 14 15 15 16 16 17 17
REMARK H PARENT 17 18
REMARK Flexibility Score: inf
ROOT
ATOM      1  C   UNL     1      29.012  27.347  62.886  1.00  0.00     0.000 C 
ENDROOT
BRANCH   1   2
ATOM      2  C   UNL     1      30.434  27.537  63.433  1.00  0.00    -0.000 C 
BRANCH   2   3
ATOM      3  C   UNL     1      31.517  27.249  62.379  1.00  0.00    -0.000 C 
BRANCH   3   4
ATOM      4  C   UNL     1      32.730  26.499  62.956  1.00  0.00    -0.000 C 
BRANCH   4   5
ATOM      5  C   UNL     1      32.758  24.988  62.662  1.00  0.00    -0.000 C 
BRANCH   5   6
ATOM      6  C   UNL     1      32.806  24.130  63.934  1.00  0.00    -0.000 C 
BRANCH   6   7
ATOM      7  C   UNL     1      31.475  24.197  64.692  1.00  0.00    -0.000 C 
BRANCH   7   8
ATOM      8  C   UNL     1      31.692  24.626  66.148  1.00  0.00    -0.003 C 
ATOM      9  C   UNL     1      30.497  24.248  67.018  1.00  0.00     0.004 C 
ENDBRANCH   7   8
ENDBRANCH   6   7
ENDBRANCH   5   6
ENDBRANCH   4   5
ENDBRANCH   3   4
ENDBRANCH   2   3
ENDBRANCH   1   2
BRANCH   1  10
ATOM     10  C   UNL     1      28.623  25.862  62.759  1.00  0.00     0.000 C 
BRANCH  10  11
ATOM     11  C   UNL     1      27.148  25.669  62.375  1.00  0.00     0.000 C 
BRANCH  11  12
ATOM     12  C   UNL     1      26.843  24.241  61.898  1.00  0.00     0.000 C 
BRANCH  12  13
ATOM     13  C   UNL     1      25.393  24.121  61.416  1.00  0.00     0.000 C 
BRANCH  13  14
ATOM     14  C   UNL     1      24.459  24.999  62.258  1.00  0.00     0.002 C 
BRANCH  14  15
ATOM     15  C   UNL     1      23.656  24.151  63.252  1.00  0.00     0.028 C 
BRANCH  15  16
ATOM     16  C   UNL     1      22.623  25.003  63.996  1.00  0.00     0.156 C 
BRANCH  16  17
ATOM     17  O   UNL     1      22.003  24.246  64.999  1.00  0.00    -0.396 OA
ATOM     18  H   UNL     1      21.035  24.462  64.962  1.00  0.00     0.210 HD
ENDBRANCH  16  17
ENDBRANCH  15  16
ENDBRANCH  14  15
ENDBRANCH  13  14
ENDBRANCH  12  13
ENDBRANCH  11  12
ENDBRANCH  10  11
ENDBRANCH   1  10
TORSDOF 15
ENDMDL
