MODEL 1
REMARK VINA RESULT:    -7.068      0.000      0.000
REMARK INTER + INTRA:         -18.853
REMARK INTER:                 -16.778
REMARK INTRA:                  -2.076
REMARK UNBOUND:                -2.076
REMARK SMILES O=C(OC[C@H]1O[C@H](OC(=O)c2cc(O)c(O)c(O)c2)[C@H](OC(=O)c2cc(O)c(O)c(O)c2)[C@@H](OC(=O)c2cc(O)c(O)c(O)c2)[C@H]1OC(=O)c1cc(O)c(O)c(O)c1)c1cc(O)c(O)c(O)c1
REMARK SMILES IDX 5 1 46 2 33 3 20 4 7 5 6 6 4 7 3 8 2 9 1 10 59 11 60 12
REMARK SMILES IDX 61 13 67 14 63 15 65 16 62 17 64 19 66 21 47 23 48 24 49 25
REMARK SMILES IDX 50 26 58 27 51 28 56 29 52 30 54 31 57 32 53 34 55 36 34 38
REMARK SMILES IDX 35 39 36 40 37 41 45 42 38 43 43 44 39 45 41 46 44 47 40 49
REMARK SMILES IDX 42 51 8 53 9 54 10 55 11 56 19 57 12 58 17 59 13 60 15 61
REMARK SMILES IDX 18 62 14 64 16 66 21 68 22 69 23 70 24 71 32 72 25 73 30 74
REMARK SMILES IDX 26 75 28 76 31 77 27 79 29 81
REMARK H PARENT 62 18 64 20 66 22 57 33 53 35 55 37 44 48 40 50 42 52 18 63
REMARK H PARENT 14 65 16 67 31 78 27 80 29 82
REMARK Flexibility Score: inf
ROOT
ATOM      1  C   UNL     1      70.267  44.498   8.527  1.00  0.00     0.205 C 
ATOM      2  C   UNL     1      70.991  43.458   7.651  1.00  0.00     0.254 C 
ATOM      3  C   UNL     1      72.239  44.134   7.073  1.00  0.00     0.267 C 
ATOM      4  C   UNL     1      73.121  44.661   8.220  1.00  0.00     0.290 C 
ATOM      5  C   UNL     1      72.272  45.547   9.161  1.00  0.00     0.357 C 
ATOM      6  O   UNL     1      71.098  44.883   9.613  1.00  0.00    -0.329 OA
ENDROOT
BRANCH   1   7
ATOM      7  C   UNL     1      68.929  43.970   9.076  1.00  0.00     0.269 C 
BRANCH   7   8
ATOM      8  O   UNL     1      67.910  44.154   8.099  1.00  0.00    -0.459 OA
BRANCH   8   9
ATOM      9  C   UNL     1      66.855  43.245   7.934  1.00  0.00     0.338 C 
ATOM     10  O   UNL     1      67.087  42.089   7.477  1.00  0.00    -0.246 OA
BRANCH   9  11
ATOM     11  C   UNL     1      65.473  43.650   8.262  1.00  0.00     0.067 A 
ATOM     12  C   UNL     1      64.449  42.695   8.308  1.00  0.00     0.066 A 
ATOM     13  C   UNL     1      63.128  43.069   8.565  1.00  0.00     0.162 A 
ATOM     14  C   UNL     1      65.161  45.006   8.490  1.00  0.00     0.066 A 
ATOM     15  C   UNL     1      62.811  44.435   8.757  1.00  0.00     0.200 A 
ATOM     16  C   UNL     1      63.838  45.395   8.723  1.00  0.00     0.162 A 
BRANCH  13  17
ATOM     17  O   UNL     1      62.170  42.057   8.633  1.00  0.00    -0.504 OA
ATOM     18  H   UNL     1      62.006  41.395   7.894  1.00  0.00     0.293 HD
ENDBRANCH  13  17
BRANCH  15  19
ATOM     19  O   UNL     1      61.498  44.867   8.975  1.00  0.00    -0.502 OA
ATOM     20  H   UNL     1      61.009  44.787   9.853  1.00  0.00     0.293 HD
ENDBRANCH  15  19
BRANCH  16  21
ATOM     21  O   UNL     1      63.564  46.750   8.917  1.00  0.00    -0.504 OA
ATOM     22  H   UNL     1      62.711  47.068   9.359  1.00  0.00     0.293 HD
ENDBRANCH  16  21
ENDBRANCH   9  11
ENDBRANCH   8   9
ENDBRANCH   7   8
ENDBRANCH   1   7
BRANCH   2  23
ATOM     23  O   UNL     1      71.394  42.339   8.442  1.00  0.00    -0.452 OA
BRANCH  23  24
ATOM     24  C   UNL     1      70.551  41.271   8.783  1.00  0.00     0.338 C 
ATOM     25  O   UNL     1      70.180  41.124   9.975  1.00  0.00    -0.246 OA
BRANCH  24  26
ATOM     26  C   UNL     1      70.093  40.340   7.729  1.00  0.00     0.067 A 
ATOM     27  C   UNL     1      69.553  39.083   8.062  1.00  0.00     0.066 A 
ATOM     28  C   UNL     1      70.243  40.680   6.375  1.00  0.00     0.066 A 
ATOM     29  C   UNL     1      69.183  38.175   7.056  1.00  0.00     0.162 A 
ATOM     30  C   UNL     1      69.866  39.783   5.369  1.00  0.00     0.162 A 
ATOM     31  C   UNL     1      69.338  38.528   5.705  1.00  0.00     0.200 A 
BRANCH  29  32
ATOM     32  O   UNL     1      68.671  36.925   7.393  1.00  0.00    -0.504 OA
ATOM     33  H   UNL     1      69.235  36.086   7.326  1.00  0.00     0.293 HD
ENDBRANCH  29  32
BRANCH  30  34
ATOM     34  O   UNL     1      70.033  40.157   4.038  1.00  0.00    -0.504 OA
ATOM     35  H   UNL     1      69.730  39.567   3.270  1.00  0.00     0.293 HD
ENDBRANCH  30  34
BRANCH  31  36
ATOM     36  O   UNL     1      68.980  37.645   4.687  1.00  0.00    -0.502 OA
ATOM     37  H   UNL     1      69.637  36.989   4.284  1.00  0.00     0.293 HD
ENDBRANCH  31  36
ENDBRANCH  24  26
ENDBRANCH  23  24
ENDBRANCH   2  23
BRANCH   3  38
ATOM     38  O   UNL     1      72.960  43.222   6.244  1.00  0.00    -0.450 OA
BRANCH  38  39
ATOM     39  C   UNL     1      73.768  42.203   6.767  1.00  0.00     0.338 C 
ATOM     40  O   UNL     1      74.596  42.461   7.683  1.00  0.00    -0.246 OA
BRANCH  39  41
ATOM     41  C   UNL     1      73.638  40.818   6.261  1.00  0.00     0.067 A 
ATOM     42  C   UNL     1      73.564  40.571   4.879  1.00  0.00     0.066 A 
ATOM     43  C   UNL     1      73.593  39.737   7.155  1.00  0.00     0.066 A 
ATOM     44  C   UNL     1      73.440  39.265   4.397  1.00  0.00     0.162 A 
ATOM     45  C   UNL     1      73.465  38.426   6.686  1.00  0.00     0.162 A 
ATOM     46  C   UNL     1      73.377  38.184   5.290  1.00  0.00     0.200 A 
BRANCH  44  47
ATOM     47  O   UNL     1      73.381  39.038   3.021  1.00  0.00    -0.504 OA
ATOM     48  H   UNL     1      73.198  39.793   2.363  1.00  0.00     0.293 HD
ENDBRANCH  44  47
BRANCH  45  49
ATOM     49  O   UNL     1      73.426  37.402   7.633  1.00  0.00    -0.504 OA
ATOM     50  H   UNL     1      74.246  36.962   8.026  1.00  0.00     0.293 HD
ENDBRANCH  45  49
BRANCH  46  51
ATOM     51  O   UNL     1      73.225  36.903   4.752  1.00  0.00    -0.502 OA
ATOM     52  H   UNL     1      73.898  36.472   4.128  1.00  0.00     0.293 HD
ENDBRANCH  46  51
ENDBRANCH  39  41
ENDBRANCH  38  39
ENDBRANCH   3  38
BRANCH   5  53
ATOM     53  O   UNL     1      71.947  46.781   8.525  1.00  0.00    -0.428 OA
BRANCH  53  54
ATOM     54  C   UNL     1      71.241  47.810   9.158  1.00  0.00     0.340 C 
ATOM     55  O   UNL     1      71.808  48.555   9.998  1.00  0.00    -0.246 OA
BRANCH  54  56
ATOM     56  C   UNL     1      69.822  48.021   8.827  1.00  0.00     0.067 A 
ATOM     57  C   UNL     1      69.236  47.369   7.735  1.00  0.00     0.066 A 
ATOM     58  C   UNL     1      69.041  48.872   9.617  1.00  0.00     0.066 A 
ATOM     59  C   UNL     1      67.875  47.531   7.445  1.00  0.00     0.162 A 
ATOM     60  C   UNL     1      67.691  49.071   9.329  1.00  0.00     0.162 A 
ATOM     61  C   UNL     1      67.087  48.391   8.251  1.00  0.00     0.200 A 
BRANCH  59  62
ATOM     62  O   UNL     1      67.358  46.817   6.358  1.00  0.00    -0.504 OA
ATOM     63  H   UNL     1      67.284  45.807   6.328  1.00  0.00     0.293 HD
ENDBRANCH  59  62
BRANCH  60  64
ATOM     64  O   UNL     1      66.964  49.957  10.125  1.00  0.00    -0.504 OA
ATOM     65  H   UNL     1      66.861  50.936   9.881  1.00  0.00     0.293 HD
ENDBRANCH  60  64
BRANCH  61  66
ATOM     66  O   UNL     1      65.718  48.587   8.015  1.00  0.00    -0.502 OA
ATOM     67  H   UNL     1      65.220  49.438   8.240  1.00  0.00     0.293 HD
ENDBRANCH  61  66
ENDBRANCH  54  56
ENDBRANCH  53  54
ENDBRANCH   5  53
BRANCH   4  68
ATOM     68  O   UNL     1      74.183  45.457   7.699  1.00  0.00    -0.448 OA
BRANCH  68  69
ATOM     69  C   UNL     1      74.010  46.718   7.122  1.00  0.00     0.339 C 
ATOM     70  O   UNL     1      74.429  47.752   7.714  1.00  0.00    -0.246 OA
BRANCH  69  71
ATOM     71  C   UNL     1      73.320  46.835   5.820  1.00  0.00     0.067 A 
ATOM     72  C   UNL     1      72.397  47.862   5.583  1.00  0.00     0.066 A 
ATOM     73  C   UNL     1      73.590  45.916   4.793  1.00  0.00     0.066 A 
ATOM     74  C   UNL     1      71.761  47.982   4.339  1.00  0.00     0.162 A 
ATOM     75  C   UNL     1      72.965  46.029   3.548  1.00  0.00     0.162 A 
ATOM     76  C   UNL     1      72.047  47.064   3.315  1.00  0.00     0.200 A 
BRANCH  74  77
ATOM     77  O   UNL     1      70.854  49.017   4.112  1.00  0.00    -0.504 OA
ATOM     78  H   UNL     1      71.164  49.949   3.857  1.00  0.00     0.293 HD
ENDBRANCH  74  77
BRANCH  75  79
ATOM     79  O   UNL     1      73.270  45.102   2.550  1.00  0.00    -0.504 OA
ATOM     80  H   UNL     1      72.590  44.441   2.200  1.00  0.00     0.293 HD
ENDBRANCH  75  79
BRANCH  76  81
ATOM     81  O   UNL     1      71.427  47.170   2.068  1.00  0.00    -0.502 OA
ATOM     82  H   UNL     1      71.715  46.623   1.271  1.00  0.00     0.293 HD
ENDBRANCH  76  81
ENDBRANCH  69  71
ENDBRANCH  68  69
ENDBRANCH   4  68
TORSDOF 31
ENDMDL
MODEL 2
REMARK VINA RESULT:    -7.063      0.389      2.095
REMARK INTER + INTRA:         -18.842
REMARK INTER:                 -17.223
REMARK INTRA:                  -1.619
REMARK UNBOUND:                -2.076
REMARK SMILES O=C(OC[C@H]1O[C@H](OC(=O)c2cc(O)c(O)c(O)c2)[C@H](OC(=O)c2cc(O)c(O)c(O)c2)[C@@H](OC(=O)c2cc(O)c(O)c(O)c2)[C@H]1OC(=O)c1cc(O)c(O)c(O)c1)c1cc(O)c(O)c(O)c1
REMARK SMILES IDX 5 1 46 2 33 3 20 4 7 5 6 6 4 7 3 8 2 9 1 10 59 11 60 12
REMARK SMILES IDX 61 13 67 14 63 15 65 16 62 17 64 19 66 21 47 23 48 24 49 25
REMARK SMILES IDX 50 26 58 27 51 28 56 29 52 30 54 31 57 32 53 34 55 36 34 38
REMARK SMILES IDX 35 39 36 40 37 41 45 42 38 43 43 44 39 45 41 46 44 47 40 49
REMARK SMILES IDX 42 51 8 53 9 54 10 55 11 56 19 57 12 58 17 59 13 60 15 61
REMARK SMILES IDX 18 62 14 64 16 66 21 68 22 69 23 70 24 71 32 72 25 73 30 74
REMARK SMILES IDX 26 75 28 76 31 77 27 79 29 81
REMARK H PARENT 62 18 64 20 66 22 57 33 53 35 55 37 44 48 40 50 42 52 18 63
REMARK H PARENT 14 65 16 67 31 78 27 80 29 82
REMARK Flexibility Score: inf
ROOT
ATOM      1  C   UNL     1      70.317  44.457   8.651  1.00  0.00     0.205 C 
ATOM      2  C   UNL     1      71.011  43.437   7.730  1.00  0.00     0.254 C 
ATOM      3  C   UNL     1      72.216  44.137   7.093  1.00  0.00     0.267 C 
ATOM      4  C   UNL     1      73.148  44.669   8.198  1.00  0.00     0.290 C 
ATOM      5  C   UNL     1      72.336  45.533   9.190  1.00  0.00     0.357 C 
ATOM      6  O   UNL     1      71.198  44.847   9.696  1.00  0.00    -0.329 OA
ENDROOT
BRANCH   1   7
ATOM      7  C   UNL     1      69.018  43.904   9.264  1.00  0.00     0.269 C 
BRANCH   7   8
ATOM      8  O   UNL     1      67.914  44.257   8.437  1.00  0.00    -0.459 OA
BRANCH   8   9
ATOM      9  C   UNL     1      66.901  43.346   8.108  1.00  0.00     0.338 C 
ATOM     10  O   UNL     1      67.202  42.210   7.640  1.00  0.00    -0.246 OA
BRANCH   9  11
ATOM     11  C   UNL     1      65.483  43.726   8.278  1.00  0.00     0.067 A 
ATOM     12  C   UNL     1      65.126  45.073   8.428  1.00  0.00     0.066 A 
ATOM     13  C   UNL     1      63.796  45.443   8.641  1.00  0.00     0.162 A 
ATOM     14  C   UNL     1      64.481  42.736   8.335  1.00  0.00     0.066 A 
ATOM     15  C   UNL     1      62.796  44.447   8.735  1.00  0.00     0.200 A 
ATOM     16  C   UNL     1      63.149  43.094   8.574  1.00  0.00     0.162 A 
BRANCH  13  17
ATOM     17  O   UNL     1      63.513  46.806   8.742  1.00  0.00    -0.504 OA
ATOM     18  H   UNL     1      62.611  47.204   8.544  1.00  0.00     0.293 HD
ENDBRANCH  13  17
BRANCH  15  19
ATOM     19  O   UNL     1      61.458  44.761   8.990  1.00  0.00    -0.502 OA
ATOM     20  H   UNL     1      61.150  45.443   9.667  1.00  0.00     0.293 HD
ENDBRANCH  15  19
BRANCH  16  21
ATOM     21  O   UNL     1      62.190  42.085   8.650  1.00  0.00    -0.504 OA
ATOM     22  H   UNL     1      61.542  42.017   9.426  1.00  0.00     0.293 HD
ENDBRANCH  16  21
ENDBRANCH   9  11
ENDBRANCH   8   9
ENDBRANCH   7   8
ENDBRANCH   1   7
BRANCH   2  23
ATOM     23  O   UNL     1      71.471  42.317   8.488  1.00  0.00    -0.452 OA
BRANCH  23  24
ATOM     24  C   UNL     1      70.679  41.210   8.819  1.00  0.00     0.338 C 
ATOM     25  O   UNL     1      70.377  40.992  10.021  1.00  0.00    -0.246 OA
BRANCH  24  26
ATOM     26  C   UNL     1      70.188  40.318   7.745  1.00  0.00     0.067 A 
ATOM     27  C   UNL     1      69.579  39.087   8.052  1.00  0.00     0.066 A 
ATOM     28  C   UNL     1      70.377  40.668   6.399  1.00  0.00     0.066 A 
ATOM     29  C   UNL     1      69.178  38.213   7.028  1.00  0.00     0.162 A 
ATOM     30  C   UNL     1      69.969  39.806   5.375  1.00  0.00     0.162 A 
ATOM     31  C   UNL     1      69.371  38.576   5.685  1.00  0.00     0.200 A 
BRANCH  29  32
ATOM     32  O   UNL     1      68.596  36.987   7.340  1.00  0.00    -0.504 OA
ATOM     33  H   UNL     1      69.159  36.158   7.493  1.00  0.00     0.293 HD
ENDBRANCH  29  32
BRANCH  30  34
ATOM     34  O   UNL     1      70.176  40.189   4.052  1.00  0.00    -0.504 OA
ATOM     35  H   UNL     1      70.731  41.003   3.806  1.00  0.00     0.293 HD
ENDBRANCH  30  34
BRANCH  31  36
ATOM     36  O   UNL     1      68.984  37.727   4.649  1.00  0.00    -0.502 OA
ATOM     37  H   UNL     1      68.307  38.001   3.949  1.00  0.00     0.293 HD
ENDBRANCH  31  36
ENDBRANCH  24  26
ENDBRANCH  23  24
ENDBRANCH   2  23
BRANCH   3  38
ATOM     38  O   UNL     1      72.907  43.244   6.220  1.00  0.00    -0.450 OA
BRANCH  38  39
ATOM     39  C   UNL     1      73.740  42.220   6.691  1.00  0.00     0.338 C 
ATOM     40  O   UNL     1      74.381  42.373   7.767  1.00  0.00    -0.246 OA
BRANCH  39  41
ATOM     41  C   UNL     1      73.855  40.950   5.941  1.00  0.00     0.067 A 
ATOM     42  C   UNL     1      73.771  39.718   6.612  1.00  0.00     0.066 A 
ATOM     43  C   UNL     1      74.044  40.962   4.549  1.00  0.00     0.066 A 
ATOM     44  C   UNL     1      73.880  38.516   5.908  1.00  0.00     0.162 A 
ATOM     45  C   UNL     1      74.159  39.766   3.833  1.00  0.00     0.162 A 
ATOM     46  C   UNL     1      74.086  38.525   4.519  1.00  0.00     0.200 A 
BRANCH  44  47
ATOM     47  O   UNL     1      73.781  37.302   6.591  1.00  0.00    -0.504 OA
ATOM     48  H   UNL     1      74.145  37.190   7.534  1.00  0.00     0.293 HD
ENDBRANCH  44  47
BRANCH  45  49
ATOM     49  O   UNL     1      74.346  39.855   2.454  1.00  0.00    -0.504 OA
ATOM     50  H   UNL     1      75.107  39.417   1.956  1.00  0.00     0.293 HD
ENDBRANCH  45  49
BRANCH  46  51
ATOM     51  O   UNL     1      74.215  37.294   3.872  1.00  0.00    -0.502 OA
ATOM     52  H   UNL     1      74.349  36.414   4.358  1.00  0.00     0.293 HD
ENDBRANCH  46  51
ENDBRANCH  39  41
ENDBRANCH  38  39
ENDBRANCH   3  38
BRANCH   5  53
ATOM     53  O   UNL     1      71.958  46.767   8.582  1.00  0.00    -0.428 OA
BRANCH  53  54
ATOM     54  C   UNL     1      71.187  47.739   9.229  1.00  0.00     0.340 C 
ATOM     55  O   UNL     1      71.689  48.465  10.125  1.00  0.00    -0.246 OA
BRANCH  54  56
ATOM     56  C   UNL     1      69.776  47.912   8.848  1.00  0.00     0.067 A 
ATOM     57  C   UNL     1      68.931  48.749   9.586  1.00  0.00     0.066 A 
ATOM     58  C   UNL     1      69.270  47.244   7.727  1.00  0.00     0.066 A 
ATOM     59  C   UNL     1      67.600  48.953   9.200  1.00  0.00     0.162 A 
ATOM     60  C   UNL     1      67.940  47.410   7.340  1.00  0.00     0.162 A 
ATOM     61  C   UNL     1      67.093  48.278   8.060  1.00  0.00     0.200 A 
BRANCH  59  62
ATOM     62  O   UNL     1      66.832  49.832   9.970  1.00  0.00    -0.504 OA
ATOM     63  H   UNL     1      65.826  49.929   9.885  1.00  0.00     0.293 HD
ENDBRANCH  59  62
BRANCH  60  64
ATOM     64  O   UNL     1      67.474  46.694   6.236  1.00  0.00    -0.504 OA
ATOM     65  H   UNL     1      67.994  46.653   5.365  1.00  0.00     0.293 HD
ENDBRANCH  60  64
BRANCH  61  66
ATOM     66  O   UNL     1      65.772  48.447   7.619  1.00  0.00    -0.502 OA
ATOM     67  H   UNL     1      65.268  47.768   7.064  1.00  0.00     0.293 HD
ENDBRANCH  61  66
ENDBRANCH  54  56
ENDBRANCH  53  54
ENDBRANCH   5  53
BRANCH   4  68
ATOM     68  O   UNL     1      74.169  45.486   7.629  1.00  0.00    -0.448 OA
BRANCH  68  69
ATOM     69  C   UNL     1      73.945  46.745   7.063  1.00  0.00     0.339 C 
ATOM     70  O   UNL     1      74.276  47.791   7.688  1.00  0.00    -0.246 OA
BRANCH  69  71
ATOM     71  C   UNL     1      73.303  46.842   5.735  1.00  0.00     0.067 A 
ATOM     72  C   UNL     1      73.570  45.899   4.735  1.00  0.00     0.066 A 
ATOM     73  C   UNL     1      72.404  47.885   5.461  1.00  0.00     0.066 A 
ATOM     74  C   UNL     1      72.942  45.983   3.483  1.00  0.00     0.162 A 
ATOM     75  C   UNL     1      71.770  47.976   4.218  1.00  0.00     0.162 A 
ATOM     76  C   UNL     1      72.035  47.024   3.223  1.00  0.00     0.200 A 
BRANCH  74  77
ATOM     77  O   UNL     1      73.207  45.029   2.500  1.00  0.00    -0.504 OA
ATOM     78  H   UNL     1      72.933  44.059   2.614  1.00  0.00     0.293 HD
ENDBRANCH  74  77
BRANCH  75  79
ATOM     79  O   UNL     1      70.873  49.021   3.990  1.00  0.00    -0.504 OA
ATOM     80  H   UNL     1      70.943  49.908   4.471  1.00  0.00     0.293 HD
ENDBRANCH  75  79
BRANCH  76  81
ATOM     81  O   UNL     1      71.398  47.121   1.985  1.00  0.00    -0.502 OA
ATOM     82  H   UNL     1      70.895  46.350   1.571  1.00  0.00     0.293 HD
ENDBRANCH  76  81
ENDBRANCH  69  71
ENDBRANCH  68  69
ENDBRANCH   4  68
TORSDOF 31
ENDMDL
MODEL 3
REMARK VINA RESULT:    -6.573      1.305      2.142
REMARK INTER + INTRA:         -17.678
REMARK INTER:                 -14.076
REMARK INTRA:                  -3.602
REMARK UNBOUND:                -2.076
REMARK SMILES O=C(OC[C@H]1O[C@H](OC(=O)c2cc(O)c(O)c(O)c2)[C@H](OC(=O)c2cc(O)c(O)c(O)c2)[C@@H](OC(=O)c2cc(O)c(O)c(O)c2)[C@H]1OC(=O)c1cc(O)c(O)c(O)c1)c1cc(O)c(O)c(O)c1
REMARK SMILES IDX 5 1 46 2 33 3 20 4 7 5 6 6 4 7 3 8 2 9 1 10 59 11 60 12
REMARK SMILES IDX 61 13 67 14 63 15 65 16 62 17 64 19 66 21 47 23 48 24 49 25
REMARK SMILES IDX 50 26 58 27 51 28 56 29 52 30 54 31 57 32 53 34 55 36 34 38
REMARK SMILES IDX 35 39 36 40 37 41 45 42 38 43 43 44 39 45 41 46 44 47 40 49
REMARK SMILES IDX 42 51 8 53 9 54 10 55 11 56 19 57 12 58 17 59 13 60 15 61
REMARK SMILES IDX 18 62 14 64 16 66 21 68 22 69 23 70 24 71 32 72 25 73 30 74
REMARK SMILES IDX 26 75 28 76 31 77 27 79 29 81
REMARK H PARENT 62 18 64 20 66 22 57 33 53 35 55 37 44 48 40 50 42 52 18 63
REMARK H PARENT 14 65 16 67 31 78 27 80 29 82
REMARK Flexibility Score: inf
ROOT
ATOM      1  C   UNL     1      70.677  43.006   8.611  1.00  0.00     0.205 C 
ATOM      2  C   UNL     1      71.805  42.259   7.877  1.00  0.00     0.254 C 
ATOM      3  C   UNL     1      72.798  43.310   7.369  1.00  0.00     0.267 C 
ATOM      4  C   UNL     1      73.313  44.149   8.553  1.00  0.00     0.290 C 
ATOM      5  C   UNL     1      72.115  44.712   9.351  1.00  0.00     0.357 C 
ATOM      6  O   UNL     1      71.200  43.694   9.739  1.00  0.00    -0.329 OA
ENDROOT
BRANCH   1   7
ATOM      7  C   UNL     1      69.552  42.061   9.072  1.00  0.00     0.269 C 
BRANCH   7   8
ATOM      8  O   UNL     1      68.402  42.826   9.419  1.00  0.00    -0.459 OA
BRANCH   8   9
ATOM      9  C   UNL     1      67.398  43.134   8.491  1.00  0.00     0.338 C 
ATOM     10  O   UNL     1      67.635  43.043   7.252  1.00  0.00    -0.246 OA
BRANCH   9  11
ATOM     11  C   UNL     1      66.075  43.596   8.960  1.00  0.00     0.067 A 
ATOM     12  C   UNL     1      65.022  42.684   9.114  1.00  0.00     0.066 A 
ATOM     13  C   UNL     1      63.752  43.114   9.507  1.00  0.00     0.162 A 
ATOM     14  C   UNL     1      65.846  44.963   9.216  1.00  0.00     0.066 A 
ATOM     15  C   UNL     1      63.514  44.491   9.727  1.00  0.00     0.200 A 
ATOM     16  C   UNL     1      64.572  45.408   9.585  1.00  0.00     0.162 A 
BRANCH  13  17
ATOM     17  O   UNL     1      62.765  42.143   9.676  1.00  0.00    -0.504 OA
ATOM     18  H   UNL     1      62.927  41.255  10.119  1.00  0.00     0.293 HD
ENDBRANCH  13  17
BRANCH  15  19
ATOM     19  O   UNL     1      62.251  44.978  10.080  1.00  0.00    -0.502 OA
ATOM     20  H   UNL     1      61.549  44.444  10.567  1.00  0.00     0.293 HD
ENDBRANCH  15  19
BRANCH  16  21
ATOM     21  O   UNL     1      64.378  46.772   9.804  1.00  0.00    -0.504 OA
ATOM     22  H   UNL     1      63.709  47.118  10.481  1.00  0.00     0.293 HD
ENDBRANCH  16  21
ENDBRANCH   9  11
ENDBRANCH   8   9
ENDBRANCH   7   8
ENDBRANCH   1   7
BRANCH   2  23
ATOM     23  O   UNL     1      72.482  41.378   8.775  1.00  0.00    -0.452 OA
BRANCH  23  24
ATOM     24  C   UNL     1      72.615  39.997   8.573  1.00  0.00     0.338 C 
ATOM     25  O   UNL     1      73.704  39.427   8.843  1.00  0.00    -0.246 OA
BRANCH  24  26
ATOM     26  C   UNL     1      71.464  39.221   8.061  1.00  0.00     0.067 A 
ATOM     27  C   UNL     1      70.670  38.451   8.931  1.00  0.00     0.066 A 
ATOM     28  C   UNL     1      71.185  39.201   6.685  1.00  0.00     0.066 A 
ATOM     29  C   UNL     1      69.621  37.661   8.430  1.00  0.00     0.162 A 
ATOM     30  C   UNL     1      70.135  38.425   6.183  1.00  0.00     0.162 A 
ATOM     31  C   UNL     1      69.351  37.651   7.052  1.00  0.00     0.200 A 
BRANCH  29  32
ATOM     32  O   UNL     1      68.854  36.885   9.294  1.00  0.00    -0.504 OA
ATOM     33  H   UNL     1      69.226  36.547  10.174  1.00  0.00     0.293 HD
ENDBRANCH  29  32
BRANCH  30  34
ATOM     34  O   UNL     1      69.891  38.430   4.812  1.00  0.00    -0.504 OA
ATOM     35  H   UNL     1      69.044  38.826   4.416  1.00  0.00     0.293 HD
ENDBRANCH  30  34
BRANCH  31  36
ATOM     36  O   UNL     1      68.318  36.876   6.528  1.00  0.00    -0.502 OA
ATOM     37  H   UNL     1      68.487  36.003   6.045  1.00  0.00     0.293 HD
ENDBRANCH  31  36
ENDBRANCH  24  26
ENDBRANCH  23  24
ENDBRANCH   2  23
BRANCH   3  38
ATOM     38  O   UNL     1      73.874  42.683   6.672  1.00  0.00    -0.450 OA
BRANCH  38  39
ATOM     39  C   UNL     1      73.778  42.290   5.330  1.00  0.00     0.338 C 
ATOM     40  O   UNL     1      73.445  43.128   4.449  1.00  0.00    -0.246 OA
BRANCH  39  41
ATOM     41  C   UNL     1      74.086  40.896   4.940  1.00  0.00     0.067 A 
ATOM     42  C   UNL     1      74.005  40.501   3.593  1.00  0.00     0.066 A 
ATOM     43  C   UNL     1      74.466  39.954   5.909  1.00  0.00     0.066 A 
ATOM     44  C   UNL     1      74.293  39.186   3.220  1.00  0.00     0.162 A 
ATOM     45  C   UNL     1      74.754  38.634   5.549  1.00  0.00     0.162 A 
ATOM     46  C   UNL     1      74.658  38.239   4.190  1.00  0.00     0.200 A 
BRANCH  44  47
ATOM     47  O   UNL     1      74.220  38.816   1.875  1.00  0.00    -0.504 OA
ATOM     48  H   UNL     1      73.336  38.569   1.438  1.00  0.00     0.293 HD
ENDBRANCH  44  47
BRANCH  45  49
ATOM     49  O   UNL     1      75.125  37.754   6.566  1.00  0.00    -0.504 OA
ATOM     50  H   UNL     1      74.470  37.281   7.172  1.00  0.00     0.293 HD
ENDBRANCH  45  49
BRANCH  46  51
ATOM     51  O   UNL     1      74.908  36.932   3.762  1.00  0.00    -0.502 OA
ATOM     52  H   UNL     1      74.180  36.247   3.593  1.00  0.00     0.293 HD
ENDBRANCH  46  51
ENDBRANCH  39  41
ENDBRANCH  38  39
ENDBRANCH   3  38
BRANCH   5  53
ATOM     53  O   UNL     1      71.454  45.733   8.605  1.00  0.00    -0.428 OA
BRANCH  53  54
ATOM     54  C   UNL     1      70.811  46.825   9.198  1.00  0.00     0.340 C 
ATOM     55  O   UNL     1      71.365  47.470  10.124  1.00  0.00    -0.246 OA
BRANCH  54  56
ATOM     56  C   UNL     1      69.475  47.220   8.724  1.00  0.00     0.067 A 
ATOM     57  C   UNL     1      68.861  48.386   9.197  1.00  0.00     0.066 A 
ATOM     58  C   UNL     1      68.810  46.432   7.777  1.00  0.00     0.066 A 
ATOM     59  C   UNL     1      67.611  48.791   8.714  1.00  0.00     0.162 A 
ATOM     60  C   UNL     1      67.551  46.801   7.302  1.00  0.00     0.162 A 
ATOM     61  C   UNL     1      66.942  47.991   7.751  1.00  0.00     0.200 A 
BRANCH  59  62
ATOM     62  O   UNL     1      67.082  49.986   9.212  1.00  0.00    -0.504 OA
ATOM     63  H   UNL     1      67.553  50.575   9.889  1.00  0.00     0.293 HD
ENDBRANCH  59  62
BRANCH  60  64
ATOM     64  O   UNL     1      66.914  45.963   6.386  1.00  0.00    -0.504 OA
ATOM     65  H   UNL     1      66.892  46.171   5.393  1.00  0.00     0.293 HD
ENDBRANCH  60  64
BRANCH  61  66
ATOM     66  O   UNL     1      65.693  48.348   7.223  1.00  0.00    -0.502 OA
ATOM     67  H   UNL     1      65.137  47.749   6.627  1.00  0.00     0.293 HD
ENDBRANCH  61  66
ENDBRANCH  54  56
ENDBRANCH  53  54
ENDBRANCH   5  53
BRANCH   4  68
ATOM     68  O   UNL     1      74.085  45.250   8.076  1.00  0.00    -0.448 OA
BRANCH  68  69
ATOM     69  C   UNL     1      74.217  45.592   6.727  1.00  0.00     0.339 C 
ATOM     70  O   UNL     1      75.123  45.066   6.022  1.00  0.00    -0.246 OA
BRANCH  69  71
ATOM     71  C   UNL     1      73.297  46.586   6.134  1.00  0.00     0.067 A 
ATOM     72  C   UNL     1      72.870  46.470   4.805  1.00  0.00     0.066 A 
ATOM     73  C   UNL     1      72.830  47.662   6.905  1.00  0.00     0.066 A 
ATOM     74  C   UNL     1      71.979  47.403   4.254  1.00  0.00     0.162 A 
ATOM     75  C   UNL     1      71.940  48.596   6.366  1.00  0.00     0.162 A 
ATOM     76  C   UNL     1      71.509  48.469   5.037  1.00  0.00     0.200 A 
BRANCH  74  77
ATOM     77  O   UNL     1      71.551  47.268   2.933  1.00  0.00    -0.504 OA
ATOM     78  H   UNL     1      71.284  46.366   2.551  1.00  0.00     0.293 HD
ENDBRANCH  74  77
BRANCH  75  79
ATOM     79  O   UNL     1      71.489  49.645   7.170  1.00  0.00    -0.504 OA
ATOM     80  H   UNL     1      70.559  49.661   7.566  1.00  0.00     0.293 HD
ENDBRANCH  75  79
BRANCH  76  81
ATOM     81  O   UNL     1      70.619  49.405   4.507  1.00  0.00    -0.502 OA
ATOM     82  H   UNL     1      70.435  49.479   3.518  1.00  0.00     0.293 HD
ENDBRANCH  76  81
ENDBRANCH  69  71
ENDBRANCH  68  69
ENDBRANCH   4  68
TORSDOF 31
ENDMDL
MODEL 4
REMARK VINA RESULT:    -6.316      2.987     10.309
REMARK INTER + INTRA:         -17.070
REMARK INTER:                 -12.952
REMARK INTRA:                  -4.117
REMARK UNBOUND:                -2.076
REMARK SMILES O=C(OC[C@H]1O[C@H](OC(=O)c2cc(O)c(O)c(O)c2)[C@H](OC(=O)c2cc(O)c(O)c(O)c2)[C@@H](OC(=O)c2cc(O)c(O)c(O)c2)[C@H]1OC(=O)c1cc(O)c(O)c(O)c1)c1cc(O)c(O)c(O)c1
REMARK SMILES IDX 5 1 46 2 33 3 20 4 7 5 6 6 4 7 3 8 2 9 1 10 59 11 60 12
REMARK SMILES IDX 61 13 67 14 63 15 65 16 62 17 64 19 66 21 47 23 48 24 49 25
REMARK SMILES IDX 50 26 58 27 51 28 56 29 52 30 54 31 57 32 53 34 55 36 34 38
REMARK SMILES IDX 35 39 36 40 37 41 45 42 38 43 43 44 39 45 41 46 44 47 40 49
REMARK SMILES IDX 42 51 8 53 9 54 10 55 11 56 19 57 12 58 17 59 13 60 15 61
REMARK SMILES IDX 18 62 14 64 16 66 21 68 22 69 23 70 24 71 32 72 25 73 30 74
REMARK SMILES IDX 26 75 28 76 31 77 27 79 29 81
REMARK H PARENT 62 18 64 20 66 22 57 33 53 35 55 37 44 48 40 50 42 52 18 63
REMARK H PARENT 14 65 16 67 31 78 27 80 29 82
REMARK Flexibility Score: inf
ROOT
ATOM      1  C   UNL     1      71.915  44.822   3.583  1.00  0.00     0.205 C 
ATOM      2  C   UNL     1      72.118  45.657   4.860  1.00  0.00     0.254 C 
ATOM      3  C   UNL     1      71.825  44.746   6.057  1.00  0.00     0.267 C 
ATOM      4  C   UNL     1      72.743  43.511   6.003  1.00  0.00     0.290 C 
ATOM      5  C   UNL     1      72.621  42.834   4.618  1.00  0.00     0.357 C 
ATOM      6  O   UNL     1      72.844  43.747   3.550  1.00  0.00    -0.329 OA
ENDROOT
BRANCH   1   7
ATOM      7  C   UNL     1      72.070  45.663   2.302  1.00  0.00     0.269 C 
BRANCH   7   8
ATOM      8  O   UNL     1      72.419  44.813   1.215  1.00  0.00    -0.459 OA
BRANCH   8   9
ATOM      9  C   UNL     1      71.736  44.840  -0.009  1.00  0.00     0.338 C 
ATOM     10  O   UNL     1      70.500  45.110  -0.034  1.00  0.00    -0.246 OA
BRANCH   9  11
ATOM     11  C   UNL     1      72.451  44.522  -1.261  1.00  0.00     0.067 A 
ATOM     12  C   UNL     1      72.222  43.305  -1.916  1.00  0.00     0.066 A 
ATOM     13  C   UNL     1      72.929  42.967  -3.073  1.00  0.00     0.162 A 
ATOM     14  C   UNL     1      73.404  45.419  -1.787  1.00  0.00     0.066 A 
ATOM     15  C   UNL     1      73.911  43.851  -3.578  1.00  0.00     0.200 A 
ATOM     16  C   UNL     1      74.136  45.079  -2.930  1.00  0.00     0.162 A 
BRANCH  13  17
ATOM     17  O   UNL     1      72.617  41.755  -3.690  1.00  0.00    -0.504 OA
ATOM     18  H   UNL     1      72.611  40.871  -3.211  1.00  0.00     0.293 HD
ENDBRANCH  13  17
BRANCH  15  19
ATOM     19  O   UNL     1      74.676  43.542  -4.707  1.00  0.00    -0.502 OA
ATOM     20  H   UNL     1      75.678  43.421  -4.702  1.00  0.00     0.293 HD
ENDBRANCH  15  19
BRANCH  16  21
ATOM     21  O   UNL     1      75.089  45.981  -3.405  1.00  0.00    -0.504 OA
ATOM     22  H   UNL     1      74.837  46.780  -3.973  1.00  0.00     0.293 HD
ENDBRANCH  16  21
ENDBRANCH   9  11
ENDBRANCH   8   9
ENDBRANCH   7   8
ENDBRANCH   1   7
BRANCH   2  23
ATOM     23  O   UNL     1      73.469  46.114   4.944  1.00  0.00    -0.452 OA
BRANCH  23  24
ATOM     24  C   UNL     1      73.845  47.382   5.408  1.00  0.00     0.338 C 
ATOM     25  O   UNL     1      74.832  47.969   4.895  1.00  0.00    -0.246 OA
BRANCH  24  26
ATOM     26  C   UNL     1      73.061  48.025   6.486  1.00  0.00     0.067 A 
ATOM     27  C   UNL     1      71.823  48.635   6.211  1.00  0.00     0.066 A 
ATOM     28  C   UNL     1      73.576  48.082   7.791  1.00  0.00     0.066 A 
ATOM     29  C   UNL     1      71.117  49.304   7.225  1.00  0.00     0.162 A 
ATOM     30  C   UNL     1      72.871  48.738   8.805  1.00  0.00     0.162 A 
ATOM     31  C   UNL     1      71.641  49.353   8.527  1.00  0.00     0.200 A 
BRANCH  29  32
ATOM     32  O   UNL     1      69.902  49.924   6.941  1.00  0.00    -0.504 OA
ATOM     33  H   UNL     1      69.411  50.470   7.639  1.00  0.00     0.293 HD
ENDBRANCH  29  32
BRANCH  30  34
ATOM     34  O   UNL     1      73.416  48.775  10.087  1.00  0.00    -0.504 OA
ATOM     35  H   UNL     1      72.835  48.775  10.920  1.00  0.00     0.293 HD
ENDBRANCH  30  34
BRANCH  31  36
ATOM     36  O   UNL     1      70.962  50.012   9.550  1.00  0.00    -0.502 OA
ATOM     37  H   UNL     1      70.067  49.693   9.899  1.00  0.00     0.293 HD
ENDBRANCH  31  36
ENDBRANCH  24  26
ENDBRANCH  23  24
ENDBRANCH   2  23
BRANCH   3  38
ATOM     38  O   UNL     1      71.992  45.461   7.280  1.00  0.00    -0.450 OA
BRANCH  38  39
ATOM     39  C   UNL     1      71.091  45.352   8.349  1.00  0.00     0.338 C 
ATOM     40  O   UNL     1      71.504  45.454   9.536  1.00  0.00    -0.246 OA
BRANCH  39  41
ATOM     41  C   UNL     1      69.651  45.136   8.087  1.00  0.00     0.067 A 
ATOM     42  C   UNL     1      68.894  46.119   7.425  1.00  0.00     0.066 A 
ATOM     43  C   UNL     1      69.025  43.947   8.495  1.00  0.00     0.066 A 
ATOM     44  C   UNL     1      67.534  45.920   7.177  1.00  0.00     0.162 A 
ATOM     45  C   UNL     1      67.663  43.738   8.256  1.00  0.00     0.162 A 
ATOM     46  C   UNL     1      66.902  44.739   7.598  1.00  0.00     0.200 A 
BRANCH  44  47
ATOM     47  O   UNL     1      66.802  46.902   6.505  1.00  0.00    -0.504 OA
ATOM     48  H   UNL     1      66.454  47.729   6.984  1.00  0.00     0.293 HD
ENDBRANCH  44  47
BRANCH  45  49
ATOM     49  O   UNL     1      67.110  42.533   8.689  1.00  0.00    -0.504 OA
ATOM     50  H   UNL     1      66.544  41.929   8.111  1.00  0.00     0.293 HD
ENDBRANCH  45  49
BRANCH  46  51
ATOM     51  O   UNL     1      65.534  44.608   7.348  1.00  0.00    -0.502 OA
ATOM     52  H   UNL     1      65.082  43.722   7.146  1.00  0.00     0.293 HD
ENDBRANCH  46  51
ENDBRANCH  39  41
ENDBRANCH  38  39
ENDBRANCH   3  38
BRANCH   5  53
ATOM     53  O   UNL     1      71.352  42.194   4.485  1.00  0.00    -0.428 OA
BRANCH  53  54
ATOM     54  C   UNL     1      71.127  40.856   4.826  1.00  0.00     0.340 C 
ATOM     55  O   UNL     1      70.034  40.499   5.335  1.00  0.00    -0.246 OA
BRANCH  54  56
ATOM     56  C   UNL     1      72.182  39.861   4.575  1.00  0.00     0.067 A 
ATOM     57  C   UNL     1      72.654  39.040   5.608  1.00  0.00     0.066 A 
ATOM     58  C   UNL     1      72.714  39.718   3.289  1.00  0.00     0.066 A 
ATOM     59  C   UNL     1      73.624  38.060   5.364  1.00  0.00     0.162 A 
ATOM     60  C   UNL     1      73.702  38.767   3.029  1.00  0.00     0.162 A 
ATOM     61  C   UNL     1      74.158  37.916   4.058  1.00  0.00     0.200 A 
BRANCH  59  62
ATOM     62  O   UNL     1      74.016  37.259   6.440  1.00  0.00    -0.504 OA
ATOM     63  H   UNL     1      73.963  37.547   7.411  1.00  0.00     0.293 HD
ENDBRANCH  59  62
BRANCH  60  64
ATOM     64  O   UNL     1      74.227  38.689   1.739  1.00  0.00    -0.504 OA
ATOM     65  H   UNL     1      73.975  39.355   1.016  1.00  0.00     0.293 HD
ENDBRANCH  60  64
BRANCH  61  66
ATOM     66  O   UNL     1      75.125  36.948   3.749  1.00  0.00    -0.502 OA
ATOM     67  H   UNL     1      76.108  37.038   3.968  1.00  0.00     0.293 HD
ENDBRANCH  61  66
ENDBRANCH  54  56
ENDBRANCH  53  54
ENDBRANCH   5  53
BRANCH   4  68
ATOM     68  O   UNL     1      72.352  42.564   6.995  1.00  0.00    -0.448 OA
BRANCH  68  69
ATOM     69  C   UNL     1      73.172  42.145   8.048  1.00  0.00     0.339 C 
ATOM     70  O   UNL     1      74.056  42.917   8.513  1.00  0.00    -0.246 OA
BRANCH  69  71
ATOM     71  C   UNL     1      73.005  40.785   8.603  1.00  0.00     0.067 A 
ATOM     72  C   UNL     1      71.734  40.281   8.905  1.00  0.00     0.066 A 
ATOM     73  C   UNL     1      74.128  39.972   8.828  1.00  0.00     0.066 A 
ATOM     74  C   UNL     1      71.578  38.981   9.410  1.00  0.00     0.162 A 
ATOM     75  C   UNL     1      73.984  38.675   9.328  1.00  0.00     0.162 A 
ATOM     76  C   UNL     1      72.708  38.173   9.621  1.00  0.00     0.200 A 
BRANCH  74  77
ATOM     77  O   UNL     1      70.305  38.487   9.695  1.00  0.00    -0.504 OA
ATOM     78  H   UNL     1      69.469  39.020   9.480  1.00  0.00     0.293 HD
ENDBRANCH  74  77
BRANCH  75  79
ATOM     79  O   UNL     1      75.125  37.895   9.526  1.00  0.00    -0.504 OA
ATOM     80  H   UNL     1      76.031  38.301   9.714  1.00  0.00     0.293 HD
ENDBRANCH  75  79
BRANCH  76  81
ATOM     81  O   UNL     1      72.572  36.876  10.120  1.00  0.00    -0.502 OA
ATOM     82  H   UNL     1      72.905  36.608  11.034  1.00  0.00     0.293 HD
ENDBRANCH  76  81
ENDBRANCH  69  71
ENDBRANCH  68  69
ENDBRANCH   4  68
TORSDOF 31
ENDMDL
MODEL 5
REMARK VINA RESULT:    -5.995      1.391      9.544
REMARK INTER + INTRA:         -16.307
REMARK INTER:                 -13.841
REMARK INTRA:                  -2.465
REMARK UNBOUND:                -2.076
REMARK SMILES O=C(OC[C@H]1O[C@H](OC(=O)c2cc(O)c(O)c(O)c2)[C@H](OC(=O)c2cc(O)c(O)c(O)c2)[C@@H](OC(=O)c2cc(O)c(O)c(O)c2)[C@H]1OC(=O)c1cc(O)c(O)c(O)c1)c1cc(O)c(O)c(O)c1
REMARK SMILES IDX 5 1 46 2 33 3 20 4 7 5 6 6 4 7 3 8 2 9 1 10 59 11 60 12
REMARK SMILES IDX 61 13 67 14 63 15 65 16 62 17 64 19 66 21 47 23 48 24 49 25
REMARK SMILES IDX 50 26 58 27 51 28 56 29 52 30 54 31 57 32 53 34 55 36 34 38
REMARK SMILES IDX 35 39 36 40 37 41 45 42 38 43 43 44 39 45 41 46 44 47 40 49
REMARK SMILES IDX 42 51 8 53 9 54 10 55 11 56 19 57 12 58 17 59 13 60 15 61
REMARK SMILES IDX 18 62 14 64 16 66 21 68 22 69 23 70 24 71 32 72 25 73 30 74
REMARK SMILES IDX 26 75 28 76 31 77 27 79 29 81
REMARK H PARENT 62 18 64 20 66 22 57 33 53 35 55 37 44 48 40 50 42 52 18 63
REMARK H PARENT 14 65 16 67 31 78 27 80 29 82
REMARK Flexibility Score: inf
ROOT
ATOM      1  C   UNL     1      71.332  44.515   8.201  1.00  0.00     0.205 C 
ATOM      2  C   UNL     1      69.820  44.658   8.453  1.00  0.00     0.254 C 
ATOM      3  C   UNL     1      69.248  43.247   8.630  1.00  0.00     0.267 C 
ATOM      4  C   UNL     1      69.977  42.534   9.783  1.00  0.00     0.290 C 
ATOM      5  C   UNL     1      71.504  42.598   9.549  1.00  0.00     0.357 C 
ATOM      6  O   UNL     1      71.961  43.928   9.332  1.00  0.00    -0.329 OA
ENDROOT
BRANCH   1   7
ATOM      7  C   UNL     1      72.004  45.866   7.894  1.00  0.00     0.269 C 
BRANCH   7   8
ATOM      8  O   UNL     1      73.360  45.647   7.518  1.00  0.00    -0.459 OA
BRANCH   8   9
ATOM      9  C   UNL     1      73.981  46.375   6.494  1.00  0.00     0.338 C 
ATOM     10  O   UNL     1      75.124  46.881   6.685  1.00  0.00    -0.246 OA
BRANCH   9  11
ATOM     11  C   UNL     1      73.287  46.576   5.205  1.00  0.00     0.067 A 
ATOM     12  C   UNL     1      72.472  47.700   5.011  1.00  0.00     0.066 A 
ATOM     13  C   UNL     1      71.767  47.878   3.818  1.00  0.00     0.162 A 
ATOM     14  C   UNL     1      73.401  45.621   4.175  1.00  0.00     0.066 A 
ATOM     15  C   UNL     1      71.853  46.900   2.799  1.00  0.00     0.200 A 
ATOM     16  C   UNL     1      72.680  45.776   2.986  1.00  0.00     0.162 A 
BRANCH  13  17
ATOM     17  O   UNL     1      71.008  49.040   3.683  1.00  0.00    -0.504 OA
ATOM     18  H   UNL     1      70.823  49.676   4.440  1.00  0.00     0.293 HD
ENDBRANCH  13  17
BRANCH  15  19
ATOM     19  O   UNL     1      71.135  47.008   1.604  1.00  0.00    -0.502 OA
ATOM     20  H   UNL     1      71.537  47.275   0.719  1.00  0.00     0.293 HD
ENDBRANCH  15  19
BRANCH  16  21
ATOM     21  O   UNL     1      72.797  44.795   2.001  1.00  0.00    -0.504 OA
ATOM     22  H   UNL     1      71.987  44.356   1.581  1.00  0.00     0.293 HD
ENDBRANCH  16  21
ENDBRANCH   9  11
ENDBRANCH   8   9
ENDBRANCH   7   8
ENDBRANCH   1   7
BRANCH   2  23
ATOM     23  O   UNL     1      69.585  45.406   9.647  1.00  0.00    -0.452 OA
BRANCH  23  24
ATOM     24  C   UNL     1      69.118  46.728   9.670  1.00  0.00     0.338 C 
ATOM     25  O   UNL     1      67.973  46.980  10.124  1.00  0.00    -0.246 OA
BRANCH  24  26
ATOM     26  C   UNL     1      69.989  47.817   9.174  1.00  0.00     0.067 A 
ATOM     27  C   UNL     1      69.656  48.533   8.010  1.00  0.00     0.066 A 
ATOM     28  C   UNL     1      71.193  48.110   9.835  1.00  0.00     0.066 A 
ATOM     29  C   UNL     1      70.521  49.519   7.506  1.00  0.00     0.162 A 
ATOM     30  C   UNL     1      72.053  49.098   9.342  1.00  0.00     0.162 A 
ATOM     31  C   UNL     1      71.722  49.804   8.176  1.00  0.00     0.200 A 
BRANCH  29  32
ATOM     32  O   UNL     1      70.195  50.209   6.341  1.00  0.00    -0.504 OA
ATOM     33  H   UNL     1      70.266  51.218   6.286  1.00  0.00     0.293 HD
ENDBRANCH  29  32
BRANCH  30  34
ATOM     34  O   UNL     1      73.239  49.358  10.025  1.00  0.00    -0.504 OA
ATOM     35  H   UNL     1      74.144  49.330   9.565  1.00  0.00     0.293 HD
ENDBRANCH  30  34
BRANCH  31  36
ATOM     36  O   UNL     1      72.599  50.776   7.696  1.00  0.00    -0.502 OA
ATOM     37  H   UNL     1      72.879  51.574   8.252  1.00  0.00     0.293 HD
ENDBRANCH  31  36
ENDBRANCH  24  26
ENDBRANCH  23  24
ENDBRANCH   2  23
BRANCH   3  38
ATOM     38  O   UNL     1      67.842  43.306   8.865  1.00  0.00    -0.450 OA
BRANCH  38  39
ATOM     39  C   UNL     1      66.985  44.130   8.122  1.00  0.00     0.338 C 
ATOM     40  O   UNL     1      67.426  44.760   7.121  1.00  0.00    -0.246 OA
BRANCH  39  41
ATOM     41  C   UNL     1      65.558  44.249   8.495  1.00  0.00     0.067 A 
ATOM     42  C   UNL     1      64.769  43.097   8.659  1.00  0.00     0.066 A 
ATOM     43  C   UNL     1      64.979  45.512   8.694  1.00  0.00     0.066 A 
ATOM     44  C   UNL     1      63.421  43.205   9.010  1.00  0.00     0.162 A 
ATOM     45  C   UNL     1      63.630  45.633   9.042  1.00  0.00     0.162 A 
ATOM     46  C   UNL     1      62.835  44.467   9.193  1.00  0.00     0.200 A 
BRANCH  44  47
ATOM     47  O   UNL     1      62.656  42.049   9.181  1.00  0.00    -0.504 OA
ATOM     48  H   UNL     1      63.037  41.218   9.628  1.00  0.00     0.293 HD
ENDBRANCH  44  47
BRANCH  45  49
ATOM     49  O   UNL     1      63.123  46.920   9.222  1.00  0.00    -0.504 OA
ATOM     50  H   UNL     1      63.617  47.764   8.969  1.00  0.00     0.293 HD
ENDBRANCH  45  49
BRANCH  46  51
ATOM     51  O   UNL     1      61.476  44.514   9.517  1.00  0.00    -0.502 OA
ATOM     52  H   UNL     1      61.028  45.316   9.946  1.00  0.00     0.293 HD
ENDBRANCH  46  51
ENDBRANCH  39  41
ENDBRANCH  38  39
ENDBRANCH   3  38
BRANCH   5  53
ATOM     53  O   UNL     1      71.880  41.747   8.468  1.00  0.00    -0.428 OA
BRANCH  53  54
ATOM     54  C   UNL     1      73.092  41.050   8.422  1.00  0.00     0.340 C 
ATOM     55  O   UNL     1      73.753  40.843   9.472  1.00  0.00    -0.246 OA
BRANCH  54  56
ATOM     56  C   UNL     1      73.590  40.552   7.130  1.00  0.00     0.067 A 
ATOM     57  C   UNL     1      74.085  39.248   7.006  1.00  0.00     0.066 A 
ATOM     58  C   UNL     1      73.558  41.382   6.004  1.00  0.00     0.066 A 
ATOM     59  C   UNL     1      74.516  38.754   5.769  1.00  0.00     0.162 A 
ATOM     60  C   UNL     1      74.009  40.921   4.767  1.00  0.00     0.162 A 
ATOM     61  C   UNL     1      74.478  39.598   4.629  1.00  0.00     0.200 A 
BRANCH  59  62
ATOM     62  O   UNL     1      74.963  37.430   5.722  1.00  0.00    -0.504 OA
ATOM     63  H   UNL     1      75.095  36.906   4.864  1.00  0.00     0.293 HD
ENDBRANCH  59  62
BRANCH  60  64
ATOM     64  O   UNL     1      73.990  41.799   3.683  1.00  0.00    -0.504 OA
ATOM     65  H   UNL     1      73.728  41.496   2.750  1.00  0.00     0.293 HD
ENDBRANCH  60  64
BRANCH  61  66
ATOM     66  O   UNL     1      74.887  39.159   3.361  1.00  0.00    -0.502 OA
ATOM     67  H   UNL     1      74.267  38.754   2.673  1.00  0.00     0.293 HD
ENDBRANCH  61  66
ENDBRANCH  54  56
ENDBRANCH  53  54
ENDBRANCH   5  53
BRANCH   4  68
ATOM     68  O   UNL     1      69.593  41.161   9.834  1.00  0.00    -0.448 OA
BRANCH  68  69
ATOM     69  C   UNL     1      68.682  40.567   8.956  1.00  0.00     0.339 C 
ATOM     70  O   UNL     1      67.492  40.354   9.321  1.00  0.00    -0.246 OA
BRANCH  69  71
ATOM     71  C   UNL     1      69.126  40.175   7.602  1.00  0.00     0.067 A 
ATOM     72  C   UNL     1      69.128  38.832   7.205  1.00  0.00     0.066 A 
ATOM     73  C   UNL     1      69.546  41.153   6.686  1.00  0.00     0.066 A 
ATOM     74  C   UNL     1      69.529  38.466   5.911  1.00  0.00     0.162 A 
ATOM     75  C   UNL     1      69.944  40.800   5.393  1.00  0.00     0.162 A 
ATOM     76  C   UNL     1      69.937  39.454   4.999  1.00  0.00     0.200 A 
BRANCH  74  77
ATOM     77  O   UNL     1      69.515  37.126   5.524  1.00  0.00    -0.504 OA
ATOM     78  H   UNL     1      68.733  36.730   5.012  1.00  0.00     0.293 HD
ENDBRANCH  74  77
BRANCH  75  79
ATOM     79  O   UNL     1      70.343  41.805   4.509  1.00  0.00    -0.504 OA
ATOM     80  H   UNL     1      70.291  41.693   3.506  1.00  0.00     0.293 HD
ENDBRANCH  75  79
BRANCH  76  81
ATOM     81  O   UNL     1      70.335  39.110   3.706  1.00  0.00    -0.502 OA
ATOM     82  H   UNL     1      69.678  38.983   2.951  1.00  0.00     0.293 HD
ENDBRANCH  76  81
ENDBRANCH  69  71
ENDBRANCH  68  69
ENDBRANCH   4  68
TORSDOF 31
ENDMDL
MODEL 6
REMARK VINA RESULT:    -5.916      1.614      4.067
REMARK INTER + INTRA:         -16.119
REMARK INTER:                 -14.157
REMARK INTRA:                  -1.962
REMARK UNBOUND:                -2.076
REMARK SMILES O=C(OC[C@H]1O[C@H](OC(=O)c2cc(O)c(O)c(O)c2)[C@H](OC(=O)c2cc(O)c(O)c(O)c2)[C@@H](OC(=O)c2cc(O)c(O)c(O)c2)[C@H]1OC(=O)c1cc(O)c(O)c(O)c1)c1cc(O)c(O)c(O)c1
REMARK SMILES IDX 5 1 46 2 33 3 20 4 7 5 6 6 4 7 3 8 2 9 1 10 59 11 60 12
REMARK SMILES IDX 61 13 67 14 63 15 65 16 62 17 64 19 66 21 47 23 48 24 49 25
REMARK SMILES IDX 50 26 58 27 51 28 56 29 52 30 54 31 57 32 53 34 55 36 34 38
REMARK SMILES IDX 35 39 36 40 37 41 45 42 38 43 43 44 39 45 41 46 44 47 40 49
REMARK SMILES IDX 42 51 8 53 9 54 10 55 11 56 19 57 12 58 17 59 13 60 15 61
REMARK SMILES IDX 18 62 14 64 16 66 21 68 22 69 23 70 24 71 32 72 25 73 30 74
REMARK SMILES IDX 26 75 28 76 31 77 27 79 29 81
REMARK H PARENT 62 18 64 20 66 22 57 33 53 35 55 37 44 48 40 50 42 52 18 63
REMARK H PARENT 14 65 16 67 31 78 27 80 29 82
REMARK Flexibility Score: inf
ROOT
ATOM      1  C   UNL     1      69.517  42.127   8.854  1.00  0.00     0.205 C 
ATOM      2  C   UNL     1      70.598  41.521   7.941  1.00  0.00     0.254 C 
ATOM      3  C   UNL     1      71.452  42.678   7.411  1.00  0.00     0.267 C 
ATOM      4  C   UNL     1      72.047  43.465   8.593  1.00  0.00     0.290 C 
ATOM      5  C   UNL     1      70.915  43.877   9.563  1.00  0.00     0.357 C 
ATOM      6  O   UNL     1      70.122  42.768   9.968  1.00  0.00    -0.329 OA
ENDROOT
BRANCH   1   7
ATOM      7  C   UNL     1      68.519  41.069   9.360  1.00  0.00     0.269 C 
BRANCH   7   8
ATOM      8  O   UNL     1      67.223  41.650   9.463  1.00  0.00    -0.459 OA
BRANCH   8   9
ATOM      9  C   UNL     1      66.598  42.287   8.382  1.00  0.00     0.338 C 
ATOM     10  O   UNL     1      67.124  42.237   7.232  1.00  0.00    -0.246 OA
BRANCH   9  11
ATOM     11  C   UNL     1      65.347  43.044   8.593  1.00  0.00     0.067 A 
ATOM     12  C   UNL     1      64.266  42.449   9.257  1.00  0.00     0.066 A 
ATOM     13  C   UNL     1      63.058  43.133   9.418  1.00  0.00     0.162 A 
ATOM     14  C   UNL     1      65.211  44.354   8.091  1.00  0.00     0.066 A 
ATOM     15  C   UNL     1      62.911  44.434   8.882  1.00  0.00     0.200 A 
ATOM     16  C   UNL     1      63.998  45.039   8.225  1.00  0.00     0.162 A 
BRANCH  13  17
ATOM     17  O   UNL     1      62.041  42.490  10.125  1.00  0.00    -0.504 OA
ATOM     18  H   UNL     1      61.910  41.493  10.131  1.00  0.00     0.293 HD
ENDBRANCH  13  17
BRANCH  15  19
ATOM     19  O   UNL     1      61.710  45.144   8.978  1.00  0.00    -0.502 OA
ATOM     20  H   UNL     1      60.913  45.002   8.377  1.00  0.00     0.293 HD
ENDBRANCH  15  19
BRANCH  16  21
ATOM     21  O   UNL     1      63.894  46.323   7.691  1.00  0.00    -0.504 OA
ATOM     22  H   UNL     1      64.076  47.152   8.244  1.00  0.00     0.293 HD
ENDBRANCH  16  21
ENDBRANCH   9  11
ENDBRANCH   8   9
ENDBRANCH   7   8
ENDBRANCH   1   7
BRANCH   2  23
ATOM     23  O   UNL     1      71.432  40.630   8.683  1.00  0.00    -0.452 OA
BRANCH  23  24
ATOM     24  C   UNL     1      71.782  39.341   8.259  1.00  0.00     0.338 C 
ATOM     25  O   UNL     1      71.844  38.403   9.094  1.00  0.00    -0.246 OA
BRANCH  24  26
ATOM     26  C   UNL     1      72.058  39.095   6.826  1.00  0.00     0.067 A 
ATOM     27  C   UNL     1      73.356  38.779   6.385  1.00  0.00     0.066 A 
ATOM     28  C   UNL     1      71.030  39.231   5.879  1.00  0.00     0.066 A 
ATOM     29  C   UNL     1      73.625  38.614   5.016  1.00  0.00     0.162 A 
ATOM     30  C   UNL     1      71.291  39.058   4.516  1.00  0.00     0.162 A 
ATOM     31  C   UNL     1      72.588  38.751   4.078  1.00  0.00     0.200 A 
BRANCH  29  32
ATOM     32  O   UNL     1      74.917  38.322   4.586  1.00  0.00    -0.504 OA
ATOM     33  H   UNL     1      75.728  38.738   5.028  1.00  0.00     0.293 HD
ENDBRANCH  29  32
BRANCH  30  34
ATOM     34  O   UNL     1      70.245  39.203   3.607  1.00  0.00    -0.504 OA
ATOM     35  H   UNL     1      70.145  40.030   3.027  1.00  0.00     0.293 HD
ENDBRANCH  30  34
BRANCH  31  36
ATOM     36  O   UNL     1      72.828  38.595   2.715  1.00  0.00    -0.502 OA
ATOM     37  H   UNL     1      73.509  37.938   2.357  1.00  0.00     0.293 HD
ENDBRANCH  31  36
ENDBRANCH  24  26
ENDBRANCH  23  24
ENDBRANCH   2  23
BRANCH   3  38
ATOM     38  O   UNL     1      72.478  42.185   6.550  1.00  0.00    -0.450 OA
BRANCH  38  39
ATOM     39  C   UNL     1      73.555  42.977   6.127  1.00  0.00     0.338 C 
ATOM     40  O   UNL     1      74.729  42.691   6.487  1.00  0.00    -0.246 OA
BRANCH  39  41
ATOM     41  C   UNL     1      73.320  44.139   5.241  1.00  0.00     0.067 A 
ATOM     42  C   UNL     1      73.903  45.384   5.533  1.00  0.00     0.066 A 
ATOM     43  C   UNL     1      72.516  44.009   4.097  1.00  0.00     0.066 A 
ATOM     44  C   UNL     1      73.684  46.484   4.700  1.00  0.00     0.162 A 
ATOM     45  C   UNL     1      72.285  45.103   3.258  1.00  0.00     0.162 A 
ATOM     46  C   UNL     1      72.867  46.361   3.565  1.00  0.00     0.200 A 
BRANCH  44  47
ATOM     47  O   UNL     1      74.283  47.710   4.999  1.00  0.00    -0.504 OA
ATOM     48  H   UNL     1      75.197  47.763   5.442  1.00  0.00     0.293 HD
ENDBRANCH  44  47
BRANCH  45  49
ATOM     49  O   UNL     1      71.476  44.899   2.140  1.00  0.00    -0.504 OA
ATOM     50  H   UNL     1      70.752  44.197   2.086  1.00  0.00     0.293 HD
ENDBRANCH  45  49
BRANCH  46  51
ATOM     51  O   UNL     1      72.660  47.501   2.784  1.00  0.00    -0.502 OA
ATOM     52  H   UNL     1      72.258  47.480   1.853  1.00  0.00     0.293 HD
ENDBRANCH  46  51
ENDBRANCH  39  41
ENDBRANCH  38  39
ENDBRANCH   3  38
BRANCH   5  53
ATOM     53  O   UNL     1      70.105  44.897   8.980  1.00  0.00    -0.428 OA
BRANCH  53  54
ATOM     54  C   UNL     1      68.886  45.315   9.525  1.00  0.00     0.340 C 
ATOM     55  O   UNL     1      68.123  44.495  10.097  1.00  0.00    -0.246 OA
BRANCH  54  56
ATOM     56  C   UNL     1      68.502  46.733   9.429  1.00  0.00     0.067 A 
ATOM     57  C   UNL     1      69.435  47.747   9.679  1.00  0.00     0.066 A 
ATOM     58  C   UNL     1      67.194  47.078   9.070  1.00  0.00     0.066 A 
ATOM     59  C   UNL     1      69.087  49.097   9.543  1.00  0.00     0.162 A 
ATOM     60  C   UNL     1      66.817  48.417   8.957  1.00  0.00     0.162 A 
ATOM     61  C   UNL     1      67.761  49.442   9.176  1.00  0.00     0.200 A 
BRANCH  59  62
ATOM     62  O   UNL     1      70.085  50.048   9.777  1.00  0.00    -0.504 OA
ATOM     63  H   UNL     1      69.921  51.048   9.800  1.00  0.00     0.293 HD
ENDBRANCH  59  62
BRANCH  60  64
ATOM     64  O   UNL     1      65.492  48.710   8.633  1.00  0.00    -0.504 OA
ATOM     65  H   UNL     1      65.252  49.364   7.895  1.00  0.00     0.293 HD
ENDBRANCH  60  64
BRANCH  61  66
ATOM     66  O   UNL     1      67.354  50.775   9.016  1.00  0.00    -0.502 OA
ATOM     67  H   UNL     1      67.450  51.298   8.157  1.00  0.00     0.293 HD
ENDBRANCH  61  66
ENDBRANCH  54  56
ENDBRANCH  53  54
ENDBRANCH   5  53
BRANCH   4  68
ATOM     68  O   UNL     1      72.682  44.652   8.122  1.00  0.00    -0.448 OA
BRANCH  68  69
ATOM     69  C   UNL     1      73.029  45.734   8.937  1.00  0.00     0.339 C 
ATOM     70  O   UNL     1      73.547  45.536  10.071  1.00  0.00    -0.246 OA
BRANCH  69  71
ATOM     71  C   UNL     1      72.771  47.111   8.467  1.00  0.00     0.067 A 
ATOM     72  C   UNL     1      71.792  47.371   7.499  1.00  0.00     0.066 A 
ATOM     73  C   UNL     1      73.505  48.186   8.994  1.00  0.00     0.066 A 
ATOM     74  C   UNL     1      71.535  48.682   7.072  1.00  0.00     0.162 A 
ATOM     75  C   UNL     1      73.254  49.497   8.578  1.00  0.00     0.162 A 
ATOM     76  C   UNL     1      72.267  49.751   7.615  1.00  0.00     0.200 A 
BRANCH  74  77
ATOM     77  O   UNL     1      70.548  48.928   6.117  1.00  0.00    -0.504 OA
ATOM     78  H   UNL     1      69.798  48.266   5.947  1.00  0.00     0.293 HD
ENDBRANCH  74  77
BRANCH  75  79
ATOM     79  O   UNL     1      73.997  50.539   9.136  1.00  0.00    -0.504 OA
ATOM     80  H   UNL     1      74.915  50.395   9.534  1.00  0.00     0.293 HD
ENDBRANCH  75  79
BRANCH  76  81
ATOM     81  O   UNL     1      72.022  51.063   7.205  1.00  0.00    -0.502 OA
ATOM     82  H   UNL     1      71.640  51.286   6.298  1.00  0.00     0.293 HD
ENDBRANCH  76  81
ENDBRANCH  69  71
ENDBRANCH  68  69
ENDBRANCH   4  68
TORSDOF 31
ENDMDL
MODEL 7
REMARK VINA RESULT:    -5.839      1.402      9.489
REMARK INTER + INTRA:         -15.936
REMARK INTER:                 -13.284
REMARK INTRA:                  -2.653
REMARK UNBOUND:                -2.076
REMARK SMILES O=C(OC[C@H]1O[C@H](OC(=O)c2cc(O)c(O)c(O)c2)[C@H](OC(=O)c2cc(O)c(O)c(O)c2)[C@@H](OC(=O)c2cc(O)c(O)c(O)c2)[C@H]1OC(=O)c1cc(O)c(O)c(O)c1)c1cc(O)c(O)c(O)c1
REMARK SMILES IDX 5 1 46 2 33 3 20 4 7 5 6 6 4 7 3 8 2 9 1 10 59 11 60 12
REMARK SMILES IDX 61 13 67 14 63 15 65 16 62 17 64 19 66 21 47 23 48 24 49 25
REMARK SMILES IDX 50 26 58 27 51 28 56 29 52 30 54 31 57 32 53 34 55 36 34 38
REMARK SMILES IDX 35 39 36 40 37 41 45 42 38 43 43 44 39 45 41 46 44 47 40 49
REMARK SMILES IDX 42 51 8 53 9 54 10 55 11 56 19 57 12 58 17 59 13 60 15 61
REMARK SMILES IDX 18 62 14 64 16 66 21 68 22 69 23 70 24 71 32 72 25 73 30 74
REMARK SMILES IDX 26 75 28 76 31 77 27 79 29 81
REMARK H PARENT 62 18 64 20 66 22 57 33 53 35 55 37 44 48 40 50 42 52 18 63
REMARK H PARENT 14 65 16 67 31 78 27 80 29 82
REMARK Flexibility Score: inf
ROOT
ATOM      1  C   UNL     1      71.245  44.505   8.024  1.00  0.00     0.205 C 
ATOM      2  C   UNL     1      69.761  44.700   8.383  1.00  0.00     0.254 C 
ATOM      3  C   UNL     1      69.162  43.311   8.630  1.00  0.00     0.267 C 
ATOM      4  C   UNL     1      69.953  42.597   9.743  1.00  0.00     0.290 C 
ATOM      5  C   UNL     1      71.460  42.610   9.397  1.00  0.00     0.357 C 
ATOM      6  O   UNL     1      71.938  43.920   9.118  1.00  0.00    -0.329 OA
ENDROOT
BRANCH   1   7
ATOM      7  C   UNL     1      71.932  45.828   7.640  1.00  0.00     0.269 C 
BRANCH   7   8
ATOM      8  O   UNL     1      73.254  45.561   7.183  1.00  0.00    -0.459 OA
BRANCH   8   9
ATOM      9  C   UNL     1      73.834  46.259   6.114  1.00  0.00     0.338 C 
ATOM     10  O   UNL     1      75.020  46.687   6.210  1.00  0.00    -0.246 OA
BRANCH   9  11
ATOM     11  C   UNL     1      73.047  46.521   4.891  1.00  0.00     0.067 A 
ATOM     12  C   UNL     1      73.047  45.595   3.839  1.00  0.00     0.066 A 
ATOM     13  C   UNL     1      72.350  45.853   2.656  1.00  0.00     0.162 A 
ATOM     14  C   UNL     1      72.324  47.723   4.751  1.00  0.00     0.066 A 
ATOM     15  C   UNL     1      71.656  47.076   2.502  1.00  0.00     0.200 A 
ATOM     16  C   UNL     1      71.644  48.003   3.560  1.00  0.00     0.162 A 
BRANCH  13  17
ATOM     17  O   UNL     1      72.365  44.866   1.669  1.00  0.00    -0.504 OA
ATOM     18  H   UNL     1      71.550  44.351   1.384  1.00  0.00     0.293 HD
ENDBRANCH  13  17
BRANCH  15  19
ATOM     19  O   UNL     1      70.980  47.401   1.322  1.00  0.00    -0.502 OA
ATOM     20  H   UNL     1      69.977  47.475   1.240  1.00  0.00     0.293 HD
ENDBRANCH  15  19
BRANCH  16  21
ATOM     21  O   UNL     1      70.963  49.215   3.449  1.00  0.00    -0.504 OA
ATOM     22  H   UNL     1      71.023  49.933   4.161  1.00  0.00     0.293 HD
ENDBRANCH  16  21
ENDBRANCH   9  11
ENDBRANCH   8   9
ENDBRANCH   7   8
ENDBRANCH   1   7
BRANCH   2  23
ATOM     23  O   UNL     1      69.636  45.478   9.574  1.00  0.00    -0.452 OA
BRANCH  23  24
ATOM     24  C   UNL     1      69.249  46.825   9.599  1.00  0.00     0.338 C 
ATOM     25  O   UNL     1      68.155  47.152  10.125  1.00  0.00    -0.246 OA
BRANCH  24  26
ATOM     26  C   UNL     1      70.146  47.851   9.021  1.00  0.00     0.067 A 
ATOM     27  C   UNL     1      71.380  48.153   9.626  1.00  0.00     0.066 A 
ATOM     28  C   UNL     1      69.746  48.577   7.888  1.00  0.00     0.066 A 
ATOM     29  C   UNL     1      72.195  49.176   9.113  1.00  0.00     0.162 A 
ATOM     30  C   UNL     1      70.559  49.589   7.367  1.00  0.00     0.162 A 
ATOM     31  C   UNL     1      71.784  49.894   7.978  1.00  0.00     0.200 A 
BRANCH  29  32
ATOM     32  O   UNL     1      73.405  49.484   9.730  1.00  0.00    -0.504 OA
ATOM     33  H   UNL     1      73.931  50.313   9.479  1.00  0.00     0.293 HD
ENDBRANCH  29  32
BRANCH  30  34
ATOM     34  O   UNL     1      70.126  50.287   6.243  1.00  0.00    -0.504 OA
ATOM     35  H   UNL     1      69.329  50.916   6.272  1.00  0.00     0.293 HD
ENDBRANCH  30  34
BRANCH  31  36
ATOM     36  O   UNL     1      72.573  50.914   7.450  1.00  0.00    -0.502 OA
ATOM     37  H   UNL     1      73.472  50.737   7.021  1.00  0.00     0.293 HD
ENDBRANCH  31  36
ENDBRANCH  24  26
ENDBRANCH  23  24
ENDBRANCH   2  23
BRANCH   3  38
ATOM     38  O   UNL     1      67.779  43.417   8.966  1.00  0.00    -0.450 OA
BRANCH  38  39
ATOM     39  C   UNL     1      66.869  44.153   8.194  1.00  0.00     0.338 C 
ATOM     40  O   UNL     1      67.253  44.722   7.136  1.00  0.00    -0.246 OA
BRANCH  39  41
ATOM     41  C   UNL     1      65.450  44.247   8.606  1.00  0.00     0.067 A 
ATOM     42  C   UNL     1      64.954  45.432   9.179  1.00  0.00     0.066 A 
ATOM     43  C   UNL     1      64.584  43.157   8.426  1.00  0.00     0.066 A 
ATOM     44  C   UNL     1      63.616  45.525   9.570  1.00  0.00     0.162 A 
ATOM     45  C   UNL     1      63.244  43.236   8.817  1.00  0.00     0.162 A 
ATOM     46  C   UNL     1      62.753  44.430   9.406  1.00  0.00     0.200 A 
BRANCH  44  47
ATOM     47  O   UNL     1      63.139  46.714  10.124  1.00  0.00    -0.504 OA
ATOM     48  H   UNL     1      62.879  47.508   9.543  1.00  0.00     0.293 HD
ENDBRANCH  44  47
BRANCH  45  49
ATOM     49  O   UNL     1      62.443  42.113   8.608  1.00  0.00    -0.504 OA
ATOM     50  H   UNL     1      62.739  41.165   8.790  1.00  0.00     0.293 HD
ENDBRANCH  45  49
BRANCH  46  51
ATOM     51  O   UNL     1      61.432  44.572   9.841  1.00  0.00    -0.502 OA
ATOM     52  H   UNL     1      60.857  45.382   9.639  1.00  0.00     0.293 HD
ENDBRANCH  46  51
ENDBRANCH  39  41
ENDBRANCH  38  39
ENDBRANCH   3  38
BRANCH   5  53
ATOM     53  O   UNL     1      71.729  41.727   8.309  1.00  0.00    -0.428 OA
BRANCH  53  54
ATOM     54  C   UNL     1      72.994  41.186   8.052  1.00  0.00     0.340 C 
ATOM     55  O   UNL     1      73.883  41.184   8.942  1.00  0.00    -0.246 OA
BRANCH  54  56
ATOM     56  C   UNL     1      73.277  40.611   6.728  1.00  0.00     0.067 A 
ATOM     57  C   UNL     1      73.631  41.432   5.650  1.00  0.00     0.066 A 
ATOM     58  C   UNL     1      73.207  39.226   6.540  1.00  0.00     0.066 A 
ATOM     59  C   UNL     1      73.947  40.884   4.400  1.00  0.00     0.162 A 
ATOM     60  C   UNL     1      73.489  38.661   5.296  1.00  0.00     0.162 A 
ATOM     61  C   UNL     1      73.878  39.480   4.215  1.00  0.00     0.200 A 
BRANCH  59  62
ATOM     62  O   UNL     1      74.325  41.769   3.385  1.00  0.00    -0.504 OA
ATOM     63  H   UNL     1      73.855  42.647   3.194  1.00  0.00     0.293 HD
ENDBRANCH  59  62
BRANCH  60  64
ATOM     64  O   UNL     1      73.369  37.278   5.151  1.00  0.00    -0.504 OA
ATOM     65  H   UNL     1      73.627  36.636   5.893  1.00  0.00     0.293 HD
ENDBRANCH  60  64
BRANCH  61  66
ATOM     66  O   UNL     1      74.190  38.872   2.990  1.00  0.00    -0.502 OA
ATOM     67  H   UNL     1      74.914  39.197   2.364  1.00  0.00     0.293 HD
ENDBRANCH  61  66
ENDBRANCH  54  56
ENDBRANCH  53  54
ENDBRANCH   5  53
BRANCH   4  68
ATOM     68  O   UNL     1      69.533  41.239   9.850  1.00  0.00    -0.448 OA
BRANCH  68  69
ATOM     69  C   UNL     1      68.627  40.624   8.981  1.00  0.00     0.339 C 
ATOM     70  O   UNL     1      67.438  40.409   9.347  1.00  0.00    -0.246 OA
BRANCH  69  71
ATOM     71  C   UNL     1      69.076  40.213   7.634  1.00  0.00     0.067 A 
ATOM     72  C   UNL     1      69.114  38.862   7.267  1.00  0.00     0.066 A 
ATOM     73  C   UNL     1      69.467  41.181   6.694  1.00  0.00     0.066 A 
ATOM     74  C   UNL     1      69.519  38.477   5.981  1.00  0.00     0.162 A 
ATOM     75  C   UNL     1      69.870  40.809   5.408  1.00  0.00     0.162 A 
ATOM     76  C   UNL     1      69.897  39.455   5.045  1.00  0.00     0.200 A 
BRANCH  74  77
ATOM     77  O   UNL     1      69.539  37.129   5.625  1.00  0.00    -0.504 OA
ATOM     78  H   UNL     1      68.952  36.447   6.095  1.00  0.00     0.293 HD
ENDBRANCH  74  77
BRANCH  75  79
ATOM     79  O   UNL     1      70.238  41.804   4.500  1.00  0.00    -0.504 OA
ATOM     80  H   UNL     1      71.125  42.286   4.557  1.00  0.00     0.293 HD
ENDBRANCH  75  79
BRANCH  76  81
ATOM     81  O   UNL     1      70.300  39.092   3.758  1.00  0.00    -0.502 OA
ATOM     82  H   UNL     1      70.993  38.379   3.588  1.00  0.00     0.293 HD
ENDBRANCH  76  81
ENDBRANCH  69  71
ENDBRANCH  68  69
ENDBRANCH   4  68
TORSDOF 31
ENDMDL
MODEL 8
REMARK VINA RESULT:    -5.756      1.601      2.718
REMARK INTER + INTRA:         -15.740
REMARK INTER:                 -13.951
REMARK INTRA:                  -1.788
REMARK UNBOUND:                -2.076
REMARK SMILES O=C(OC[C@H]1O[C@H](OC(=O)c2cc(O)c(O)c(O)c2)[C@H](OC(=O)c2cc(O)c(O)c(O)c2)[C@@H](OC(=O)c2cc(O)c(O)c(O)c2)[C@H]1OC(=O)c1cc(O)c(O)c(O)c1)c1cc(O)c(O)c(O)c1
REMARK SMILES IDX 5 1 46 2 33 3 20 4 7 5 6 6 4 7 3 8 2 9 1 10 59 11 60 12
REMARK SMILES IDX 61 13 67 14 63 15 65 16 62 17 64 19 66 21 47 23 48 24 49 25
REMARK SMILES IDX 50 26 58 27 51 28 56 29 52 30 54 31 57 32 53 34 55 36 34 38
REMARK SMILES IDX 35 39 36 40 37 41 45 42 38 43 43 44 39 45 41 46 44 47 40 49
REMARK SMILES IDX 42 51 8 53 9 54 10 55 11 56 19 57 12 58 17 59 13 60 15 61
REMARK SMILES IDX 18 62 14 64 16 66 21 68 22 69 23 70 24 71 32 72 25 73 30 74
REMARK SMILES IDX 26 75 28 76 31 77 27 79 29 81
REMARK H PARENT 62 18 64 20 66 22 57 33 53 35 55 37 44 48 40 50 42 52 18 63
REMARK H PARENT 14 65 16 67 31 78 27 80 29 82
REMARK Flexibility Score: inf
ROOT
ATOM      1  C   UNL     1      70.597  42.984   8.968  1.00  0.00     0.205 C 
ATOM      2  C   UNL     1      71.636  42.162   8.184  1.00  0.00     0.254 C 
ATOM      3  C   UNL     1      72.534  43.152   7.434  1.00  0.00     0.267 C 
ATOM      4  C   UNL     1      73.181  44.124   8.437  1.00  0.00     0.290 C 
ATOM      5  C   UNL     1      72.085  44.769   9.316  1.00  0.00     0.357 C 
ATOM      6  O   UNL     1      71.248  43.799   9.934  1.00  0.00    -0.329 OA
ENDROOT
BRANCH   1   7
ATOM      7  C   UNL     1      69.560  42.093   9.677  1.00  0.00     0.269 C 
BRANCH   7   8
ATOM      8  O   UNL     1      68.402  42.864   9.982  1.00  0.00    -0.459 OA
BRANCH   8   9
ATOM      9  C   UNL     1      67.585  43.418   8.987  1.00  0.00     0.338 C 
ATOM     10  O   UNL     1      68.046  43.600   7.823  1.00  0.00    -0.246 OA
BRANCH   9  11
ATOM     11  C   UNL     1      66.200  43.819   9.307  1.00  0.00     0.067 A 
ATOM     12  C   UNL     1      65.202  42.848   9.466  1.00  0.00     0.066 A 
ATOM     13  C   UNL     1      63.878  43.213   9.717  1.00  0.00     0.162 A 
ATOM     14  C   UNL     1      65.857  45.182   9.413  1.00  0.00     0.066 A 
ATOM     15  C   UNL     1      63.528  44.582   9.787  1.00  0.00     0.200 A 
ATOM     16  C   UNL     1      64.529  45.560   9.639  1.00  0.00     0.162 A 
BRANCH  13  17
ATOM     17  O   UNL     1      62.948  42.189   9.903  1.00  0.00    -0.504 OA
ATOM     18  H   UNL     1      62.242  42.200  10.618  1.00  0.00     0.293 HD
ENDBRANCH  13  17
BRANCH  15  19
ATOM     19  O   UNL     1      62.210  45.002   9.993  1.00  0.00    -0.502 OA
ATOM     20  H   UNL     1      61.523  45.104   9.262  1.00  0.00     0.293 HD
ENDBRANCH  15  19
BRANCH  16  21
ATOM     21  O   UNL     1      64.225  46.920   9.710  1.00  0.00    -0.504 OA
ATOM     22  H   UNL     1      63.854  47.344  10.552  1.00  0.00     0.293 HD
ENDBRANCH  16  21
ENDBRANCH   9  11
ENDBRANCH   8   9
ENDBRANCH   7   8
ENDBRANCH   1   7
BRANCH   2  23
ATOM     23  O   UNL     1      72.439  41.393   9.080  1.00  0.00    -0.452 OA
BRANCH  23  24
ATOM     24  C   UNL     1      72.322  40.007   9.252  1.00  0.00     0.338 C 
ATOM     25  O   UNL     1      73.014  39.423  10.125  1.00  0.00    -0.246 OA
BRANCH  24  26
ATOM     26  C   UNL     1      71.367  39.247   8.414  1.00  0.00     0.067 A 
ATOM     27  C   UNL     1      71.422  39.322   7.010  1.00  0.00     0.066 A 
ATOM     28  C   UNL     1      70.356  38.482   9.017  1.00  0.00     0.066 A 
ATOM     29  C   UNL     1      70.471  38.653   6.221  1.00  0.00     0.162 A 
ATOM     30  C   UNL     1      69.413  37.806   8.236  1.00  0.00     0.162 A 
ATOM     31  C   UNL     1      69.465  37.890   6.837  1.00  0.00     0.200 A 
BRANCH  29  32
ATOM     32  O   UNL     1      70.518  38.750   4.833  1.00  0.00    -0.504 OA
ATOM     33  H   UNL     1      69.800  39.239   4.312  1.00  0.00     0.293 HD
ENDBRANCH  29  32
BRANCH  30  34
ATOM     34  O   UNL     1      68.424  37.059   8.872  1.00  0.00    -0.504 OA
ATOM     35  H   UNL     1      67.455  37.359   8.899  1.00  0.00     0.293 HD
ENDBRANCH  30  34
BRANCH  31  36
ATOM     36  O   UNL     1      68.508  37.219   6.078  1.00  0.00    -0.502 OA
ATOM     37  H   UNL     1      68.742  36.437   5.480  1.00  0.00     0.293 HD
ENDBRANCH  31  36
ENDBRANCH  24  26
ENDBRANCH  23  24
ENDBRANCH   2  23
BRANCH   3  38
ATOM     38  O   UNL     1      73.523  42.453   6.679  1.00  0.00    -0.450 OA
BRANCH  38  39
ATOM     39  C   UNL     1      73.354  42.135   5.324  1.00  0.00     0.338 C 
ATOM     40  O   UNL     1      72.833  42.973   4.539  1.00  0.00    -0.246 OA
BRANCH  39  41
ATOM     41  C   UNL     1      73.803  40.823   4.807  1.00  0.00     0.067 A 
ATOM     42  C   UNL     1      74.013  39.747   5.686  1.00  0.00     0.066 A 
ATOM     43  C   UNL     1      74.022  40.639   3.432  1.00  0.00     0.066 A 
ATOM     44  C   UNL     1      74.438  38.507   5.202  1.00  0.00     0.162 A 
ATOM     45  C   UNL     1      74.452  39.405   2.936  1.00  0.00     0.162 A 
ATOM     46  C   UNL     1      74.673  38.325   3.830  1.00  0.00     0.200 A 
BRANCH  44  47
ATOM     47  O   UNL     1      74.628  37.446   6.090  1.00  0.00    -0.504 OA
ATOM     48  H   UNL     1      74.101  36.579   6.006  1.00  0.00     0.293 HD
ENDBRANCH  44  47
BRANCH  45  49
ATOM     49  O   UNL     1      74.649  39.296   1.559  1.00  0.00    -0.504 OA
ATOM     50  H   UNL     1      75.209  39.936   1.015  1.00  0.00     0.293 HD
ENDBRANCH  45  49
BRANCH  46  51
ATOM     51  O   UNL     1      75.125  37.072   3.407  1.00  0.00    -0.502 OA
ATOM     52  H   UNL     1      74.705  36.196   3.698  1.00  0.00     0.293 HD
ENDBRANCH  46  51
ENDBRANCH  39  41
ENDBRANCH  38  39
ENDBRANCH   3  38
BRANCH   5  53
ATOM     53  O   UNL     1      71.314  45.694   8.551  1.00  0.00    -0.428 OA
BRANCH  53  54
ATOM     54  C   UNL     1      70.592  46.749   9.121  1.00  0.00     0.340 C 
ATOM     55  O   UNL     1      71.055  47.388  10.100  1.00  0.00    -0.246 OA
BRANCH  54  56
ATOM     56  C   UNL     1      69.282  47.114   8.559  1.00  0.00     0.067 A 
ATOM     57  C   UNL     1      68.754  46.421   7.462  1.00  0.00     0.066 A 
ATOM     58  C   UNL     1      68.543  48.155   9.131  1.00  0.00     0.066 A 
ATOM     59  C   UNL     1      67.487  46.733   6.953  1.00  0.00     0.162 A 
ATOM     60  C   UNL     1      67.291  48.502   8.622  1.00  0.00     0.162 A 
ATOM     61  C   UNL     1      66.740  47.787   7.539  1.00  0.00     0.200 A 
BRANCH  59  62
ATOM     62  O   UNL     1      67.018  45.971   5.878  1.00  0.00    -0.504 OA
ATOM     63  H   UNL     1      67.607  45.379   5.303  1.00  0.00     0.293 HD
ENDBRANCH  59  62
BRANCH  60  64
ATOM     64  O   UNL     1      66.609  49.571   9.205  1.00  0.00    -0.504 OA
ATOM     65  H   UNL     1      66.388  50.414   8.686  1.00  0.00     0.293 HD
ENDBRANCH  60  64
BRANCH  61  66
ATOM     66  O   UNL     1      65.463  48.141   7.080  1.00  0.00    -0.502 OA
ATOM     67  H   UNL     1      65.127  47.962   6.143  1.00  0.00     0.293 HD
ENDBRANCH  61  66
ENDBRANCH  54  56
ENDBRANCH  53  54
ENDBRANCH   5  53
BRANCH   4  68
ATOM     68  O   UNL     1      73.864  45.166   7.742  1.00  0.00    -0.448 OA
BRANCH  68  69
ATOM     69  C   UNL     1      73.301  45.922   6.710  1.00  0.00     0.339 C 
ATOM     70  O   UNL     1      73.140  45.415   5.564  1.00  0.00    -0.246 OA
BRANCH  69  71
ATOM     71  C   UNL     1      72.909  47.324   6.964  1.00  0.00     0.067 A 
ATOM     72  C   UNL     1      71.813  47.897   6.307  1.00  0.00     0.066 A 
ATOM     73  C   UNL     1      73.633  48.103   7.882  1.00  0.00     0.066 A 
ATOM     74  C   UNL     1      71.431  49.221   6.568  1.00  0.00     0.162 A 
ATOM     75  C   UNL     1      73.259  49.423   8.152  1.00  0.00     0.162 A 
ATOM     76  C   UNL     1      72.155  49.988   7.497  1.00  0.00     0.200 A 
BRANCH  74  77
ATOM     77  O   UNL     1      70.329  49.775   5.917  1.00  0.00    -0.504 OA
ATOM     78  H   UNL     1      70.412  50.617   5.355  1.00  0.00     0.293 HD
ENDBRANCH  74  77
BRANCH  75  79
ATOM     79  O   UNL     1      73.997  50.159   9.080  1.00  0.00    -0.504 OA
ATOM     80  H   UNL     1      74.706  49.738   9.664  1.00  0.00     0.293 HD
ENDBRANCH  75  79
BRANCH  76  81
ATOM     81  O   UNL     1      71.788  51.307   7.772  1.00  0.00    -0.502 OA
ATOM     82  H   UNL     1      70.946  51.724   7.405  1.00  0.00     0.293 HD
ENDBRANCH  76  81
ENDBRANCH  69  71
ENDBRANCH  68  69
ENDBRANCH   4  68
TORSDOF 31
ENDMDL
MODEL 9
REMARK VINA RESULT:    -5.665      1.571      4.081
REMARK INTER + INTRA:         -15.523
REMARK INTER:                 -13.810
REMARK INTRA:                  -1.713
REMARK UNBOUND:                -2.076
REMARK SMILES O=C(OC[C@H]1O[C@H](OC(=O)c2cc(O)c(O)c(O)c2)[C@H](OC(=O)c2cc(O)c(O)c(O)c2)[C@@H](OC(=O)c2cc(O)c(O)c(O)c2)[C@H]1OC(=O)c1cc(O)c(O)c(O)c1)c1cc(O)c(O)c(O)c1
REMARK SMILES IDX 5 1 46 2 33 3 20 4 7 5 6 6 4 7 3 8 2 9 1 10 59 11 60 12
REMARK SMILES IDX 61 13 67 14 63 15 65 16 62 17 64 19 66 21 47 23 48 24 49 25
REMARK SMILES IDX 50 26 58 27 51 28 56 29 52 30 54 31 57 32 53 34 55 36 34 38
REMARK SMILES IDX 35 39 36 40 37 41 45 42 38 43 43 44 39 45 41 46 44 47 40 49
REMARK SMILES IDX 42 51 8 53 9 54 10 55 11 56 19 57 12 58 17 59 13 60 15 61
REMARK SMILES IDX 18 62 14 64 16 66 21 68 22 69 23 70 24 71 32 72 25 73 30 74
REMARK SMILES IDX 26 75 28 76 31 77 27 79 29 81
REMARK H PARENT 62 18 64 20 66 22 57 33 53 35 55 37 44 48 40 50 42 52 18 63
REMARK H PARENT 14 65 16 67 31 78 27 80 29 82
REMARK Flexibility Score: inf
ROOT
ATOM      1  C   UNL     1      69.516  42.148   8.801  1.00  0.00     0.205 C 
ATOM      2  C   UNL     1      70.563  41.497   7.880  1.00  0.00     0.254 C 
ATOM      3  C   UNL     1      71.497  42.608   7.387  1.00  0.00     0.267 C 
ATOM      4  C   UNL     1      72.131  43.323   8.595  1.00  0.00     0.290 C 
ATOM      5  C   UNL     1      71.020  43.783   9.568  1.00  0.00     0.357 C 
ATOM      6  O   UNL     1      70.152  42.718   9.937  1.00  0.00    -0.329 OA
ENDROOT
BRANCH   1   7
ATOM      7  C   UNL     1      68.446  41.145   9.272  1.00  0.00     0.269 C 
BRANCH   7   8
ATOM      8  O   UNL     1      67.184  41.799   9.350  1.00  0.00    -0.459 OA
BRANCH   8   9
ATOM      9  C   UNL     1      66.520  42.287   8.216  1.00  0.00     0.338 C 
ATOM     10  O   UNL     1      67.054  42.172   7.075  1.00  0.00    -0.246 OA
BRANCH   9  11
ATOM     11  C   UNL     1      65.214  42.963   8.359  1.00  0.00     0.067 A 
ATOM     12  C   UNL     1      65.151  44.356   8.497  1.00  0.00     0.066 A 
ATOM     13  C   UNL     1      63.929  45.005   8.685  1.00  0.00     0.162 A 
ATOM     14  C   UNL     1      64.022  42.212   8.402  1.00  0.00     0.066 A 
ATOM     15  C   UNL     1      62.737  44.247   8.765  1.00  0.00     0.200 A 
ATOM     16  C   UNL     1      62.795  42.849   8.616  1.00  0.00     0.162 A 
BRANCH  13  17
ATOM     17  O   UNL     1      63.943  46.398   8.775  1.00  0.00    -0.504 OA
ATOM     18  H   UNL     1      63.553  47.005   8.075  1.00  0.00     0.293 HD
ENDBRANCH  13  17
BRANCH  15  19
ATOM     19  O   UNL     1      61.493  44.843   8.996  1.00  0.00    -0.502 OA
ATOM     20  H   UNL     1      61.250  45.782   8.721  1.00  0.00     0.293 HD
ENDBRANCH  15  19
BRANCH  16  21
ATOM     21  O   UNL     1      61.640  42.069   8.679  1.00  0.00    -0.504 OA
ATOM     22  H   UNL     1      61.172  41.872   9.556  1.00  0.00     0.293 HD
ENDBRANCH  16  21
ENDBRANCH   9  11
ENDBRANCH   8   9
ENDBRANCH   7   8
ENDBRANCH   1   7
BRANCH   2  23
ATOM     23  O   UNL     1      71.330  40.534   8.604  1.00  0.00    -0.452 OA
BRANCH  23  24
ATOM     24  C   UNL     1      71.652  39.258   8.120  1.00  0.00     0.338 C 
ATOM     25  O   UNL     1      71.664  38.275   8.906  1.00  0.00    -0.246 OA
BRANCH  24  26
ATOM     26  C   UNL     1      71.957  39.079   6.683  1.00  0.00     0.067 A 
ATOM     27  C   UNL     1      70.993  39.369   5.700  1.00  0.00     0.066 A 
ATOM     28  C   UNL     1      73.201  38.561   6.287  1.00  0.00     0.066 A 
ATOM     29  C   UNL     1      71.264  39.131   4.342  1.00  0.00     0.162 A 
ATOM     30  C   UNL     1      73.479  38.333   4.936  1.00  0.00     0.162 A 
ATOM     31  C   UNL     1      72.512  38.614   3.959  1.00  0.00     0.200 A 
BRANCH  29  32
ATOM     32  O   UNL     1      70.297  39.400   3.377  1.00  0.00    -0.504 OA
ATOM     33  H   UNL     1      69.855  38.657   2.848  1.00  0.00     0.293 HD
ENDBRANCH  29  32
BRANCH  30  34
ATOM     34  O   UNL     1      74.724  37.817   4.583  1.00  0.00    -0.504 OA
ATOM     35  H   UNL     1      75.455  37.657   5.269  1.00  0.00     0.293 HD
ENDBRANCH  30  34
BRANCH  31  36
ATOM     36  O   UNL     1      72.806  38.368   2.619  1.00  0.00    -0.502 OA
ATOM     37  H   UNL     1      72.106  38.054   1.960  1.00  0.00     0.293 HD
ENDBRANCH  31  36
ENDBRANCH  24  26
ENDBRANCH  23  24
ENDBRANCH   2  23
BRANCH   3  38
ATOM     38  O   UNL     1      72.496  42.072   6.521  1.00  0.00    -0.450 OA
BRANCH  38  39
ATOM     39  C   UNL     1      73.566  42.838   6.038  1.00  0.00     0.338 C 
ATOM     40  O   UNL     1      74.752  42.517   6.325  1.00  0.00    -0.246 OA
BRANCH  39  41
ATOM     41  C   UNL     1      73.311  44.011   5.173  1.00  0.00     0.067 A 
ATOM     42  C   UNL     1      73.922  45.246   5.452  1.00  0.00     0.066 A 
ATOM     43  C   UNL     1      72.459  43.902   4.062  1.00  0.00     0.066 A 
ATOM     44  C   UNL     1      73.683  46.357   4.639  1.00  0.00     0.162 A 
ATOM     45  C   UNL     1      72.209  45.008   3.242  1.00  0.00     0.162 A 
ATOM     46  C   UNL     1      72.819  46.255   3.538  1.00  0.00     0.200 A 
BRANCH  44  47
ATOM     47  O   UNL     1      74.309  47.571   4.925  1.00  0.00    -0.504 OA
ATOM     48  H   UNL     1      75.223  47.608   5.371  1.00  0.00     0.293 HD
ENDBRANCH  44  47
BRANCH  45  49
ATOM     49  O   UNL     1      71.352  44.825   2.157  1.00  0.00    -0.504 OA
ATOM     50  H   UNL     1      71.256  45.480   1.395  1.00  0.00     0.293 HD
ENDBRANCH  45  49
BRANCH  46  51
ATOM     51  O   UNL     1      72.595  47.405   2.776  1.00  0.00    -0.502 OA
ATOM     52  H   UNL     1      71.921  48.121   3.024  1.00  0.00     0.293 HD
ENDBRANCH  46  51
ENDBRANCH  39  41
ENDBRANCH  38  39
ENDBRANCH   3  38
BRANCH   5  53
ATOM     53  O   UNL     1      70.284  44.869   9.007  1.00  0.00    -0.428 OA
BRANCH  53  54
ATOM     54  C   UNL     1      69.054  45.306   9.512  1.00  0.00     0.340 C 
ATOM     55  O   UNL     1      68.294  44.513  10.125  1.00  0.00    -0.246 OA
BRANCH  54  56
ATOM     56  C   UNL     1      68.657  46.711   9.326  1.00  0.00     0.067 A 
ATOM     57  C   UNL     1      67.384  47.038   8.843  1.00  0.00     0.066 A 
ATOM     58  C   UNL     1      69.553  47.737   9.647  1.00  0.00     0.066 A 
ATOM     59  C   UNL     1      66.985  48.374   8.709  1.00  0.00     0.162 A 
ATOM     60  C   UNL     1      69.187  49.075   9.494  1.00  0.00     0.162 A 
ATOM     61  C   UNL     1      67.895  49.411   9.039  1.00  0.00     0.200 A 
BRANCH  59  62
ATOM     62  O   UNL     1      65.685  48.617   8.253  1.00  0.00    -0.504 OA
ATOM     63  H   UNL     1      65.088  47.909   7.841  1.00  0.00     0.293 HD
ENDBRANCH  59  62
BRANCH  60  64
ATOM     64  O   UNL     1      70.129  50.060   9.793  1.00  0.00    -0.504 OA
ATOM     65  H   UNL     1      71.125  49.903   9.679  1.00  0.00     0.293 HD
ENDBRANCH  60  64
BRANCH  61  66
ATOM     66  O   UNL     1      67.551  50.767   8.934  1.00  0.00    -0.502 OA
ATOM     67  H   UNL     1      66.785  51.198   9.432  1.00  0.00     0.293 HD
ENDBRANCH  61  66
ENDBRANCH  54  56
ENDBRANCH  53  54
ENDBRANCH   5  53
BRANCH   4  68
ATOM     68  O   UNL     1      72.847  44.478   8.162  1.00  0.00    -0.448 OA
BRANCH  68  69
ATOM     69  C   UNL     1      73.136  45.576   8.977  1.00  0.00     0.339 C 
ATOM     70  O   UNL     1      73.636  45.403  10.124  1.00  0.00    -0.246 OA
BRANCH  69  71
ATOM     71  C   UNL     1      72.839  46.940   8.493  1.00  0.00     0.067 A 
ATOM     72  C   UNL     1      73.514  48.052   9.013  1.00  0.00     0.066 A 
ATOM     73  C   UNL     1      71.875  47.140   7.493  1.00  0.00     0.066 A 
ATOM     74  C   UNL     1      73.245  49.344   8.536  1.00  0.00     0.162 A 
ATOM     75  C   UNL     1      71.601  48.422   7.007  1.00  0.00     0.162 A 
ATOM     76  C   UNL     1      72.287  49.530   7.526  1.00  0.00     0.200 A 
BRANCH  74  77
ATOM     77  O   UNL     1      73.934  50.441   9.053  1.00  0.00    -0.504 OA
ATOM     78  H   UNL     1      73.604  51.390   8.911  1.00  0.00     0.293 HD
ENDBRANCH  74  77
BRANCH  75  79
ATOM     79  O   UNL     1      70.644  48.576   6.003  1.00  0.00    -0.504 OA
ATOM     80  H   UNL     1      69.668  48.745   6.207  1.00  0.00     0.293 HD
ENDBRANCH  75  79
BRANCH  76  81
ATOM     81  O   UNL     1      72.008  50.808   7.035  1.00  0.00    -0.502 OA
ATOM     82  H   UNL     1      72.692  51.361   6.542  1.00  0.00     0.293 HD
ENDBRANCH  76  81
ENDBRANCH  69  71
ENDBRANCH  68  69
ENDBRANCH   4  68
TORSDOF 31
ENDMDL
