MODEL 1
REMARK VINA RESULT:    -4.115      0.000      0.000
REMARK INTER + INTRA:          -5.152
REMARK INTER:                  -4.837
REMARK INTRA:                  -0.315
REMARK UNBOUND:                -0.315
REMARK SMILES O=c1cc(-c2ccc(O)c(O)c2)oc2cc(O)cc(O)c12
REMARK SMILES IDX 4 1 3 2 2 3 1 4 21 5 19 6 18 7 16 8 15 9 14 10 13 11 5 12
REMARK SMILES IDX 6 13 7 14 8 15 12 16 10 17 9 18 11 20 20 22 17 24
REMARK H PARENT 9 19 11 21 20 23 17 25
REMARK Flexibility Score: inf
ROOT
ATOM      1  C   UNL     1      -1.399   8.636  -8.533  1.00  0.00     0.138 A 
ATOM      2  C   UNL     1      -2.571   8.792  -9.287  1.00  0.00     0.100 A 
ATOM      3  C   UNL     1      -2.861  10.029  -9.865  1.00  0.00     0.197 A 
ATOM      4  O   UNL     1      -3.950  10.155 -10.482  1.00  0.00    -0.289 OA
ATOM      5  C   UNL     1      -1.956  11.107  -9.711  1.00  0.00     0.107 A 
ATOM      6  C   UNL     1      -2.127  12.400 -10.290  1.00  0.00     0.134 A 
ATOM      7  C   UNL     1      -1.223  13.422  -9.973  1.00  0.00     0.093 A 
ATOM      8  C   UNL     1      -0.123  13.182  -9.150  1.00  0.00     0.123 A 
ATOM      9  C   UNL     1       0.083  11.907  -8.622  1.00  0.00     0.094 A 
ATOM     10  C   UNL     1      -0.819  10.875  -8.891  1.00  0.00     0.146 A 
ATOM     11  O   UNL     1      -0.594   9.679  -8.359  1.00  0.00    -0.456 OA
ENDROOT
BRANCH   1  12
ATOM     12  C   UNL     1      -1.042   7.343  -7.897  1.00  0.00     0.021 A 
ATOM     13  C   UNL     1      -1.725   6.174  -8.274  1.00  0.00     0.016 A 
ATOM     14  C   UNL     1      -1.414   4.947  -7.685  1.00  0.00     0.051 A 
ATOM     15  C   UNL     1      -0.420   4.868  -6.701  1.00  0.00     0.157 A 
ATOM     16  C   UNL     1      -0.052   7.259  -6.897  1.00  0.00     0.062 A 
ATOM     17  C   UNL     1       0.259   6.026  -6.305  1.00  0.00     0.158 A 
BRANCH  15  18
ATOM     18  O   UNL     1      -0.106   3.645  -6.112  1.00  0.00    -0.504 OA
ATOM     19  H   UNL     1       0.841   3.420  -5.828  1.00  0.00     0.293 HD
ENDBRANCH  15  18
BRANCH  17  20
ATOM     20  O   UNL     1       1.240   5.946  -5.317  1.00  0.00    -0.504 OA
ATOM     21  H   UNL     1       1.736   5.082  -5.131  1.00  0.00     0.293 HD
ENDBRANCH  17  20
ENDBRANCH   1  12
BRANCH   6  22
ATOM     22  O   UNL     1      -3.144  12.724 -11.192  1.00  0.00    -0.507 OA
ATOM     23  H   UNL     1      -3.692  13.570 -11.164  1.00  0.00     0.293 HD
ENDBRANCH   6  22
BRANCH   8  24
ATOM     24  O   UNL     1       0.764  14.220  -8.869  1.00  0.00    -0.508 OA
ATOM     25  H   UNL     1       0.939  14.523  -7.918  1.00  0.00     0.293 HD
ENDBRANCH   8  24
TORSDOF 5
ENDMDL
MODEL 2
REMARK VINA RESULT:    -3.894      5.261      6.271
REMARK INTER + INTRA:          -4.892
REMARK INTER:                  -4.575
REMARK INTRA:                  -0.317
REMARK UNBOUND:                -0.315
REMARK SMILES O=c1cc(-c2ccc(O)c(O)c2)oc2cc(O)cc(O)c12
REMARK SMILES IDX 4 1 3 2 2 3 1 4 21 5 19 6 18 7 16 8 15 9 14 10 13 11 5 12
REMARK SMILES IDX 6 13 7 14 8 15 12 16 10 17 9 18 11 20 20 22 17 24
REMARK H PARENT 9 19 11 21 20 23 17 25
REMARK Flexibility Score: inf
ROOT
ATOM      1  C   UNL     1       0.180  13.581  -9.275  1.00  0.00     0.138 A 
ATOM      2  C   UNL     1       1.110  13.852 -10.289  1.00  0.00     0.100 A 
ATOM      3  C   UNL     1       0.675  13.970 -11.610  1.00  0.00     0.197 A 
ATOM      4  O   UNL     1       1.539  14.151 -12.506  1.00  0.00    -0.289 OA
ATOM      5  C   UNL     1      -0.703  13.847 -11.911  1.00  0.00     0.107 A 
ATOM      6  C   UNL     1      -1.266  13.990 -13.214  1.00  0.00     0.134 A 
ATOM      7  C   UNL     1      -2.629  13.731 -13.409  1.00  0.00     0.093 A 
ATOM      8  C   UNL     1      -3.459  13.395 -12.340  1.00  0.00     0.123 A 
ATOM      9  C   UNL     1      -2.929  13.306 -11.052  1.00  0.00     0.094 A 
ATOM     10  C   UNL     1      -1.568  13.524 -10.830  1.00  0.00     0.146 A 
ATOM     11  O   UNL     1      -1.099  13.416  -9.592  1.00  0.00    -0.456 OA
ENDROOT
BRANCH   1  12
ATOM     12  C   UNL     1       0.588  13.445  -7.854  1.00  0.00     0.021 A 
ATOM     13  C   UNL     1       1.952  13.489  -7.518  1.00  0.00     0.016 A 
ATOM     14  C   UNL     1       2.362  13.356  -6.189  1.00  0.00     0.051 A 
ATOM     15  C   UNL     1       1.416  13.167  -5.174  1.00  0.00     0.157 A 
ATOM     16  C   UNL     1      -0.358  13.242  -6.828  1.00  0.00     0.062 A 
ATOM     17  C   UNL     1       0.054  13.106  -5.495  1.00  0.00     0.158 A 
BRANCH  15  18
ATOM     18  O   UNL     1       1.821  13.035  -3.847  1.00  0.00    -0.504 OA
ATOM     19  H   UNL     1       2.791  13.144  -3.575  1.00  0.00     0.293 HD
ENDBRANCH  15  18
BRANCH  17  20
ATOM     20  O   UNL     1      -0.884  12.906  -4.483  1.00  0.00    -0.504 OA
ATOM     21  H   UNL     1      -0.605  12.791  -3.516  1.00  0.00     0.293 HD
ENDBRANCH  17  20
ENDBRANCH   1  12
BRANCH   6  22
ATOM     22  O   UNL     1      -0.542  14.403 -14.337  1.00  0.00    -0.507 OA
ATOM     23  H   UNL     1      -0.635  15.302 -14.784  1.00  0.00     0.293 HD
ENDBRANCH   6  22
BRANCH   8  24
ATOM     24  O   UNL     1      -4.813  13.160 -12.570  1.00  0.00    -0.508 OA
ATOM     25  H   UNL     1      -5.192  13.124 -13.509  1.00  0.00     0.293 HD
ENDBRANCH   8  24
TORSDOF 5
ENDMDL
MODEL 3
REMARK VINA RESULT:    -3.861      1.565      2.749
REMARK INTER + INTRA:          -4.854
REMARK INTER:                  -4.562
REMARK INTRA:                  -0.291
REMARK UNBOUND:                -0.315
REMARK SMILES O=c1cc(-c2ccc(O)c(O)c2)oc2cc(O)cc(O)c12
REMARK SMILES IDX 4 1 3 2 2 3 1 4 21 5 19 6 18 7 16 8 15 9 14 10 13 11 5 12
REMARK SMILES IDX 6 13 7 14 8 15 12 16 10 17 9 18 11 20 20 22 17 24
REMARK H PARENT 9 19 11 21 20 23 17 25
REMARK Flexibility Score: inf
ROOT
ATOM      1  C   UNL     1      -1.392   8.841  -8.774  1.00  0.00     0.138 A 
ATOM      2  C   UNL     1      -1.229  10.087  -8.152  1.00  0.00     0.100 A 
ATOM      3  C   UNL     1      -1.561  11.253  -8.844  1.00  0.00     0.197 A 
ATOM      4  O   UNL     1      -1.345  12.358  -8.283  1.00  0.00    -0.289 OA
ATOM      5  C   UNL     1      -2.088  11.167 -10.155  1.00  0.00     0.107 A 
ATOM      6  C   UNL     1      -2.500  12.285 -10.941  1.00  0.00     0.134 A 
ATOM      7  C   UNL     1      -2.898  12.086 -12.269  1.00  0.00     0.093 A 
ATOM      8  C   UNL     1      -2.957  10.806 -12.819  1.00  0.00     0.123 A 
ATOM      9  C   UNL     1      -2.608   9.700 -12.043  1.00  0.00     0.094 A 
ATOM     10  C   UNL     1      -2.174   9.868 -10.727  1.00  0.00     0.146 A 
ATOM     11  O   UNL     1      -1.837   8.792 -10.025  1.00  0.00    -0.456 OA
ENDROOT
BRANCH   1  12
ATOM     12  C   UNL     1      -1.055   7.571  -8.084  1.00  0.00     0.021 A 
ATOM     13  C   UNL     1      -1.648   6.371  -8.513  1.00  0.00     0.016 A 
ATOM     14  C   UNL     1      -1.354   5.164  -7.875  1.00  0.00     0.051 A 
ATOM     15  C   UNL     1      -0.468   5.136  -6.791  1.00  0.00     0.157 A 
ATOM     16  C   UNL     1      -0.173   7.537  -6.984  1.00  0.00     0.062 A 
ATOM     17  C   UNL     1       0.121   6.325  -6.343  1.00  0.00     0.158 A 
BRANCH  15  18
ATOM     18  O   UNL     1      -0.170   3.933  -6.153  1.00  0.00    -0.504 OA
ATOM     19  H   UNL     1      -0.258   3.044  -6.630  1.00  0.00     0.293 HD
ENDBRANCH  15  18
BRANCH  17  20
ATOM     20  O   UNL     1       0.994   6.295  -5.257  1.00  0.00    -0.504 OA
ATOM     21  H   UNL     1       1.113   5.461  -4.695  1.00  0.00     0.293 HD
ENDBRANCH  17  20
ENDBRANCH   1  12
BRANCH   6  22
ATOM     22  O   UNL     1      -2.560  13.597 -10.460  1.00  0.00    -0.507 OA
ATOM     23  H   UNL     1      -3.400  14.151 -10.399  1.00  0.00     0.293 HD
ENDBRANCH   6  22
BRANCH   8  24
ATOM     24  O   UNL     1      -3.372  10.645 -14.140  1.00  0.00    -0.508 OA
ATOM     25  H   UNL     1      -4.259  10.211 -14.366  1.00  0.00     0.293 HD
ENDBRANCH   8  24
TORSDOF 5
ENDMDL
MODEL 4
REMARK VINA RESULT:    -3.804      2.786      3.547
REMARK INTER + INTRA:          -4.786
REMARK INTER:                  -4.521
REMARK INTRA:                  -0.264
REMARK UNBOUND:                -0.315
REMARK SMILES O=c1cc(-c2ccc(O)c(O)c2)oc2cc(O)cc(O)c12
REMARK SMILES IDX 4 1 3 2 2 3 1 4 21 5 19 6 18 7 16 8 15 9 14 10 13 11 5 12
REMARK SMILES IDX 6 13 7 14 8 15 12 16 10 17 9 18 11 20 20 22 17 24
REMARK H PARENT 9 19 11 21 20 23 17 25
REMARK Flexibility Score: inf
ROOT
ATOM      1  C   UNL     1      -3.318   9.723  -9.286  1.00  0.00     0.138 A 
ATOM      2  C   UNL     1      -3.691  10.212 -10.546  1.00  0.00     0.100 A 
ATOM      3  C   UNL     1      -3.069  11.354 -11.055  1.00  0.00     0.197 A 
ATOM      4  O   UNL     1      -3.468  11.805 -12.159  1.00  0.00    -0.289 OA
ATOM      5  C   UNL     1      -2.046  11.989 -10.309  1.00  0.00     0.107 A 
ATOM      6  C   UNL     1      -1.314  13.134 -10.746  1.00  0.00     0.134 A 
ATOM      7  C   UNL     1      -0.406  13.745  -9.873  1.00  0.00     0.093 A 
ATOM      8  C   UNL     1      -0.159  13.219  -8.605  1.00  0.00     0.123 A 
ATOM      9  C   UNL     1      -0.830  12.069  -8.189  1.00  0.00     0.094 A 
ATOM     10  C   UNL     1      -1.767  11.456  -9.022  1.00  0.00     0.146 A 
ATOM     11  O   UNL     1      -2.395  10.370  -8.584  1.00  0.00    -0.456 OA
ENDROOT
BRANCH   1  12
ATOM     12  C   UNL     1      -3.947   8.513  -8.698  1.00  0.00     0.021 A 
ATOM     13  C   UNL     1      -3.192   7.335  -8.566  1.00  0.00     0.016 A 
ATOM     14  C   UNL     1      -3.762   6.182  -8.023  1.00  0.00     0.051 A 
ATOM     15  C   UNL     1      -5.101   6.182  -7.612  1.00  0.00     0.157 A 
ATOM     16  C   UNL     1      -5.298   8.503  -8.294  1.00  0.00     0.062 A 
ATOM     17  C   UNL     1      -5.871   7.344  -7.751  1.00  0.00     0.158 A 
BRANCH  15  18
ATOM     18  O   UNL     1      -5.673   5.034  -7.069  1.00  0.00    -0.504 OA
ATOM     19  H   UNL     1      -6.298   5.078  -6.272  1.00  0.00     0.293 HD
ENDBRANCH  15  18
BRANCH  17  20
ATOM     20  O   UNL     1      -7.206   7.338  -7.352  1.00  0.00    -0.504 OA
ATOM     21  H   UNL     1      -7.695   8.195  -7.122  1.00  0.00     0.293 HD
ENDBRANCH  17  20
ENDBRANCH   1  12
BRANCH   6  22
ATOM     22  O   UNL     1      -1.424  13.690 -12.024  1.00  0.00    -0.507 OA
ATOM     23  H   UNL     1      -2.276  14.048 -12.426  1.00  0.00     0.293 HD
ENDBRANCH   6  22
BRANCH   8  24
ATOM     24  O   UNL     1       0.764  13.846  -7.769  1.00  0.00    -0.508 OA
ATOM     25  H   UNL     1       1.042  13.436  -6.886  1.00  0.00     0.293 HD
ENDBRANCH   8  24
TORSDOF 5
ENDMDL
MODEL 5
REMARK VINA RESULT:    -3.783      4.407      6.725
REMARK INTER + INTRA:          -4.761
REMARK INTER:                  -4.480
REMARK INTRA:                  -0.281
REMARK UNBOUND:                -0.315
REMARK SMILES O=c1cc(-c2ccc(O)c(O)c2)oc2cc(O)cc(O)c12
REMARK SMILES IDX 4 1 3 2 2 3 1 4 21 5 19 6 18 7 16 8 15 9 14 10 13 11 5 12
REMARK SMILES IDX 6 13 7 14 8 15 12 16 10 17 9 18 11 20 20 22 17 24
REMARK H PARENT 9 19 11 21 20 23 17 25
REMARK Flexibility Score: inf
ROOT
ATOM      1  C   UNL     1      -0.682  13.073  -9.180  1.00  0.00     0.138 A 
ATOM      2  C   UNL     1       0.484  13.682  -9.667  1.00  0.00     0.100 A 
ATOM      3  C   UNL     1       1.461  14.117  -8.770  1.00  0.00     0.197 A 
ATOM      4  O   UNL     1       2.467  14.715  -9.231  1.00  0.00    -0.289 OA
ATOM      5  C   UNL     1       1.282  13.912  -7.380  1.00  0.00     0.107 A 
ATOM      6  C   UNL     1       2.229  14.277  -6.376  1.00  0.00     0.134 A 
ATOM      7  C   UNL     1       1.892  14.130  -5.025  1.00  0.00     0.093 A 
ATOM      8  C   UNL     1       0.669  13.578  -4.642  1.00  0.00     0.123 A 
ATOM      9  C   UNL     1      -0.242  13.169  -5.617  1.00  0.00     0.094 A 
ATOM     10  C   UNL     1       0.050  13.333  -6.972  1.00  0.00     0.146 A 
ATOM     11  O   UNL     1      -0.849  12.943  -7.869  1.00  0.00    -0.456 OA
ENDROOT
BRANCH   1  12
ATOM     12  C   UNL     1      -1.752  12.592 -10.089  1.00  0.00     0.021 A 
ATOM     13  C   UNL     1      -2.346  13.488 -10.995  1.00  0.00     0.016 A 
ATOM     14  C   UNL     1      -3.361  13.062 -11.856  1.00  0.00     0.051 A 
ATOM     15  C   UNL     1      -3.807  11.734 -11.819  1.00  0.00     0.157 A 
ATOM     16  C   UNL     1      -2.215  11.261 -10.049  1.00  0.00     0.062 A 
ATOM     17  C   UNL     1      -3.235  10.834 -10.911  1.00  0.00     0.158 A 
BRANCH  15  18
ATOM     18  O   UNL     1      -4.817  11.306 -12.676  1.00  0.00    -0.504 OA
ATOM     19  H   UNL     1      -5.477  10.587 -12.401  1.00  0.00     0.293 HD
ENDBRANCH  15  18
BRANCH  17  20
ATOM     20  O   UNL     1      -3.689   9.517 -10.869  1.00  0.00    -0.504 OA
ATOM     21  H   UNL     1      -3.551   8.934 -10.053  1.00  0.00     0.293 HD
ENDBRANCH  17  20
ENDBRANCH   1  12
BRANCH   6  22
ATOM     22  O   UNL     1       3.511  14.760  -6.652  1.00  0.00    -0.507 OA
ATOM     23  H   UNL     1       4.362  14.406  -6.241  1.00  0.00     0.293 HD
ENDBRANCH   6  22
BRANCH   8  24
ATOM     24  O   UNL     1       0.375  13.434  -3.288  1.00  0.00    -0.508 OA
ATOM     25  H   UNL     1      -0.088  14.169  -2.766  1.00  0.00     0.293 HD
ENDBRANCH   8  24
TORSDOF 5
ENDMDL
MODEL 6
REMARK VINA RESULT:    -3.777      5.615      8.671
REMARK INTER + INTRA:          -4.754
REMARK INTER:                  -4.457
REMARK INTRA:                  -0.298
REMARK UNBOUND:                -0.315
REMARK SMILES O=c1cc(-c2ccc(O)c(O)c2)oc2cc(O)cc(O)c12
REMARK SMILES IDX 4 1 3 2 2 3 1 4 21 5 19 6 18 7 16 8 15 9 14 10 13 11 5 12
REMARK SMILES IDX 6 13 7 14 8 15 12 16 10 17 9 18 11 20 20 22 17 24
REMARK H PARENT 9 19 11 21 20 23 17 25
REMARK Flexibility Score: inf
ROOT
ATOM      1  C   UNL     1       0.755  13.194  -4.933  1.00  0.00     0.138 A 
ATOM      2  C   UNL     1       1.906  12.794  -4.239  1.00  0.00     0.100 A 
ATOM      3  C   UNL     1       1.846  12.600  -2.858  1.00  0.00     0.197 A 
ATOM      4  O   UNL     1       2.909  12.302  -2.254  1.00  0.00    -0.289 OA
ATOM      5  C   UNL     1       0.618  12.776  -2.175  1.00  0.00     0.107 A 
ATOM      6  C   UNL     1       0.429  12.566  -0.777  1.00  0.00     0.134 A 
ATOM      7  C   UNL     1      -0.803  12.884  -0.192  1.00  0.00     0.093 A 
ATOM      8  C   UNL     1      -1.869  13.348  -0.963  1.00  0.00     0.123 A 
ATOM      9  C   UNL     1      -1.711  13.506  -2.340  1.00  0.00     0.094 A 
ATOM     10  C   UNL     1      -0.484  13.230  -2.948  1.00  0.00     0.146 A 
ATOM     11  O   UNL     1      -0.370  13.406  -4.260  1.00  0.00    -0.456 OA
ENDROOT
BRANCH   1  12
ATOM     12  C   UNL     1       0.763  13.416  -6.401  1.00  0.00     0.021 A 
ATOM     13  C   UNL     1       1.871  14.038  -7.002  1.00  0.00     0.016 A 
ATOM     14  C   UNL     1       1.899  14.265  -8.380  1.00  0.00     0.051 A 
ATOM     15  C   UNL     1       0.816  13.882  -9.181  1.00  0.00     0.157 A 
ATOM     16  C   UNL     1      -0.329  13.045  -7.211  1.00  0.00     0.062 A 
ATOM     17  C   UNL     1      -0.301  13.274  -8.595  1.00  0.00     0.158 A 
BRANCH  15  18
ATOM     18  O   UNL     1       0.841  14.106 -10.556  1.00  0.00    -0.504 OA
ATOM     19  H   UNL     1       1.325  13.478 -11.187  1.00  0.00     0.293 HD
ENDBRANCH  15  18
BRANCH  17  20
ATOM     20  O   UNL     1      -1.383  12.905  -9.393  1.00  0.00    -0.504 OA
ATOM     21  H   UNL     1      -2.244  13.438  -9.399  1.00  0.00     0.293 HD
ENDBRANCH  17  20
ENDBRANCH   1  12
BRANCH   6  22
ATOM     22  O   UNL     1       1.402  12.027   0.071  1.00  0.00    -0.507 OA
ATOM     23  H   UNL     1       1.234  11.311   0.760  1.00  0.00     0.293 HD
ENDBRANCH   6  22
BRANCH   8  24
ATOM     24  O   UNL     1      -3.085  13.640  -0.348  1.00  0.00    -0.508 OA
ATOM     25  H   UNL     1      -3.772  12.919  -0.165  1.00  0.00     0.293 HD
ENDBRANCH   8  24
TORSDOF 5
ENDMDL
MODEL 7
REMARK VINA RESULT:    -3.774      3.572      6.196
REMARK INTER + INTRA:          -4.751
REMARK INTER:                  -4.474
REMARK INTRA:                  -0.277
REMARK UNBOUND:                -0.315
REMARK SMILES O=c1cc(-c2ccc(O)c(O)c2)oc2cc(O)cc(O)c12
REMARK SMILES IDX 4 1 3 2 2 3 1 4 21 5 19 6 18 7 16 8 15 9 14 10 13 11 5 12
REMARK SMILES IDX 6 13 7 14 8 15 12 16 10 17 9 18 11 20 20 22 17 24
REMARK H PARENT 9 19 11 21 20 23 17 25
REMARK Flexibility Score: inf
ROOT
ATOM      1  C   UNL     1      -0.705  12.524  -8.317  1.00  0.00     0.138 A 
ATOM      2  C   UNL     1      -1.049  11.174  -8.158  1.00  0.00     0.100 A 
ATOM      3  C   UNL     1      -1.905  10.566  -9.078  1.00  0.00     0.197 A 
ATOM      4  O   UNL     1      -2.245   9.373  -8.874  1.00  0.00    -0.289 OA
ATOM      5  C   UNL     1      -2.392  11.308 -10.182  1.00  0.00     0.107 A 
ATOM      6  C   UNL     1      -3.235  10.781 -11.205  1.00  0.00     0.134 A 
ATOM      7  C   UNL     1      -3.749  11.640 -12.185  1.00  0.00     0.093 A 
ATOM      8  C   UNL     1      -3.401  12.990 -12.214  1.00  0.00     0.123 A 
ATOM      9  C   UNL     1      -2.534  13.504 -11.250  1.00  0.00     0.094 A 
ATOM     10  C   UNL     1      -2.032  12.681 -10.239  1.00  0.00     0.146 A 
ATOM     11  O   UNL     1      -1.220  13.211  -9.331  1.00  0.00    -0.456 OA
ENDROOT
BRANCH   1  12
ATOM     12  C   UNL     1       0.200  13.220  -7.368  1.00  0.00     0.021 A 
ATOM     13  C   UNL     1      -0.162  13.320  -6.014  1.00  0.00     0.016 A 
ATOM     14  C   UNL     1       0.669  13.976  -5.102  1.00  0.00     0.051 A 
ATOM     15  C   UNL     1       1.871  14.553  -5.531  1.00  0.00     0.157 A 
ATOM     16  C   UNL     1       1.405  13.813  -7.795  1.00  0.00     0.062 A 
ATOM     17  C   UNL     1       2.238  14.474  -6.880  1.00  0.00     0.158 A 
BRANCH  15  18
ATOM     18  O   UNL     1       2.702  15.207  -4.625  1.00  0.00    -0.504 OA
ATOM     19  H   UNL     1       3.710  15.099  -4.654  1.00  0.00     0.293 HD
ENDBRANCH  15  18
BRANCH  17  20
ATOM     20  O   UNL     1       3.430  15.058  -7.305  1.00  0.00    -0.504 OA
ATOM     21  H   UNL     1       4.001  14.635  -8.027  1.00  0.00     0.293 HD
ENDBRANCH  17  20
ENDBRANCH   1  12
BRANCH   6  22
ATOM     22  O   UNL     1      -3.577   9.430 -11.317  1.00  0.00    -0.507 OA
ATOM     23  H   UNL     1      -3.552   8.898 -12.174  1.00  0.00     0.293 HD
ENDBRANCH   6  22
BRANCH   8  24
ATOM     24  O   UNL     1      -3.920  13.811 -13.214  1.00  0.00    -0.508 OA
ATOM     25  H   UNL     1      -4.765  14.352 -13.069  1.00  0.00     0.293 HD
ENDBRANCH   8  24
TORSDOF 5
ENDMDL
MODEL 8
REMARK VINA RESULT:    -3.701      5.136      6.110
REMARK INTER + INTRA:          -4.665
REMARK INTER:                  -4.380
REMARK INTRA:                  -0.284
REMARK UNBOUND:                -0.315
REMARK SMILES O=c1cc(-c2ccc(O)c(O)c2)oc2cc(O)cc(O)c12
REMARK SMILES IDX 4 1 3 2 2 3 1 4 21 5 19 6 18 7 16 8 15 9 14 10 13 11 5 12
REMARK SMILES IDX 6 13 7 14 8 15 12 16 10 17 9 18 11 20 20 22 17 24
REMARK H PARENT 9 19 11 21 20 23 17 25
REMARK Flexibility Score: inf
ROOT
ATOM      1  C   UNL     1       0.691  13.479  -7.961  1.00  0.00     0.138 A 
ATOM      2  C   UNL     1       1.772  13.884  -8.758  1.00  0.00     0.100 A 
ATOM      3  C   UNL     1       1.583  14.088 -10.125  1.00  0.00     0.197 A 
ATOM      4  O   UNL     1       2.584  14.390 -10.825  1.00  0.00    -0.289 OA
ATOM      5  C   UNL     1       0.296  13.916 -10.691  1.00  0.00     0.107 A 
ATOM      6  C   UNL     1      -0.024  14.137 -12.064  1.00  0.00     0.134 A 
ATOM      7  C   UNL     1      -1.305  13.823 -12.533  1.00  0.00     0.093 A 
ATOM      8  C   UNL     1      -2.294  13.354 -11.669  1.00  0.00     0.123 A 
ATOM      9  C   UNL     1      -2.008  13.186 -10.314  1.00  0.00     0.094 A 
ATOM     10  C   UNL     1      -0.730  13.458  -9.822  1.00  0.00     0.146 A 
ATOM     11  O   UNL     1      -0.493  13.272  -8.527  1.00  0.00    -0.456 OA
ENDROOT
BRANCH   1  12
ATOM     12  C   UNL     1       0.836  13.247  -6.502  1.00  0.00     0.021 A 
ATOM     13  C   UNL     1      -0.234  13.552  -5.643  1.00  0.00     0.016 A 
ATOM     14  C   UNL     1      -0.119  13.350  -4.265  1.00  0.00     0.051 A 
ATOM     15  C   UNL     1       1.070  12.850  -3.721  1.00  0.00     0.157 A 
ATOM     16  C   UNL     1       2.035  12.756  -5.947  1.00  0.00     0.062 A 
ATOM     17  C   UNL     1       2.150  12.555  -4.563  1.00  0.00     0.158 A 
BRANCH  15  18
ATOM     18  O   UNL     1       1.188  12.646  -2.348  1.00  0.00    -0.504 OA
ATOM     19  H   UNL     1       0.389  12.725  -1.730  1.00  0.00     0.293 HD
ENDBRANCH  15  18
BRANCH  17  20
ATOM     20  O   UNL     1       3.336  12.068  -4.017  1.00  0.00    -0.504 OA
ATOM     21  H   UNL     1       4.225  12.186  -4.488  1.00  0.00     0.293 HD
ENDBRANCH  17  20
ENDBRANCH   1  12
BRANCH   6  22
ATOM     22  O   UNL     1       0.866  14.681 -12.996  1.00  0.00    -0.507 OA
ATOM     23  H   UNL     1       0.607  15.299 -13.749  1.00  0.00     0.293 HD
ENDBRANCH   6  22
BRANCH   8  24
ATOM     24  O   UNL     1      -3.563  13.066 -12.169  1.00  0.00    -0.508 OA
ATOM     25  H   UNL     1      -4.251  13.795 -12.318  1.00  0.00     0.293 HD
ENDBRANCH   8  24
TORSDOF 5
ENDMDL
MODEL 9
REMARK VINA RESULT:    -3.648      8.134     10.398
REMARK INTER + INTRA:          -4.602
REMARK INTER:                  -4.328
REMARK INTRA:                  -0.274
REMARK UNBOUND:                -0.315
REMARK SMILES O=c1cc(-c2ccc(O)c(O)c2)oc2cc(O)cc(O)c12
REMARK SMILES IDX 4 1 3 2 2 3 1 4 21 5 19 6 18 7 16 8 15 9 14 10 13 11 5 12
REMARK SMILES IDX 6 13 7 14 8 15 12 16 10 17 9 18 11 20 20 22 17 24
REMARK H PARENT 9 19 11 21 20 23 17 25
REMARK Flexibility Score: inf
ROOT
ATOM      1  C   UNL     1      -1.678  13.658  -1.610  1.00  0.00     0.138 A 
ATOM      2  C   UNL     1      -2.802  14.411  -1.242  1.00  0.00     0.100 A 
ATOM      3  C   UNL     1      -3.569  14.016  -0.145  1.00  0.00     0.197 A 
ATOM      4  O   UNL     1      -4.607  14.676   0.122  1.00  0.00    -0.289 OA
ATOM      5  C   UNL     1      -3.189  12.878   0.606  1.00  0.00     0.107 A 
ATOM      6  C   UNL     1      -3.870  12.406   1.768  1.00  0.00     0.134 A 
ATOM      7  C   UNL     1      -3.470  11.202   2.361  1.00  0.00     0.093 A 
ATOM      8  C   UNL     1      -2.378  10.486   1.872  1.00  0.00     0.123 A 
ATOM      9  C   UNL     1      -1.671  10.967   0.769  1.00  0.00     0.094 A 
ATOM     10  C   UNL     1      -2.066  12.146   0.135  1.00  0.00     0.146 A 
ATOM     11  O   UNL     1      -1.375  12.564  -0.921  1.00  0.00    -0.456 OA
ENDROOT
BRANCH   1  12
ATOM     12  C   UNL     1      -0.828  14.033  -2.767  1.00  0.00     0.021 A 
ATOM     13  C   UNL     1      -0.127  15.251  -2.746  1.00  0.00     0.016 A 
ATOM     14  C   UNL     1       0.673  15.631  -3.826  1.00  0.00     0.051 A 
ATOM     15  C   UNL     1       0.780  14.803  -4.951  1.00  0.00     0.157 A 
ATOM     16  C   UNL     1      -0.726  13.211  -3.908  1.00  0.00     0.062 A 
ATOM     17  C   UNL     1       0.077  13.593  -4.993  1.00  0.00     0.158 A 
BRANCH  15  18
ATOM     18  O   UNL     1       1.578  15.177  -6.030  1.00  0.00    -0.504 OA
ATOM     19  H   UNL     1       1.546  14.680  -6.912  1.00  0.00     0.293 HD
ENDBRANCH  15  18
BRANCH  17  20
ATOM     20  O   UNL     1       0.176  12.777  -6.118  1.00  0.00    -0.504 OA
ATOM     21  H   UNL     1       0.801  11.980  -6.143  1.00  0.00     0.293 HD
ENDBRANCH  17  20
ENDBRANCH   1  12
BRANCH   6  22
ATOM     22  O   UNL     1      -4.922  13.089   2.387  1.00  0.00    -0.507 OA
ATOM     23  H   UNL     1      -5.512  13.771   1.936  1.00  0.00     0.293 HD
ENDBRANCH   6  22
BRANCH   8  24
ATOM     24  O   UNL     1      -1.999   9.300   2.498  1.00  0.00    -0.508 OA
ATOM     25  H   UNL     1      -2.317   9.070   3.432  1.00  0.00     0.293 HD
ENDBRANCH   8  24
TORSDOF 5
ENDMDL
