MODEL 1
REMARK VINA RESULT:    -5.570      0.000      0.000
REMARK INTER + INTRA:         -11.956
REMARK INTER:                 -10.129
REMARK INTRA:                  -1.827
REMARK UNBOUND:                -1.827
REMARK SMILES CCCCCCCCCCCCCCCC(=O)[O-]
REMARK SMILES IDX 9 1 10 2 11 3 12 4 13 5 14 6 15 7 16 8 17 9 18 10 8 11 7 12
REMARK SMILES IDX 6 13 5 14 4 15 3 16 2 17 1 18
REMARK H PARENT
REMARK Flexibility Score: inf
ROOT
ATOM      1  C   UNL     1      10.056 -24.065  22.984  1.00  0.00     0.000 C 
ENDROOT
BRANCH   1   2
ATOM      2  C   UNL     1      10.194 -25.152  21.906  1.00  0.00     0.000 C 
BRANCH   2   3
ATOM      3  C   UNL     1      11.355 -24.880  20.938  1.00  0.00     0.000 C 
BRANCH   3   4
ATOM      4  C   UNL     1      12.181 -23.669  21.398  1.00  0.00     0.000 C 
BRANCH   4   5
ATOM      5  C   UNL     1      12.869 -22.934  20.234  1.00  0.00     0.000 C 
BRANCH   5   6
ATOM      6  C   UNL     1      14.361 -23.267  20.046  1.00  0.00     0.006 C 
BRANCH   6   7
ATOM      7  C   UNL     1      14.922 -24.149  21.169  1.00  0.00     0.053 C 
BRANCH   7   8
ATOM      8  C   UNL     1      15.173 -25.536  20.666  1.00  0.00     0.041 C 
ATOM      9  O   UNL     1      15.670 -26.406  21.427  1.00  0.00    -0.550 OA
ATOM     10  O   UNL     1      14.812 -25.881  19.369  1.00  0.00    -0.550 OA
ENDBRANCH   7   8
ENDBRANCH   6   7
ENDBRANCH   5   6
ENDBRANCH   4   5
ENDBRANCH   3   4
ENDBRANCH   2   3
ENDBRANCH   1   2
BRANCH   1  11
ATOM     11  C   UNL     1       9.409 -24.592  24.277  1.00  0.00     0.000 C 
BRANCH  11  12
ATOM     12  C   UNL     1       9.674 -23.677  25.482  1.00  0.00    -0.000 C 
BRANCH  12  13
ATOM     13  C   UNL     1      10.754 -24.239  26.423  1.00  0.00    -0.000 C 
BRANCH  13  14
ATOM     14  C   UNL     1      12.003 -23.343  26.498  1.00  0.00    -0.000 C 
BRANCH  14  15
ATOM     15  C   UNL     1      12.799 -23.223  25.183  1.00  0.00    -0.000 C 
BRANCH  15  16
ATOM     16  C   UNL     1      12.711 -21.852  24.489  1.00  0.00    -0.000 C 
BRANCH  16  17
ATOM     17  C   UNL     1      13.997 -21.479  23.738  1.00  0.00    -0.003 C 
ATOM     18  C   UNL     1      15.209 -22.178  24.346  1.00  0.00     0.004 C 
ENDBRANCH  16  17
ENDBRANCH  15  16
ENDBRANCH  14  15
ENDBRANCH  13  14
ENDBRANCH  12  13
ENDBRANCH  11  12
ENDBRANCH   1  11
TORSDOF 14
ENDMDL
MODEL 2
REMARK VINA RESULT:    -5.277      1.316      3.511
REMARK INTER + INTRA:         -11.422
REMARK INTER:                  -9.798
REMARK INTRA:                  -1.625
REMARK UNBOUND:                -1.827
REMARK SMILES CCCCCCCCCCCCCCCC(=O)[O-]
REMARK SMILES IDX 9 1 10 2 11 3 12 4 13 5 14 6 15 7 16 8 17 9 18 10 8 11 7 12
REMARK SMILES IDX 6 13 5 14 4 15 3 16 2 17 1 18
REMARK H PARENT
REMARK Flexibility Score: inf
ROOT
ATOM      1  C   UNL     1      12.200 -22.081  24.306  1.00  0.00     0.000 C 
ENDROOT
BRANCH   1   2
ATOM      2  C   UNL     1      12.543 -22.311  22.826  1.00  0.00     0.000 C 
BRANCH   2   3
ATOM      3  C   UNL     1      12.101 -23.695  22.325  1.00  0.00     0.000 C 
BRANCH   3   4
ATOM      4  C   UNL     1      12.104 -23.750  20.791  1.00  0.00     0.000 C 
BRANCH   4   5
ATOM      5  C   UNL     1      13.150 -22.814  20.158  1.00  0.00     0.000 C 
BRANCH   5   6
ATOM      6  C   UNL     1      14.566 -23.406  20.040  1.00  0.00     0.006 C 
BRANCH   6   7
ATOM      7  C   UNL     1      14.585 -24.936  20.157  1.00  0.00     0.053 C 
BRANCH   7   8
ATOM      8  C   UNL     1      15.353 -25.355  21.371  1.00  0.00     0.041 C 
ATOM      9  O   UNL     1      15.755 -26.542  21.487  1.00  0.00    -0.550 OA
ATOM     10  O   UNL     1      15.666 -24.423  22.352  1.00  0.00    -0.550 OA
ENDBRANCH   7   8
ENDBRANCH   6   7
ENDBRANCH   5   6
ENDBRANCH   4   5
ENDBRANCH   3   4
ENDBRANCH   2   3
ENDBRANCH   1   2
BRANCH   1  11
ATOM     11  C   UNL     1      13.013 -22.984  25.250  1.00  0.00     0.000 C 
BRANCH  11  12
ATOM     12  C   UNL     1      12.247 -23.334  26.535  1.00  0.00    -0.000 C 
BRANCH  12  13
ATOM     13  C   UNL     1      10.766 -22.923  26.468  1.00  0.00    -0.000 C 
BRANCH  13  14
ATOM     14  C   UNL     1       9.818 -24.130  26.355  1.00  0.00    -0.000 C 
BRANCH  14  15
ATOM     15  C   UNL     1       9.581 -24.638  24.918  1.00  0.00    -0.000 C 
BRANCH  15  16
ATOM     16  C   UNL     1       8.938 -23.618  23.962  1.00  0.00    -0.000 C 
BRANCH  16  17
ATOM     17  C   UNL     1       8.198 -24.280  22.791  1.00  0.00    -0.003 C 
ATOM     18  C   UNL     1       6.885 -23.563  22.495  1.00  0.00     0.004 C 
ENDBRANCH  16  17
ENDBRANCH  15  16
ENDBRANCH  14  15
ENDBRANCH  13  14
ENDBRANCH  12  13
ENDBRANCH  11  12
ENDBRANCH   1  11
TORSDOF 14
ENDMDL
MODEL 3
REMARK VINA RESULT:    -5.268      2.670      5.058
REMARK INTER + INTRA:         -11.406
REMARK INTER:                  -9.668
REMARK INTRA:                  -1.738
REMARK UNBOUND:                -1.827
REMARK SMILES CCCCCCCCCCCCCCCC(=O)[O-]
REMARK SMILES IDX 9 1 10 2 11 3 12 4 13 5 14 6 15 7 16 8 17 9 18 10 8 11 7 12
REMARK SMILES IDX 6 13 5 14 4 15 3 16 2 17 1 18
REMARK H PARENT
REMARK Flexibility Score: inf
ROOT
ATOM      1  C   UNL     1      15.151 -23.641  22.316  1.00  0.00     0.000 C 
ENDROOT
BRANCH   1   2
ATOM      2  C   UNL     1      15.029 -22.828  21.017  1.00  0.00     0.000 C 
BRANCH   2   3
ATOM      3  C   UNL     1      13.947 -23.379  20.075  1.00  0.00     0.000 C 
BRANCH   3   4
ATOM      4  C   UNL     1      12.545 -23.160  20.663  1.00  0.00     0.000 C 
BRANCH   4   5
ATOM      5  C   UNL     1      11.605 -24.357  20.435  1.00  0.00     0.000 C 
BRANCH   5   6
ATOM      6  C   UNL     1      11.164 -25.090  21.715  1.00  0.00     0.006 C 
BRANCH   6   7
ATOM      7  C   UNL     1      10.503 -24.159  22.739  1.00  0.00     0.053 C 
BRANCH   7   8
ATOM      8  C   UNL     1       9.027 -24.401  22.786  1.00  0.00     0.041 C 
ATOM      9  O   UNL     1       8.515 -25.326  22.103  1.00  0.00    -0.550 OA
ATOM     10  O   UNL     1       8.223 -23.635  23.622  1.00  0.00    -0.550 OA
ENDBRANCH   7   8
ENDBRANCH   6   7
ENDBRANCH   5   6
ENDBRANCH   4   5
ENDBRANCH   3   4
ENDBRANCH   2   3
ENDBRANCH   1   2
BRANCH   1  11
ATOM     11  C   UNL     1      15.274 -22.748  23.563  1.00  0.00     0.000 C 
BRANCH  11  12
ATOM     12  C   UNL     1      14.274 -21.581  23.553  1.00  0.00    -0.000 C 
BRANCH  12  13
ATOM     13  C   UNL     1      12.931 -21.951  24.207  1.00  0.00    -0.000 C 
BRANCH  13  14
ATOM     14  C   UNL     1      13.083 -22.985  25.336  1.00  0.00    -0.000 C 
BRANCH  14  15
ATOM     15  C   UNL     1      11.922 -23.017  26.350  1.00  0.00    -0.000 C 
BRANCH  15  16
ATOM     16  C   UNL     1      11.390 -24.421  26.690  1.00  0.00    -0.000 C 
BRANCH  16  17
ATOM     17  C   UNL     1       9.860 -24.514  26.611  1.00  0.00    -0.003 C 
ATOM     18  C   UNL     1       9.392 -25.962  26.722  1.00  0.00     0.004 C 
ENDBRANCH  16  17
ENDBRANCH  15  16
ENDBRANCH  14  15
ENDBRANCH  13  14
ENDBRANCH  12  13
ENDBRANCH  11  12
ENDBRANCH   1  11
TORSDOF 14
ENDMDL
MODEL 4
REMARK VINA RESULT:    -5.216      2.855      6.356
REMARK INTER + INTRA:         -11.312
REMARK INTER:                  -9.730
REMARK INTRA:                  -1.582
REMARK UNBOUND:                -1.827
REMARK SMILES CCCCCCCCCCCCCCCC(=O)[O-]
REMARK SMILES IDX 9 1 10 2 11 3 12 4 13 5 14 6 15 7 16 8 17 9 18 10 8 11 7 12
REMARK SMILES IDX 6 13 5 14 4 15 3 16 2 17 1 18
REMARK H PARENT
REMARK Flexibility Score: inf
ROOT
ATOM      1  C   UNL     1      15.269 -23.682  22.243  1.00  0.00     0.000 C 
ENDROOT
BRANCH   1   2
ATOM      2  C   UNL     1      15.226 -22.753  23.466  1.00  0.00     0.000 C 
BRANCH   2   3
ATOM      3  C   UNL     1      13.942 -21.911  23.524  1.00  0.00     0.000 C 
BRANCH   3   4
ATOM      4  C   UNL     1      13.090 -22.293  24.744  1.00  0.00     0.000 C 
BRANCH   4   5
ATOM      5  C   UNL     1      11.608 -21.909  24.585  1.00  0.00     0.000 C 
BRANCH   5   6
ATOM      6  C   UNL     1      10.744 -22.114  25.843  1.00  0.00     0.006 C 
BRANCH   6   7
ATOM      7  C   UNL     1       9.743 -23.268  25.699  1.00  0.00     0.053 C 
BRANCH   7   8
ATOM      8  C   UNL     1      10.215 -24.465  26.463  1.00  0.00     0.041 C 
ATOM      9  O   UNL     1       9.491 -25.491  26.544  1.00  0.00    -0.550 OA
ATOM     10  O   UNL     1      11.477 -24.464  27.046  1.00  0.00    -0.550 OA
ENDBRANCH   7   8
ENDBRANCH   6   7
ENDBRANCH   5   6
ENDBRANCH   4   5
ENDBRANCH   3   4
ENDBRANCH   2   3
ENDBRANCH   1   2
BRANCH   1  11
ATOM     11  C   UNL     1      15.031 -22.931  20.921  1.00  0.00     0.000 C 
BRANCH  11  12
ATOM     12  C   UNL     1      14.015 -23.643  20.014  1.00  0.00    -0.000 C 
BRANCH  12  13
ATOM     13  C   UNL     1      12.559 -23.341  20.409  1.00  0.00    -0.000 C 
BRANCH  13  14
ATOM     14  C   UNL     1      11.800 -24.593  20.883  1.00  0.00    -0.000 C 
BRANCH  14  15
ATOM     15  C   UNL     1      10.888 -24.377  22.107  1.00  0.00    -0.000 C 
BRANCH  15  16
ATOM     16  C   UNL     1       9.755 -25.407  22.268  1.00  0.00    -0.000 C 
BRANCH  16  17
ATOM     17  C   UNL     1       8.391 -24.870  21.813  1.00  0.00    -0.003 C 
ATOM     18  C   UNL     1       7.798 -23.925  22.855  1.00  0.00     0.004 C 
ENDBRANCH  16  17
ENDBRANCH  15  16
ENDBRANCH  14  15
ENDBRANCH  13  14
ENDBRANCH  12  13
ENDBRANCH  11  12
ENDBRANCH   1  11
TORSDOF 14
ENDMDL
MODEL 5
REMARK VINA RESULT:    -5.163      2.843      5.552
REMARK INTER + INTRA:         -11.216
REMARK INTER:                  -9.338
REMARK INTRA:                  -1.878
REMARK UNBOUND:                -1.827
REMARK SMILES CCCCCCCCCCCCCCCC(=O)[O-]
REMARK SMILES IDX 9 1 10 2 11 3 12 4 13 5 14 6 15 7 16 8 17 9 18 10 8 11 7 12
REMARK SMILES IDX 6 13 5 14 4 15 3 16 2 17 1 18
REMARK H PARENT
REMARK Flexibility Score: inf
ROOT
ATOM      1  C   UNL     1      12.037 -24.256  20.536  1.00  0.00     0.000 C 
ENDROOT
BRANCH   1   2
ATOM      2  C   UNL     1      11.307 -24.281  21.888  1.00  0.00     0.000 C 
BRANCH   2   3
ATOM      3  C   UNL     1      10.149 -25.291  21.915  1.00  0.00     0.000 C 
BRANCH   3   4
ATOM      4  C   UNL     1       9.452 -25.289  23.284  1.00  0.00     0.000 C 
BRANCH   4   5
ATOM      5  C   UNL     1       8.773 -23.946  23.610  1.00  0.00     0.000 C 
BRANCH   5   6
ATOM      6  C   UNL     1       9.435 -23.142  24.745  1.00  0.00     0.006 C 
BRANCH   6   7
ATOM      7  C   UNL     1      10.037 -24.035  25.838  1.00  0.00     0.053 C 
BRANCH   7   8
ATOM      8  C   UNL     1      10.935 -23.235  26.728  1.00  0.00     0.041 C 
ATOM      9  O   UNL     1      10.680 -22.025  26.962  1.00  0.00    -0.550 OA
ATOM     10  O   UNL     1      12.027 -23.840  27.338  1.00  0.00    -0.550 OA
ENDBRANCH   7   8
ENDBRANCH   6   7
ENDBRANCH   5   6
ENDBRANCH   4   5
ENDBRANCH   3   4
ENDBRANCH   2   3
ENDBRANCH   1   2
BRANCH   1  11
ATOM     11  C   UNL     1      12.809 -22.946  20.305  1.00  0.00     0.000 C 
BRANCH  11  12
ATOM     12  C   UNL     1      14.319 -23.176  20.130  1.00  0.00    -0.000 C 
BRANCH  12  13
ATOM     13  C   UNL     1      14.762 -24.570  20.607  1.00  0.00    -0.000 C 
BRANCH  13  14
ATOM     14  C   UNL     1      15.256 -24.571  22.064  1.00  0.00    -0.000 C 
BRANCH  14  15
ATOM     15  C   UNL     1      15.982 -23.284  22.506  1.00  0.00    -0.000 C 
BRANCH  15  16
ATOM     16  C   UNL     1      15.272 -22.479  23.609  1.00  0.00    -0.000 C 
BRANCH  16  17
ATOM     17  C   UNL     1      13.870 -23.017  23.930  1.00  0.00    -0.003 C 
ATOM     18  C   UNL     1      12.867 -21.877  24.085  1.00  0.00     0.004 C 
ENDBRANCH  16  17
ENDBRANCH  15  16
ENDBRANCH  14  15
ENDBRANCH  13  14
ENDBRANCH  12  13
ENDBRANCH  11  12
ENDBRANCH   1  11
TORSDOF 14
ENDMDL
MODEL 6
REMARK VINA RESULT:    -5.080      2.396      4.198
REMARK INTER + INTRA:         -11.065
REMARK INTER:                  -9.615
REMARK INTRA:                  -1.450
REMARK UNBOUND:                -1.827
REMARK SMILES CCCCCCCCCCCCCCCC(=O)[O-]
REMARK SMILES IDX 9 1 10 2 11 3 12 4 13 5 14 6 15 7 16 8 17 9 18 10 8 11 7 12
REMARK SMILES IDX 6 13 5 14 4 15 3 16 2 17 1 18
REMARK H PARENT
REMARK Flexibility Score: inf
ROOT
ATOM      1  C   UNL     1      11.983 -24.277  20.562  1.00  0.00     0.000 C 
ENDROOT
BRANCH   1   2
ATOM      2  C   UNL     1      12.776 -22.993  20.272  1.00  0.00     0.000 C 
BRANCH   2   3
ATOM      3  C   UNL     1      14.293 -23.234  20.219  1.00  0.00     0.000 C 
BRANCH   3   4
ATOM      4  C   UNL     1      14.662 -24.558  20.905  1.00  0.00     0.000 C 
BRANCH   4   5
ATOM      5  C   UNL     1      15.679 -24.379  22.047  1.00  0.00     0.000 C 
BRANCH   5   6
ATOM      6  C   UNL     1      15.461 -23.131  22.922  1.00  0.00     0.006 C 
BRANCH   6   7
ATOM      7  C   UNL     1      14.176 -23.203  23.757  1.00  0.00     0.053 C 
BRANCH   7   8
ATOM      8  C   UNL     1      13.624 -21.830  23.982  1.00  0.00     0.041 C 
ATOM      9  O   UNL     1      14.393 -20.834  24.003  1.00  0.00    -0.550 OA
ATOM     10  O   UNL     1      12.254 -21.646  24.122  1.00  0.00    -0.550 OA
ENDBRANCH   7   8
ENDBRANCH   6   7
ENDBRANCH   5   6
ENDBRANCH   4   5
ENDBRANCH   3   4
ENDBRANCH   2   3
ENDBRANCH   1   2
BRANCH   1  11
ATOM     11  C   UNL     1      11.243 -24.224  21.909  1.00  0.00     0.000 C 
BRANCH  11  12
ATOM     12  C   UNL     1      10.014 -25.147  21.942  1.00  0.00    -0.000 C 
BRANCH  12  13
ATOM     13  C   UNL     1       8.861 -24.563  22.776  1.00  0.00    -0.000 C 
BRANCH  13  14
ATOM     14  C   UNL     1       9.336 -23.957  24.108  1.00  0.00    -0.000 C 
BRANCH  14  15
ATOM     15  C   UNL     1       9.609 -24.981  25.229  1.00  0.00    -0.000 C 
BRANCH  15  16
ATOM     16  C   UNL     1       9.713 -24.386  26.645  1.00  0.00    -0.000 C 
BRANCH  16  17
ATOM     17  C   UNL     1      10.593 -23.129  26.700  1.00  0.00    -0.003 C 
ATOM     18  C   UNL     1      12.018 -23.474  27.120  1.00  0.00     0.004 C 
ENDBRANCH  16  17
ENDBRANCH  15  16
ENDBRANCH  14  15
ENDBRANCH  13  14
ENDBRANCH  12  13
ENDBRANCH  11  12
ENDBRANCH   1  11
TORSDOF 14
ENDMDL
MODEL 7
REMARK VINA RESULT:    -4.975      1.674      4.116
REMARK INTER + INTRA:         -10.874
REMARK INTER:                  -9.557
REMARK INTRA:                  -1.317
REMARK UNBOUND:                -1.827
REMARK SMILES CCCCCCCCCCCCCCCC(=O)[O-]
REMARK SMILES IDX 9 1 10 2 11 3 12 4 13 5 14 6 15 7 16 8 17 9 18 10 8 11 7 12
REMARK SMILES IDX 6 13 5 14 4 15 3 16 2 17 1 18
REMARK H PARENT
REMARK Flexibility Score: inf
ROOT
ATOM      1  C   UNL     1      12.679 -23.039  24.737  1.00  0.00     0.000 C 
ENDROOT
BRANCH   1   2
ATOM      2  C   UNL     1      13.036 -21.694  24.084  1.00  0.00     0.000 C 
BRANCH   2   3
ATOM      3  C   UNL     1      14.376 -21.739  23.333  1.00  0.00     0.000 C 
BRANCH   3   4
ATOM      4  C   UNL     1      14.578 -23.101  22.652  1.00  0.00     0.000 C 
BRANCH   4   5
ATOM      5  C   UNL     1      15.072 -22.978  21.199  1.00  0.00     0.000 C 
BRANCH   5   6
ATOM      6  C   UNL     1      13.995 -23.211  20.124  1.00  0.00     0.006 C 
BRANCH   6   7
ATOM      7  C   UNL     1      12.588 -23.380  20.713  1.00  0.00     0.053 C 
BRANCH   7   8
ATOM      8  C   UNL     1      12.198 -24.824  20.725  1.00  0.00     0.041 C 
ATOM      9  O   UNL     1      11.053 -25.167  21.119  1.00  0.00    -0.550 OA
ATOM     10  O   UNL     1      13.082 -25.787  20.253  1.00  0.00    -0.550 OA
ENDBRANCH   7   8
ENDBRANCH   6   7
ENDBRANCH   5   6
ENDBRANCH   4   5
ENDBRANCH   3   4
ENDBRANCH   2   3
ENDBRANCH   1   2
BRANCH   1  11
ATOM     11  C   UNL     1      12.439 -22.916  26.251  1.00  0.00     0.000 C 
BRANCH  11  12
ATOM     12  C   UNL     1      11.638 -24.099  26.818  1.00  0.00    -0.000 C 
BRANCH  12  13
ATOM     13  C   UNL     1      10.120 -23.916  26.651  1.00  0.00    -0.000 C 
BRANCH  13  14
ATOM     14  C   UNL     1       9.448 -25.117  25.962  1.00  0.00    -0.000 C 
BRANCH  14  15
ATOM     15  C   UNL     1       9.483 -25.085  24.420  1.00  0.00    -0.000 C 
BRANCH  15  16
ATOM     16  C   UNL     1       8.864 -23.831  23.778  1.00  0.00    -0.000 C 
BRANCH  16  17
ATOM     17  C   UNL     1       7.971 -24.157  22.572  1.00  0.00    -0.003 C 
ATOM     18  C   UNL     1       6.672 -23.358  22.619  1.00  0.00     0.004 C 
ENDBRANCH  16  17
ENDBRANCH  15  16
ENDBRANCH  14  15
ENDBRANCH  13  14
ENDBRANCH  12  13
ENDBRANCH  11  12
ENDBRANCH   1  11
TORSDOF 14
ENDMDL
MODEL 8
REMARK VINA RESULT:    -4.959      2.251      5.202
REMARK INTER + INTRA:         -10.845
REMARK INTER:                  -9.135
REMARK INTRA:                  -1.710
REMARK UNBOUND:                -1.827
REMARK SMILES CCCCCCCCCCCCCCCC(=O)[O-]
REMARK SMILES IDX 9 1 10 2 11 3 12 4 13 5 14 6 15 7 16 8 17 9 18 10 8 11 7 12
REMARK SMILES IDX 6 13 5 14 4 15 3 16 2 17 1 18
REMARK H PARENT
REMARK Flexibility Score: inf
ROOT
ATOM      1  C   UNL     1       9.413 -25.131  23.373  1.00  0.00     0.000 C 
ENDROOT
BRANCH   1   2
ATOM      2  C   UNL     1       8.933 -23.712  23.714  1.00  0.00     0.000 C 
BRANCH   2   3
ATOM      3  C   UNL     1       9.496 -23.204  25.051  1.00  0.00     0.000 C 
BRANCH   3   4
ATOM      4  C   UNL     1       9.853 -24.376  25.977  1.00  0.00     0.000 C 
BRANCH   4   5
ATOM      5  C   UNL     1      11.325 -24.359  26.427  1.00  0.00     0.000 C 
BRANCH   5   6
ATOM      6  C   UNL     1      12.089 -23.061  26.103  1.00  0.00     0.006 C 
BRANCH   6   7
ATOM      7  C   UNL     1      13.123 -23.241  24.984  1.00  0.00     0.053 C 
BRANCH   7   8
ATOM      8  C   UNL     1      13.169 -22.022  24.117  1.00  0.00     0.041 C 
ATOM      9  O   UNL     1      12.133 -21.630  23.520  1.00  0.00    -0.550 OA
ATOM     10  O   UNL     1      14.346 -21.292  24.006  1.00  0.00    -0.550 OA
ENDBRANCH   7   8
ENDBRANCH   6   7
ENDBRANCH   5   6
ENDBRANCH   4   5
ENDBRANCH   3   4
ENDBRANCH   2   3
ENDBRANCH   1   2
BRANCH   1  11
ATOM     11  C   UNL     1      10.042 -25.222  21.971  1.00  0.00     0.000 C 
BRANCH  11  12
ATOM     12  C   UNL     1      11.392 -24.493  21.884  1.00  0.00    -0.000 C 
BRANCH  12  13
ATOM     13  C   UNL     1      11.763 -24.113  20.440  1.00  0.00    -0.000 C 
BRANCH  13  14
ATOM     14  C   UNL     1      12.758 -22.942  20.370  1.00  0.00    -0.000 C 
BRANCH  14  15
ATOM     15  C   UNL     1      14.210 -23.296  20.754  1.00  0.00    -0.000 C 
BRANCH  15  16
ATOM     16  C   UNL     1      15.121 -23.683  19.575  1.00  0.00    -0.000 C 
BRANCH  16  17
ATOM     17  C   UNL     1      15.252 -25.202  19.396  1.00  0.00    -0.003 C 
ATOM     18  C   UNL     1      14.999 -25.934  20.710  1.00  0.00     0.004 C 
ENDBRANCH  16  17
ENDBRANCH  15  16
ENDBRANCH  14  15
ENDBRANCH  13  14
ENDBRANCH  12  13
ENDBRANCH  11  12
ENDBRANCH   1  11
TORSDOF 14
ENDMDL
MODEL 9
REMARK VINA RESULT:    -4.902      2.995      5.363
REMARK INTER + INTRA:         -10.741
REMARK INTER:                  -9.005
REMARK INTRA:                  -1.736
REMARK UNBOUND:                -1.827
REMARK SMILES CCCCCCCCCCCCCCCC(=O)[O-]
REMARK SMILES IDX 9 1 10 2 11 3 12 4 13 5 14 6 15 7 16 8 17 9 18 10 8 11 7 12
REMARK SMILES IDX 6 13 5 14 4 15 3 16 2 17 1 18
REMARK H PARENT
REMARK Flexibility Score: inf
ROOT
ATOM      1  C   UNL     1      14.504 -24.663  21.104  1.00  0.00     0.000 C 
ENDROOT
BRANCH   1   2
ATOM      2  C   UNL     1      14.076 -23.496  20.200  1.00  0.00     0.000 C 
BRANCH   2   3
ATOM      3  C   UNL     1      12.573 -23.193  20.298  1.00  0.00     0.000 C 
BRANCH   3   4
ATOM      4  C   UNL     1      11.953 -23.883  21.522  1.00  0.00     0.000 C 
BRANCH   4   5
ATOM      5  C   UNL     1      10.916 -24.956  21.146  1.00  0.00     0.000 C 
BRANCH   5   6
ATOM      6  C   UNL     1       9.946 -25.348  22.276  1.00  0.00     0.006 C 
BRANCH   6   7
ATOM      7  C   UNL     1       8.490 -24.974  21.970  1.00  0.00     0.053 C 
BRANCH   7   8
ATOM      8  C   UNL     1       8.008 -23.928  22.925  1.00  0.00     0.041 C 
ATOM      9  O   UNL     1       6.863 -23.424  22.789  1.00  0.00    -0.550 OA
ATOM     10  O   UNL     1       8.807 -23.544  23.996  1.00  0.00    -0.550 OA
ENDBRANCH   7   8
ENDBRANCH   6   7
ENDBRANCH   5   6
ENDBRANCH   4   5
ENDBRANCH   3   4
ENDBRANCH   2   3
ENDBRANCH   1   2
BRANCH   1  11
ATOM     11  C   UNL     1      15.762 -24.341  21.929  1.00  0.00     0.000 C 
BRANCH  11  12
ATOM     12  C   UNL     1      15.716 -22.936  22.549  1.00  0.00    -0.000 C 
BRANCH  12  13
ATOM     13  C   UNL     1      14.805 -22.866  23.786  1.00  0.00    -0.000 C 
BRANCH  13  14
ATOM     14  C   UNL     1      13.840 -21.668  23.749  1.00  0.00    -0.000 C 
BRANCH  14  15
ATOM     15  C   UNL     1      12.524 -21.868  24.527  1.00  0.00    -0.000 C 
BRANCH  15  16
ATOM     16  C   UNL     1      12.342 -23.260  25.158  1.00  0.00    -0.000 C 
BRANCH  16  17
ATOM     17  C   UNL     1      11.685 -23.205  26.544  1.00  0.00    -0.003 C 
ATOM     18  C   UNL     1      10.593 -22.140  26.592  1.00  0.00     0.004 C 
ENDBRANCH  16  17
ENDBRANCH  15  16
ENDBRANCH  14  15
ENDBRANCH  13  14
ENDBRANCH  12  13
ENDBRANCH  11  12
ENDBRANCH   1  11
TORSDOF 14
ENDMDL
