MODEL 1
REMARK VINA RESULT:    -3.730      0.000      0.000
REMARK INTER + INTRA:          -6.611
REMARK INTER:                  -5.910
REMARK INTRA:                  -0.700
REMARK UNBOUND:                -0.700
REMARK SMILES CCCCCCCCCCCC(=O)[O-]
REMARK SMILES IDX 7 1 8 2 9 3 10 4 11 5 12 6 13 7 14 8 6 9 5 10 4 11 3 12 2 13
REMARK SMILES IDX 1 14
REMARK H PARENT
REMARK Flexibility Score: inf
ROOT
ATOM      1  C   UNL     1     113.321  54.855 230.249  1.00  0.00     0.000 C 
ENDROOT
BRANCH   1   2
ATOM      2  C   UNL     1     112.524  53.643 230.748  1.00  0.00     0.000 C 
BRANCH   2   3
ATOM      3  C   UNL     1     113.099  53.110 232.065  1.00  0.00     0.000 C 
BRANCH   3   4
ATOM      4  C   UNL     1     111.977  52.694 233.027  1.00  0.00     0.006 C 
BRANCH   4   5
ATOM      5  C   UNL     1     110.592  53.126 232.527  1.00  0.00     0.053 C 
BRANCH   5   6
ATOM      6  C   UNL     1     109.525  52.155 232.934  1.00  0.00     0.041 C 
ATOM      7  O   UNL     1     108.587  52.526 233.689  1.00  0.00    -0.550 OA
ATOM      8  O   UNL     1     109.586  50.834 232.508  1.00  0.00    -0.550 OA
ENDBRANCH   5   6
ENDBRANCH   4   5
ENDBRANCH   3   4
ENDBRANCH   2   3
ENDBRANCH   1   2
BRANCH   1   9
ATOM      9  C   UNL     1     113.388  54.876 228.717  1.00  0.00     0.000 C 
BRANCH   9  10
ATOM     10  C   UNL     1     113.037  53.502 228.132  1.00  0.00    -0.000 C 
BRANCH  10  11
ATOM     11  C   UNL     1     113.063  53.533 226.599  1.00  0.00    -0.000 C 
BRANCH  11  12
ATOM     12  C   UNL     1     111.644  53.426 226.022  1.00  0.00    -0.000 C 
BRANCH  12  13
ATOM     13  C   UNL     1     111.090  54.782 225.562  1.00  0.00    -0.003 C 
ATOM     14  C   UNL     1     110.072  55.368 226.540  1.00  0.00     0.004 C 
ENDBRANCH  12  13
ENDBRANCH  11  12
ENDBRANCH  10  11
ENDBRANCH   9  10
ENDBRANCH   1   9
TORSDOF 10
ENDMDL
MODEL 2
REMARK VINA RESULT:    -3.531      3.180      6.320
REMARK INTER + INTRA:          -6.295
REMARK INTER:                  -5.631
REMARK INTRA:                  -0.664
REMARK UNBOUND:                -0.700
REMARK SMILES CCCCCCCCCCCC(=O)[O-]
REMARK SMILES IDX 7 1 8 2 9 3 10 4 11 5 12 6 13 7 14 8 6 9 5 10 4 11 3 12 2 13
REMARK SMILES IDX 1 14
REMARK H PARENT
REMARK Flexibility Score: inf
ROOT
ATOM      1  C   UNL     1     112.731  54.057 229.856  1.00  0.00     0.000 C 
ENDROOT
BRANCH   1   2
ATOM      2  C   UNL     1     113.290  54.388 228.466  1.00  0.00     0.000 C 
BRANCH   2   3
ATOM      3  C   UNL     1     112.970  53.272 227.465  1.00  0.00     0.000 C 
BRANCH   3   4
ATOM      4  C   UNL     1     112.542  53.856 226.109  1.00  0.00     0.006 C 
BRANCH   4   5
ATOM      5  C   UNL     1     111.059  54.247 226.087  1.00  0.00     0.053 C 
BRANCH   5   6
ATOM      6  C   UNL     1     110.255  53.331 225.216  1.00  0.00     0.041 C 
ATOM      7  O   UNL     1     109.973  52.168 225.611  1.00  0.00    -0.550 OA
ATOM      8  O   UNL     1     109.845  53.748 223.956  1.00  0.00    -0.550 OA
ENDBRANCH   5   6
ENDBRANCH   4   5
ENDBRANCH   3   4
ENDBRANCH   2   3
ENDBRANCH   1   2
BRANCH   1   9
ATOM      9  C   UNL     1     113.335  54.976 230.924  1.00  0.00     0.000 C 
BRANCH   9  10
ATOM     10  C   UNL     1     113.931  54.160 232.079  1.00  0.00    -0.000 C 
BRANCH  10  11
ATOM     11  C   UNL     1     113.031  52.970 232.434  1.00  0.00    -0.000 C 
BRANCH  11  12
ATOM     12  C   UNL     1     112.227  53.250 233.712  1.00  0.00    -0.000 C 
BRANCH  12  13
ATOM     13  C   UNL     1     110.712  53.275 233.464  1.00  0.00    -0.003 C 
ATOM     14  C   UNL     1     110.237  52.116 232.587  1.00  0.00     0.004 C 
ENDBRANCH  12  13
ENDBRANCH  11  12
ENDBRANCH  10  11
ENDBRANCH   9  10
ENDBRANCH   1   9
TORSDOF 10
ENDMDL
MODEL 3
REMARK VINA RESULT:    -3.478      3.194      6.344
REMARK INTER + INTRA:          -6.212
REMARK INTER:                  -5.701
REMARK INTRA:                  -0.511
REMARK UNBOUND:                -0.700
REMARK SMILES CCCCCCCCCCCC(=O)[O-]
REMARK SMILES IDX 7 1 8 2 9 3 10 4 11 5 12 6 13 7 14 8 6 9 5 10 4 11 3 12 2 13
REMARK SMILES IDX 1 14
REMARK H PARENT
REMARK Flexibility Score: inf
ROOT
ATOM      1  C   UNL     1     112.647  54.722 228.201  1.00  0.00     0.000 C 
ENDROOT
BRANCH   1   2
ATOM      2  C   UNL     1     113.078  53.514 227.360  1.00  0.00     0.000 C 
BRANCH   2   3
ATOM      3  C   UNL     1     112.176  53.349 226.132  1.00  0.00     0.000 C 
BRANCH   3   4
ATOM      4  C   UNL     1     110.860  54.121 226.306  1.00  0.00     0.006 C 
BRANCH   4   5
ATOM      5  C   UNL     1     109.946  53.997 225.080  1.00  0.00     0.053 C 
BRANCH   5   6
ATOM      6  C   UNL     1     109.662  52.565 224.741  1.00  0.00     0.041 C 
ATOM      7  O   UNL     1     109.697  52.180 223.543  1.00  0.00    -0.550 OA
ATOM      8  O   UNL     1     109.327  51.665 225.745  1.00  0.00    -0.550 OA
ENDBRANCH   5   6
ENDBRANCH   4   5
ENDBRANCH   3   4
ENDBRANCH   2   3
ENDBRANCH   1   2
BRANCH   1   9
ATOM      9  C   UNL     1     113.319  54.701 229.579  1.00  0.00     0.000 C 
BRANCH   9  10
ATOM     10  C   UNL     1     112.665  53.658 230.494  1.00  0.00    -0.000 C 
BRANCH  10  11
ATOM     11  C   UNL     1     113.303  53.672 231.889  1.00  0.00    -0.000 C 
BRANCH  11  12
ATOM     12  C   UNL     1     112.494  52.813 232.872  1.00  0.00    -0.000 C 
BRANCH  12  13
ATOM     13  C   UNL     1     111.056  52.564 232.394  1.00  0.00    -0.003 C 
ATOM     14  C   UNL     1     110.010  52.954 233.438  1.00  0.00     0.004 C 
ENDBRANCH  12  13
ENDBRANCH  11  12
ENDBRANCH  10  11
ENDBRANCH   9  10
ENDBRANCH   1   9
TORSDOF 10
ENDMDL
MODEL 4
REMARK VINA RESULT:    -3.383      3.213      6.268
REMARK INTER + INTRA:          -6.061
REMARK INTER:                  -5.194
REMARK INTRA:                  -0.868
REMARK UNBOUND:                -0.700
REMARK SMILES CCCCCCCCCCCC(=O)[O-]
REMARK SMILES IDX 7 1 8 2 9 3 10 4 11 5 12 6 13 7 14 8 6 9 5 10 4 11 3 12 2 13
REMARK SMILES IDX 1 14
REMARK H PARENT
REMARK Flexibility Score: inf
ROOT
ATOM      1  C   UNL     1     112.642  53.616 230.958  1.00  0.00     0.000 C 
ENDROOT
BRANCH   1   2
ATOM      2  C   UNL     1     112.619  54.986 230.269  1.00  0.00     0.000 C 
BRANCH   2   3
ATOM      3  C   UNL     1     113.119  54.884 228.824  1.00  0.00     0.000 C 
BRANCH   3   4
ATOM      4  C   UNL     1     112.952  53.456 228.283  1.00  0.00     0.006 C 
BRANCH   4   5
ATOM      5  C   UNL     1     113.494  53.309 226.855  1.00  0.00     0.053 C 
BRANCH   5   6
ATOM      6  C   UNL     1     112.405  53.421 225.832  1.00  0.00     0.041 C 
ATOM      7  O   UNL     1     111.241  53.021 226.100  1.00  0.00    -0.550 OA
ATOM      8  O   UNL     1     112.683  53.937 224.573  1.00  0.00    -0.550 OA
ENDBRANCH   5   6
ENDBRANCH   4   5
ENDBRANCH   3   4
ENDBRANCH   2   3
ENDBRANCH   1   2
BRANCH   1   9
ATOM      9  C   UNL     1     113.677  53.587 232.090  1.00  0.00     0.000 C 
BRANCH   9  10
ATOM     10  C   UNL     1     113.058  53.048 233.386  1.00  0.00    -0.000 C 
BRANCH  10  11
ATOM     11  C   UNL     1     111.949  53.978 233.895  1.00  0.00    -0.000 C 
BRANCH  11  12
ATOM     12  C   UNL     1     110.659  53.194 234.172  1.00  0.00    -0.000 C 
BRANCH  12  13
ATOM     13  C   UNL     1     109.648  53.296 233.020  1.00  0.00    -0.003 C 
ATOM     14  C   UNL     1     109.439  54.732 232.541  1.00  0.00     0.004 C 
ENDBRANCH  12  13
ENDBRANCH  11  12
ENDBRANCH  10  11
ENDBRANCH   9  10
ENDBRANCH   1   9
TORSDOF 10
ENDMDL
MODEL 5
REMARK VINA RESULT:    -3.379      1.291      2.185
REMARK INTER + INTRA:          -6.055
REMARK INTER:                  -5.365
REMARK INTRA:                  -0.690
REMARK UNBOUND:                -0.700
REMARK SMILES CCCCCCCCCCCC(=O)[O-]
REMARK SMILES IDX 7 1 8 2 9 3 10 4 11 5 12 6 13 7 14 8 6 9 5 10 4 11 3 12 2 13
REMARK SMILES IDX 1 14
REMARK H PARENT
REMARK Flexibility Score: inf
ROOT
ATOM      1  C   UNL     1     113.621  54.331 232.071  1.00  0.00     0.000 C 
ENDROOT
BRANCH   1   2
ATOM      2  C   UNL     1     113.789  53.041 232.883  1.00  0.00     0.000 C 
BRANCH   2   3
ATOM      3  C   UNL     1     113.240  53.210 234.305  1.00  0.00     0.000 C 
BRANCH   3   4
ATOM      4  C   UNL     1     111.992  54.105 234.309  1.00  0.00     0.006 C 
BRANCH   4   5
ATOM      5  C   UNL     1     110.711  53.315 234.612  1.00  0.00     0.053 C 
BRANCH   5   6
ATOM      6  C   UNL     1     109.911  53.056 233.372  1.00  0.00     0.041 C 
ATOM      7  O   UNL     1     109.964  53.862 232.406  1.00  0.00    -0.550 OA
ATOM      8  O   UNL     1     109.082  51.944 233.298  1.00  0.00    -0.550 OA
ENDBRANCH   5   6
ENDBRANCH   4   5
ENDBRANCH   3   4
ENDBRANCH   2   3
ENDBRANCH   1   2
BRANCH   1   9
ATOM      9  C   UNL     1     113.025  54.037 230.690  1.00  0.00     0.000 C 
BRANCH   9  10
ATOM     10  C   UNL     1     113.099  55.272 229.784  1.00  0.00    -0.000 C 
BRANCH  10  11
ATOM     11  C   UNL     1     112.648  54.938 228.357  1.00  0.00    -0.000 C 
BRANCH  11  12
ATOM     12  C   UNL     1     113.057  53.509 227.971  1.00  0.00    -0.000 C 
BRANCH  12  13
ATOM     13  C   UNL     1     113.020  53.273 226.454  1.00  0.00    -0.003 C 
ATOM     14  C   UNL     1     111.625  53.462 225.860  1.00  0.00     0.004 C 
ENDBRANCH  12  13
ENDBRANCH  11  12
ENDBRANCH  10  11
ENDBRANCH   9  10
ENDBRANCH   1   9
TORSDOF 10
ENDMDL
MODEL 6
REMARK VINA RESULT:    -3.325      3.222      6.279
REMARK INTER + INTRA:          -5.968
REMARK INTER:                  -4.769
REMARK INTRA:                  -1.200
REMARK UNBOUND:                -0.700
REMARK SMILES CCCCCCCCCCCC(=O)[O-]
REMARK SMILES IDX 7 1 8 2 9 3 10 4 11 5 12 6 13 7 14 8 6 9 5 10 4 11 3 12 2 13
REMARK SMILES IDX 1 14
REMARK H PARENT
REMARK Flexibility Score: inf
ROOT
ATOM      1  C   UNL     1     112.894  52.723 232.210  1.00  0.00     0.000 C 
ENDROOT
BRANCH   1   2
ATOM      2  C   UNL     1     112.474  53.439 230.921  1.00  0.00     0.000 C 
BRANCH   2   3
ATOM      3  C   UNL     1     113.377  54.646 230.643  1.00  0.00     0.000 C 
BRANCH   3   4
ATOM      4  C   UNL     1     113.670  54.781 229.141  1.00  0.00     0.006 C 
BRANCH   4   5
ATOM      5  C   UNL     1     112.430  54.502 228.280  1.00  0.00     0.053 C 
BRANCH   5   6
ATOM      6  C   UNL     1     112.734  53.561 227.155  1.00  0.00     0.041 C 
ATOM      7  O   UNL     1     111.805  53.131 226.421  1.00  0.00    -0.550 OA
ATOM      8  O   UNL     1     114.037  53.131 226.939  1.00  0.00    -0.550 OA
ENDBRANCH   5   6
ENDBRANCH   4   5
ENDBRANCH   3   4
ENDBRANCH   2   3
ENDBRANCH   1   2
BRANCH   1   9
ATOM      9  C   UNL     1     114.124  53.392 232.835  1.00  0.00     0.000 C 
BRANCH   9  10
ATOM     10  C   UNL     1     113.969  53.514 234.356  1.00  0.00    -0.000 C 
BRANCH  10  11
ATOM     11  C   UNL     1     112.522  53.850 234.738  1.00  0.00    -0.000 C 
BRANCH  11  12
ATOM     12  C   UNL     1     112.321  55.367 234.853  1.00  0.00    -0.000 C 
BRANCH  12  13
ATOM     13  C   UNL     1     111.258  55.897 233.879  1.00  0.00    -0.003 C 
ATOM     14  C   UNL     1     110.195  54.854 233.538  1.00  0.00     0.004 C 
ENDBRANCH  12  13
ENDBRANCH  11  12
ENDBRANCH  10  11
ENDBRANCH   9  10
ENDBRANCH   1   9
TORSDOF 10
ENDMDL
MODEL 7
REMARK VINA RESULT:    -3.261      1.052      1.697
REMARK INTER + INTRA:          -5.868
REMARK INTER:                  -5.359
REMARK INTRA:                  -0.509
REMARK UNBOUND:                -0.700
REMARK SMILES CCCCCCCCCCCC(=O)[O-]
REMARK SMILES IDX 7 1 8 2 9 3 10 4 11 5 12 6 13 7 14 8 6 9 5 10 4 11 3 12 2 13
REMARK SMILES IDX 1 14
REMARK H PARENT
REMARK Flexibility Score: inf
ROOT
ATOM      1  C   UNL     1     112.646  55.099 229.056  1.00  0.00     0.000 C 
ENDROOT
BRANCH   1   2
ATOM      2  C   UNL     1     113.245  54.659 230.398  1.00  0.00     0.000 C 
BRANCH   2   3
ATOM      3  C   UNL     1     112.520  53.425 230.946  1.00  0.00     0.000 C 
BRANCH   3   4
ATOM      4  C   UNL     1     111.293  53.830 231.777  1.00  0.00     0.006 C 
BRANCH   4   5
ATOM      5  C   UNL     1     111.234  53.094 233.122  1.00  0.00     0.053 C 
BRANCH   5   6
ATOM      6  C   UNL     1     109.958  52.325 233.279  1.00  0.00     0.041 C 
ATOM      7  O   UNL     1     109.727  51.326 232.548  1.00  0.00    -0.550 OA
ATOM      8  O   UNL     1     109.010  52.730 234.211  1.00  0.00    -0.550 OA
ENDBRANCH   5   6
ENDBRANCH   4   5
ENDBRANCH   3   4
ENDBRANCH   2   3
ENDBRANCH   1   2
BRANCH   1   9
ATOM      9  C   UNL     1     113.431  54.502 227.882  1.00  0.00     0.000 C 
BRANCH   9  10
ATOM     10  C   UNL     1     112.632  53.386 227.198  1.00  0.00    -0.000 C 
BRANCH  10  11
ATOM     11  C   UNL     1     112.044  53.867 225.865  1.00  0.00    -0.000 C 
BRANCH  11  12
ATOM     12  C   UNL     1     110.683  54.545 226.078  1.00  0.00    -0.000 C 
BRANCH  12  13
ATOM     13  C   UNL     1     109.578  53.942 225.196  1.00  0.00    -0.003 C 
ATOM     14  C   UNL     1     109.617  52.415 225.161  1.00  0.00     0.004 C 
ENDBRANCH  12  13
ENDBRANCH  11  12
ENDBRANCH  10  11
ENDBRANCH   9  10
ENDBRANCH   1   9
TORSDOF 10
ENDMDL
MODEL 8
REMARK VINA RESULT:    -3.256      2.380      2.954
REMARK INTER + INTRA:          -5.859
REMARK INTER:                  -5.363
REMARK INTRA:                  -0.496
REMARK UNBOUND:                -0.700
REMARK SMILES CCCCCCCCCCCC(=O)[O-]
REMARK SMILES IDX 7 1 8 2 9 3 10 4 11 5 12 6 13 7 14 8 6 9 5 10 4 11 3 12 2 13
REMARK SMILES IDX 1 14
REMARK H PARENT
REMARK Flexibility Score: inf
ROOT
ATOM      1  C   UNL     1     113.719  54.786 230.732  1.00  0.00     0.000 C 
ENDROOT
BRANCH   1   2
ATOM      2  C   UNL     1     112.545  53.814 230.908  1.00  0.00     0.000 C 
BRANCH   2   3
ATOM      3  C   UNL     1     112.692  53.001 232.199  1.00  0.00     0.000 C 
BRANCH   3   4
ATOM      4  C   UNL     1     114.113  53.123 232.768  1.00  0.00     0.006 C 
BRANCH   4   5
ATOM      5  C   UNL     1     114.122  53.197 234.301  1.00  0.00     0.053 C 
BRANCH   5   6
ATOM      6  C   UNL     1     113.415  54.419 234.802  1.00  0.00     0.041 C 
ATOM      7  O   UNL     1     114.072  55.443 235.125  1.00  0.00    -0.550 OA
ATOM      8  O   UNL     1     112.033  54.414 234.945  1.00  0.00    -0.550 OA
ENDBRANCH   5   6
ENDBRANCH   4   5
ENDBRANCH   3   4
ENDBRANCH   2   3
ENDBRANCH   1   2
BRANCH   1   9
ATOM      9  C   UNL     1     113.722  55.396 229.326  1.00  0.00     0.000 C 
BRANCH   9  10
ATOM     10  C   UNL     1     112.798  54.614 228.385  1.00  0.00    -0.000 C 
BRANCH  10  11
ATOM     11  C   UNL     1     113.608  53.787 227.378  1.00  0.00    -0.000 C 
BRANCH  11  12
ATOM     12  C   UNL     1     112.701  53.215 226.280  1.00  0.00    -0.000 C 
BRANCH  12  13
ATOM     13  C   UNL     1     111.326  53.899 226.234  1.00  0.00    -0.003 C 
ATOM     14  C   UNL     1     110.316  53.139 225.374  1.00  0.00     0.004 C 
ENDBRANCH  12  13
ENDBRANCH  11  12
ENDBRANCH  10  11
ENDBRANCH   9  10
ENDBRANCH   1   9
TORSDOF 10
ENDMDL
MODEL 9
REMARK VINA RESULT:    -3.242      1.830      3.890
REMARK INTER + INTRA:          -5.838
REMARK INTER:                  -4.943
REMARK INTRA:                  -0.895
REMARK UNBOUND:                -0.700
REMARK SMILES CCCCCCCCCCCC(=O)[O-]
REMARK SMILES IDX 7 1 8 2 9 3 10 4 11 5 12 6 13 7 14 8 6 9 5 10 4 11 3 12 2 13
REMARK SMILES IDX 1 14
REMARK H PARENT
REMARK Flexibility Score: inf
ROOT
ATOM      1  C   UNL     1     113.054  54.666 234.653  1.00  0.00     0.000 C 
ENDROOT
BRANCH   1   2
ATOM      2  C   UNL     1     111.561  54.699 235.003  1.00  0.00     0.000 C 
BRANCH   2   3
ATOM      3  C   UNL     1     110.811  55.702 234.119  1.00  0.00     0.000 C 
BRANCH   3   4
ATOM      4  C   UNL     1     109.551  55.067 233.512  1.00  0.00     0.006 C 
BRANCH   4   5
ATOM      5  C   UNL     1     109.871  53.806 232.698  1.00  0.00     0.053 C 
BRANCH   5   6
ATOM      6  C   UNL     1     109.238  52.585 233.293  1.00  0.00     0.041 C 
ATOM      7  O   UNL     1     108.610  52.665 234.382  1.00  0.00    -0.550 OA
ATOM      8  O   UNL     1     109.370  51.354 232.663  1.00  0.00    -0.550 OA
ENDBRANCH   5   6
ENDBRANCH   4   5
ENDBRANCH   3   4
ENDBRANCH   2   3
ENDBRANCH   1   2
BRANCH   1   9
ATOM      9  C   UNL     1     113.510  53.239 234.325  1.00  0.00     0.000 C 
BRANCH   9  10
ATOM     10  C   UNL     1     114.123  53.167 232.921  1.00  0.00    -0.000 C 
BRANCH  10  11
ATOM     11  C   UNL     1     113.032  53.074 231.847  1.00  0.00    -0.000 C 
BRANCH  11  12
ATOM     12  C   UNL     1     113.076  54.291 230.912  1.00  0.00    -0.000 C 
BRANCH  12  13
ATOM     13  C   UNL     1     112.917  53.906 229.434  1.00  0.00    -0.003 C 
ATOM     14  C   UNL     1     112.511  55.088 228.555  1.00  0.00     0.004 C 
ENDBRANCH  12  13
ENDBRANCH  11  12
ENDBRANCH  10  11
ENDBRANCH   9  10
ENDBRANCH   1   9
TORSDOF 10
ENDMDL
