MODEL 1
REMARK VINA RESULT:    -2.821      0.000      0.000
REMARK INTER + INTRA:          -6.032
REMARK INTER:                  -4.552
REMARK INTRA:                  -1.480
REMARK UNBOUND:                -1.480
REMARK SMILES CCCCCCCCCCCCO
REMARK SMILES IDX 7 1 6 2 5 3 4 4 3 5 2 6 1 7 8 8 9 9 10 10 11 11 12 12 13 13
REMARK H PARENT 13 14
REMARK Flexibility Score: inf
ROOT
ATOM      1  C   UNL     1     134.532 139.241 146.454  1.00  0.00     0.000 C 
ENDROOT
BRANCH   1   2
ATOM      2  C   UNL     1     135.202 139.845 145.211  1.00  0.00    -0.000 C 
BRANCH   2   3
ATOM      3  C   UNL     1     136.429 139.041 144.744  1.00  0.00    -0.000 C 
BRANCH   3   4
ATOM      4  C   UNL     1     136.252 138.299 143.405  1.00  0.00    -0.000 C 
BRANCH   4   5
ATOM      5  C   UNL     1     136.200 136.763 143.509  1.00  0.00    -0.000 C 
BRANCH   5   6
ATOM      6  C   UNL     1     136.444 136.202 144.921  1.00  0.00    -0.003 C 
ATOM      7  C   UNL     1     137.748 135.411 145.029  1.00  0.00     0.004 C 
ENDBRANCH   5   6
ENDBRANCH   4   5
ENDBRANCH   3   4
ENDBRANCH   2   3
ENDBRANCH   1   2
BRANCH   1   8
ATOM      8  C   UNL     1     133.434 138.245 146.057  1.00  0.00     0.000 C 
BRANCH   8   9
ATOM      9  C   UNL     1     132.784 138.642 144.727  1.00  0.00     0.000 C 
BRANCH   9  10
ATOM     10  C   UNL     1     132.444 137.400 143.889  1.00  0.00     0.002 C 
BRANCH  10  11
ATOM     11  C   UNL     1     132.726 136.085 144.636  1.00  0.00     0.028 C 
BRANCH  11  12
ATOM     12  C   UNL     1     133.074 134.912 143.709  1.00  0.00     0.156 C 
BRANCH  12  13
ATOM     13  O   UNL     1     132.842 135.245 142.365  1.00  0.00    -0.396 OA
ATOM     14  H   UNL     1     133.702 135.583 142.004  1.00  0.00     0.210 HD
ENDBRANCH  12  13
ENDBRANCH  11  12
ENDBRANCH  10  11
ENDBRANCH   9  10
ENDBRANCH   8   9
ENDBRANCH   1   8
TORSDOF 11
ENDMDL
MODEL 2
REMARK VINA RESULT:    -2.747      8.379     10.524
REMARK INTER + INTRA:          -5.912
REMARK INTER:                  -4.407
REMARK INTRA:                  -1.506
REMARK UNBOUND:                -1.480
REMARK SMILES CCCCCCCCCCCCO
REMARK SMILES IDX 7 1 6 2 5 3 4 4 3 5 2 6 1 7 8 8 9 9 10 10 11 11 12 12 13 13
REMARK H PARENT 13 14
REMARK Flexibility Score: inf
ROOT
ATOM      1  C   UNL     1     142.369 134.520 146.562  1.00  0.00     0.000 C 
ENDROOT
BRANCH   1   2
ATOM      2  C   UNL     1     141.741 135.225 145.351  1.00  0.00    -0.000 C 
BRANCH   2   3
ATOM      3  C   UNL     1     142.508 136.494 144.935  1.00  0.00    -0.000 C 
BRANCH   3   4
ATOM      4  C   UNL     1     143.191 136.420 143.555  1.00  0.00    -0.000 C 
BRANCH   4   5
ATOM      5  C   UNL     1     144.699 136.103 143.587  1.00  0.00    -0.000 C 
BRANCH   5   6
ATOM      6  C   UNL     1     145.375 136.313 144.953  1.00  0.00    -0.003 C 
ATOM      7  C   UNL     1     146.076 137.666 145.068  1.00  0.00     0.004 C 
ENDBRANCH   5   6
ENDBRANCH   4   5
ENDBRANCH   3   4
ENDBRANCH   2   3
ENDBRANCH   1   2
BRANCH   1   8
ATOM      8  C   UNL     1     143.332 133.413 146.115  1.00  0.00     0.000 C 
BRANCH   8   9
ATOM      9  C   UNL     1     142.910 132.828 144.762  1.00  0.00     0.000 C 
BRANCH   9  10
ATOM     10  C   UNL     1     144.136 132.384 143.950  1.00  0.00     0.002 C 
BRANCH  10  11
ATOM     11  C   UNL     1     145.459 132.602 144.704  1.00  0.00     0.028 C 
BRANCH  11  12
ATOM     12  C   UNL     1     146.675 132.761 143.781  1.00  0.00     0.156 C 
BRANCH  12  13
ATOM     13  O   UNL     1     146.280 132.849 142.437  1.00  0.00    -0.396 OA
ATOM     14  H   UNL     1     145.914 133.762 142.308  1.00  0.00     0.210 HD
ENDBRANCH  12  13
ENDBRANCH  11  12
ENDBRANCH  10  11
ENDBRANCH   9  10
ENDBRANCH   8   9
ENDBRANCH   1   8
TORSDOF 11
ENDMDL
MODEL 3
REMARK VINA RESULT:    -2.741     12.610     14.951
REMARK INTER + INTRA:          -5.903
REMARK INTER:                  -4.515
REMARK INTRA:                  -1.388
REMARK UNBOUND:                -1.480
REMARK SMILES CCCCCCCCCCCCO
REMARK SMILES IDX 7 1 6 2 5 3 4 4 3 5 2 6 1 7 8 8 9 9 10 10 11 11 12 12 13 13
REMARK H PARENT 13 14
REMARK Flexibility Score: inf
ROOT
ATOM      1  C   UNL     1     146.002 142.024 145.528  1.00  0.00     0.000 C 
ENDROOT
BRANCH   1   2
ATOM      2  C   UNL     1     144.936 142.676 144.635  1.00  0.00    -0.000 C 
BRANCH   2   3
ATOM      3  C   UNL     1     145.540 143.412 143.425  1.00  0.00    -0.000 C 
BRANCH   3   4
ATOM      4  C   UNL     1     145.314 144.937 143.411  1.00  0.00    -0.000 C 
BRANCH   4   5
ATOM      5  C   UNL     1     144.916 145.552 144.767  1.00  0.00    -0.000 C 
BRANCH   5   6
ATOM      6  C   UNL     1     146.090 146.084 145.606  1.00  0.00    -0.003 C 
ATOM      7  C   UNL     1     146.152 145.464 147.002  1.00  0.00     0.004 C 
ENDBRANCH   5   6
ENDBRANCH   4   5
ENDBRANCH   3   4
ENDBRANCH   2   3
ENDBRANCH   1   2
BRANCH   1   8
ATOM      8  C   UNL     1     147.352 141.947 144.805  1.00  0.00     0.000 C 
BRANCH   8   9
ATOM      9  C   UNL     1     148.361 142.927 145.415  1.00  0.00     0.000 C 
BRANCH   9  10
ATOM     10  C   UNL     1     149.244 143.555 144.327  1.00  0.00     0.002 C 
BRANCH  10  11
ATOM     11  C   UNL     1     149.855 144.899 144.760  1.00  0.00     0.028 C 
BRANCH  11  12
ATOM     12  C   UNL     1     149.206 146.117 144.087  1.00  0.00     0.156 C 
BRANCH  12  13
ATOM     13  O   UNL     1     148.712 145.787 142.816  1.00  0.00    -0.396 OA
ATOM     14  H   UNL     1     149.240 145.009 142.500  1.00  0.00     0.210 HD
ENDBRANCH  12  13
ENDBRANCH  11  12
ENDBRANCH  10  11
ENDBRANCH   9  10
ENDBRANCH   8   9
ENDBRANCH   1   8
TORSDOF 11
ENDMDL
MODEL 4
REMARK VINA RESULT:    -2.707      1.214      2.098
REMARK INTER + INTRA:          -5.849
REMARK INTER:                  -4.402
REMARK INTRA:                  -1.447
REMARK UNBOUND:                -1.480
REMARK SMILES CCCCCCCCCCCCO
REMARK SMILES IDX 7 1 6 2 5 3 4 4 3 5 2 6 1 7 8 8 9 9 10 10 11 11 12 12 13 13
REMARK H PARENT 13 14
REMARK Flexibility Score: inf
ROOT
ATOM      1  C   UNL     1     134.660 138.667 143.522  1.00  0.00     0.000 C 
ENDROOT
BRANCH   1   2
ATOM      2  C   UNL     1     136.092 138.112 143.490  1.00  0.00    -0.000 C 
BRANCH   2   3
ATOM      3  C   UNL     1     136.136 136.573 143.507  1.00  0.00    -0.000 C 
BRANCH   3   4
ATOM      4  C   UNL     1     136.957 135.957 144.658  1.00  0.00    -0.000 C 
BRANCH   4   5
ATOM      5  C   UNL     1     137.090 136.842 145.913  1.00  0.00    -0.000 C 
BRANCH   5   6
ATOM      6  C   UNL     1     136.022 136.598 146.993  1.00  0.00    -0.003 C 
ATOM      7  C   UNL     1     135.198 135.336 146.740  1.00  0.00     0.004 C 
ENDBRANCH   5   6
ENDBRANCH   4   5
ENDBRANCH   3   4
ENDBRANCH   2   3
ENDBRANCH   1   2
BRANCH   1   8
ATOM      8  C   UNL     1     134.289 139.149 144.930  1.00  0.00     0.000 C 
BRANCH   8   9
ATOM      9  C   UNL     1     133.083 138.377 145.477  1.00  0.00     0.000 C 
BRANCH   9  10
ATOM     10  C   UNL     1     132.230 137.807 144.334  1.00  0.00     0.002 C 
BRANCH  10  11
ATOM     11  C   UNL     1     131.744 136.375 144.614  1.00  0.00     0.028 C 
BRANCH  11  12
ATOM     12  C   UNL     1     132.586 135.293 143.922  1.00  0.00     0.156 C 
BRANCH  12  13
ATOM     13  O   UNL     1     132.808 135.612 142.574  1.00  0.00    -0.396 OA
ATOM     14  H   UNL     1     132.711 134.766 142.063  1.00  0.00     0.210 HD
ENDBRANCH  12  13
ENDBRANCH  11  12
ENDBRANCH  10  11
ENDBRANCH   9  10
ENDBRANCH   8   9
ENDBRANCH   1   8
TORSDOF 11
ENDMDL
MODEL 5
REMARK VINA RESULT:    -2.704      8.591     10.842
REMARK INTER + INTRA:          -5.843
REMARK INTER:                  -4.507
REMARK INTRA:                  -1.336
REMARK UNBOUND:                -1.480
REMARK SMILES CCCCCCCCCCCCO
REMARK SMILES IDX 7 1 6 2 5 3 4 4 3 5 2 6 1 7 8 8 9 9 10 10 11 11 12 12 13 13
REMARK H PARENT 13 14
REMARK Flexibility Score: inf
ROOT
ATOM      1  C   UNL     1     139.171 147.360 145.031  1.00  0.00     0.000 C 
ENDROOT
BRANCH   1   2
ATOM      2  C   UNL     1     138.794 146.996 143.588  1.00  0.00    -0.000 C 
BRANCH   2   3
ATOM      3  C   UNL     1     138.197 145.582 143.467  1.00  0.00    -0.000 C 
BRANCH   3   4
ATOM      4  C   UNL     1     137.513 145.050 144.742  1.00  0.00    -0.000 C 
BRANCH   4   5
ATOM      5  C   UNL     1     136.012 144.732 144.596  1.00  0.00    -0.000 C 
BRANCH   5   6
ATOM      6  C   UNL     1     135.136 145.189 145.775  1.00  0.00    -0.003 C 
ATOM      7  C   UNL     1     135.850 146.175 146.700  1.00  0.00     0.004 C 
ENDBRANCH   5   6
ENDBRANCH   4   5
ENDBRANCH   3   4
ENDBRANCH   2   3
ENDBRANCH   1   2
BRANCH   1   8
ATOM      8  C   UNL     1     138.396 148.596 145.506  1.00  0.00     0.000 C 
BRANCH   8   9
ATOM      9  C   UNL     1     137.761 149.336 144.324  1.00  0.00     0.000 C 
BRANCH   9  10
ATOM     10  C   UNL     1     136.509 150.109 144.768  1.00  0.00     0.002 C 
BRANCH  10  11
ATOM     11  C   UNL     1     135.217 149.289 144.608  1.00  0.00     0.028 C 
BRANCH  11  12
ATOM     12  C   UNL     1     135.274 148.268 143.462  1.00  0.00     0.156 C 
BRANCH  12  13
ATOM     13  O   UNL     1     135.079 148.892 142.221  1.00  0.00    -0.396 OA
ATOM     14  H   UNL     1     134.101 149.024 142.120  1.00  0.00     0.210 HD
ENDBRANCH  12  13
ENDBRANCH  11  12
ENDBRANCH  10  11
ENDBRANCH   9  10
ENDBRANCH   8   9
ENDBRANCH   1   8
TORSDOF 11
ENDMDL
MODEL 6
REMARK VINA RESULT:    -2.660     12.908     15.250
REMARK INTER + INTRA:          -5.773
REMARK INTER:                  -4.315
REMARK INTRA:                  -1.458
REMARK UNBOUND:                -1.480
REMARK SMILES CCCCCCCCCCCCO
REMARK SMILES IDX 7 1 6 2 5 3 4 4 3 5 2 6 1 7 8 8 9 9 10 10 11 11 12 12 13 13
REMARK H PARENT 13 14
REMARK Flexibility Score: inf
ROOT
ATOM      1  C   UNL     1     147.719 142.663 146.775  1.00  0.00     0.000 C 
ENDROOT
BRANCH   1   2
ATOM      2  C   UNL     1     147.407 141.751 145.580  1.00  0.00    -0.000 C 
BRANCH   2   3
ATOM      3  C   UNL     1     145.921 141.358 145.501  1.00  0.00    -0.000 C 
BRANCH   3   4
ATOM      4  C   UNL     1     144.953 142.523 145.212  1.00  0.00    -0.000 C 
BRANCH   4   5
ATOM      5  C   UNL     1     145.134 143.200 143.839  1.00  0.00    -0.000 C 
BRANCH   5   6
ATOM      6  C   UNL     1     145.743 144.612 143.889  1.00  0.00    -0.003 C 
ATOM      7  C   UNL     1     145.447 145.340 145.200  1.00  0.00     0.004 C 
ENDBRANCH   5   6
ENDBRANCH   4   5
ENDBRANCH   3   4
ENDBRANCH   2   3
ENDBRANCH   1   2
BRANCH   1   8
ATOM      8  C   UNL     1     148.860 143.634 146.443  1.00  0.00     0.000 C 
BRANCH   8   9
ATOM      9  C   UNL     1     149.151 143.647 144.938  1.00  0.00     0.000 C 
BRANCH   9  10
ATOM     10  C   UNL     1     149.888 144.933 144.532  1.00  0.00     0.002 C 
BRANCH  10  11
ATOM     11  C   UNL     1     149.085 146.205 144.859  1.00  0.00     0.028 C 
BRANCH  11  12
ATOM     12  C   UNL     1     148.564 146.940 143.616  1.00  0.00     0.156 C 
BRANCH  12  13
ATOM     13  O   UNL     1     148.881 146.237 142.444  1.00  0.00    -0.396 OA
ATOM     14  H   UNL     1     149.708 145.723 142.637  1.00  0.00     0.210 HD
ENDBRANCH  12  13
ENDBRANCH  11  12
ENDBRANCH  10  11
ENDBRANCH   9  10
ENDBRANCH   8   9
ENDBRANCH   1   8
TORSDOF 11
ENDMDL
MODEL 7
REMARK VINA RESULT:    -2.649     12.269     13.977
REMARK INTER + INTRA:          -5.755
REMARK INTER:                  -4.516
REMARK INTRA:                  -1.239
REMARK UNBOUND:                -1.480
REMARK SMILES CCCCCCCCCCCCO
REMARK SMILES IDX 7 1 6 2 5 3 4 4 3 5 2 6 1 7 8 8 9 9 10 10 11 11 12 12 13 13
REMARK H PARENT 13 14
REMARK Flexibility Score: inf
ROOT
ATOM      1  C   UNL     1     145.509 143.324 143.530  1.00  0.00     0.000 C 
ENDROOT
BRANCH   1   2
ATOM      2  C   UNL     1     145.862 142.434 144.731  1.00  0.00    -0.000 C 
BRANCH   2   3
ATOM      3  C   UNL     1     147.333 141.980 144.726  1.00  0.00    -0.000 C 
BRANCH   3   4
ATOM      4  C   UNL     1     148.336 143.012 145.280  1.00  0.00    -0.000 C 
BRANCH   4   5
ATOM      5  C   UNL     1     149.180 143.741 144.216  1.00  0.00    -0.000 C 
BRANCH   5   6
ATOM      6  C   UNL     1     148.868 145.240 144.058  1.00  0.00    -0.003 C 
ATOM      7  C   UNL     1     148.416 145.893 145.364  1.00  0.00     0.004 C 
ENDBRANCH   5   6
ENDBRANCH   4   5
ENDBRANCH   3   4
ENDBRANCH   2   3
ENDBRANCH   1   2
BRANCH   1   8
ATOM      8  C   UNL     1     145.159 144.746 143.984  1.00  0.00     0.000 C 
BRANCH   8   9
ATOM      9  C   UNL     1     144.879 144.791 145.491  1.00  0.00     0.000 C 
BRANCH   9  10
ATOM     10  C   UNL     1     144.236 146.127 145.891  1.00  0.00     0.002 C 
BRANCH  10  11
ATOM     11  C   UNL     1     142.700 146.094 145.811  1.00  0.00     0.028 C 
BRANCH  11  12
ATOM     12  C   UNL     1     142.094 147.317 145.107  1.00  0.00     0.156 C 
BRANCH  12  13
ATOM     13  O   UNL     1     143.047 147.962 144.305  1.00  0.00    -0.396 OA
ATOM     14  H   UNL     1     142.696 148.872 144.124  1.00  0.00     0.210 HD
ENDBRANCH  12  13
ENDBRANCH  11  12
ENDBRANCH  10  11
ENDBRANCH   9  10
ENDBRANCH   8   9
ENDBRANCH   1   8
TORSDOF 11
ENDMDL
MODEL 8
REMARK VINA RESULT:    -2.602      2.013      4.220
REMARK INTER + INTRA:          -5.679
REMARK INTER:                  -4.297
REMARK INTRA:                  -1.382
REMARK UNBOUND:                -1.480
REMARK SMILES CCCCCCCCCCCCO
REMARK SMILES IDX 7 1 6 2 5 3 4 4 3 5 2 6 1 7 8 8 9 9 10 10 11 11 12 12 13 13
REMARK H PARENT 13 14
REMARK Flexibility Score: inf
ROOT
ATOM      1  C   UNL     1     134.967 138.573 145.027  1.00  0.00     0.000 C 
ENDROOT
BRANCH   1   2
ATOM      2  C   UNL     1     133.538 139.129 144.948  1.00  0.00    -0.000 C 
BRANCH   2   3
ATOM      3  C   UNL     1     132.629 138.308 144.016  1.00  0.00    -0.000 C 
BRANCH   3   4
ATOM      4  C   UNL     1     132.022 137.039 144.648  1.00  0.00    -0.000 C 
BRANCH   4   5
ATOM      5  C   UNL     1     132.546 135.708 144.074  1.00  0.00    -0.000 C 
BRANCH   5   6
ATOM      6  C   UNL     1     133.106 134.728 145.120  1.00  0.00    -0.003 C 
ATOM      7  C   UNL     1     133.129 135.314 146.531  1.00  0.00     0.004 C 
ENDBRANCH   5   6
ENDBRANCH   4   5
ENDBRANCH   3   4
ENDBRANCH   2   3
ENDBRANCH   1   2
BRANCH   1   8
ATOM      8  C   UNL     1     135.491 138.206 143.633  1.00  0.00     0.000 C 
BRANCH   8   9
ATOM      9  C   UNL     1     136.141 136.818 143.636  1.00  0.00     0.000 C 
BRANCH   9  10
ATOM     10  C   UNL     1     136.427 136.348 145.070  1.00  0.00     0.002 C 
BRANCH  10  11
ATOM     11  C   UNL     1     137.858 135.810 145.245  1.00  0.00     0.028 C 
BRANCH  11  12
ATOM     12  C   UNL     1     137.926 134.287 145.421  1.00  0.00     0.156 C 
BRANCH  12  13
ATOM     13  O   UNL     1     138.586 133.683 144.339  1.00  0.00    -0.396 OA
ATOM     14  H   UNL     1     138.024 133.847 143.538  1.00  0.00     0.210 HD
ENDBRANCH  12  13
ENDBRANCH  11  12
ENDBRANCH  10  11
ENDBRANCH   9  10
ENDBRANCH   8   9
ENDBRANCH   1   8
TORSDOF 11
ENDMDL
MODEL 9
REMARK VINA RESULT:    -2.573      1.532      2.035
REMARK INTER + INTRA:          -5.633
REMARK INTER:                  -4.238
REMARK INTRA:                  -1.395
REMARK UNBOUND:                -1.480
REMARK SMILES CCCCCCCCCCCCO
REMARK SMILES IDX 7 1 6 2 5 3 4 4 3 5 2 6 1 7 8 8 9 9 10 10 11 11 12 12 13 13
REMARK H PARENT 13 14
REMARK Flexibility Score: inf
ROOT
ATOM      1  C   UNL     1     133.119 138.343 145.533  1.00  0.00     0.000 C 
ENDROOT
BRANCH   1   2
ATOM      2  C   UNL     1     134.263 139.207 144.983  1.00  0.00    -0.000 C 
BRANCH   2   3
ATOM      3  C   UNL     1     134.717 138.773 143.578  1.00  0.00    -0.000 C 
BRANCH   3   4
ATOM      4  C   UNL     1     136.090 138.075 143.522  1.00  0.00    -0.000 C 
BRANCH   4   5
ATOM      5  C   UNL     1     136.046 136.536 143.595  1.00  0.00    -0.000 C 
BRANCH   5   6
ATOM      6  C   UNL     1     136.891 135.917 144.722  1.00  0.00    -0.003 C 
ATOM      7  C   UNL     1     136.293 136.149 146.110  1.00  0.00     0.004 C 
ENDBRANCH   5   6
ENDBRANCH   4   5
ENDBRANCH   3   4
ENDBRANCH   2   3
ENDBRANCH   1   2
BRANCH   1   8
ATOM      8  C   UNL     1     132.191 137.877 144.404  1.00  0.00     0.000 C 
BRANCH   8   9
ATOM      9  C   UNL     1     131.632 136.479 144.691  1.00  0.00     0.000 C 
BRANCH   9  10
ATOM     10  C   UNL     1     132.753 135.511 145.095  1.00  0.00     0.002 C 
BRANCH  10  11
ATOM     11  C   UNL     1     132.870 134.308 144.143  1.00  0.00     0.028 C 
BRANCH  11  12
ATOM     12  C   UNL     1     133.320 133.014 144.837  1.00  0.00     0.156 C 
BRANCH  12  13
ATOM     13  O   UNL     1     134.652 133.109 145.268  1.00  0.00    -0.396 OA
ATOM     14  H   UNL     1     134.768 134.027 145.628  1.00  0.00     0.210 HD
ENDBRANCH  12  13
ENDBRANCH  11  12
ENDBRANCH  10  11
ENDBRANCH   9  10
ENDBRANCH   8   9
ENDBRANCH   1   8
TORSDOF 11
ENDMDL
