MODEL 1
REMARK VINA RESULT:    -5.218      0.000      0.000
REMARK INTER + INTRA:          -6.029
REMARK INTER:                  -5.981
REMARK INTRA:                  -0.048
REMARK UNBOUND:                -0.048
REMARK SMILES O=C([O-])c1cc(O)c(O)c(O)c1
REMARK SMILES IDX 4 1 5 2 12 3 6 4 10 5 8 6 2 7 1 8 3 9 7 10 11 12 9 14
REMARK H PARENT 7 11 11 13 9 15
REMARK Flexibility Score: inf
ROOT
ATOM      1  C   UNL     1       8.245  28.094  -0.938  1.00  0.00     0.005 A 
ATOM      2  C   UNL     1       8.594  27.530  -2.175  1.00  0.00     0.060 A 
ATOM      3  C   UNL     1       9.254  28.345   0.004  1.00  0.00     0.060 A 
ATOM      4  C   UNL     1       9.925  27.221  -2.477  1.00  0.00     0.162 A 
ATOM      5  C   UNL     1      10.589  28.042  -0.281  1.00  0.00     0.162 A 
ATOM      6  C   UNL     1      10.938  27.477  -1.522  1.00  0.00     0.200 A 
ENDROOT
BRANCH   1   7
ATOM      7  C   UNL     1       6.833  28.416  -0.635  1.00  0.00     0.072 C 
ATOM      8  O   UNL     1       6.527  29.512  -0.092  1.00  0.00    -0.545 OA
ATOM      9  O   UNL     1       5.822  27.514  -0.944  1.00  0.00    -0.545 OA
ENDBRANCH   1   7
BRANCH   4  10
ATOM     10  O   UNL     1      10.192  26.662  -3.729  1.00  0.00    -0.504 OA
ATOM     11  H   UNL     1      10.520  25.718  -3.870  1.00  0.00     0.293 HD
ENDBRANCH   4  10
BRANCH   5  12
ATOM     12  O   UNL     1      11.558  28.311   0.685  1.00  0.00    -0.504 OA
ATOM     13  H   UNL     1      11.849  27.620   1.366  1.00  0.00     0.293 HD
ENDBRANCH   5  12
BRANCH   6  14
ATOM     14  O   UNL     1      12.283  27.189  -1.766  1.00  0.00    -0.502 OA
ATOM     15  H   UNL     1      12.815  26.494  -1.265  1.00  0.00     0.293 HD
ENDBRANCH   6  14
TORSDOF 4
ENDMDL
MODEL 2
REMARK VINA RESULT:    -5.206     11.345     13.657
REMARK INTER + INTRA:          -6.016
REMARK INTER:                  -5.969
REMARK INTRA:                  -0.046
REMARK UNBOUND:                -0.048
REMARK SMILES O=C([O-])c1cc(O)c(O)c(O)c1
REMARK SMILES IDX 4 1 5 2 12 3 6 4 10 5 8 6 2 7 1 8 3 9 7 10 11 12 9 14
REMARK H PARENT 7 11 11 13 9 15
REMARK Flexibility Score: inf
ROOT
ATOM      1  C   UNL     1       2.901  36.548   5.149  1.00  0.00     0.005 A 
ATOM      2  C   UNL     1       2.644  37.069   6.426  1.00  0.00     0.060 A 
ATOM      3  C   UNL     1       3.531  37.362   4.196  1.00  0.00     0.060 A 
ATOM      4  C   UNL     1       3.006  38.380   6.756  1.00  0.00     0.162 A 
ATOM      5  C   UNL     1       3.899  38.674   4.509  1.00  0.00     0.162 A 
ATOM      6  C   UNL     1       3.641  39.196   5.790  1.00  0.00     0.200 A 
ENDROOT
BRANCH   1   7
ATOM      7  C   UNL     1       2.513  35.159   4.817  1.00  0.00     0.072 C 
ATOM      8  O   UNL     1       3.378  34.324   4.439  1.00  0.00    -0.545 OA
ATOM      9  O   UNL     1       1.187  34.754   4.915  1.00  0.00    -0.545 OA
ENDBRANCH   1   7
BRANCH   4  10
ATOM     10  O   UNL     1       2.716  38.826   8.048  1.00  0.00    -0.504 OA
ATOM     11  H   UNL     1       2.613  38.218   8.848  1.00  0.00     0.293 HD
ENDBRANCH   4  10
BRANCH   5  12
ATOM     12  O   UNL     1       4.524  39.446   3.529  1.00  0.00    -0.504 OA
ATOM     13  H   UNL     1       4.247  39.411   2.556  1.00  0.00     0.293 HD
ENDBRANCH   5  12
BRANCH   6  14
ATOM     14  O   UNL     1       4.025  40.512   6.061  1.00  0.00    -0.502 OA
ATOM     15  H   UNL     1       4.944  40.886   5.874  1.00  0.00     0.293 HD
ENDBRANCH   6  14
TORSDOF 4
ENDMDL
MODEL 3
REMARK VINA RESULT:    -5.192      0.097      2.446
REMARK INTER + INTRA:          -5.999
REMARK INTER:                  -5.951
REMARK INTRA:                  -0.049
REMARK UNBOUND:                -0.048
REMARK SMILES O=C([O-])c1cc(O)c(O)c(O)c1
REMARK SMILES IDX 4 1 5 2 12 3 6 4 10 5 8 6 2 7 1 8 3 9 7 10 11 12 9 14
REMARK H PARENT 7 11 11 13 9 15
REMARK Flexibility Score: inf
ROOT
ATOM      1  C   UNL     1       8.210  28.130  -0.909  1.00  0.00     0.005 A 
ATOM      2  C   UNL     1       9.238  28.371   0.015  1.00  0.00     0.060 A 
ATOM      3  C   UNL     1       8.526  27.539  -2.141  1.00  0.00     0.060 A 
ATOM      4  C   UNL     1      10.564  28.030  -0.277  1.00  0.00     0.162 A 
ATOM      5  C   UNL     1       9.846  27.193  -2.449  1.00  0.00     0.162 A 
ATOM      6  C   UNL     1      10.876  27.434  -1.523  1.00  0.00     0.200 A 
ENDROOT
BRANCH   1   7
ATOM      7  C   UNL     1       6.813  28.495  -0.584  1.00  0.00     0.072 C 
ATOM      8  O   UNL     1       6.551  29.590  -0.019  1.00  0.00    -0.545 OA
ATOM      9  O   UNL     1       5.768  27.633  -0.897  1.00  0.00    -0.545 OA
ENDBRANCH   1   7
BRANCH   4  10
ATOM     10  O   UNL     1      11.531  28.302   0.694  1.00  0.00    -0.504 OA
ATOM     11  H   UNL     1      12.223  29.033   0.616  1.00  0.00     0.293 HD
ENDBRANCH   4  10
BRANCH   5  12
ATOM     12  O   UNL     1      10.112  26.607  -3.686  1.00  0.00    -0.504 OA
ATOM     13  H   UNL     1       9.697  25.728  -3.970  1.00  0.00     0.293 HD
ENDBRANCH   5  12
BRANCH   6  14
ATOM     14  O   UNL     1      12.181  27.074  -1.870  1.00  0.00    -0.502 OA
ATOM     15  H   UNL     1      12.894  27.728  -2.158  1.00  0.00     0.293 HD
ENDBRANCH   6  14
TORSDOF 4
ENDMDL
MODEL 4
REMARK VINA RESULT:    -5.179     11.337     13.511
REMARK INTER + INTRA:          -5.985
REMARK INTER:                  -5.938
REMARK INTRA:                  -0.047
REMARK UNBOUND:                -0.048
REMARK SMILES O=C([O-])c1cc(O)c(O)c(O)c1
REMARK SMILES IDX 4 1 5 2 12 3 6 4 10 5 8 6 2 7 1 8 3 9 7 10 11 12 9 14
REMARK H PARENT 7 11 11 13 9 15
REMARK Flexibility Score: inf
ROOT
ATOM      1  C   UNL     1       2.936  36.566   5.168  1.00  0.00     0.005 A 
ATOM      2  C   UNL     1       3.520  37.400   4.202  1.00  0.00     0.060 A 
ATOM      3  C   UNL     1       2.730  37.064   6.462  1.00  0.00     0.060 A 
ATOM      4  C   UNL     1       3.894  38.713   4.514  1.00  0.00     0.162 A 
ATOM      5  C   UNL     1       3.097  38.373   6.791  1.00  0.00     0.162 A 
ATOM      6  C   UNL     1       3.682  39.209   5.823  1.00  0.00     0.200 A 
ENDROOT
BRANCH   1   7
ATOM      7  C   UNL     1       2.546  35.181   4.821  1.00  0.00     0.072 C 
ATOM      8  O   UNL     1       3.398  34.366   4.377  1.00  0.00    -0.545 OA
ATOM      9  O   UNL     1       1.231  34.759   4.979  1.00  0.00    -0.545 OA
ENDBRANCH   1   7
BRANCH   4  10
ATOM     10  O   UNL     1       4.469  39.480   3.499  1.00  0.00    -0.504 OA
ATOM     11  H   UNL     1       5.408  39.850   3.530  1.00  0.00     0.293 HD
ENDBRANCH   4  10
BRANCH   5  12
ATOM     12  O   UNL     1       2.872  38.825   8.091  1.00  0.00    -0.504 OA
ATOM     13  H   UNL     1       3.596  39.267   8.644  1.00  0.00     0.293 HD
ENDBRANCH   5  12
BRANCH   6  14
ATOM     14  O   UNL     1       4.035  40.509   6.193  1.00  0.00    -0.502 OA
ATOM     15  H   UNL     1       4.860  40.990   5.863  1.00  0.00     0.293 HD
ENDBRANCH   6  14
TORSDOF 4
ENDMDL
MODEL 5
REMARK VINA RESULT:    -5.113      6.509      7.059
REMARK INTER + INTRA:          -5.909
REMARK INTER:                  -5.861
REMARK INTRA:                  -0.048
REMARK UNBOUND:                -0.048
REMARK SMILES O=C([O-])c1cc(O)c(O)c(O)c1
REMARK SMILES IDX 4 1 5 2 12 3 6 4 10 5 8 6 2 7 1 8 3 9 7 10 11 12 9 14
REMARK H PARENT 7 11 11 13 9 15
REMARK Flexibility Score: inf
ROOT
ATOM      1  C   UNL     1       7.631  33.515   2.355  1.00  0.00     0.005 A 
ATOM      2  C   UNL     1       7.644  34.573   1.433  1.00  0.00     0.060 A 
ATOM      3  C   UNL     1       8.850  32.960   2.771  1.00  0.00     0.060 A 
ATOM      4  C   UNL     1       8.850  35.077   0.930  1.00  0.00     0.162 A 
ATOM      5  C   UNL     1      10.064  33.451   2.279  1.00  0.00     0.162 A 
ATOM      6  C   UNL     1      10.076  34.512   1.355  1.00  0.00     0.200 A 
ENDROOT
BRANCH   1   7
ATOM      7  C   UNL     1       6.348  32.996   2.878  1.00  0.00     0.072 C 
ATOM      8  O   UNL     1       5.452  33.786   3.281  1.00  0.00    -0.545 OA
ATOM      9  O   UNL     1       6.111  31.627   2.933  1.00  0.00    -0.545 OA
ENDBRANCH   1   7
BRANCH   4  10
ATOM     10  O   UNL     1       8.780  36.131   0.016  1.00  0.00    -0.504 OA
ATOM     11  H   UNL     1       9.031  37.085   0.232  1.00  0.00     0.293 HD
ENDBRANCH   4  10
BRANCH   5  12
ATOM     12  O   UNL     1      11.250  32.868   2.722  1.00  0.00    -0.504 OA
ATOM     13  H   UNL     1      11.718  32.132   2.207  1.00  0.00     0.293 HD
ENDBRANCH   5  12
BRANCH   6  14
ATOM     14  O   UNL     1      11.310  34.971   0.888  1.00  0.00    -0.502 OA
ATOM     15  H   UNL     1      11.496  35.927   0.620  1.00  0.00     0.293 HD
ENDBRANCH   6  14
TORSDOF 4
ENDMDL
MODEL 6
REMARK VINA RESULT:    -5.079      6.515      7.225
REMARK INTER + INTRA:          -5.870
REMARK INTER:                  -5.822
REMARK INTRA:                  -0.048
REMARK UNBOUND:                -0.048
REMARK SMILES O=C([O-])c1cc(O)c(O)c(O)c1
REMARK SMILES IDX 4 1 5 2 12 3 6 4 10 5 8 6 2 7 1 8 3 9 7 10 11 12 9 14
REMARK H PARENT 7 11 11 13 9 15
REMARK Flexibility Score: inf
ROOT
ATOM      1  C   UNL     1       7.541  33.493   2.317  1.00  0.00     0.005 A 
ATOM      2  C   UNL     1       8.755  32.952   2.770  1.00  0.00     0.060 A 
ATOM      3  C   UNL     1       7.569  34.544   1.389  1.00  0.00     0.060 A 
ATOM      4  C   UNL     1       9.981  33.446   2.309  1.00  0.00     0.162 A 
ATOM      5  C   UNL     1       8.785  35.050   0.918  1.00  0.00     0.162 A 
ATOM      6  C   UNL     1      10.001  34.507   1.373  1.00  0.00     0.200 A 
ENDROOT
BRANCH   1   7
ATOM      7  C   UNL     1       6.254  32.958   2.813  1.00  0.00     0.072 C 
ATOM      8  O   UNL     1       5.326  33.738   3.159  1.00  0.00    -0.545 OA
ATOM      9  O   UNL     1       6.049  31.586   2.907  1.00  0.00    -0.545 OA
ENDBRANCH   1   7
BRANCH   4  10
ATOM     10  O   UNL     1      11.145  32.856   2.807  1.00  0.00    -0.504 OA
ATOM     11  H   UNL     1      11.159  32.017   3.369  1.00  0.00     0.293 HD
ENDBRANCH   4  10
BRANCH   5  12
ATOM     12  O   UNL     1       8.763  36.095  -0.005  1.00  0.00    -0.504 OA
ATOM     13  H   UNL     1       8.257  36.033  -0.880  1.00  0.00     0.293 HD
ENDBRANCH   5  12
BRANCH   6  14
ATOM     14  O   UNL     1      11.193  35.042   0.878  1.00  0.00    -0.502 OA
ATOM     15  H   UNL     1      11.701  34.666   0.090  1.00  0.00     0.293 HD
ENDBRANCH   6  14
TORSDOF 4
ENDMDL
MODEL 7
REMARK VINA RESULT:    -4.998      1.771      4.986
REMARK INTER + INTRA:          -5.777
REMARK INTER:                  -5.726
REMARK INTRA:                  -0.051
REMARK UNBOUND:                -0.048
REMARK SMILES O=C([O-])c1cc(O)c(O)c(O)c1
REMARK SMILES IDX 4 1 5 2 12 3 6 4 10 5 8 6 2 7 1 8 3 9 7 10 11 12 9 14
REMARK H PARENT 7 11 11 13 9 15
REMARK Flexibility Score: inf
ROOT
ATOM      1  C   UNL     1       8.794  28.452  -0.075  1.00  0.00     0.005 A 
ATOM      2  C   UNL     1       8.056  29.424   0.618  1.00  0.00     0.060 A 
ATOM      3  C   UNL     1       8.137  27.631  -1.003  1.00  0.00     0.060 A 
ATOM      4  C   UNL     1       6.683  29.582   0.394  1.00  0.00     0.162 A 
ATOM      5  C   UNL     1       6.766  27.776  -1.239  1.00  0.00     0.162 A 
ATOM      6  C   UNL     1       6.026  28.750  -0.544  1.00  0.00     0.200 A 
ENDROOT
BRANCH   1   7
ATOM      7  C   UNL     1      10.245  28.299   0.173  1.00  0.00     0.072 C 
ATOM      8  O   UNL     1      10.925  29.262   0.618  1.00  0.00    -0.545 OA
ATOM      9  O   UNL     1      10.881  27.089  -0.083  1.00  0.00    -0.545 OA
ENDBRANCH   1   7
BRANCH   4  10
ATOM     10  O   UNL     1       6.018  30.571   1.123  1.00  0.00    -0.504 OA
ATOM     11  H   UNL     1       6.484  31.292   1.655  1.00  0.00     0.293 HD
ENDBRANCH   4  10
BRANCH   5  12
ATOM     12  O   UNL     1       6.155  26.938  -2.171  1.00  0.00    -0.504 OA
ATOM     13  H   UNL     1       6.511  26.825  -3.113  1.00  0.00     0.293 HD
ENDBRANCH   5  12
BRANCH   6  14
ATOM     14  O   UNL     1       4.659  28.861  -0.809  1.00  0.00    -0.502 OA
ATOM     15  H   UNL     1       4.010  29.383  -0.238  1.00  0.00     0.293 HD
ENDBRANCH   6  14
TORSDOF 4
ENDMDL
MODEL 8
REMARK VINA RESULT:    -4.979      9.514     11.873
REMARK INTER + INTRA:          -5.755
REMARK INTER:                  -5.702
REMARK INTRA:                  -0.053
REMARK UNBOUND:                -0.048
REMARK SMILES O=C([O-])c1cc(O)c(O)c(O)c1
REMARK SMILES IDX 4 1 5 2 12 3 6 4 10 5 8 6 2 7 1 8 3 9 7 10 11 12 9 14
REMARK H PARENT 7 11 11 13 9 15
REMARK Flexibility Score: inf
ROOT
ATOM      1  C   UNL     1       3.490  36.608   4.182  1.00  0.00     0.005 A 
ATOM      2  C   UNL     1       2.383  36.343   5.004  1.00  0.00     0.060 A 
ATOM      3  C   UNL     1       4.196  35.532   3.624  1.00  0.00     0.060 A 
ATOM      4  C   UNL     1       1.980  35.029   5.270  1.00  0.00     0.162 A 
ATOM      5  C   UNL     1       3.807  34.213   3.880  1.00  0.00     0.162 A 
ATOM      6  C   UNL     1       2.697  33.948   4.704  1.00  0.00     0.200 A 
ENDROOT
BRANCH   1   7
ATOM      7  C   UNL     1       3.902  38.002   3.910  1.00  0.00     0.072 C 
ATOM      8  O   UNL     1       3.157  38.966   4.233  1.00  0.00    -0.545 OA
ATOM      9  O   UNL     1       5.118  38.271   3.293  1.00  0.00    -0.545 OA
ENDBRANCH   1   7
BRANCH   4  10
ATOM     10  O   UNL     1       0.870  34.848   6.098  1.00  0.00    -0.504 OA
ATOM     11  H   UNL     1       0.876  34.999   7.096  1.00  0.00     0.293 HD
ENDBRANCH   4  10
BRANCH   5  12
ATOM     12  O   UNL     1       4.539  33.175   3.303  1.00  0.00    -0.504 OA
ATOM     13  H   UNL     1       4.214  32.216   3.308  1.00  0.00     0.293 HD
ENDBRANCH   5  12
BRANCH   6  14
ATOM     14  O   UNL     1       2.343  32.617   4.934  1.00  0.00    -0.502 OA
ATOM     15  H   UNL     1       1.501  32.327   5.410  1.00  0.00     0.293 HD
ENDBRANCH   6  14
TORSDOF 4
ENDMDL
MODEL 9
REMARK VINA RESULT:    -4.936      9.530     11.801
REMARK INTER + INTRA:          -5.705
REMARK INTER:                  -5.653
REMARK INTRA:                  -0.053
REMARK UNBOUND:                -0.048
REMARK SMILES O=C([O-])c1cc(O)c(O)c(O)c1
REMARK SMILES IDX 4 1 5 2 12 3 6 4 10 5 8 6 2 7 1 8 3 9 7 10 11 12 9 14
REMARK H PARENT 7 11 11 13 9 15
REMARK Flexibility Score: inf
ROOT
ATOM      1  C   UNL     1       3.458  36.641   4.228  1.00  0.00     0.005 A 
ATOM      2  C   UNL     1       4.189  35.586   3.660  1.00  0.00     0.060 A 
ATOM      3  C   UNL     1       2.359  36.344   5.048  1.00  0.00     0.060 A 
ATOM      4  C   UNL     1       3.835  34.253   3.901  1.00  0.00     0.162 A 
ATOM      5  C   UNL     1       1.992  35.018   5.298  1.00  0.00     0.162 A 
ATOM      6  C   UNL     1       2.725  33.961   4.729  1.00  0.00     0.200 A 
ENDROOT
BRANCH   1   7
ATOM      7  C   UNL     1       3.845  38.045   3.965  1.00  0.00     0.072 C 
ATOM      8  O   UNL     1       3.110  38.995   4.345  1.00  0.00    -0.545 OA
ATOM      9  O   UNL     1       5.026  38.336   3.292  1.00  0.00    -0.545 OA
ENDBRANCH   1   7
BRANCH   4  10
ATOM     10  O   UNL     1       4.612  33.259   3.300  1.00  0.00    -0.504 OA
ATOM     11  H   UNL     1       5.034  32.490   3.800  1.00  0.00     0.293 HD
ENDBRANCH   4  10
BRANCH   5  12
ATOM     12  O   UNL     1       0.893  34.772   6.120  1.00  0.00    -0.504 OA
ATOM     13  H   UNL     1      -0.005  34.484   5.750  1.00  0.00     0.293 HD
ENDBRANCH   5  12
BRANCH   6  14
ATOM     14  O   UNL     1       2.325  32.651   5.004  1.00  0.00    -0.502 OA
ATOM     15  H   UNL     1       1.473  32.232   4.660  1.00  0.00     0.293 HD
ENDBRANCH   6  14
TORSDOF 4
ENDMDL
