MODEL 1
REMARK VINA RESULT:    -2.855      0.000      0.000
REMARK INTER + INTRA:          -3.226
REMARK INTER:                  -4.023
REMARK INTRA:                   0.798
REMARK UNBOUND:                 0.798
REMARK SMILES CC1=CCCC(C)=CCC(C)(C)C=CC1
REMARK SMILES IDX 2 1 3 2 1 3 4 4 5 5 6 6 7 7 8 8 15 10 14 11 13 12 10 13
REMARK SMILES IDX 11 14 12 15 9 16
REMARK H PARENT
REMARK Flexibility Score: 60.00
ROOT
ATOM      1  C   UNL     1     482.088  39.093 460.365  1.00  0.00    -0.074 C 
ATOM      2  C   UNL     1     483.434  39.079 460.541  1.00  0.00    -0.027 C 
ATOM      3  C   UNL     1     481.274  39.919 461.333  1.00  0.00     0.039 C 
ENDROOT
BRANCH   2   4
ATOM      4  C   UNL     1     484.446  38.359 459.679  1.00  0.00     0.032 C 
BRANCH   4   5
ATOM      5  C   UNL     1     485.361  39.313 458.883  1.00  0.00     0.034 C 
BRANCH   5   6
ATOM      6  C   UNL     1     484.634  40.443 458.169  1.00  0.00    -0.077 C 
ATOM      7  C   UNL     1     484.773  41.848 458.702  1.00  0.00     0.039 C 
ATOM      8  C   UNL     1     483.850  40.253 457.086  1.00  0.00    -0.027 CG0
ATOM      9  G   UNL     1     483.607  38.919 456.413  1.00  0.00     0.000 G0
ENDBRANCH   5   6
ENDBRANCH   4   5
ENDBRANCH   2   4
BRANCH   1  10
ATOM     10  C   UNL     1     481.357  38.380 459.235  1.00  0.00     0.057 C 
BRANCH  10  11
ATOM     11  C   UNL     1     480.808  39.371 458.234  1.00  0.00    -0.026 C 
ATOM     12  C   UNL     1     481.124  39.492 456.925  1.00  0.00    -0.024 C 
BRANCH  12  13
ATOM     13  C   UNL     1     482.098  38.653 456.083  1.00  0.00    -0.014 C 
ATOM     14  C   UNL     1     481.823  38.883 454.581  1.00  0.00     0.016 C 
ATOM     15  C   UNL     1     481.809  37.160 456.375  1.00  0.00     0.016 C 
BRANCH  13  16
ATOM     16  C   UNL     1     483.600  38.930 456.409  1.00  0.00     0.038 CG0
ATOM     17  G   UNL     1     483.823  40.278 457.061  1.00  0.00     0.000 G0
ENDBRANCH  13  16
ENDBRANCH  12  13
ENDBRANCH  10  11
ENDBRANCH   1  10
TORSDOF 0
ENDMDL
MODEL 2
REMARK VINA RESULT:    -2.794      1.347      2.829
REMARK INTER + INTRA:          -3.140
REMARK INTER:                  -3.915
REMARK INTRA:                   0.775
REMARK UNBOUND:                 0.798
REMARK SMILES CC1=CCCC(C)=CCC(C)(C)C=CC1
REMARK SMILES IDX 2 1 3 2 1 3 4 4 5 5 6 6 7 7 8 8 15 10 14 11 13 12 10 13
REMARK SMILES IDX 11 14 12 15 9 16
REMARK H PARENT
REMARK Flexibility Score: 60.00
ROOT
ATOM      1  C   UNL     1     483.909  41.983 457.823  1.00  0.00    -0.074 C 
ATOM      2  C   UNL     1     484.676  41.224 458.646  1.00  0.00    -0.027 C 
ATOM      3  C   UNL     1     483.493  43.344 458.329  1.00  0.00     0.039 C 
ENDROOT
BRANCH   2   4
ATOM      4  C   UNL     1     485.239  39.854 458.340  1.00  0.00     0.032 C 
BRANCH   4   5
ATOM      5  C   UNL     1     484.589  38.726 459.167  1.00  0.00     0.034 C 
BRANCH   5   6
ATOM      6  C   UNL     1     483.068  38.758 459.202  1.00  0.00    -0.077 C 
ATOM      7  C   UNL     1     482.379  39.162 460.481  1.00  0.00     0.039 C 
ATOM      8  C   UNL     1     482.295  38.423 458.146  1.00  0.00    -0.027 CG0
ATOM      9  G   UNL     1     482.814  38.006 456.787  1.00  0.00     0.000 G0
ENDBRANCH   5   6
ENDBRANCH   4   5
ENDBRANCH   2   4
BRANCH   1  10
ATOM     10  C   UNL     1     483.487  41.578 456.417  1.00  0.00     0.057 C 
BRANCH  10  11
ATOM     11  C   UNL     1     482.015  41.242 456.367  1.00  0.00    -0.026 C 
ATOM     12  C   UNL     1     481.441  40.069 456.015  1.00  0.00    -0.024 C 
BRANCH  12  13
ATOM     13  C   UNL     1     482.112  38.751 455.597  1.00  0.00    -0.014 C 
ATOM     14  C   UNL     1     483.121  39.016 454.458  1.00  0.00     0.016 C 
ATOM     15  C   UNL     1     481.013  37.823 455.022  1.00  0.00     0.016 C 
BRANCH  13  16
ATOM     16  C   UNL     1     482.809  38.004 456.778  1.00  0.00     0.038 CG0
ATOM     17  G   UNL     1     482.282  38.426 458.133  1.00  0.00     0.000 G0
ENDBRANCH  13  16
ENDBRANCH  12  13
ENDBRANCH  10  11
ENDBRANCH   1  10
TORSDOF 0
ENDMDL
MODEL 3
REMARK VINA RESULT:    -2.793      1.603      4.619
REMARK INTER + INTRA:          -3.138
REMARK INTER:                  -3.948
REMARK INTRA:                   0.810
REMARK UNBOUND:                 0.798
REMARK SMILES CC1=CCCC(C)=CCC(C)(C)C=CC1
REMARK SMILES IDX 2 1 3 2 1 3 4 4 5 5 6 6 7 7 8 8 15 10 14 11 13 12 10 13
REMARK SMILES IDX 11 14 12 15 9 16
REMARK H PARENT
REMARK Flexibility Score: 60.00
ROOT
ATOM      1  C   UNL     1     481.220  38.889 456.148  1.00  0.00    -0.074 C 
ATOM      2  C   UNL     1     480.190  39.466 456.817  1.00  0.00    -0.027 C 
ATOM      3  C   UNL     1     480.876  37.819 455.140  1.00  0.00     0.039 C 
ENDROOT
BRANCH   2   4
ATOM      4  C   UNL     1     480.290  40.578 457.836  1.00  0.00     0.032 C 
BRANCH   4   5
ATOM      5  C   UNL     1     480.024  40.108 459.282  1.00  0.00     0.034 C 
BRANCH   5   6
ATOM      6  C   UNL     1     480.685  38.789 459.654  1.00  0.00    -0.077 C 
ATOM      7  C   UNL     1     479.817  37.569 459.840  1.00  0.00     0.039 C 
ATOM      8  C   UNL     1     482.014  38.654 459.847  1.00  0.00    -0.027 CG0
ATOM      9  G   UNL     1     483.031  39.765 459.694  1.00  0.00     0.000 G0
ENDBRANCH   5   6
ENDBRANCH   4   5
ENDBRANCH   2   4
BRANCH   1  10
ATOM     10  C   UNL     1     482.683  39.283 456.308  1.00  0.00     0.057 C 
BRANCH  10  11
ATOM     11  C   UNL     1     483.490  38.148 456.893  1.00  0.00    -0.026 C 
ATOM     12  C   UNL     1     484.214  38.144 458.036  1.00  0.00    -0.024 C 
BRANCH  12  13
ATOM     13  C   UNL     1     484.399  39.269 459.067  1.00  0.00    -0.014 C 
ATOM     14  C   UNL     1     485.155  40.450 458.421  1.00  0.00     0.016 C 
ATOM     15  C   UNL     1     485.297  38.723 460.204  1.00  0.00     0.016 C 
BRANCH  13  16
ATOM     16  C   UNL     1     483.059  39.761 459.699  1.00  0.00     0.038 CG0
ATOM     17  G   UNL     1     482.034  38.656 459.842  1.00  0.00     0.000 G0
ENDBRANCH  13  16
ENDBRANCH  12  13
ENDBRANCH  10  11
ENDBRANCH   1  10
TORSDOF 0
ENDMDL
MODEL 4
REMARK VINA RESULT:    -2.721      2.503      5.414
REMARK INTER + INTRA:          -3.037
REMARK INTER:                  -3.980
REMARK INTRA:                   0.943
REMARK UNBOUND:                 0.798
REMARK SMILES CC1=CCCC(C)=CCC(C)(C)C=CC1
REMARK SMILES IDX 2 1 3 2 1 3 4 4 5 5 6 6 7 7 8 8 15 10 14 11 13 12 10 13
REMARK SMILES IDX 11 14 12 15 9 16
REMARK H PARENT
REMARK Flexibility Score: 60.00
ROOT
ATOM      1  C   UNL     1     484.301  41.882 458.605  1.00  0.00    -0.074 C 
ATOM      2  C   UNL     1     484.445  40.721 457.919  1.00  0.00    -0.027 C 
ATOM      3  C   UNL     1     483.295  42.877 458.076  1.00  0.00     0.039 C 
ENDROOT
BRANCH   2   4
ATOM      4  C   UNL     1     485.357  39.570 458.280  1.00  0.00     0.032 C 
BRANCH   4   5
ATOM      5  C   UNL     1     484.601  38.328 458.797  1.00  0.00     0.034 C 
BRANCH   5   6
ATOM      6  C   UNL     1     483.398  38.636 459.677  1.00  0.00    -0.077 C 
ATOM      7  C   UNL     1     482.015  38.378 459.134  1.00  0.00     0.039 C 
ATOM      8  C   UNL     1     483.502  39.150 460.922  1.00  0.00    -0.027 CG0
ATOM      9  G   UNL     1     484.806  39.460 461.627  1.00  0.00     0.000 G0
ENDBRANCH   5   6
ENDBRANCH   4   5
ENDBRANCH   2   4
BRANCH   1  10
ATOM     10  C   UNL     1     485.043  42.224 459.891  1.00  0.00     0.057 C 
BRANCH  10  11
ATOM     11  C   UNL     1     484.075  42.515 461.014  1.00  0.00    -0.026 C 
ATOM     12  C   UNL     1     483.919  41.837 462.174  1.00  0.00    -0.024 C 
BRANCH  12  13
ATOM     13  C   UNL     1     484.688  40.610 462.688  1.00  0.00    -0.014 C 
ATOM     14  C   UNL     1     484.029  40.085 463.982  1.00  0.00     0.016 C 
ATOM     15  C   UNL     1     486.118  41.071 463.060  1.00  0.00     0.016 C 
BRANCH  13  16
ATOM     16  C   UNL     1     484.806  39.463 461.634  1.00  0.00     0.038 CG0
ATOM     17  G   UNL     1     483.495  39.168 460.936  1.00  0.00     0.000 G0
ENDBRANCH  13  16
ENDBRANCH  12  13
ENDBRANCH  10  11
ENDBRANCH   1  10
TORSDOF 0
ENDMDL
MODEL 5
REMARK VINA RESULT:    -2.686      1.573      3.711
REMARK INTER + INTRA:          -2.987
REMARK INTER:                  -3.831
REMARK INTRA:                   0.843
REMARK UNBOUND:                 0.798
REMARK SMILES CC1=CCCC(C)=CCC(C)(C)C=CC1
REMARK SMILES IDX 2 1 3 2 1 3 4 4 5 5 6 6 7 7 8 8 15 10 14 11 13 12 10 13
REMARK SMILES IDX 11 14 12 15 9 16
REMARK H PARENT
REMARK Flexibility Score: 60.00
ROOT
ATOM      1  C   UNL     1     484.115  39.798 461.423  1.00  0.00    -0.074 C 
ATOM      2  C   UNL     1     482.967  40.037 462.106  1.00  0.00    -0.027 C 
ATOM      3  C   UNL     1     485.323  40.628 461.791  1.00  0.00     0.039 C 
ENDROOT
BRANCH   2   4
ATOM      4  C   UNL     1     481.653  39.309 461.937  1.00  0.00     0.032 C 
BRANCH   4   5
ATOM      5  C   UNL     1     480.760  39.906 460.829  1.00  0.00     0.034 C 
BRANCH   5   6
ATOM      6  C   UNL     1     480.500  38.978 459.652  1.00  0.00    -0.077 C 
ATOM      7  C   UNL     1     479.435  37.918 459.785  1.00  0.00     0.039 C 
ATOM      8  C   UNL     1     481.190  39.039 458.493  1.00  0.00    -0.027 CG0
ATOM      9  G   UNL     1     482.281  40.041 458.184  1.00  0.00     0.000 G0
ENDBRANCH   5   6
ENDBRANCH   4   5
ENDBRANCH   2   4
BRANCH   1  10
ATOM     10  C   UNL     1     484.279  38.724 460.356  1.00  0.00     0.057 C 
BRANCH  10  11
ATOM     11  C   UNL     1     485.169  39.205 459.233  1.00  0.00    -0.026 C 
ATOM     12  C   UNL     1     484.821  39.483 457.957  1.00  0.00    -0.024 C 
BRANCH  12  13
ATOM     13  C   UNL     1     483.435  39.418 457.296  1.00  0.00    -0.014 C 
ATOM     14  C   UNL     1     483.096  37.956 456.934  1.00  0.00     0.016 C 
ATOM     15  C   UNL     1     483.508  40.210 455.967  1.00  0.00     0.016 C 
BRANCH  13  16
ATOM     16  C   UNL     1     482.299  40.040 458.169  1.00  0.00     0.038 CG0
ATOM     17  G   UNL     1     481.211  39.045 458.515  1.00  0.00     0.000 G0
ENDBRANCH  13  16
ENDBRANCH  12  13
ENDBRANCH  10  11
ENDBRANCH   1  10
TORSDOF 0
ENDMDL
MODEL 6
REMARK VINA RESULT:    -2.666      1.750      3.638
REMARK INTER + INTRA:          -2.959
REMARK INTER:                  -3.796
REMARK INTRA:                   0.837
REMARK UNBOUND:                 0.798
REMARK SMILES CC1=CCCC(C)=CCC(C)(C)C=CC1
REMARK SMILES IDX 2 1 3 2 1 3 4 4 5 5 6 6 7 7 8 8 15 10 14 11 13 12 10 13
REMARK SMILES IDX 11 14 12 15 9 16
REMARK H PARENT
REMARK Flexibility Score: 60.00
ROOT
ATOM      1  C   UNL     1     484.197  38.908 458.434  1.00  0.00    -0.074 C 
ATOM      2  C   UNL     1     484.221  38.714 457.091  1.00  0.00    -0.027 C 
ATOM      3  C   UNL     1     485.301  39.748 459.031  1.00  0.00     0.039 C 
ENDROOT
BRANCH   2   4
ATOM      4  C   UNL     1     483.207  37.946 456.275  1.00  0.00     0.032 C 
BRANCH   4   5
ATOM      5  C   UNL     1     482.480  38.814 455.227  1.00  0.00     0.034 C 
BRANCH   5   6
ATOM      6  C   UNL     1     481.769  40.034 455.793  1.00  0.00    -0.077 C 
ATOM      7  C   UNL     1     482.176  41.403 455.308  1.00  0.00     0.039 C 
ATOM      8  C   UNL     1     480.797  39.959 456.728  1.00  0.00    -0.027 CG0
ATOM      9  G   UNL     1     480.258  38.673 457.318  1.00  0.00     0.000 G0
ENDBRANCH   5   6
ENDBRANCH   4   5
ENDBRANCH   2   4
BRANCH   1  10
ATOM     10  C   UNL     1     483.111  38.381 459.364  1.00  0.00     0.057 C 
BRANCH  10  11
ATOM     11  C   UNL     1     482.224  39.502 459.852  1.00  0.00    -0.026 C 
ATOM     12  C   UNL     1     480.900  39.672 459.629  1.00  0.00    -0.024 C 
BRANCH  12  13
ATOM     13  C   UNL     1     479.927  38.773 458.850  1.00  0.00    -0.014 C 
ATOM     14  C   UNL     1     478.480  39.271 459.054  1.00  0.00     0.016 C 
ATOM     15  C   UNL     1     480.009  37.351 459.458  1.00  0.00     0.016 C 
BRANCH  13  16
ATOM     16  C   UNL     1     480.258  38.670 457.328  1.00  0.00     0.038 CG0
ATOM     17  G   UNL     1     480.768  39.972 456.747  1.00  0.00     0.000 G0
ENDBRANCH  13  16
ENDBRANCH  12  13
ENDBRANCH  10  11
ENDBRANCH   1  10
TORSDOF 0
ENDMDL
MODEL 7
REMARK VINA RESULT:    -2.661      1.643      2.433
REMARK INTER + INTRA:          -2.952
REMARK INTER:                  -3.777
REMARK INTRA:                   0.824
REMARK UNBOUND:                 0.798
REMARK SMILES CC1=CCCC(C)=CCC(C)(C)C=CC1
REMARK SMILES IDX 2 1 3 2 1 3 4 4 5 5 6 6 7 7 8 8 15 10 14 11 13 12 10 13
REMARK SMILES IDX 11 14 12 15 9 16
REMARK H PARENT
REMARK Flexibility Score: 60.00
ROOT
ATOM      1  C   UNL     1     481.064  39.525 461.807  1.00  0.00    -0.074 C 
ATOM      2  C   UNL     1     482.001  39.697 462.772  1.00  0.00    -0.027 C 
ATOM      3  C   UNL     1     479.764  38.873 462.214  1.00  0.00     0.039 C 
ENDROOT
BRANCH   2   4
ATOM      4  C   UNL     1     483.352  40.355 462.607  1.00  0.00     0.032 C 
BRANCH   4   5
ATOM      5  C   UNL     1     484.346  39.515 461.779  1.00  0.00     0.034 C 
BRANCH   5   6
ATOM      6  C   UNL     1     484.934  40.230 460.572  1.00  0.00    -0.077 C 
ATOM      7  C   UNL     1     485.717  41.501 460.791  1.00  0.00     0.039 C 
ATOM      8  C   UNL     1     484.775  39.797 459.303  1.00  0.00    -0.027 CG0
ATOM      9  G   UNL     1     484.030  38.541 458.901  1.00  0.00     0.000 G0
ENDBRANCH   5   6
ENDBRANCH   4   5
ENDBRANCH   2   4
BRANCH   1  10
ATOM     10  C   UNL     1     481.214  39.991 460.364  1.00  0.00     0.057 C 
BRANCH  10  11
ATOM     11  C   UNL     1     480.796  38.906 459.398  1.00  0.00    -0.026 C 
ATOM     12  C   UNL     1     481.488  38.422 458.342  1.00  0.00    -0.024 C 
BRANCH  12  13
ATOM     13  C   UNL     1     482.889  38.810 457.844  1.00  0.00    -0.014 C 
ATOM     14  C   UNL     1     482.898  40.292 457.411  1.00  0.00     0.016 C 
ATOM     15  C   UNL     1     483.191  37.966 456.580  1.00  0.00     0.016 C 
BRANCH  13  16
ATOM     16  C   UNL     1     484.018  38.540 458.888  1.00  0.00     0.038 CG0
ATOM     17  G   UNL     1     484.754  39.799 459.297  1.00  0.00     0.000 G0
ENDBRANCH  13  16
ENDBRANCH  12  13
ENDBRANCH  10  11
ENDBRANCH   1  10
TORSDOF 0
ENDMDL
MODEL 8
REMARK VINA RESULT:    -2.627      1.906      4.031
REMARK INTER + INTRA:          -2.904
REMARK INTER:                  -3.648
REMARK INTRA:                   0.744
REMARK UNBOUND:                 0.798
REMARK SMILES CC1=CCCC(C)=CCC(C)(C)C=CC1
REMARK SMILES IDX 2 1 3 2 1 3 4 4 5 5 6 6 7 7 8 8 15 10 14 11 13 12 10 13
REMARK SMILES IDX 11 14 12 15 9 16
REMARK H PARENT
REMARK Flexibility Score: 60.00
ROOT
ATOM      1  C   UNL     1     484.936  39.111 459.087  1.00  0.00    -0.074 C 
ATOM      2  C   UNL     1     484.463  38.030 458.417  1.00  0.00    -0.027 C 
ATOM      3  C   UNL     1     485.377  38.900 460.516  1.00  0.00     0.039 C 
ENDROOT
BRANCH   2   4
ATOM      4  C   UNL     1     484.004  37.994 456.978  1.00  0.00     0.032 C 
BRANCH   4   5
ATOM      5  C   UNL     1     482.497  38.280 456.808  1.00  0.00     0.034 C 
BRANCH   5   6
ATOM      6  C   UNL     1     482.170  39.457 455.901  1.00  0.00    -0.077 C 
ATOM      7  C   UNL     1     482.183  39.248 454.407  1.00  0.00     0.039 C 
ATOM      8  C   UNL     1     481.886  40.694 456.364  1.00  0.00    -0.027 CG0
ATOM      9  G   UNL     1     481.819  41.079 457.826  1.00  0.00     0.000 G0
ENDBRANCH   5   6
ENDBRANCH   4   5
ENDBRANCH   2   4
BRANCH   1  10
ATOM     10  C   UNL     1     485.099  40.499 458.482  1.00  0.00     0.057 C 
BRANCH  10  11
ATOM     11  C   UNL     1     484.604  41.567 459.430  1.00  0.00    -0.026 C 
ATOM     12  C   UNL     1     483.544  42.392 459.274  1.00  0.00    -0.024 C 
BRANCH  12  13
ATOM     13  C   UNL     1     482.536  42.463 458.116  1.00  0.00    -0.014 C 
ATOM     14  C   UNL     1     483.240  42.975 456.841  1.00  0.00     0.016 C 
ATOM     15  C   UNL     1     481.459  43.511 458.492  1.00  0.00     0.016 C 
BRANCH  13  16
ATOM     16  C   UNL     1     481.816  41.106 457.833  1.00  0.00     0.038 CG0
ATOM     17  G   UNL     1     481.885  40.696 456.378  1.00  0.00     0.000 G0
ENDBRANCH  13  16
ENDBRANCH  12  13
ENDBRANCH  10  11
ENDBRANCH   1  10
TORSDOF 0
ENDMDL
MODEL 9
REMARK VINA RESULT:    -2.550      2.304      3.692
REMARK INTER + INTRA:          -2.796
REMARK INTER:                  -3.581
REMARK INTRA:                   0.785
REMARK UNBOUND:                 0.798
REMARK SMILES CC1=CCCC(C)=CCC(C)(C)C=CC1
REMARK SMILES IDX 2 1 3 2 1 3 4 4 5 5 6 6 7 7 8 8 15 10 14 11 13 12 10 13
REMARK SMILES IDX 11 14 12 15 9 16
REMARK H PARENT
REMARK Flexibility Score: 60.00
ROOT
ATOM      1  C   UNL     1     478.935  38.155 461.725  1.00  0.00    -0.074 C 
ATOM      2  C   UNL     1     479.494  38.641 462.862  1.00  0.00    -0.027 C 
ATOM      3  C   UNL     1     478.098  36.905 461.847  1.00  0.00     0.039 C 
ENDROOT
BRANCH   2   4
ATOM      4  C   UNL     1     480.335  39.892 462.987  1.00  0.00     0.032 C 
BRANCH   4   5
ATOM      5  C   UNL     1     481.815  39.676 462.608  1.00  0.00     0.034 C 
BRANCH   5   6
ATOM      6  C   UNL     1     482.356  40.652 461.574  1.00  0.00    -0.077 C 
ATOM      7  C   UNL     1     482.551  42.094 461.969  1.00  0.00     0.039 C 
ATOM      8  C   UNL     1     482.656  40.298 460.306  1.00  0.00    -0.027 CG0
ATOM      9  G   UNL     1     482.533  38.898 459.743  1.00  0.00     0.000 G0
ENDBRANCH   5   6
ENDBRANCH   4   5
ENDBRANCH   2   4
BRANCH   1  10
ATOM     10  C   UNL     1     479.053  38.811 460.355  1.00  0.00     0.057 C 
BRANCH  10  11
ATOM     11  C   UNL     1     479.437  37.799 459.300  1.00  0.00    -0.026 C 
ATOM     12  C   UNL     1     480.521  37.812 458.491  1.00  0.00    -0.024 C 
BRANCH  12  13
ATOM     13  C   UNL     1     481.671  38.829 458.430  1.00  0.00    -0.014 C 
ATOM     14  C   UNL     1     481.114  40.227 458.085  1.00  0.00     0.016 C 
ATOM     15  C   UNL     1     482.608  38.413 457.269  1.00  0.00     0.016 C 
BRANCH  13  16
ATOM     16  C   UNL     1     482.518  38.889 459.740  1.00  0.00     0.038 CG0
ATOM     17  G   UNL     1     482.658  40.294 460.287  1.00  0.00     0.000 G0
ENDBRANCH  13  16
ENDBRANCH  12  13
ENDBRANCH  10  11
ENDBRANCH   1  10
TORSDOF 0
ENDMDL
