MODEL 1
REMARK VINA RESULT:    -6.745      0.000      0.000
REMARK INTER + INTRA:         -10.267
REMARK INTER:                  -8.914
REMARK INTRA:                  -1.353
REMARK UNBOUND:                -1.353
REMARK SMILES CC[C@H](C=C[C@@H](C)[C@H]1CC[C@H]2[C@H]3CC=C4C[C@H](O)CC[C@@]4(C)[C@@H]3CC[C@]12C)C(C)C
REMARK SMILES IDX 6 1 7 2 5 3 4 4 3 5 2 6 1 7 28 8 29 9 30 10 8 11 9 12 26 13
REMARK SMILES IDX 10 14 11 15 25 16 27 17 12 18 24 19 23 20 13 21 21 22 14 23
REMARK SMILES IDX 15 24 20 25 22 26 16 27 19 28 17 29 18 30
REMARK H PARENT 18 31
REMARK Flexibility Score: inf
ROOT
ATOM      1  C   UNL     1      68.150  48.389   9.619  1.00  0.00     0.012 C 
ATOM      2  C   UNL     1      66.776  49.087   9.636  1.00  0.00     0.012 C 
ENDROOT
BRANCH   1   3
ATOM      3  C   UNL     1      69.044  48.873   8.477  1.00  0.00    -0.028 C 
ATOM      4  C   UNL     1      70.182  49.577   8.650  1.00  0.00    -0.027 C 
BRANCH   4   5
ATOM      5  C   UNL     1      71.259  49.610   7.580  1.00  0.00     0.014 C 
BRANCH   5   6
ATOM      6  C   UNL     1      72.662  49.280   8.162  1.00  0.00     0.004 C 
ATOM      7  C   UNL     1      72.682  48.536   9.500  1.00  0.00     0.004 C 
ENDBRANCH   5   6
BRANCH   5   8
ATOM      8  C   UNL     1      70.820  48.773   6.331  1.00  0.00    -0.011 C 
ATOM      9  C   UNL     1      71.922  47.887   5.704  1.00  0.00     0.008 C 
ATOM     10  C   UNL     1      70.159  49.635   5.246  1.00  0.00     0.008 C 
ENDBRANCH   5   8
ENDBRANCH   4   5
ENDBRANCH   1   3
BRANCH   1  11
ATOM     11  C   UNL     1      68.138  46.816   9.715  1.00  0.00     0.002 C 
ATOM     12  C   UNL     1      66.772  46.219  10.124  1.00  0.00     0.005 C 
ATOM     13  C   UNL     1      68.630  45.883   8.558  1.00  0.00    -0.026 C 
ATOM     14  C   UNL     1      66.821  44.725   9.722  1.00  0.00     0.005 C 
ATOM     15  C   UNL     1      68.241  44.525   9.185  1.00  0.00    -0.001 C 
ATOM     16  C   UNL     1      70.173  45.911   8.303  1.00  0.00     0.007 C 
ATOM     17  C   UNL     1      67.836  46.131   7.232  1.00  0.00     0.012 C 
ATOM     18  C   UNL     1      68.619  43.249   8.373  1.00  0.00     0.000 C 
ATOM     19  C   UNL     1      70.804  44.513   8.025  1.00  0.00     0.005 C 
ATOM     20  C   UNL     1      69.801  43.508   7.394  1.00  0.00     0.003 C 
ATOM     21  C   UNL     1      67.477  42.549   7.635  1.00  0.00     0.031 C 
ATOM     22  C   UNL     1      70.402  42.148   6.874  1.00  0.00    -0.008 C 
ATOM     23  C   UNL     1      67.980  41.331   6.910  1.00  0.00    -0.027 C 
ATOM     24  C   UNL     1      69.272  41.159   6.519  1.00  0.00    -0.065 C 
ATOM     25  C   UNL     1      71.228  42.423   5.573  1.00  0.00     0.014 C 
ATOM     26  C   UNL     1      71.328  41.499   7.939  1.00  0.00     0.016 C 
ATOM     27  C   UNL     1      69.631  39.907   5.749  1.00  0.00     0.063 C 
ATOM     28  C   UNL     1      71.641  41.149   4.816  1.00  0.00     0.033 C 
ATOM     29  C   UNL     1      70.421  40.277   4.481  1.00  0.00     0.118 C 
BRANCH  29  30
ATOM     30  O   UNL     1      70.833  39.129   3.783  1.00  0.00    -0.393 OA
ATOM     31  H   UNL     1      70.318  39.088   2.934  1.00  0.00     0.210 HD
ENDBRANCH  29  30
ENDBRANCH   1  11
TORSDOF 6
ENDMDL
MODEL 2
REMARK VINA RESULT:    -6.069      1.964      4.890
REMARK INTER + INTRA:          -9.374
REMARK INTER:                  -8.256
REMARK INTRA:                  -1.118
REMARK UNBOUND:                -1.353
REMARK SMILES CC[C@H](C=C[C@@H](C)[C@H]1CC[C@H]2[C@H]3CC=C4C[C@H](O)CC[C@@]4(C)[C@@H]3CC[C@]12C)C(C)C
REMARK SMILES IDX 6 1 7 2 5 3 4 4 3 5 2 6 1 7 28 8 29 9 30 10 8 11 9 12 26 13
REMARK SMILES IDX 10 14 11 15 25 16 27 17 12 18 24 19 23 20 13 21 21 22 14 23
REMARK SMILES IDX 15 24 20 25 22 26 16 27 19 28 17 29 18 30
REMARK H PARENT 18 31
REMARK Flexibility Score: inf
ROOT
ATOM      1  C   UNL     1      72.653  48.590   6.860  1.00  0.00     0.012 C 
ATOM      2  C   UNL     1      73.742  48.579   7.950  1.00  0.00     0.012 C 
ENDROOT
BRANCH   1   3
ATOM      3  C   UNL     1      71.263  48.902   7.415  1.00  0.00    -0.028 C 
ATOM      4  C   UNL     1      70.120  48.786   6.708  1.00  0.00    -0.027 C 
BRANCH   4   5
ATOM      5  C   UNL     1      68.778  48.629   7.400  1.00  0.00     0.014 C 
BRANCH   5   6
ATOM      6  C   UNL     1      68.034  47.346   6.932  1.00  0.00     0.004 C 
ATOM      7  C   UNL     1      66.514  47.339   7.122  1.00  0.00     0.004 C 
ENDBRANCH   5   6
BRANCH   5   8
ATOM      8  C   UNL     1      68.932  48.807   8.949  1.00  0.00    -0.011 C 
ATOM      9  C   UNL     1      69.030  47.495   9.762  1.00  0.00     0.008 C 
ATOM     10  C   UNL     1      67.851  49.717   9.548  1.00  0.00     0.008 C 
ENDBRANCH   5   8
ENDBRANCH   4   5
ENDBRANCH   1   3
BRANCH   1  11
ATOM     11  C   UNL     1      72.622  47.348   5.890  1.00  0.00     0.002 C 
ATOM     12  C   UNL     1      73.743  47.348   4.826  1.00  0.00     0.005 C 
ATOM     13  C   UNL     1      72.578  45.866   6.396  1.00  0.00    -0.026 C 
ATOM     14  C   UNL     1      73.836  45.895   4.303  1.00  0.00     0.005 C 
ATOM     15  C   UNL     1      72.706  45.159   5.029  1.00  0.00    -0.001 C 
ATOM     16  C   UNL     1      71.233  45.443   7.073  1.00  0.00     0.007 C 
ATOM     17  C   UNL     1      73.801  45.528   7.314  1.00  0.00     0.012 C 
ATOM     18  C   UNL     1      72.643  43.601   5.042  1.00  0.00     0.000 C 
ATOM     19  C   UNL     1      70.739  44.016   6.685  1.00  0.00     0.005 C 
ATOM     20  C   UNL     1      71.898  43.057   6.295  1.00  0.00     0.003 C 
ATOM     21  C   UNL     1      73.972  42.864   4.866  1.00  0.00     0.031 C 
ATOM     22  C   UNL     1      71.520  41.540   6.104  1.00  0.00    -0.008 C 
ATOM     23  C   UNL     1      73.759  41.375   4.883  1.00  0.00    -0.027 C 
ATOM     24  C   UNL     1      72.698  40.765   5.475  1.00  0.00    -0.065 C 
ATOM     25  C   UNL     1      71.224  40.910   7.507  1.00  0.00     0.014 C 
ATOM     26  C   UNL     1      70.267  41.382   5.199  1.00  0.00     0.016 C 
ATOM     27  C   UNL     1      72.636  39.254   5.464  1.00  0.00     0.063 C 
ATOM     28  C   UNL     1      71.107  39.376   7.489  1.00  0.00     0.033 C 
ATOM     29  C   UNL     1      72.362  38.727   6.884  1.00  0.00     0.118 C 
BRANCH  29  30
ATOM     30  O   UNL     1      72.226  37.328   6.892  1.00  0.00    -0.393 OA
ATOM     31  H   UNL     1      72.378  37.002   5.965  1.00  0.00     0.210 HD
ENDBRANCH  29  30
ENDBRANCH   1  11
TORSDOF 6
ENDMDL
MODEL 3
REMARK VINA RESULT:    -6.008      2.299      4.484
REMARK INTER + INTRA:          -9.293
REMARK INTER:                  -8.631
REMARK INTRA:                  -0.661
REMARK UNBOUND:                -1.353
REMARK SMILES CC[C@H](C=C[C@@H](C)[C@H]1CC[C@H]2[C@H]3CC=C4C[C@H](O)CC[C@@]4(C)[C@@H]3CC[C@]12C)C(C)C
REMARK SMILES IDX 6 1 7 2 5 3 4 4 3 5 2 6 1 7 28 8 29 9 30 10 8 11 9 12 26 13
REMARK SMILES IDX 10 14 11 15 25 16 27 17 12 18 24 19 23 20 13 21 21 22 14 23
REMARK SMILES IDX 15 24 20 25 22 26 16 27 19 28 17 29 18 30
REMARK H PARENT 18 31
REMARK Flexibility Score: inf
ROOT
ATOM      1  C   UNL     1      73.701  47.482   6.920  1.00  0.00     0.012 C 
ATOM      2  C   UNL     1      74.390  48.443   7.909  1.00  0.00     0.012 C 
ENDROOT
BRANCH   1   3
ATOM      3  C   UNL     1      72.207  47.767   6.762  1.00  0.00    -0.028 C 
ATOM      4  C   UNL     1      71.560  48.782   7.371  1.00  0.00    -0.027 C 
BRANCH   4   5
ATOM      5  C   UNL     1      70.247  49.318   6.830  1.00  0.00     0.014 C 
BRANCH   5   6
ATOM      6  C   UNL     1      70.037  48.935   5.338  1.00  0.00     0.004 C 
ATOM      7  C   UNL     1      70.157  50.077   4.324  1.00  0.00     0.004 C 
ENDBRANCH   5   6
BRANCH   5   8
ATOM      8  C   UNL     1      69.068  48.967   7.801  1.00  0.00    -0.011 C 
ATOM      9  C   UNL     1      69.454  48.824   9.291  1.00  0.00     0.008 C 
ATOM     10  C   UNL     1      68.275  47.735   7.343  1.00  0.00     0.008 C 
ENDBRANCH   5   8
ENDBRANCH   4   5
ENDBRANCH   1   3
BRANCH   1  11
ATOM     11  C   UNL     1      73.976  45.944   7.132  1.00  0.00     0.002 C 
ATOM     12  C   UNL     1      74.393  45.569   8.573  1.00  0.00     0.005 C 
ATOM     13  C   UNL     1      72.953  44.828   6.729  1.00  0.00    -0.026 C 
ATOM     14  C   UNL     1      74.165  44.044   8.700  1.00  0.00     0.005 C 
ATOM     15  C   UNL     1      73.714  43.611   7.302  1.00  0.00    -0.001 C 
ATOM     16  C   UNL     1      72.761  44.639   5.189  1.00  0.00     0.007 C 
ATOM     17  C   UNL     1      71.576  45.012   7.450  1.00  0.00     0.012 C 
ATOM     18  C   UNL     1      73.069  42.212   7.066  1.00  0.00     0.000 C 
ATOM     19  C   UNL     1      72.670  43.151   4.730  1.00  0.00     0.005 C 
ATOM     20  C   UNL     1      72.117  42.208   5.834  1.00  0.00     0.003 C 
ATOM     21  C   UNL     1      72.369  41.574   8.266  1.00  0.00     0.031 C 
ATOM     22  C   UNL     1      71.780  40.733   5.394  1.00  0.00    -0.008 C 
ATOM     23  C   UNL     1      71.808  40.227   7.899  1.00  0.00    -0.027 C 
ATOM     24  C   UNL     1      71.493  39.854   6.630  1.00  0.00    -0.065 C 
ATOM     25  C   UNL     1      70.491  40.751   4.505  1.00  0.00     0.014 C 
ATOM     26  C   UNL     1      72.950  40.107   4.586  1.00  0.00     0.016 C 
ATOM     27  C   UNL     1      70.886  38.486   6.409  1.00  0.00     0.063 C 
ATOM     28  C   UNL     1      69.903  39.356   4.234  1.00  0.00     0.033 C 
ATOM     29  C   UNL     1      69.618  38.605   5.544  1.00  0.00     0.118 C 
BRANCH  29  30
ATOM     30  O   UNL     1      69.073  37.341   5.261  1.00  0.00    -0.393 OA
ATOM     31  H   UNL     1      68.256  37.231   5.817  1.00  0.00     0.210 HD
ENDBRANCH  29  30
ENDBRANCH   1  11
TORSDOF 6
ENDMDL
MODEL 4
REMARK VINA RESULT:    -5.969      3.100      5.462
REMARK INTER + INTRA:          -9.241
REMARK INTER:                  -8.354
REMARK INTRA:                  -0.887
REMARK UNBOUND:                -1.353
REMARK SMILES CC[C@H](C=C[C@@H](C)[C@H]1CC[C@H]2[C@H]3CC=C4C[C@H](O)CC[C@@]4(C)[C@@H]3CC[C@]12C)C(C)C
REMARK SMILES IDX 6 1 7 2 5 3 4 4 3 5 2 6 1 7 28 8 29 9 30 10 8 11 9 12 26 13
REMARK SMILES IDX 10 14 11 15 25 16 27 17 12 18 24 19 23 20 13 21 21 22 14 23
REMARK SMILES IDX 15 24 20 25 22 26 16 27 19 28 17 29 18 30
REMARK H PARENT 18 31
REMARK Flexibility Score: inf
ROOT
ATOM      1  C   UNL     1      70.348  48.460   7.359  1.00  0.00     0.012 C 
ATOM      2  C   UNL     1      69.839  48.658   5.918  1.00  0.00     0.012 C 
ENDROOT
BRANCH   1   3
ATOM      3  C   UNL     1      71.615  47.608   7.427  1.00  0.00    -0.028 C 
ATOM      4  C   UNL     1      71.892  46.592   6.584  1.00  0.00    -0.027 C 
BRANCH   4   5
ATOM      5  C   UNL     1      73.316  46.111   6.369  1.00  0.00     0.014 C 
BRANCH   5   6
ATOM      6  C   UNL     1      73.469  44.597   6.686  1.00  0.00     0.004 C 
ATOM      7  C   UNL     1      72.173  43.829   6.960  1.00  0.00     0.004 C 
ENDBRANCH   5   6
BRANCH   5   8
ATOM      8  C   UNL     1      73.850  46.577   4.972  1.00  0.00    -0.011 C 
ATOM      9  C   UNL     1      74.246  48.069   4.876  1.00  0.00     0.008 C 
ATOM     10  C   UNL     1      72.898  46.212   3.825  1.00  0.00     0.008 C 
ENDBRANCH   5   8
ENDBRANCH   4   5
ENDBRANCH   1   3
BRANCH   1  11
ATOM     11  C   UNL     1      69.280  47.992   8.420  1.00  0.00     0.002 C 
ATOM     12  C   UNL     1      68.634  49.147   9.218  1.00  0.00     0.005 C 
ATOM     13  C   UNL     1      68.078  47.052   8.069  1.00  0.00    -0.026 C 
ATOM     14  C   UNL     1      67.339  48.566   9.837  1.00  0.00     0.005 C 
ATOM     15  C   UNL     1      67.358  47.089   9.435  1.00  0.00    -0.001 C 
ATOM     16  C   UNL     1      68.474  45.577   7.733  1.00  0.00     0.007 C 
ATOM     17  C   UNL     1      67.172  47.661   6.947  1.00  0.00     0.012 C 
ATOM     18  C   UNL     1      66.082  46.205   9.575  1.00  0.00     0.000 C 
ATOM     19  C   UNL     1      67.524  44.502   8.343  1.00  0.00     0.005 C 
ATOM     20  C   UNL     1      66.076  45.023   8.562  1.00  0.00     0.003 C 
ATOM     21  C   UNL     1      64.739  46.935   9.530  1.00  0.00     0.031 C 
ATOM     22  C   UNL     1      64.996  43.949   8.963  1.00  0.00    -0.008 C 
ATOM     23  C   UNL     1      63.601  45.964   9.691  1.00  0.00    -0.027 C 
ATOM     24  C   UNL     1      63.684  44.639   9.395  1.00  0.00    -0.065 C 
ATOM     25  C   UNL     1      64.682  43.055   7.717  1.00  0.00     0.014 C 
ATOM     26  C   UNL     1      65.502  43.049  10.123  1.00  0.00     0.016 C 
ATOM     27  C   UNL     1      62.445  43.786   9.553  1.00  0.00     0.063 C 
ATOM     28  C   UNL     1      63.454  42.146   7.896  1.00  0.00     0.033 C 
ATOM     29  C   UNL     1      62.207  42.960   8.277  1.00  0.00     0.118 C 
BRANCH  29  30
ATOM     30  O   UNL     1      61.104  42.102   8.422  1.00  0.00    -0.393 OA
ATOM     31  H   UNL     1      60.848  41.779   7.517  1.00  0.00     0.210 HD
ENDBRANCH  29  30
ENDBRANCH   1  11
TORSDOF 6
ENDMDL
MODEL 5
REMARK VINA RESULT:    -5.939      2.276      4.257
REMARK INTER + INTRA:          -9.201
REMARK INTER:                  -7.670
REMARK INTRA:                  -1.531
REMARK UNBOUND:                -1.353
REMARK SMILES CC[C@H](C=C[C@@H](C)[C@H]1CC[C@H]2[C@H]3CC=C4C[C@H](O)CC[C@@]4(C)[C@@H]3CC[C@]12C)C(C)C
REMARK SMILES IDX 6 1 7 2 5 3 4 4 3 5 2 6 1 7 28 8 29 9 30 10 8 11 9 12 26 13
REMARK SMILES IDX 10 14 11 15 25 16 27 17 12 18 24 19 23 20 13 21 21 22 14 23
REMARK SMILES IDX 15 24 20 25 22 26 16 27 19 28 17 29 18 30
REMARK H PARENT 18 31
REMARK Flexibility Score: inf
ROOT
ATOM      1  C   UNL     1      73.169  46.921   8.471  1.00  0.00     0.012 C 
ATOM      2  C   UNL     1      74.180  47.201   9.598  1.00  0.00     0.012 C 
ENDROOT
BRANCH   1   3
ATOM      3  C   UNL     1      72.023  47.933   8.439  1.00  0.00    -0.028 C 
ATOM      4  C   UNL     1      71.783  48.776   7.414  1.00  0.00    -0.027 C 
BRANCH   4   5
ATOM      5  C   UNL     1      70.412  49.391   7.203  1.00  0.00     0.014 C 
BRANCH   5   6
ATOM      6  C   UNL     1      70.098  49.602   5.695  1.00  0.00     0.004 C 
ATOM      7  C   UNL     1      70.919  48.765   4.710  1.00  0.00     0.004 C 
ENDBRANCH   5   6
BRANCH   5   8
ATOM      8  C   UNL     1      69.328  48.616   8.027  1.00  0.00    -0.011 C 
ATOM      9  C   UNL     1      68.304  47.813   7.190  1.00  0.00     0.008 C 
ATOM     10  C   UNL     1      68.595  49.517   9.030  1.00  0.00     0.008 C 
ENDBRANCH   5   8
ENDBRANCH   4   5
ENDBRANCH   1   3
BRANCH   1  11
ATOM     11  C   UNL     1      72.635  45.442   8.360  1.00  0.00     0.002 C 
ATOM     12  C   UNL     1      71.101  45.311   8.505  1.00  0.00     0.005 C 
ATOM     13  C   UNL     1      72.987  44.491   7.165  1.00  0.00    -0.026 C 
ATOM     14  C   UNL     1      70.734  43.925   7.922  1.00  0.00     0.005 C 
ATOM     15  C   UNL     1      72.083  43.300   7.554  1.00  0.00    -0.001 C 
ATOM     16  C   UNL     1      74.476  44.016   7.121  1.00  0.00     0.007 C 
ATOM     17  C   UNL     1      72.547  45.097   5.790  1.00  0.00     0.012 C 
ATOM     18  C   UNL     1      72.159  42.040   6.640  1.00  0.00     0.000 C 
ATOM     19  C   UNL     1      74.661  42.514   6.748  1.00  0.00     0.005 C 
ATOM     20  C   UNL     1      73.508  41.960   5.866  1.00  0.00     0.003 C 
ATOM     21  C   UNL     1      70.993  41.828   5.674  1.00  0.00     0.031 C 
ATOM     22  C   UNL     1      73.717  40.523   5.257  1.00  0.00    -0.008 C 
ATOM     23  C   UNL     1      71.191  40.572   4.869  1.00  0.00    -0.027 C 
ATOM     24  C   UNL     1      72.404  40.005   4.631  1.00  0.00    -0.065 C 
ATOM     25  C   UNL     1      74.793  40.605   4.122  1.00  0.00     0.014 C 
ATOM     26  C   UNL     1      74.194  39.517   6.341  1.00  0.00     0.016 C 
ATOM     27  C   UNL     1      72.465  38.771   3.759  1.00  0.00     0.063 C 
ATOM     28  C   UNL     1      74.894  39.330   3.267  1.00  0.00     0.033 C 
ATOM     29  C   UNL     1      73.532  38.951   2.664  1.00  0.00     0.118 C 
BRANCH  29  30
ATOM     30  O   UNL     1      73.663  37.790   1.883  1.00  0.00    -0.393 OA
ATOM     31  H   UNL     1      74.564  37.408   2.055  1.00  0.00     0.210 HD
ENDBRANCH  29  30
ENDBRANCH   1  11
TORSDOF 6
ENDMDL
MODEL 6
REMARK VINA RESULT:    -5.791      3.109      5.981
REMARK INTER + INTRA:          -9.006
REMARK INTER:                  -7.890
REMARK INTRA:                  -1.115
REMARK UNBOUND:                -1.353
REMARK SMILES CC[C@H](C=C[C@@H](C)[C@H]1CC[C@H]2[C@H]3CC=C4C[C@H](O)CC[C@@]4(C)[C@@H]3CC[C@]12C)C(C)C
REMARK SMILES IDX 6 1 7 2 5 3 4 4 3 5 2 6 1 7 28 8 29 9 30 10 8 11 9 12 26 13
REMARK SMILES IDX 10 14 11 15 25 16 27 17 12 18 24 19 23 20 13 21 21 22 14 23
REMARK SMILES IDX 15 24 20 25 22 26 16 27 19 28 17 29 18 30
REMARK H PARENT 18 31
REMARK Flexibility Score: inf
ROOT
ATOM      1  C   UNL     1      72.103  48.122   6.645  1.00  0.00     0.012 C 
ATOM      2  C   UNL     1      71.502  48.167   5.227  1.00  0.00     0.012 C 
ENDROOT
BRANCH   1   3
ATOM      3  C   UNL     1      73.268  47.139   6.762  1.00  0.00    -0.028 C 
ATOM      4  C   UNL     1      73.484  46.343   7.830  1.00  0.00    -0.027 C 
BRANCH   4   5
ATOM      5  C   UNL     1      74.317  45.079   7.716  1.00  0.00     0.014 C 
BRANCH   5   6
ATOM      6  C   UNL     1      74.315  44.263   9.040  1.00  0.00     0.004 C 
ATOM      7  C   UNL     1      73.278  44.677  10.087  1.00  0.00     0.004 C 
ENDBRANCH   5   6
BRANCH   5   8
ATOM      8  C   UNL     1      73.939  44.285   6.420  1.00  0.00    -0.011 C 
ATOM      9  C   UNL     1      72.602  43.509   6.482  1.00  0.00     0.008 C 
ATOM     10  C   UNL     1      75.065  43.354   5.949  1.00  0.00     0.008 C 
ENDBRANCH   5   8
ENDBRANCH   4   5
ENDBRANCH   1   3
BRANCH   1  11
ATOM     11  C   UNL     1      71.082  47.953   7.833  1.00  0.00     0.002 C 
ATOM     12  C   UNL     1      70.846  49.242   8.653  1.00  0.00     0.005 C 
ATOM     13  C   UNL     1      69.648  47.350   7.651  1.00  0.00    -0.026 C 
ATOM     14  C   UNL     1      69.527  49.018   9.431  1.00  0.00     0.005 C 
ATOM     15  C   UNL     1      69.124  47.582   9.086  1.00  0.00    -0.001 C 
ATOM     16  C   UNL     1      69.615  45.819   7.330  1.00  0.00     0.007 C 
ATOM     17  C   UNL     1      68.803  48.161   6.613  1.00  0.00     0.012 C 
ATOM     18  C   UNL     1      67.690  47.056   9.398  1.00  0.00     0.000 C 
ATOM     19  C   UNL     1      68.500  45.029   8.081  1.00  0.00     0.005 C 
ATOM     20  C   UNL     1      67.268  45.907   8.437  1.00  0.00     0.003 C 
ATOM     21  C   UNL     1      66.581  48.105   9.472  1.00  0.00     0.031 C 
ATOM     22  C   UNL     1      66.004  45.150   8.994  1.00  0.00    -0.008 C 
ATOM     23  C   UNL     1      65.260  47.461   9.793  1.00  0.00    -0.027 C 
ATOM     24  C   UNL     1      64.969  46.156   9.540  1.00  0.00    -0.065 C 
ATOM     25  C   UNL     1      65.332  44.355   7.824  1.00  0.00     0.014 C 
ATOM     26  C   UNL     1      66.395  44.160  10.125  1.00  0.00     0.016 C 
ATOM     27  C   UNL     1      63.581  45.651   9.865  1.00  0.00     0.063 C 
ATOM     28  C   UNL     1      63.942  43.793   8.171  1.00  0.00     0.033 C 
ATOM     29  C   UNL     1      62.995  44.902   8.654  1.00  0.00     0.118 C 
BRANCH  29  30
ATOM     30  O   UNL     1      61.735  44.358   8.952  1.00  0.00    -0.393 OA
ATOM     31  H   UNL     1      61.861  43.393   9.156  1.00  0.00     0.210 HD
ENDBRANCH  29  30
ENDBRANCH   1  11
TORSDOF 6
ENDMDL
MODEL 7
REMARK VINA RESULT:    -5.780      2.363      4.558
REMARK INTER + INTRA:          -8.991
REMARK INTER:                  -7.643
REMARK INTRA:                  -1.348
REMARK UNBOUND:                -1.353
REMARK SMILES CC[C@H](C=C[C@@H](C)[C@H]1CC[C@H]2[C@H]3CC=C4C[C@H](O)CC[C@@]4(C)[C@@H]3CC[C@]12C)C(C)C
REMARK SMILES IDX 6 1 7 2 5 3 4 4 3 5 2 6 1 7 28 8 29 9 30 10 8 11 9 12 26 13
REMARK SMILES IDX 10 14 11 15 25 16 27 17 12 18 24 19 23 20 13 21 21 22 14 23
REMARK SMILES IDX 15 24 20 25 22 26 16 27 19 28 17 29 18 30
REMARK H PARENT 18 31
REMARK Flexibility Score: inf
ROOT
ATOM      1  C   UNL     1      72.555  46.941   5.038  1.00  0.00     0.012 C 
ATOM      2  C   UNL     1      73.567  47.426   3.982  1.00  0.00     0.012 C 
ENDROOT
BRANCH   1   3
ATOM      3  C   UNL     1      72.100  48.058   5.977  1.00  0.00    -0.028 C 
ATOM      4  C   UNL     1      70.842  48.542   6.027  1.00  0.00    -0.027 C 
BRANCH   4   5
ATOM      5  C   UNL     1      70.324  49.267   7.256  1.00  0.00     0.014 C 
BRANCH   5   6
ATOM      6  C   UNL     1      68.961  48.692   7.736  1.00  0.00     0.004 C 
ATOM      7  C   UNL     1      68.261  47.724   6.778  1.00  0.00     0.004 C 
ENDBRANCH   5   6
BRANCH   5   8
ATOM      8  C   UNL     1      71.445  49.374   8.346  1.00  0.00    -0.011 C 
ATOM      9  C   UNL     1      70.971  49.191   9.807  1.00  0.00     0.008 C 
ATOM     10  C   UNL     1      72.270  50.662   8.218  1.00  0.00     0.008 C 
ENDBRANCH   5   8
ENDBRANCH   4   5
ENDBRANCH   1   3
BRANCH   1  11
ATOM     11  C   UNL     1      72.947  45.639   5.836  1.00  0.00     0.002 C 
ATOM     12  C   UNL     1      73.485  45.909   7.260  1.00  0.00     0.005 C 
ATOM     13  C   UNL     1      71.977  44.423   6.019  1.00  0.00    -0.026 C 
ATOM     14  C   UNL     1      73.369  44.566   8.021  1.00  0.00     0.005 C 
ATOM     15  C   UNL     1      72.855  43.579   6.970  1.00  0.00    -0.001 C 
ATOM     16  C   UNL     1      71.695  43.606   4.716  1.00  0.00     0.007 C 
ATOM     17  C   UNL     1      70.642  44.843   6.721  1.00  0.00     0.012 C 
ATOM     18  C   UNL     1      72.291  42.187   7.387  1.00  0.00     0.000 C 
ATOM     19  C   UNL     1      71.673  42.060   4.918  1.00  0.00     0.005 C 
ATOM     20  C   UNL     1      71.261  41.641   6.356  1.00  0.00     0.003 C 
ATOM     21  C   UNL     1      71.718  42.079   8.801  1.00  0.00     0.031 C 
ATOM     22  C   UNL     1      70.995  40.106   6.591  1.00  0.00    -0.008 C 
ATOM     23  C   UNL     1      71.226  40.683   9.070  1.00  0.00    -0.027 C 
ATOM     24  C   UNL     1      70.852  39.808   8.099  1.00  0.00    -0.065 C 
ATOM     25  C   UNL     1      69.651  39.711   5.892  1.00  0.00     0.014 C 
ATOM     26  C   UNL     1      72.147  39.241   6.009  1.00  0.00     0.016 C 
ATOM     27  C   UNL     1      70.325  38.452   8.514  1.00  0.00     0.063 C 
ATOM     28  C   UNL     1      69.140  38.310   6.271  1.00  0.00     0.033 C 
ATOM     29  C   UNL     1      68.996  38.160   7.793  1.00  0.00     0.118 C 
BRANCH  29  30
ATOM     30  O   UNL     1      68.520  36.875   8.103  1.00  0.00    -0.393 OA
ATOM     31  H   UNL     1      67.829  36.969   8.812  1.00  0.00     0.210 HD
ENDBRANCH  29  30
ENDBRANCH   1  11
TORSDOF 6
ENDMDL
MODEL 8
REMARK VINA RESULT:    -5.427      1.950      4.383
REMARK INTER + INTRA:          -8.525
REMARK INTER:                  -7.494
REMARK INTRA:                  -1.031
REMARK UNBOUND:                -1.353
REMARK SMILES CC[C@H](C=C[C@@H](C)[C@H]1CC[C@H]2[C@H]3CC=C4C[C@H](O)CC[C@@]4(C)[C@@H]3CC[C@]12C)C(C)C
REMARK SMILES IDX 6 1 7 2 5 3 4 4 3 5 2 6 1 7 28 8 29 9 30 10 8 11 9 12 26 13
REMARK SMILES IDX 10 14 11 15 25 16 27 17 12 18 24 19 23 20 13 21 21 22 14 23
REMARK SMILES IDX 15 24 20 25 22 26 16 27 19 28 17 29 18 30
REMARK H PARENT 18 31
REMARK Flexibility Score: inf
ROOT
ATOM      1  C   UNL     1      72.409  48.991   7.968  1.00  0.00     0.012 C 
ATOM      2  C   UNL     1      73.216  50.247   8.350  1.00  0.00     0.012 C 
ENDROOT
BRANCH   1   3
ATOM      3  C   UNL     1      71.135  48.832   8.798  1.00  0.00    -0.028 C 
ATOM      4  C   UNL     1      69.908  49.217   8.387  1.00  0.00    -0.027 C 
BRANCH   4   5
ATOM      5  C   UNL     1      68.651  48.620   8.993  1.00  0.00     0.014 C 
BRANCH   5   6
ATOM      6  C   UNL     1      67.776  49.700   9.689  1.00  0.00     0.004 C 
ATOM      7  C   UNL     1      66.352  49.278  10.063  1.00  0.00     0.004 C 
ENDBRANCH   5   6
BRANCH   5   8
ATOM      8  C   UNL     1      67.917  47.709   7.951  1.00  0.00    -0.011 C 
ATOM      9  C   UNL     1      67.729  46.233   8.376  1.00  0.00     0.008 C 
ATOM     10  C   UNL     1      68.554  47.776   6.557  1.00  0.00     0.008 C 
ENDBRANCH   5   8
ENDBRANCH   4   5
ENDBRANCH   1   3
BRANCH   1  11
ATOM     11  C   UNL     1      73.215  47.640   7.883  1.00  0.00     0.002 C 
ATOM     12  C   UNL     1      74.001  47.291   9.168  1.00  0.00     0.005 C 
ATOM     13  C   UNL     1      72.566  46.281   7.453  1.00  0.00    -0.026 C 
ATOM     14  C   UNL     1      74.323  45.780   9.074  1.00  0.00     0.005 C 
ATOM     15  C   UNL     1      73.783  45.362   7.703  1.00  0.00    -0.001 C 
ATOM     16  C   UNL     1      72.157  46.196   5.946  1.00  0.00     0.007 C 
ATOM     17  C   UNL     1      71.371  45.886   8.384  1.00  0.00     0.012 C 
ATOM     18  C   UNL     1      73.609  43.858   7.336  1.00  0.00     0.000 C 
ATOM     19  C   UNL     1      72.480  44.830   5.267  1.00  0.00     0.005 C 
ATOM     20  C   UNL     1      72.495  43.642   6.269  1.00  0.00     0.003 C 
ATOM     21  C   UNL     1      73.405  42.891   8.502  1.00  0.00     0.031 C 
ATOM     22  C   UNL     1      72.592  42.199   5.646  1.00  0.00    -0.008 C 
ATOM     23  C   UNL     1      73.266  41.478   8.004  1.00  0.00    -0.027 C 
ATOM     24  C   UNL     1      72.856  41.151   6.749  1.00  0.00    -0.065 C 
ATOM     25  C   UNL     1      71.226  41.848   4.966  1.00  0.00     0.014 C 
ATOM     26  C   UNL     1      73.725  42.119   4.587  1.00  0.00     0.016 C 
ATOM     27  C   UNL     1      72.709  39.688   6.396  1.00  0.00     0.063 C 
ATOM     28  C   UNL     1      71.095  40.371   4.557  1.00  0.00     0.033 C 
ATOM     29  C   UNL     1      71.333  39.436   5.753  1.00  0.00     0.118 C 
BRANCH  29  30
ATOM     30  O   UNL     1      71.197  38.098   5.347  1.00  0.00    -0.393 OA
ATOM     31  H   UNL     1      71.763  37.965   4.541  1.00  0.00     0.210 HD
ENDBRANCH  29  30
ENDBRANCH   1  11
TORSDOF 6
ENDMDL
MODEL 9
REMARK VINA RESULT:    -5.417      3.171      8.401
REMARK INTER + INTRA:          -8.512
REMARK INTER:                  -6.980
REMARK INTRA:                  -1.531
REMARK UNBOUND:                -1.353
REMARK SMILES CC[C@H](C=C[C@@H](C)[C@H]1CC[C@H]2[C@H]3CC=C4C[C@H](O)CC[C@@]4(C)[C@@H]3CC[C@]12C)C(C)C
REMARK SMILES IDX 6 1 7 2 5 3 4 4 3 5 2 6 1 7 28 8 29 9 30 10 8 11 9 12 26 13
REMARK SMILES IDX 10 14 11 15 25 16 27 17 12 18 24 19 23 20 13 21 21 22 14 23
REMARK SMILES IDX 15 24 20 25 22 26 16 27 19 28 17 29 18 30
REMARK H PARENT 18 31
REMARK Flexibility Score: inf
ROOT
ATOM      1  C   UNL     1      70.349  40.222   5.739  1.00  0.00     0.012 C 
ATOM      2  C   UNL     1      69.006  39.541   6.067  1.00  0.00     0.012 C 
ENDROOT
BRANCH   1   3
ATOM      3  C   UNL     1      71.402  39.236   5.232  1.00  0.00    -0.028 C 
ATOM      4  C   UNL     1      72.137  39.420   4.115  1.00  0.00    -0.027 C 
BRANCH   4   5
ATOM      5  C   UNL     1      73.461  38.705   3.916  1.00  0.00     0.014 C 
BRANCH   5   6
ATOM      6  C   UNL     1      73.594  38.121   2.482  1.00  0.00     0.004 C 
ATOM      7  C   UNL     1      74.899  38.431   1.743  1.00  0.00     0.004 C 
ENDBRANCH   5   6
BRANCH   5   8
ATOM      8  C   UNL     1      74.650  39.600   4.405  1.00  0.00    -0.011 C 
ATOM      9  C   UNL     1      75.125  39.341   5.854  1.00  0.00     0.008 C 
ATOM     10  C   UNL     1      74.382  41.098   4.200  1.00  0.00     0.008 C 
ENDBRANCH   5   8
ENDBRANCH   4   5
ENDBRANCH   1   3
BRANCH   1  11
ATOM     11  C   UNL     1      70.938  41.177   6.846  1.00  0.00     0.002 C 
ATOM     12  C   UNL     1      72.348  40.778   7.340  1.00  0.00     0.005 C 
ATOM     13  C   UNL     1      71.019  42.733   6.680  1.00  0.00    -0.026 C 
ATOM     14  C   UNL     1      72.928  42.034   8.034  1.00  0.00     0.005 C 
ATOM     15  C   UNL     1      71.790  43.057   7.979  1.00  0.00    -0.001 C 
ATOM     16  C   UNL     1      69.639  43.468   6.701  1.00  0.00     0.007 C 
ATOM     17  C   UNL     1      71.856  43.141   5.421  1.00  0.00     0.012 C 
ATOM     18  C   UNL     1      72.051  44.564   8.277  1.00  0.00     0.000 C 
ATOM     19  C   UNL     1      69.633  44.801   7.509  1.00  0.00     0.005 C 
ATOM     20  C   UNL     1      71.025  45.488   7.559  1.00  0.00     0.003 C 
ATOM     21  C   UNL     1      73.472  45.071   8.025  1.00  0.00     0.031 C 
ATOM     22  C   UNL     1      71.069  46.944   8.160  1.00  0.00    -0.008 C 
ATOM     23  C   UNL     1      73.583  46.532   8.367  1.00  0.00    -0.027 C 
ATOM     24  C   UNL     1      72.530  47.392   8.383  1.00  0.00    -0.065 C 
ATOM     25  C   UNL     1      70.412  47.933   7.140  1.00  0.00     0.014 C 
ATOM     26  C   UNL     1      70.304  47.018   9.509  1.00  0.00     0.016 C 
ATOM     27  C   UNL     1      72.792  48.849   8.692  1.00  0.00     0.063 C 
ATOM     28  C   UNL     1      70.632  49.417   7.483  1.00  0.00     0.033 C 
ATOM     29  C   UNL     1      72.127  49.742   7.630  1.00  0.00     0.118 C 
BRANCH  29  30
ATOM     30  O   UNL     1      72.291  51.104   7.932  1.00  0.00    -0.393 OA
ATOM     31  H   UNL     1      72.972  51.474   7.309  1.00  0.00     0.210 HD
ENDBRANCH  29  30
ENDBRANCH   1  11
TORSDOF 6
ENDMDL
