MODEL 1
REMARK VINA RESULT:    -5.420      0.000      0.000
REMARK INTER + INTRA:          -8.459
REMARK INTER:                  -7.638
REMARK INTRA:                  -0.821
REMARK UNBOUND:                -0.821
REMARK SMILES COc1ccc(-c2cc(=O)c3c(OC)c(OC)c(OC)c(OC)c3o2)cc1OC
REMARK SMILES IDX 7 1 8 2 9 3 10 4 11 5 24 6 25 7 21 8 18 9 15 10 12 11 6 12
REMARK SMILES IDX 3 13 27 14 4 15 26 16 5 17 2 18 1 19 28 20 29 21 22 22 23 23
REMARK SMILES IDX 13 24 14 25 19 26 20 27 16 28 17 29
REMARK H PARENT
REMARK Flexibility Score: inf
ROOT
ATOM      1  C   UNL     1      -8.038  15.181  -1.913  1.00  0.00     0.138 A 
ATOM      2  C   UNL     1      -8.741  16.230  -1.310  1.00  0.00     0.100 A 
ATOM      3  C   UNL     1      -8.839  16.275   0.078  1.00  0.00     0.197 A 
ATOM      4  O   UNL     1      -9.480  17.222   0.609  1.00  0.00    -0.289 OA
ATOM      5  C   UNL     1      -8.230  15.266   0.857  1.00  0.00     0.115 A 
ATOM      6  C   UNL     1      -7.542  14.228   0.179  1.00  0.00     0.188 A 
ATOM      7  O   UNL     1      -7.488  14.239  -1.151  1.00  0.00    -0.452 OA
ATOM      8  C   UNL     1      -6.902  13.195   0.910  1.00  0.00     0.209 A 
ATOM      9  C   UNL     1      -6.979  13.201   2.326  1.00  0.00     0.211 A 
ATOM     10  C   UNL     1      -7.685  14.214   2.987  1.00  0.00     0.208 A 
ATOM     11  C   UNL     1      -8.263  15.275   2.267  1.00  0.00     0.179 A 
ENDROOT
BRANCH   1  12
ATOM     12  C   UNL     1      -7.896  15.090  -3.387  1.00  0.00     0.021 A 
ATOM     13  C   UNL     1      -7.558  14.920  -6.185  1.00  0.00     0.160 A 
ATOM     14  C   UNL     1      -6.759  14.141  -5.335  1.00  0.00     0.161 A 
ATOM     15  C   UNL     1      -8.519  15.787  -5.632  1.00  0.00     0.051 A 
ATOM     16  C   UNL     1      -6.934  14.231  -3.940  1.00  0.00     0.062 A 
ATOM     17  C   UNL     1      -8.681  15.874  -4.250  1.00  0.00     0.016 A 
BRANCH  13  18
ATOM     18  O   UNL     1      -7.365  14.806  -7.571  1.00  0.00    -0.493 OA
ATOM     19  C   UNL     1      -8.412  14.618  -8.519  1.00  0.00     0.278 C 
ENDBRANCH  13  18
BRANCH  14  20
ATOM     20  O   UNL     1      -5.803  13.290  -5.911  1.00  0.00    -0.493 OA
ATOM     21  C   UNL     1      -5.977  11.890  -6.101  1.00  0.00     0.278 C 
ENDBRANCH  14  20
ENDBRANCH   1  12
BRANCH   8  22
ATOM     22  O   UNL     1      -6.183  12.158   0.285  1.00  0.00    -0.490 OA
ATOM     23  C   UNL     1      -6.711  10.966  -0.286  1.00  0.00     0.278 C 
ENDBRANCH   8  22
BRANCH  11  24
ATOM     24  O   UNL     1      -8.854  16.347   2.946  1.00  0.00    -0.492 OA
ATOM     25  C   UNL     1      -8.081  17.358   3.585  1.00  0.00     0.278 C 
ENDBRANCH  11  24
BRANCH   9  26
ATOM     26  O   UNL     1      -6.393  12.217   3.149  1.00  0.00    -0.490 OA
ATOM     27  C   UNL     1      -6.914  10.925   3.446  1.00  0.00     0.279 C 
ENDBRANCH   9  26
BRANCH  10  28
ATOM     28  O   UNL     1      -7.799  14.134   4.380  1.00  0.00    -0.490 OA
ATOM     29  C   UNL     1      -8.969  13.648   5.030  1.00  0.00     0.278 C 
ENDBRANCH  10  28
TORSDOF 7
ENDMDL
MODEL 2
REMARK VINA RESULT:    -5.363      1.983      2.735
REMARK INTER + INTRA:          -8.379
REMARK INTER:                  -7.757
REMARK INTRA:                  -0.622
REMARK UNBOUND:                -0.821
REMARK SMILES COc1ccc(-c2cc(=O)c3c(OC)c(OC)c(OC)c(OC)c3o2)cc1OC
REMARK SMILES IDX 7 1 8 2 9 3 10 4 11 5 24 6 25 7 21 8 18 9 15 10 12 11 6 12
REMARK SMILES IDX 3 13 27 14 4 15 26 16 5 17 2 18 1 19 28 20 29 21 22 22 23 23
REMARK SMILES IDX 13 24 14 25 19 26 20 27 16 28 17 29
REMARK H PARENT
REMARK Flexibility Score: inf
ROOT
ATOM      1  C   UNL     1      -7.602  15.239  -1.810  1.00  0.00     0.138 A 
ATOM      2  C   UNL     1      -6.440  15.514  -1.081  1.00  0.00     0.100 A 
ATOM      3  C   UNL     1      -6.517  15.637   0.303  1.00  0.00     0.197 A 
ATOM      4  O   UNL     1      -5.463  15.891   0.948  1.00  0.00    -0.289 OA
ATOM      5  C   UNL     1      -7.762  15.484   0.953  1.00  0.00     0.115 A 
ATOM      6  C   UNL     1      -8.900  15.216   0.151  1.00  0.00     0.188 A 
ATOM      7  O   UNL     1      -8.762  15.113  -1.169  1.00  0.00    -0.452 OA
ATOM      8  C   UNL     1     -10.174  15.040   0.750  1.00  0.00     0.209 A 
ATOM      9  C   UNL     1     -10.298  15.161   2.158  1.00  0.00     0.211 A 
ATOM     10  C   UNL     1      -9.173  15.454   2.939  1.00  0.00     0.208 A 
ATOM     11  C   UNL     1      -7.899  15.562   2.355  1.00  0.00     0.179 A 
ENDROOT
BRANCH   1  12
ATOM     12  C   UNL     1      -7.575  15.088  -3.286  1.00  0.00     0.021 A 
ATOM     13  C   UNL     1      -7.456  14.804  -6.092  1.00  0.00     0.160 A 
ATOM     14  C   UNL     1      -6.592  14.059  -5.277  1.00  0.00     0.161 A 
ATOM     15  C   UNL     1      -8.372  15.694  -5.501  1.00  0.00     0.051 A 
ATOM     16  C   UNL     1      -6.657  14.205  -3.877  1.00  0.00     0.062 A 
ATOM     17  C   UNL     1      -8.426  15.837  -4.115  1.00  0.00     0.016 A 
BRANCH  13  18
ATOM     18  O   UNL     1      -7.372  14.635  -7.483  1.00  0.00    -0.493 OA
ATOM     19  C   UNL     1      -8.465  14.264  -8.318  1.00  0.00     0.278 C 
ENDBRANCH  13  18
BRANCH  14  20
ATOM     20  O   UNL     1      -5.683  13.184  -5.891  1.00  0.00    -0.493 OA
ATOM     21  C   UNL     1      -5.911  11.794  -6.095  1.00  0.00     0.278 C 
ENDBRANCH  14  20
ENDBRANCH   1  12
BRANCH   8  22
ATOM     22  O   UNL     1     -11.329  14.745   0.001  1.00  0.00    -0.490 OA
ATOM     23  C   UNL     1     -11.756  13.468  -0.457  1.00  0.00     0.278 C 
ENDBRANCH   8  22
BRANCH  11  24
ATOM     24  O   UNL     1      -6.766  15.728   3.160  1.00  0.00    -0.492 OA
ATOM     25  C   UNL     1      -6.503  16.943   3.854  1.00  0.00     0.278 C 
ENDBRANCH  11  24
BRANCH   9  26
ATOM     26  O   UNL     1     -11.517  15.021   2.854  1.00  0.00    -0.490 OA
ATOM     27  C   UNL     1     -12.122  13.808   3.289  1.00  0.00     0.279 C 
ENDBRANCH   9  26
BRANCH  10  28
ATOM     28  O   UNL     1      -9.360  15.640   4.314  1.00  0.00    -0.490 OA
ATOM     29  C   UNL     1      -9.119  14.611   5.270  1.00  0.00     0.278 C 
ENDBRANCH  10  28
TORSDOF 7
ENDMDL
MODEL 3
REMARK VINA RESULT:    -5.127      2.476      3.692
REMARK INTER + INTRA:          -8.047
REMARK INTER:                  -7.348
REMARK INTRA:                  -0.698
REMARK UNBOUND:                -0.821
REMARK SMILES COc1ccc(-c2cc(=O)c3c(OC)c(OC)c(OC)c(OC)c3o2)cc1OC
REMARK SMILES IDX 7 1 8 2 9 3 10 4 11 5 24 6 25 7 21 8 18 9 15 10 12 11 6 12
REMARK SMILES IDX 3 13 27 14 4 15 26 16 5 17 2 18 1 19 28 20 29 21 22 22 23 23
REMARK SMILES IDX 13 24 14 25 19 26 20 27 16 28 17 29
REMARK H PARENT
REMARK Flexibility Score: inf
ROOT
ATOM      1  C   UNL     1      -7.395  14.419  -1.553  1.00  0.00     0.138 A 
ATOM      2  C   UNL     1      -6.258  14.973  -0.954  1.00  0.00     0.100 A 
ATOM      3  C   UNL     1      -6.399  15.719   0.213  1.00  0.00     0.197 A 
ATOM      4  O   UNL     1      -5.367  16.217   0.740  1.00  0.00    -0.289 OA
ATOM      5  C   UNL     1      -7.681  15.907   0.775  1.00  0.00     0.115 A 
ATOM      6  C   UNL     1      -8.789  15.326   0.109  1.00  0.00     0.188 A 
ATOM      7  O   UNL     1      -8.590  14.626  -1.006  1.00  0.00    -0.452 OA
ATOM      8  C   UNL     1     -10.099  15.473   0.635  1.00  0.00     0.209 A 
ATOM      9  C   UNL     1     -10.287  16.228   1.820  1.00  0.00     0.211 A 
ATOM     10  C   UNL     1      -9.189  16.823   2.455  1.00  0.00     0.208 A 
ATOM     11  C   UNL     1      -7.884  16.623   1.973  1.00  0.00     0.179 A 
ENDROOT
BRANCH   1  12
ATOM     12  C   UNL     1      -7.301  13.607  -2.792  1.00  0.00     0.021 A 
ATOM     13  C   UNL     1      -7.158  12.109  -5.180  1.00  0.00     0.160 A 
ATOM     14  C   UNL     1      -6.925  13.491  -5.207  1.00  0.00     0.161 A 
ATOM     15  C   UNL     1      -7.468  11.481  -3.960  1.00  0.00     0.051 A 
ATOM     16  C   UNL     1      -6.997  14.233  -4.011  1.00  0.00     0.062 A 
ATOM     17  C   UNL     1      -7.544  12.223  -2.781  1.00  0.00     0.016 A 
BRANCH  13  18
ATOM     18  O   UNL     1      -7.075  11.395  -6.387  1.00  0.00    -0.493 OA
ATOM     19  C   UNL     1      -8.180  11.129  -7.245  1.00  0.00     0.278 C 
ENDBRANCH  13  18
BRANCH  14  20
ATOM     20  O   UNL     1      -6.625  14.095  -6.438  1.00  0.00    -0.493 OA
ATOM     21  C   UNL     1      -7.497  14.973  -7.142  1.00  0.00     0.278 C 
ENDBRANCH  14  20
ENDBRANCH   1  12
BRANCH   8  22
ATOM     22  O   UNL     1     -11.228  14.892   0.027  1.00  0.00    -0.490 OA
ATOM     23  C   UNL     1     -11.792  13.614   0.299  1.00  0.00     0.278 C 
ENDBRANCH   8  22
BRANCH  11  24
ATOM     24  O   UNL     1      -6.786  17.116   2.689  1.00  0.00    -0.492 OA
ATOM     25  C   UNL     1      -6.456  16.641   3.990  1.00  0.00     0.278 C 
ENDBRANCH  11  24
BRANCH   9  26
ATOM     26  O   UNL     1     -11.544  16.449   2.419  1.00  0.00    -0.490 OA
ATOM     27  C   UNL     1     -12.124  15.717   3.493  1.00  0.00     0.279 C 
ENDBRANCH   9  26
BRANCH  10  28
ATOM     28  O   UNL     1      -9.435  17.623   3.578  1.00  0.00    -0.490 OA
ATOM     29  C   UNL     1      -9.605  19.035   3.494  1.00  0.00     0.278 C 
ENDBRANCH  10  28
TORSDOF 7
ENDMDL
MODEL 4
REMARK VINA RESULT:    -5.119      1.110      3.387
REMARK INTER + INTRA:          -8.034
REMARK INTER:                  -7.738
REMARK INTRA:                  -0.296
REMARK UNBOUND:                -0.821
REMARK SMILES COc1ccc(-c2cc(=O)c3c(OC)c(OC)c(OC)c(OC)c3o2)cc1OC
REMARK SMILES IDX 7 1 8 2 9 3 10 4 11 5 24 6 25 7 21 8 18 9 15 10 12 11 6 12
REMARK SMILES IDX 3 13 27 14 4 15 26 16 5 17 2 18 1 19 28 20 29 21 22 22 23 23
REMARK SMILES IDX 13 24 14 25 19 26 20 27 16 28 17 29
REMARK H PARENT
REMARK Flexibility Score: inf
ROOT
ATOM      1  C   UNL     1      -7.373  14.546  -1.976  1.00  0.00     0.138 A 
ATOM      2  C   UNL     1      -6.558  13.582  -1.373  1.00  0.00     0.100 A 
ATOM      3  C   UNL     1      -6.530  13.485   0.015  1.00  0.00     0.197 A 
ATOM      4  O   UNL     1      -5.787  12.615   0.546  1.00  0.00    -0.289 OA
ATOM      5  C   UNL     1      -7.320  14.357   0.795  1.00  0.00     0.115 A 
ATOM      6  C   UNL     1      -8.114  15.317   0.119  1.00  0.00     0.188 A 
ATOM      7  O   UNL     1      -8.096  15.362  -1.212  1.00  0.00    -0.452 OA
ATOM      8  C   UNL     1      -8.937  16.212   0.851  1.00  0.00     0.209 A 
ATOM      9  C   UNL     1      -8.936  16.149   2.267  1.00  0.00     0.211 A 
ATOM     10  C   UNL     1      -8.127  15.217   2.929  1.00  0.00     0.208 A 
ATOM     11  C   UNL     1      -7.362  14.286   2.204  1.00  0.00     0.179 A 
ENDROOT
BRANCH   1  12
ATOM     12  C   UNL     1      -7.449  14.686  -3.451  1.00  0.00     0.021 A 
ATOM     13  C   UNL     1      -7.525  14.952  -6.260  1.00  0.00     0.160 A 
ATOM     14  C   UNL     1      -6.642  14.039  -5.669  1.00  0.00     0.161 A 
ATOM     15  C   UNL     1      -8.363  15.735  -5.445  1.00  0.00     0.051 A 
ATOM     16  C   UNL     1      -6.609  13.910  -4.266  1.00  0.00     0.062 A 
ATOM     17  C   UNL     1      -8.321  15.606  -4.056  1.00  0.00     0.016 A 
BRANCH  13  18
ATOM     18  O   UNL     1      -7.539  15.056  -7.661  1.00  0.00    -0.493 OA
ATOM     19  C   UNL     1      -8.510  14.444  -8.505  1.00  0.00     0.278 C 
ENDBRANCH  13  18
BRANCH  14  20
ATOM     20  O   UNL     1      -5.811  13.275  -6.504  1.00  0.00    -0.493 OA
ATOM     21  C   UNL     1      -5.538  11.890  -6.325  1.00  0.00     0.278 C 
ENDBRANCH  14  20
ENDBRANCH   1  12
BRANCH   8  22
ATOM     22  O   UNL     1      -9.765  17.164   0.225  1.00  0.00    -0.490 OA
ATOM     23  C   UNL     1     -10.381  17.062  -1.054  1.00  0.00     0.278 C 
ENDBRANCH   8  22
BRANCH  11  24
ATOM     24  O   UNL     1      -6.658  13.279   2.874  1.00  0.00    -0.492 OA
ATOM     25  C   UNL     1      -7.316  12.174   3.485  1.00  0.00     0.278 C 
ENDBRANCH  11  24
BRANCH   9  26
ATOM     26  O   UNL     1      -9.703  16.999   3.092  1.00  0.00    -0.490 OA
ATOM     27  C   UNL     1      -9.470  18.379   3.354  1.00  0.00     0.279 C 
ENDBRANCH   9  26
BRANCH  10  28
ATOM     28  O   UNL     1      -8.101  15.246   4.328  1.00  0.00    -0.490 OA
ATOM     29  C   UNL     1      -7.031  15.831   5.066  1.00  0.00     0.278 C 
ENDBRANCH  10  28
TORSDOF 7
ENDMDL
MODEL 5
REMARK VINA RESULT:    -4.893      1.525      3.833
REMARK INTER + INTRA:          -7.717
REMARK INTER:                  -6.908
REMARK INTRA:                  -0.809
REMARK UNBOUND:                -0.821
REMARK SMILES COc1ccc(-c2cc(=O)c3c(OC)c(OC)c(OC)c(OC)c3o2)cc1OC
REMARK SMILES IDX 7 1 8 2 9 3 10 4 11 5 24 6 25 7 21 8 18 9 15 10 12 11 6 12
REMARK SMILES IDX 3 13 27 14 4 15 26 16 5 17 2 18 1 19 28 20 29 21 22 22 23 23
REMARK SMILES IDX 13 24 14 25 19 26 20 27 16 28 17 29
REMARK H PARENT
REMARK Flexibility Score: inf
ROOT
ATOM      1  C   UNL     1      -7.215  13.138  -1.302  1.00  0.00     0.138 A 
ATOM      2  C   UNL     1      -6.777  12.194  -0.367  1.00  0.00     0.100 A 
ATOM      3  C   UNL     1      -6.795  12.518   0.987  1.00  0.00     0.197 A 
ATOM      4  O   UNL     1      -6.392  11.660   1.820  1.00  0.00    -0.289 OA
ATOM      5  C   UNL     1      -7.251  13.790   1.398  1.00  0.00     0.115 A 
ATOM      6  C   UNL     1      -7.670  14.700   0.396  1.00  0.00     0.188 A 
ATOM      7  O   UNL     1      -7.627  14.332  -0.883  1.00  0.00    -0.452 OA
ATOM      8  C   UNL     1      -8.149  15.988   0.751  1.00  0.00     0.209 A 
ATOM      9  C   UNL     1      -8.181  16.360   2.119  1.00  0.00     0.211 A 
ATOM     10  C   UNL     1      -7.738  15.464   3.101  1.00  0.00     0.208 A 
ATOM     11  C   UNL     1      -7.325  14.165   2.756  1.00  0.00     0.179 A 
ENDROOT
BRANCH   1  12
ATOM     12  C   UNL     1      -7.227  12.841  -2.756  1.00  0.00     0.021 A 
ATOM     13  C   UNL     1      -7.278  12.336  -5.533  1.00  0.00     0.160 A 
ATOM     14  C   UNL     1      -6.858  13.586  -5.057  1.00  0.00     0.161 A 
ATOM     15  C   UNL     1      -7.678  11.344  -4.618  1.00  0.00     0.051 A 
ATOM     16  C   UNL     1      -6.834  13.831  -3.670  1.00  0.00     0.062 A 
ATOM     17  C   UNL     1      -7.657  11.596  -3.246  1.00  0.00     0.016 A 
BRANCH  13  18
ATOM     18  O   UNL     1      -7.287  12.119  -6.920  1.00  0.00    -0.493 OA
ATOM     19  C   UNL     1      -8.459  12.129  -7.731  1.00  0.00     0.278 C 
ENDBRANCH  13  18
BRANCH  14  20
ATOM     20  O   UNL     1      -6.471  14.561  -5.991  1.00  0.00    -0.493 OA
ATOM     21  C   UNL     1      -7.338  15.553  -6.530  1.00  0.00     0.278 C 
ENDBRANCH  14  20
ENDBRANCH   1  12
BRANCH   8  22
ATOM     22  O   UNL     1      -8.603  16.917  -0.204  1.00  0.00    -0.490 OA
ATOM     23  C   UNL     1      -9.867  16.934  -0.858  1.00  0.00     0.278 C 
ENDBRANCH   8  22
BRANCH  11  24
ATOM     24  O   UNL     1      -7.007  13.239   3.756  1.00  0.00    -0.492 OA
ATOM     25  C   UNL     1      -8.003  12.640   4.578  1.00  0.00     0.278 C 
ENDBRANCH  11  24
BRANCH   9  26
ATOM     26  O   UNL     1      -8.623  17.617   2.581  1.00  0.00    -0.490 OA
ATOM     27  C   UNL     1      -9.962  18.001   2.874  1.00  0.00     0.279 C 
ENDBRANCH   9  26
BRANCH  10  28
ATOM     28  O   UNL     1      -7.714  15.905   4.429  1.00  0.00    -0.490 OA
ATOM     29  C   UNL     1      -6.541  16.424   5.048  1.00  0.00     0.278 C 
ENDBRANCH  10  28
TORSDOF 7
ENDMDL
MODEL 6
REMARK VINA RESULT:    -4.881      1.438      1.617
REMARK INTER + INTRA:          -7.700
REMARK INTER:                  -6.870
REMARK INTRA:                  -0.830
REMARK UNBOUND:                -0.821
REMARK SMILES COc1ccc(-c2cc(=O)c3c(OC)c(OC)c(OC)c(OC)c3o2)cc1OC
REMARK SMILES IDX 7 1 8 2 9 3 10 4 11 5 24 6 25 7 21 8 18 9 15 10 12 11 6 12
REMARK SMILES IDX 3 13 27 14 4 15 26 16 5 17 2 18 1 19 28 20 29 21 22 22 23 23
REMARK SMILES IDX 13 24 14 25 19 26 20 27 16 28 17 29
REMARK H PARENT
REMARK Flexibility Score: inf
ROOT
ATOM      1  C   UNL     1      -8.822  15.114  -2.182  1.00  0.00     0.138 A 
ATOM      2  C   UNL     1      -9.466  16.136  -1.477  1.00  0.00     0.100 A 
ATOM      3  C   UNL     1      -9.313  16.212  -0.095  1.00  0.00     0.197 A 
ATOM      4  O   UNL     1      -9.904  17.135   0.529  1.00  0.00    -0.289 OA
ATOM      5  C   UNL     1      -8.513  15.260   0.575  1.00  0.00     0.115 A 
ATOM      6  C   UNL     1      -7.898  14.246  -0.201  1.00  0.00     0.188 A 
ATOM      7  O   UNL     1      -8.086  14.225  -1.519  1.00  0.00    -0.452 OA
ATOM      8  C   UNL     1      -7.073  13.271   0.417  1.00  0.00     0.209 A 
ATOM      9  C   UNL     1      -6.893  13.309   1.823  1.00  0.00     0.211 A 
ATOM     10  C   UNL     1      -7.527  14.298   2.585  1.00  0.00     0.208 A 
ATOM     11  C   UNL     1      -8.290  15.304   1.967  1.00  0.00     0.179 A 
ENDROOT
BRANCH   1  12
ATOM     12  C   UNL     1      -8.943  14.993  -3.656  1.00  0.00     0.021 A 
ATOM     13  C   UNL     1      -9.168  14.696  -6.454  1.00  0.00     0.160 A 
ATOM     14  C   UNL     1      -9.875  13.837  -5.601  1.00  0.00     0.161 A 
ATOM     15  C   UNL     1      -8.344  15.696  -5.906  1.00  0.00     0.051 A 
ATOM     16  C   UNL     1      -9.759  13.992  -4.205  1.00  0.00     0.062 A 
ATOM     17  C   UNL     1      -8.230  15.839  -4.522  1.00  0.00     0.016 A 
BRANCH  13  18
ATOM     18  O   UNL     1      -9.306  14.522  -7.841  1.00  0.00    -0.493 OA
ATOM     19  C   UNL     1      -8.332  13.906  -8.678  1.00  0.00     0.278 C 
ENDBRANCH  13  18
BRANCH  14  20
ATOM     20  O   UNL     1     -10.684  12.843  -6.174  1.00  0.00    -0.493 OA
ATOM     21  C   UNL     1     -10.317  11.473  -6.294  1.00  0.00     0.278 C 
ENDBRANCH  14  20
ENDBRANCH   1  12
BRANCH   8  22
ATOM     22  O   UNL     1      -6.418  12.260  -0.313  1.00  0.00    -0.490 OA
ATOM     23  C   UNL     1      -6.960  11.016  -0.741  1.00  0.00     0.278 C 
ENDBRANCH   8  22
BRANCH  11  24
ATOM     24  O   UNL     1      -8.813  16.358   2.726  1.00  0.00    -0.492 OA
ATOM     25  C   UNL     1      -7.989  17.393   3.253  1.00  0.00     0.278 C 
ENDBRANCH  11  24
BRANCH   9  26
ATOM     26  O   UNL     1      -6.109  12.382   2.540  1.00  0.00    -0.490 OA
ATOM     27  C   UNL     1      -6.493  11.078   2.962  1.00  0.00     0.279 C 
ENDBRANCH   9  26
BRANCH  10  28
ATOM     28  O   UNL     1      -7.382  14.248   3.977  1.00  0.00    -0.490 OA
ATOM     29  C   UNL     1      -8.386  13.718   4.837  1.00  0.00     0.278 C 
ENDBRANCH  10  28
TORSDOF 7
ENDMDL
MODEL 7
REMARK VINA RESULT:    -4.713      1.550      1.973
REMARK INTER + INTRA:          -7.463
REMARK INTER:                  -6.666
REMARK INTRA:                  -0.797
REMARK UNBOUND:                -0.821
REMARK SMILES COc1ccc(-c2cc(=O)c3c(OC)c(OC)c(OC)c(OC)c3o2)cc1OC
REMARK SMILES IDX 7 1 8 2 9 3 10 4 11 5 24 6 25 7 21 8 18 9 15 10 12 11 6 12
REMARK SMILES IDX 3 13 27 14 4 15 26 16 5 17 2 18 1 19 28 20 29 21 22 22 23 23
REMARK SMILES IDX 13 24 14 25 19 26 20 27 16 28 17 29
REMARK H PARENT
REMARK Flexibility Score: inf
ROOT
ATOM      1  C   UNL     1      -7.829  15.213  -0.114  1.00  0.00     0.138 A 
ATOM      2  C   UNL     1      -7.944  16.423   0.578  1.00  0.00     0.100 A 
ATOM      3  C   UNL     1      -7.821  16.429   1.965  1.00  0.00     0.197 A 
ATOM      4  O   UNL     1      -7.933  17.526   2.577  1.00  0.00    -0.289 OA
ATOM      5  C   UNL     1      -7.584  15.219   2.653  1.00  0.00     0.115 A 
ATOM      6  C   UNL     1      -7.489  14.029   1.890  1.00  0.00     0.188 A 
ATOM      7  O   UNL     1      -7.619  14.087   0.566  1.00  0.00    -0.452 OA
ATOM      8  C   UNL     1      -7.239  12.786   2.527  1.00  0.00     0.209 A 
ATOM      9  C   UNL     1      -7.110  12.747   3.938  1.00  0.00     0.211 A 
ATOM     10  C   UNL     1      -7.234  13.923   4.688  1.00  0.00     0.208 A 
ATOM     11  C   UNL     1      -7.415  15.165   4.053  1.00  0.00     0.179 A 
ENDROOT
BRANCH   1  12
ATOM     12  C   UNL     1      -7.942  15.151  -1.592  1.00  0.00     0.021 A 
ATOM     13  C   UNL     1      -8.093  15.014  -4.407  1.00  0.00     0.160 A 
ATOM     14  C   UNL     1      -7.470  13.983  -3.690  1.00  0.00     0.161 A 
ATOM     15  C   UNL     1      -8.634  16.113  -3.715  1.00  0.00     0.051 A 
ATOM     16  C   UNL     1      -7.399  14.058  -2.285  1.00  0.00     0.062 A 
ATOM     17  C   UNL     1      -8.554  16.182  -2.324  1.00  0.00     0.016 A 
BRANCH  13  18
ATOM     18  O   UNL     1      -8.154  14.910  -5.807  1.00  0.00    -0.493 OA
ATOM     19  C   UNL     1      -7.204  15.484  -6.700  1.00  0.00     0.278 C 
ENDBRANCH  13  18
BRANCH  14  20
ATOM     20  O   UNL     1      -6.932  12.901  -4.405  1.00  0.00    -0.493 OA
ATOM     21  C   UNL     1      -7.426  11.567  -4.345  1.00  0.00     0.278 C 
ENDBRANCH  14  20
ENDBRANCH   1  12
BRANCH   8  22
ATOM     22  O   UNL     1      -7.108  11.580   1.810  1.00  0.00    -0.490 OA
ATOM     23  C   UNL     1      -5.931  11.063   1.202  1.00  0.00     0.278 C 
ENDBRANCH   8  22
BRANCH  11  24
ATOM     24  O   UNL     1      -7.410  16.347   4.803  1.00  0.00    -0.492 OA
ATOM     25  C   UNL     1      -6.223  16.859   5.400  1.00  0.00     0.278 C 
ENDBRANCH  11  24
BRANCH   9  26
ATOM     26  O   UNL     1      -6.877  11.566   4.673  1.00  0.00    -0.490 OA
ATOM     27  C   UNL     1      -5.618  10.962   4.951  1.00  0.00     0.279 C 
ENDBRANCH   9  26
BRANCH  10  28
ATOM     28  O   UNL     1      -7.178  13.822   6.083  1.00  0.00    -0.490 OA
ATOM     29  C   UNL     1      -8.338  13.886   6.907  1.00  0.00     0.278 C 
ENDBRANCH  10  28
TORSDOF 7
ENDMDL
MODEL 8
REMARK VINA RESULT:    -4.465      2.440      3.321
REMARK INTER + INTRA:          -7.113
REMARK INTER:                  -6.530
REMARK INTRA:                  -0.583
REMARK UNBOUND:                -0.821
REMARK SMILES COc1ccc(-c2cc(=O)c3c(OC)c(OC)c(OC)c(OC)c3o2)cc1OC
REMARK SMILES IDX 7 1 8 2 9 3 10 4 11 5 24 6 25 7 21 8 18 9 15 10 12 11 6 12
REMARK SMILES IDX 3 13 27 14 4 15 26 16 5 17 2 18 1 19 28 20 29 21 22 22 23 23
REMARK SMILES IDX 13 24 14 25 19 26 20 27 16 28 17 29
REMARK H PARENT
REMARK Flexibility Score: inf
ROOT
ATOM      1  C   UNL     1      -9.533  14.362  -2.108  1.00  0.00     0.138 A 
ATOM      2  C   UNL     1     -10.669  13.617  -1.774  1.00  0.00     0.100 A 
ATOM      3  C   UNL     1     -11.103  13.592  -0.451  1.00  0.00     0.197 A 
ATOM      4  O   UNL     1     -12.125  12.913  -0.162  1.00  0.00    -0.289 OA
ATOM      5  C   UNL     1     -10.393  14.315   0.533  1.00  0.00     0.115 A 
ATOM      6  C   UNL     1      -9.245  15.040   0.126  1.00  0.00     0.188 A 
ATOM      7  O   UNL     1      -8.879  15.021  -1.154  1.00  0.00    -0.452 OA
ATOM      8  C   UNL     1      -8.501  15.794   1.070  1.00  0.00     0.209 A 
ATOM      9  C   UNL     1      -8.906  15.793   2.428  1.00  0.00     0.211 A 
ATOM     10  C   UNL     1     -10.025  15.051   2.827  1.00  0.00     0.208 A 
ATOM     11  C   UNL     1     -10.802  14.358   1.883  1.00  0.00     0.179 A 
ENDROOT
BRANCH   1  12
ATOM     12  C   UNL     1      -9.033  14.431  -3.503  1.00  0.00     0.021 A 
ATOM     13  C   UNL     1      -8.039  14.514  -6.144  1.00  0.00     0.160 A 
ATOM     14  C   UNL     1      -8.310  13.279  -5.537  1.00  0.00     0.161 A 
ATOM     15  C   UNL     1      -8.259  15.703  -5.426  1.00  0.00     0.051 A 
ATOM     16  C   UNL     1      -8.807  13.245  -4.219  1.00  0.00     0.062 A 
ATOM     17  C   UNL     1      -8.746  15.661  -4.119  1.00  0.00     0.016 A 
BRANCH  13  18
ATOM     18  O   UNL     1      -7.549  14.517  -7.460  1.00  0.00    -0.493 OA
ATOM     19  C   UNL     1      -8.361  14.648  -8.623  1.00  0.00     0.278 C 
ENDBRANCH  13  18
BRANCH  14  20
ATOM     20  O   UNL     1      -8.074  12.107  -6.273  1.00  0.00    -0.493 OA
ATOM     21  C   UNL     1      -8.909  10.954  -6.245  1.00  0.00     0.278 C 
ENDBRANCH  14  20
ENDBRANCH   1  12
BRANCH   8  22
ATOM     22  O   UNL     1      -7.370  16.552   0.710  1.00  0.00    -0.490 OA
ATOM     23  C   UNL     1      -6.004  16.171   0.827  1.00  0.00     0.278 C 
ENDBRANCH   8  22
BRANCH  11  24
ATOM     24  O   UNL     1     -11.989  13.727   2.274  1.00  0.00    -0.492 OA
ATOM     25  C   UNL     1     -11.991  12.531   3.047  1.00  0.00     0.278 C 
ENDBRANCH  11  24
BRANCH   9  26
ATOM     26  O   UNL     1      -8.231  16.494   3.450  1.00  0.00    -0.490 OA
ATOM     27  C   UNL     1      -8.265  17.896   3.695  1.00  0.00     0.279 C 
ENDBRANCH   9  26
BRANCH  10  28
ATOM     28  O   UNL     1     -10.339  15.019   4.191  1.00  0.00    -0.490 OA
ATOM     29  C   UNL     1     -11.361  15.829   4.764  1.00  0.00     0.278 C 
ENDBRANCH  10  28
TORSDOF 7
ENDMDL
MODEL 9
REMARK VINA RESULT:    -4.439      1.360      2.026
REMARK INTER + INTRA:          -7.077
REMARK INTER:                  -6.285
REMARK INTRA:                  -0.792
REMARK UNBOUND:                -0.821
REMARK SMILES COc1ccc(-c2cc(=O)c3c(OC)c(OC)c(OC)c(OC)c3o2)cc1OC
REMARK SMILES IDX 7 1 8 2 9 3 10 4 11 5 24 6 25 7 21 8 18 9 15 10 12 11 6 12
REMARK SMILES IDX 3 13 27 14 4 15 26 16 5 17 2 18 1 19 28 20 29 21 22 22 23 23
REMARK SMILES IDX 13 24 14 25 19 26 20 27 16 28 17 29
REMARK H PARENT
REMARK Flexibility Score: inf
ROOT
ATOM      1  C   UNL     1      -7.679  14.001  -1.234  1.00  0.00     0.138 A 
ATOM      2  C   UNL     1      -8.298  15.244  -1.057  1.00  0.00     0.100 A 
ATOM      3  C   UNL     1      -8.515  15.718   0.233  1.00  0.00     0.197 A 
ATOM      4  O   UNL     1      -9.079  16.837   0.379  1.00  0.00    -0.289 OA
ATOM      5  C   UNL     1      -8.111  14.943   1.343  1.00  0.00     0.115 A 
ATOM      6  C   UNL     1      -7.500  13.690   1.090  1.00  0.00     0.188 A 
ATOM      7  O   UNL     1      -7.323  13.289  -0.168  1.00  0.00    -0.452 OA
ATOM      8  C   UNL     1      -7.063  12.875   2.166  1.00  0.00     0.209 A 
ATOM      9  C   UNL     1      -7.268  13.319   3.497  1.00  0.00     0.211 A 
ATOM     10  C   UNL     1      -7.899  14.546   3.738  1.00  0.00     0.208 A 
ATOM     11  C   UNL     1      -8.272  15.385   2.673  1.00  0.00     0.179 A 
ENDROOT
BRANCH   1  12
ATOM     12  C   UNL     1      -7.414  13.453  -2.588  1.00  0.00     0.021 A 
ATOM     13  C   UNL     1      -6.944  12.460  -5.188  1.00  0.00     0.160 A 
ATOM     14  C   UNL     1      -6.765  13.824  -4.917  1.00  0.00     0.161 A 
ATOM     15  C   UNL     1      -7.365  11.597  -4.159  1.00  0.00     0.051 A 
ATOM     16  C   UNL     1      -7.000  14.312  -3.617  1.00  0.00     0.062 A 
ATOM     17  C   UNL     1      -7.602  12.090  -2.875  1.00  0.00     0.016 A 
BRANCH  13  18
ATOM     18  O   UNL     1      -6.697  12.000  -6.492  1.00  0.00    -0.493 OA
ATOM     19  C   UNL     1      -7.706  11.562  -7.397  1.00  0.00     0.278 C 
ENDBRANCH  13  18
BRANCH  14  20
ATOM     20  O   UNL     1      -6.351  14.664  -5.963  1.00  0.00    -0.493 OA
ATOM     21  C   UNL     1      -7.224  15.481  -6.737  1.00  0.00     0.278 C 
ENDBRANCH  14  20
ENDBRANCH   1  12
BRANCH   8  22
ATOM     22  O   UNL     1      -6.426  11.635   1.966  1.00  0.00    -0.490 OA
ATOM     23  C   UNL     1      -5.027  11.390   1.875  1.00  0.00     0.278 C 
ENDBRANCH   8  22
BRANCH  11  24
ATOM     24  O   UNL     1      -8.784  16.662   2.929  1.00  0.00    -0.492 OA
ATOM     25  C   UNL     1      -7.975  17.713   3.447  1.00  0.00     0.278 C 
ENDBRANCH  11  24
BRANCH   9  26
ATOM     26  O   UNL     1      -6.888  12.583   4.638  1.00  0.00    -0.490 OA
ATOM     27  C   UNL     1      -7.532  11.430   5.169  1.00  0.00     0.279 C 
ENDBRANCH   9  26
BRANCH  10  28
ATOM     28  O   UNL     1      -8.149  14.905   5.068  1.00  0.00    -0.490 OA
ATOM     29  C   UNL     1      -9.391  14.642   5.716  1.00  0.00     0.278 C 
ENDBRANCH  10  28
TORSDOF 7
ENDMDL
