MODEL 1
REMARK VINA RESULT:    -4.994      0.000      0.000
REMARK INTER + INTRA:          -4.994
REMARK INTER:                  -4.994
REMARK INTRA:                   0.000
REMARK UNBOUND:                 0.000
REMARK SMILES CC1=CC(=O)[C@H]2C[C@@H]1C2(C)C
REMARK SMILES IDX 1 1 2 2 3 3 4 4 5 5 6 6 7 7 8 8 9 9 10 10 11 11
REMARK H PARENT
REMARK Flexibility Score: inf
ROOT
ATOM      1  C   UNL     1     -16.022 -41.000 213.379  1.00  0.00     0.040 C 
ATOM      2  C   UNL     1     -16.773 -40.053 212.499  1.00  0.00    -0.066 C 
ATOM      3  C   UNL     1     -17.961 -40.385 211.920  1.00  0.00     0.047 C 
ATOM      4  C   UNL     1     -18.597 -39.333 211.061  1.00  0.00     0.159 C 
ATOM      5  O   UNL     1     -19.673 -39.534 210.439  1.00  0.00    -0.295 OA
ATOM      6  C   UNL     1     -17.848 -38.003 210.994  1.00  0.00     0.067 C 
ATOM      7  C   UNL     1     -17.478 -37.704 212.463  1.00  0.00     0.021 C 
ATOM      8  C   UNL     1     -16.253 -38.622 212.251  1.00  0.00     0.022 C 
ATOM      9  C   UNL     1     -16.342 -38.294 210.732  1.00  0.00    -0.019 C 
ATOM     10  C   UNL     1     -15.550 -37.017 210.357  1.00  0.00     0.012 C 
ATOM     11  C   UNL     1     -15.973 -39.413 209.716  1.00  0.00     0.012 C 
ENDROOT
TORSDOF 0
ENDMDL
MODEL 2
REMARK VINA RESULT:    -4.811      1.982      3.743
REMARK INTER + INTRA:          -4.811
REMARK INTER:                  -4.811
REMARK INTRA:                   0.000
REMARK UNBOUND:                 0.000
REMARK SMILES CC1=CC(=O)[C@H]2C[C@@H]1C2(C)C
REMARK SMILES IDX 1 1 2 2 3 3 4 4 5 5 6 6 7 7 8 8 9 9 10 10 11 11
REMARK H PARENT
REMARK Flexibility Score: inf
ROOT
ATOM      1  C   UNL     1     -18.596 -37.046 208.099  1.00  0.00     0.040 C 
ATOM      2  C   UNL     1     -17.574 -37.781 208.906  1.00  0.00    -0.066 C 
ATOM      3  C   UNL     1     -16.913 -38.871 208.423  1.00  0.00     0.047 C 
ATOM      4  C   UNL     1     -15.918 -39.505 209.348  1.00  0.00     0.159 C 
ATOM      5  O   UNL     1     -15.275 -40.541 209.034  1.00  0.00    -0.295 OA
ATOM      6  C   UNL     1     -15.740 -38.807 210.696  1.00  0.00     0.067 C 
ATOM      7  C   UNL     1     -15.637 -37.309 210.334  1.00  0.00     0.021 C 
ATOM      8  C   UNL     1     -17.182 -37.297 210.317  1.00  0.00     0.022 C 
ATOM      9  C   UNL     1     -17.147 -38.510 211.290  1.00  0.00    -0.019 C 
ATOM     10  C   UNL     1     -17.080 -38.073 212.775  1.00  0.00     0.012 C 
ATOM     11  C   UNL     1     -18.251 -39.597 211.151  1.00  0.00     0.012 C 
ENDROOT
TORSDOF 0
ENDMDL
MODEL 3
REMARK VINA RESULT:    -4.704      1.684      2.416
REMARK INTER + INTRA:          -4.704
REMARK INTER:                  -4.704
REMARK INTRA:                   0.000
REMARK UNBOUND:                 0.000
REMARK SMILES CC1=CC(=O)[C@H]2C[C@@H]1C2(C)C
REMARK SMILES IDX 1 1 2 2 3 3 4 4 5 5 6 6 7 7 8 8 9 9 10 10 11 11
REMARK H PARENT
REMARK Flexibility Score: inf
ROOT
ATOM      1  C   UNL     1     -16.045 -41.548 211.904  1.00  0.00     0.040 C 
ATOM      2  C   UNL     1     -16.415 -40.129 211.610  1.00  0.00    -0.066 C 
ATOM      3  C   UNL     1     -16.863 -39.279 212.577  1.00  0.00     0.047 C 
ATOM      4  C   UNL     1     -17.198 -37.887 212.132  1.00  0.00     0.159 C 
ATOM      5  O   UNL     1     -17.660 -37.023 212.922  1.00  0.00    -0.295 OA
ATOM      6  C   UNL     1     -16.938 -37.592 210.655  1.00  0.00     0.067 C 
ATOM      7  C   UNL     1     -15.539 -38.189 210.392  1.00  0.00     0.021 C 
ATOM      8  C   UNL     1     -16.251 -39.546 210.191  1.00  0.00     0.022 C 
ATOM      9  C   UNL     1     -17.533 -38.752 209.806  1.00  0.00    -0.019 C 
ATOM     10  C   UNL     1     -17.583 -38.412 208.295  1.00  0.00     0.012 C 
ATOM     11  C   UNL     1     -18.913 -39.338 210.220  1.00  0.00     0.012 C 
ENDROOT
TORSDOF 0
ENDMDL
MODEL 4
REMARK VINA RESULT:    -4.687      1.884      3.165
REMARK INTER + INTRA:          -4.687
REMARK INTER:                  -4.687
REMARK INTRA:                   0.000
REMARK UNBOUND:                 0.000
REMARK SMILES CC1=CC(=O)[C@H]2C[C@@H]1C2(C)C
REMARK SMILES IDX 1 1 2 2 3 3 4 4 5 5 6 6 7 7 8 8 9 9 10 10 11 11
REMARK H PARENT
REMARK Flexibility Score: inf
ROOT
ATOM      1  C   UNL     1     -19.123 -40.867 209.842  1.00  0.00     0.040 C 
ATOM      2  C   UNL     1     -17.967 -39.947 210.071  1.00  0.00    -0.066 C 
ATOM      3  C   UNL     1     -16.708 -40.239 209.637  1.00  0.00     0.047 C 
ATOM      4  C   UNL     1     -15.650 -39.222 209.942  1.00  0.00     0.159 C 
ATOM      5  O   UNL     1     -14.443 -39.396 209.630  1.00  0.00    -0.295 OA
ATOM      6  C   UNL     1     -16.139 -37.963 210.656  1.00  0.00     0.067 C 
ATOM      7  C   UNL     1     -17.416 -37.564 209.885  1.00  0.00     0.021 C 
ATOM      8  C   UNL     1     -18.164 -38.586 210.771  1.00  0.00     0.022 C 
ATOM      9  C   UNL     1     -17.052 -38.388 211.841  1.00  0.00    -0.019 C 
ATOM     10  C   UNL     1     -17.361 -37.210 212.800  1.00  0.00     0.012 C 
ATOM     11  C   UNL     1     -16.628 -39.616 212.696  1.00  0.00     0.012 C 
ENDROOT
TORSDOF 0
ENDMDL
MODEL 5
REMARK VINA RESULT:    -4.508      1.363      2.376
REMARK INTER + INTRA:          -4.508
REMARK INTER:                  -4.508
REMARK INTRA:                   0.000
REMARK UNBOUND:                 0.000
REMARK SMILES CC1=CC(=O)[C@H]2C[C@@H]1C2(C)C
REMARK SMILES IDX 1 1 2 2 3 3 4 4 5 5 6 6 7 7 8 8 9 9 10 10 11 11
REMARK H PARENT
REMARK Flexibility Score: inf
ROOT
ATOM      1  C   UNL     1     -14.873 -41.257 210.016  1.00  0.00     0.040 C 
ATOM      2  C   UNL     1     -16.063 -40.358 210.111  1.00  0.00    -0.066 C 
ATOM      3  C   UNL     1     -16.796 -40.003 209.019  1.00  0.00     0.047 C 
ATOM      4  C   UNL     1     -17.961 -39.093 209.270  1.00  0.00     0.159 C 
ATOM      5  O   UNL     1     -18.689 -38.661 208.338  1.00  0.00    -0.295 OA
ATOM      6  C   UNL     1     -18.202 -38.727 210.734  1.00  0.00     0.067 C 
ATOM      7  C   UNL     1     -18.076 -40.071 211.484  1.00  0.00     0.021 C 
ATOM      8  C   UNL     1     -16.549 -39.831 211.478  1.00  0.00     0.022 C 
ATOM      9  C   UNL     1     -16.846 -38.307 211.370  1.00  0.00    -0.019 C 
ATOM     10  C   UNL     1     -17.025 -37.642 212.757  1.00  0.00     0.012 C 
ATOM     11  C   UNL     1     -15.877 -37.427 210.528  1.00  0.00     0.012 C 
ENDROOT
TORSDOF 0
ENDMDL
MODEL 6
REMARK VINA RESULT:    -4.492      2.024      3.519
REMARK INTER + INTRA:          -4.492
REMARK INTER:                  -4.492
REMARK INTRA:                   0.000
REMARK UNBOUND:                 0.000
REMARK SMILES CC1=CC(=O)[C@H]2C[C@@H]1C2(C)C
REMARK SMILES IDX 1 1 2 2 3 3 4 4 5 5 6 6 7 7 8 8 9 9 10 10 11 11
REMARK H PARENT
REMARK Flexibility Score: inf
ROOT
ATOM      1  C   UNL     1     -15.251 -39.856 208.140  1.00  0.00     0.040 C 
ATOM      2  C   UNL     1     -16.036 -39.167 209.209  1.00  0.00    -0.066 C 
ATOM      3  C   UNL     1     -15.489 -38.829 210.411  1.00  0.00     0.047 C 
ATOM      4  C   UNL     1     -16.400 -38.144 211.385  1.00  0.00     0.159 C 
ATOM      5  O   UNL     1     -16.025 -37.820 212.542  1.00  0.00    -0.295 OA
ATOM      6  C   UNL     1     -17.813 -37.866 210.874  1.00  0.00     0.067 C 
ATOM      7  C   UNL     1     -17.596 -37.290 209.458  1.00  0.00     0.021 C 
ATOM      8  C   UNL     1     -17.504 -38.754 208.971  1.00  0.00     0.022 C 
ATOM      9  C   UNL     1     -18.362 -39.159 210.205  1.00  0.00    -0.019 C 
ATOM     10  C   UNL     1     -19.882 -39.075 209.918  1.00  0.00     0.012 C 
ATOM     11  C   UNL     1     -18.069 -40.525 210.889  1.00  0.00     0.012 C 
ENDROOT
TORSDOF 0
ENDMDL
MODEL 7
REMARK VINA RESULT:    -4.492     11.102     12.301
REMARK INTER + INTRA:          -4.492
REMARK INTER:                  -4.492
REMARK INTRA:                   0.000
REMARK UNBOUND:                 0.000
REMARK SMILES CC1=CC(=O)[C@H]2C[C@@H]1C2(C)C
REMARK SMILES IDX 1 1 2 2 3 3 4 4 5 5 6 6 7 7 8 8 9 9 10 10 11 11
REMARK H PARENT
REMARK Flexibility Score: inf
ROOT
ATOM      1  C   UNL     1      -3.673 -37.942 215.586  1.00  0.00     0.040 C 
ATOM      2  C   UNL     1      -4.847 -38.870 215.600  1.00  0.00    -0.066 C 
ATOM      3  C   UNL     1      -5.349 -39.389 216.755  1.00  0.00     0.047 C 
ATOM      4  C   UNL     1      -6.527 -40.306 216.612  1.00  0.00     0.159 C 
ATOM      5  O   UNL     1      -7.054 -40.881 217.600  1.00  0.00    -0.295 OA
ATOM      6  C   UNL     1      -7.041 -40.492 215.185  1.00  0.00     0.067 C 
ATOM      7  C   UNL     1      -7.082 -39.061 214.608  1.00  0.00     0.021 C 
ATOM      8  C   UNL     1      -5.579 -39.238 214.293  1.00  0.00     0.022 C 
ATOM      9  C   UNL     1      -5.827 -40.774 214.254  1.00  0.00    -0.019 C 
ATOM     10  C   UNL     1      -6.261 -41.265 212.850  1.00  0.00     0.012 C 
ATOM     11  C   UNL     1      -4.701 -41.714 214.773  1.00  0.00     0.012 C 
ENDROOT
TORSDOF 0
ENDMDL
MODEL 8
REMARK VINA RESULT:    -4.470      1.958      3.576
REMARK INTER + INTRA:          -4.470
REMARK INTER:                  -4.470
REMARK INTRA:                   0.000
REMARK UNBOUND:                 0.000
REMARK SMILES CC1=CC(=O)[C@H]2C[C@@H]1C2(C)C
REMARK SMILES IDX 1 1 2 2 3 3 4 4 5 5 6 6 7 7 8 8 9 9 10 10 11 11
REMARK H PARENT
REMARK Flexibility Score: inf
ROOT
ATOM      1  C   UNL     1     -18.120 -37.271 208.623  1.00  0.00     0.040 C 
ATOM      2  C   UNL     1     -17.655 -38.064 209.802  1.00  0.00    -0.066 C 
ATOM      3  C   UNL     1     -17.085 -37.479 210.893  1.00  0.00     0.047 C 
ATOM      4  C   UNL     1     -16.667 -38.403 211.997  1.00  0.00     0.159 C 
ATOM      5  O   UNL     1     -16.091 -37.989 213.037  1.00  0.00    -0.295 OA
ATOM      6  C   UNL     1     -16.987 -39.880 211.771  1.00  0.00     0.067 C 
ATOM      7  C   UNL     1     -18.443 -39.876 211.256  1.00  0.00     0.021 C 
ATOM      8  C   UNL     1     -17.854 -39.593 209.855  1.00  0.00     0.022 C 
ATOM      9  C   UNL     1     -16.537 -40.271 210.334  1.00  0.00    -0.019 C 
ATOM     10  C   UNL     1     -16.548 -41.803 210.108  1.00  0.00     0.012 C 
ATOM     11  C   UNL     1     -15.187 -39.708 209.805  1.00  0.00     0.012 C 
ENDROOT
TORSDOF 0
ENDMDL
MODEL 9
REMARK VINA RESULT:    -4.463     11.905     12.943
REMARK INTER + INTRA:          -4.463
REMARK INTER:                  -4.463
REMARK INTRA:                   0.000
REMARK UNBOUND:                 0.000
REMARK SMILES CC1=CC(=O)[C@H]2C[C@@H]1C2(C)C
REMARK SMILES IDX 1 1 2 2 3 3 4 4 5 5 6 6 7 7 8 8 9 9 10 10 11 11
REMARK H PARENT
REMARK Flexibility Score: inf
ROOT
ATOM      1  C   UNL     1      -5.527 -41.900 217.342  1.00  0.00     0.040 C 
ATOM      2  C   UNL     1      -5.438 -40.638 216.544  1.00  0.00    -0.066 C 
ATOM      3  C   UNL     1      -6.460 -40.204 215.754  1.00  0.00     0.047 C 
ATOM      4  C   UNL     1      -6.224 -38.923 215.012  1.00  0.00     0.159 C 
ATOM      5  O   UNL     1      -7.074 -38.440 214.218  1.00  0.00    -0.295 OA
ATOM      6  C   UNL     1      -4.882 -38.245 215.286  1.00  0.00     0.067 C 
ATOM      7  C   UNL     1      -4.736 -38.305 216.822  1.00  0.00     0.021 C 
ATOM      8  C   UNL     1      -4.189 -39.737 216.627  1.00  0.00     0.022 C 
ATOM      9  C   UNL     1      -3.758 -39.316 215.192  1.00  0.00    -0.019 C 
ATOM     10  C   UNL     1      -2.343 -38.685 215.163  1.00  0.00     0.012 C 
ATOM     11  C   UNL     1      -3.842 -40.377 214.058  1.00  0.00     0.012 C 
ENDROOT
TORSDOF 0
ENDMDL
