MODEL 1
REMARK VINA RESULT:    -1.967      0.000      0.000
REMARK INTER + INTRA:          -2.766
REMARK INTER:                  -2.542
REMARK INTRA:                  -0.223
REMARK UNBOUND:                -0.223
REMARK SMILES CCCCCCC(=O)[O-]
REMARK SMILES IDX 5 1 6 2 7 3 8 4 9 5 4 6 3 7 2 8 1 9
REMARK H PARENT
REMARK Flexibility Score: inf
ROOT
ATOM      1  C   UNL     1      19.536  22.627  45.491  1.00  0.00     0.006 C 
ENDROOT
BRANCH   1   2
ATOM      2  C   UNL     1      19.040  24.070  45.355  1.00  0.00     0.053 C 
BRANCH   2   3
ATOM      3  C   UNL     1      17.546  24.109  45.324  1.00  0.00     0.041 C 
ATOM      4  O   UNL     1      16.889  24.101  46.399  1.00  0.00    -0.550 OA
ATOM      5  O   UNL     1      16.875  24.107  44.107  1.00  0.00    -0.550 OA
ENDBRANCH   2   3
ENDBRANCH   1   2
BRANCH   1   6
ATOM      6  C   UNL     1      19.950  22.320  46.935  1.00  0.00     0.000 C 
BRANCH   6   7
ATOM      7  C   UNL     1      21.474  22.215  47.061  1.00  0.00    -0.000 C 
BRANCH   7   8
ATOM      8  C   UNL     1      22.134  22.098  45.683  1.00  0.00    -0.003 C 
ATOM      9  C   UNL     1      23.527  22.720  45.684  1.00  0.00     0.004 C 
ENDBRANCH   7   8
ENDBRANCH   6   7
ENDBRANCH   1   6
TORSDOF 5
ENDMDL
MODEL 2
REMARK VINA RESULT:    -1.890     22.042     23.349
REMARK INTER + INTRA:          -2.666
REMARK INTER:                  -2.496
REMARK INTRA:                  -0.169
REMARK UNBOUND:                -0.223
REMARK SMILES CCCCCCC(=O)[O-]
REMARK SMILES IDX 5 1 6 2 7 3 8 4 9 5 4 6 3 7 2 8 1 9
REMARK H PARENT
REMARK Flexibility Score: inf
ROOT
ATOM      1  C   UNL     1      34.163  23.975  27.072  1.00  0.00     0.006 C 
ENDROOT
BRANCH   1   2
ATOM      2  C   UNL     1      34.656  23.769  28.507  1.00  0.00     0.053 C 
BRANCH   2   3
ATOM      3  C   UNL     1      36.107  23.410  28.516  1.00  0.00     0.041 C 
ATOM      4  O   UNL     1      36.591  22.703  27.592  1.00  0.00    -0.550 OA
ATOM      5  O   UNL     1      36.918  23.813  29.570  1.00  0.00    -0.550 OA
ENDBRANCH   2   3
ENDBRANCH   1   2
BRANCH   1   6
ATOM      6  C   UNL     1      32.655  23.720  26.966  1.00  0.00     0.000 C 
BRANCH   6   7
ATOM      7  C   UNL     1      32.187  22.723  28.033  1.00  0.00    -0.000 C 
BRANCH   7   8
ATOM      8  C   UNL     1      31.596  21.464  27.389  1.00  0.00    -0.003 C 
ATOM      9  C   UNL     1      30.074  21.456  27.490  1.00  0.00     0.004 C 
ENDBRANCH   7   8
ENDBRANCH   6   7
ENDBRANCH   1   6
TORSDOF 5
ENDMDL
MODEL 3
REMARK VINA RESULT:    -1.850     21.042     22.511
REMARK INTER + INTRA:          -2.614
REMARK INTER:                  -2.350
REMARK INTRA:                  -0.265
REMARK UNBOUND:                -0.223
REMARK SMILES CCCCCCC(=O)[O-]
REMARK SMILES IDX 5 1 6 2 7 3 8 4 9 5 4 6 3 7 2 8 1 9
REMARK H PARENT
REMARK Flexibility Score: inf
ROOT
ATOM      1  C   UNL     1      32.675  23.681  26.875  1.00  0.00     0.006 C 
ENDROOT
BRANCH   1   2
ATOM      2  C   UNL     1      32.253  22.247  27.208  1.00  0.00     0.053 C 
BRANCH   2   3
ATOM      3  C   UNL     1      30.968  22.243  27.973  1.00  0.00     0.041 C 
ATOM      4  O   UNL     1      30.042  21.452  27.651  1.00  0.00    -0.550 OA
ATOM      5  O   UNL     1      30.773  23.146  29.010  1.00  0.00    -0.550 OA
ENDBRANCH   2   3
ENDBRANCH   1   2
BRANCH   1   6
ATOM      6  C   UNL     1      34.179  23.878  27.095  1.00  0.00     0.000 C 
BRANCH   6   7
ATOM      7  C   UNL     1      34.542  23.751  28.579  1.00  0.00    -0.000 C 
BRANCH   7   8
ATOM      8  C   UNL     1      36.043  23.501  28.760  1.00  0.00    -0.003 C 
ATOM      9  C   UNL     1      36.626  22.761  27.561  1.00  0.00     0.004 C 
ENDBRANCH   7   8
ENDBRANCH   6   7
ENDBRANCH   1   6
TORSDOF 5
ENDMDL
MODEL 4
REMARK VINA RESULT:     0.682     18.329     19.134
REMARK INTER + INTRA:           0.658
REMARK INTER:                   0.837
REMARK INTRA:                  -0.179
REMARK UNBOUND:                -0.223
REMARK SMILES CCCCCCC(=O)[O-]
REMARK SMILES IDX 5 1 6 2 7 3 8 4 9 5 4 6 3 7 2 8 1 9
REMARK H PARENT
REMARK Flexibility Score: inf
ROOT
ATOM      1  C   UNL     1      35.216  13.264  41.195  1.00  0.00     0.006 C 
ENDROOT
BRANCH   1   2
ATOM      2  C   UNL     1      34.962  13.292  42.705  1.00  0.00     0.053 C 
BRANCH   2   3
ATOM      3  C   UNL     1      35.720  14.411  43.344  1.00  0.00     0.041 C 
ATOM      4  O   UNL     1      36.947  14.283  43.596  1.00  0.00    -0.550 OA
ATOM      5  O   UNL     1      35.061  15.580  43.706  1.00  0.00    -0.550 OA
ENDBRANCH   2   3
ENDBRANCH   1   2
BRANCH   1   6
ATOM      6  C   UNL     1      34.067  12.570  40.455  1.00  0.00     0.000 C 
BRANCH   6   7
ATOM      7  C   UNL     1      33.438  11.471  41.320  1.00  0.00    -0.000 C 
BRANCH   7   8
ATOM      8  C   UNL     1      32.870  10.344  40.450  1.00  0.00    -0.003 C 
ATOM      9  C   UNL     1      33.970   9.393  39.992  1.00  0.00     0.004 C 
ENDBRANCH   7   8
ENDBRANCH   6   7
ENDBRANCH   1   6
TORSDOF 5
ENDMDL
