MODEL 1
REMARK VINA RESULT:    -5.965      0.000      0.000
REMARK INTER + INTRA:         -13.763
REMARK INTER:                 -11.544
REMARK INTRA:                  -2.219
REMARK UNBOUND:                -2.219
REMARK SMILES CCCCCCCCCCCCCCCCCC(=O)[O-]
REMARK SMILES IDX 10 1 11 2 12 3 13 4 14 5 15 6 16 7 17 8 18 9 19 10 20 11
REMARK SMILES IDX 9 12 8 13 7 14 6 15 5 16 4 17 3 18 2 19 1 20
REMARK H PARENT
REMARK Flexibility Score: inf
ROOT
ATOM      1  C   UNL     1      25.884  -1.052  61.514  1.00  0.00     0.000 C 
ENDROOT
BRANCH   1   2
ATOM      2  C   UNL     1      25.102   0.082  62.201  1.00  0.00     0.000 C 
BRANCH   2   3
ATOM      3  C   UNL     1      25.967   1.202  62.809  1.00  0.00     0.000 C 
BRANCH   3   4
ATOM      4  C   UNL     1      25.519   2.608  62.377  1.00  0.00     0.000 C 
BRANCH   4   5
ATOM      5  C   UNL     1      24.168   2.560  61.651  1.00  0.00     0.000 C 
BRANCH   5   6
ATOM      6  C   UNL     1      23.177   3.552  62.276  1.00  0.00     0.000 C 
BRANCH   6   7
ATOM      7  C   UNL     1      23.566   3.961  63.705  1.00  0.00     0.006 C 
BRANCH   7   8
ATOM      8  C   UNL     1      22.958   3.040  64.771  1.00  0.00     0.053 C 
BRANCH   8   9
ATOM      9  C   UNL     1      23.851   2.969  65.970  1.00  0.00     0.041 C 
ATOM     10  O   UNL     1      23.361   2.778  67.114  1.00  0.00    -0.550 OA
ATOM     11  O   UNL     1      25.229   3.064  65.818  1.00  0.00    -0.550 OA
ENDBRANCH   8   9
ENDBRANCH   7   8
ENDBRANCH   6   7
ENDBRANCH   5   6
ENDBRANCH   4   5
ENDBRANCH   3   4
ENDBRANCH   2   3
ENDBRANCH   1   2
BRANCH   1  12
ATOM     12  C   UNL     1      25.531  -2.445  62.059  1.00  0.00     0.000 C 
BRANCH  12  13
ATOM     13  C   UNL     1      25.440  -3.515  60.956  1.00  0.00    -0.000 C 
BRANCH  13  14
ATOM     14  C   UNL     1      25.287  -2.969  59.526  1.00  0.00    -0.000 C 
BRANCH  14  15
ATOM     15  C   UNL     1      23.847  -3.051  59.001  1.00  0.00    -0.000 C 
BRANCH  15  16
ATOM     16  C   UNL     1      22.903  -3.609  60.077  1.00  0.00    -0.000 C 
BRANCH  16  17
ATOM     17  C   UNL     1      21.736  -2.658  60.403  1.00  0.00    -0.000 C 
BRANCH  17  18
ATOM     18  C   UNL     1      21.931  -1.802  61.668  1.00  0.00    -0.000 C 
BRANCH  18  19
ATOM     19  C   UNL     1      21.566  -0.326  61.454  1.00  0.00    -0.003 C 
ATOM     20  C   UNL     1      21.083   0.316  62.752  1.00  0.00     0.004 C 
ENDBRANCH  18  19
ENDBRANCH  17  18
ENDBRANCH  16  17
ENDBRANCH  15  16
ENDBRANCH  14  15
ENDBRANCH  13  14
ENDBRANCH  12  13
ENDBRANCH   1  12
TORSDOF 16
ENDMDL
MODEL 2
REMARK VINA RESULT:    -5.908      3.417      6.907
REMARK INTER + INTRA:         -13.652
REMARK INTER:                 -11.669
REMARK INTRA:                  -1.983
REMARK UNBOUND:                -2.219
REMARK SMILES CCCCCCCCCCCCCCCCCC(=O)[O-]
REMARK SMILES IDX 10 1 11 2 12 3 13 4 14 5 15 6 16 7 17 8 18 9 19 10 20 11
REMARK SMILES IDX 9 12 8 13 7 14 6 15 5 16 4 17 3 18 2 19 1 20
REMARK H PARENT
REMARK Flexibility Score: inf
ROOT
ATOM      1  C   UNL     1      25.866   0.782  62.667  1.00  0.00     0.000 C 
ENDROOT
BRANCH   1   2
ATOM      2  C   UNL     1      25.880  -0.470  61.772  1.00  0.00     0.000 C 
BRANCH   2   3
ATOM      3  C   UNL     1      24.829  -1.540  62.122  1.00  0.00     0.000 C 
BRANCH   3   4
ATOM      4  C   UNL     1      25.358  -2.975  61.967  1.00  0.00     0.000 C 
BRANCH   4   5
ATOM      5  C   UNL     1      24.210  -3.991  61.972  1.00  0.00     0.000 C 
BRANCH   5   6
ATOM      6  C   UNL     1      22.889  -3.326  61.562  1.00  0.00     0.000 C 
BRANCH   6   7
ATOM      7  C   UNL     1      22.458  -3.689  60.132  1.00  0.00     0.006 C 
BRANCH   7   8
ATOM      8  C   UNL     1      22.601  -2.515  59.155  1.00  0.00     0.053 C 
BRANCH   8   9
ATOM      9  C   UNL     1      23.652  -2.812  58.132  1.00  0.00     0.041 C 
ATOM     10  O   UNL     1      24.841  -3.024  58.488  1.00  0.00    -0.550 OA
ATOM     11  O   UNL     1      23.309  -2.904  56.789  1.00  0.00    -0.550 OA
ENDBRANCH   8   9
ENDBRANCH   7   8
ENDBRANCH   6   7
ENDBRANCH   5   6
ENDBRANCH   4   5
ENDBRANCH   3   4
ENDBRANCH   2   3
ENDBRANCH   1   2
BRANCH   1  12
ATOM     12  C   UNL     1      25.079   1.952  62.055  1.00  0.00     0.000 C 
BRANCH  12  13
ATOM     13  C   UNL     1      25.547   3.325  62.573  1.00  0.00    -0.000 C 
BRANCH  13  14
ATOM     14  C   UNL     1      24.566   4.035  63.522  1.00  0.00    -0.000 C 
BRANCH  14  15
ATOM     15  C   UNL     1      24.594   3.468  64.949  1.00  0.00    -0.000 C 
BRANCH  15  16
ATOM     16  C   UNL     1      23.210   2.942  65.357  1.00  0.00    -0.000 C 
BRANCH  16  17
ATOM     17  C   UNL     1      22.142   3.156  64.268  1.00  0.00    -0.000 C 
BRANCH  17  18
ATOM     18  C   UNL     1      21.390   1.883  63.838  1.00  0.00    -0.000 C 
BRANCH  18  19
ATOM     19  C   UNL     1      21.761   1.418  62.423  1.00  0.00    -0.003 C 
ATOM     20  C   UNL     1      21.294  -0.014  62.174  1.00  0.00     0.004 C 
ENDBRANCH  18  19
ENDBRANCH  17  18
ENDBRANCH  16  17
ENDBRANCH  15  16
ENDBRANCH  14  15
ENDBRANCH  13  14
ENDBRANCH  12  13
ENDBRANCH   1  12
TORSDOF 16
ENDMDL
MODEL 3
REMARK VINA RESULT:    -5.743      1.205      3.404
REMARK INTER + INTRA:         -13.333
REMARK INTER:                 -11.473
REMARK INTRA:                  -1.860
REMARK UNBOUND:                -2.219
REMARK SMILES CCCCCCCCCCCCCCCCCC(=O)[O-]
REMARK SMILES IDX 10 1 11 2 12 3 13 4 14 5 15 6 16 7 17 8 18 9 19 10 20 11
REMARK SMILES IDX 9 12 8 13 7 14 6 15 5 16 4 17 3 18 2 19 1 20
REMARK H PARENT
REMARK Flexibility Score: inf
ROOT
ATOM      1  C   UNL     1      21.405  -0.893  61.434  1.00  0.00     0.000 C 
ENDROOT
BRANCH   1   2
ATOM      2  C   UNL     1      21.029   0.034  62.605  1.00  0.00     0.000 C 
BRANCH   2   3
ATOM      3  C   UNL     1      21.761   1.388  62.632  1.00  0.00     0.000 C 
BRANCH   3   4
ATOM      4  C   UNL     1      21.479   2.198  63.908  1.00  0.00     0.000 C 
BRANCH   4   5
ATOM      5  C   UNL     1      22.198   3.552  63.874  1.00  0.00     0.000 C 
BRANCH   5   6
ATOM      6  C   UNL     1      23.215   3.602  62.726  1.00  0.00     0.000 C 
BRANCH   6   7
ATOM      7  C   UNL     1      24.578   4.163  63.162  1.00  0.00     0.006 C 
BRANCH   7   8
ATOM      8  C   UNL     1      25.679   3.095  63.180  1.00  0.00     0.053 C 
BRANCH   8   9
ATOM      9  C   UNL     1      25.974   2.672  64.585  1.00  0.00     0.041 C 
ATOM     10  O   UNL     1      26.987   1.968  64.835  1.00  0.00    -0.550 OA
ATOM     11  O   UNL     1      25.157   3.097  65.625  1.00  0.00    -0.550 OA
ENDBRANCH   8   9
ENDBRANCH   7   8
ENDBRANCH   6   7
ENDBRANCH   5   6
ENDBRANCH   4   5
ENDBRANCH   3   4
ENDBRANCH   2   3
ENDBRANCH   1   2
BRANCH   1  12
ATOM     12  C   UNL     1      22.280  -2.082  61.864  1.00  0.00     0.000 C 
BRANCH  12  13
ATOM     13  C   UNL     1      22.360  -3.184  60.792  1.00  0.00    -0.000 C 
BRANCH  13  14
ATOM     14  C   UNL     1      22.434  -2.681  59.339  1.00  0.00    -0.000 C 
BRANCH  14  15
ATOM     15  C   UNL     1      23.763  -3.023  58.652  1.00  0.00    -0.000 C 
BRANCH  15  16
ATOM     16  C   UNL     1      24.714  -3.739  59.622  1.00  0.00    -0.000 C 
BRANCH  16  17
ATOM     17  C   UNL     1      26.120  -3.110  59.659  1.00  0.00    -0.000 C 
BRANCH  17  18
ATOM     18  C   UNL     1      26.177  -1.679  60.224  1.00  0.00    -0.000 C 
BRANCH  18  19
ATOM     19  C   UNL     1      25.814  -1.609  61.713  1.00  0.00    -0.003 C 
ATOM     20  C   UNL     1      25.402  -0.195  62.113  1.00  0.00     0.004 C 
ENDBRANCH  18  19
ENDBRANCH  17  18
ENDBRANCH  16  17
ENDBRANCH  15  16
ENDBRANCH  14  15
ENDBRANCH  13  14
ENDBRANCH  12  13
ENDBRANCH   1  12
TORSDOF 16
ENDMDL
MODEL 4
REMARK VINA RESULT:    -5.739      0.790      1.917
REMARK INTER + INTRA:         -13.326
REMARK INTER:                 -11.405
REMARK INTRA:                  -1.921
REMARK UNBOUND:                -2.219
REMARK SMILES CCCCCCCCCCCCCCCCCC(=O)[O-]
REMARK SMILES IDX 10 1 11 2 12 3 13 4 14 5 15 6 16 7 17 8 18 9 19 10 20 11
REMARK SMILES IDX 9 12 8 13 7 14 6 15 5 16 4 17 3 18 2 19 1 20
REMARK H PARENT
REMARK Flexibility Score: inf
ROOT
ATOM      1  C   UNL     1      25.729  -3.284  61.029  1.00  0.00     0.000 C 
ENDROOT
BRANCH   1   2
ATOM      2  C   UNL     1      25.442  -2.157  62.038  1.00  0.00     0.000 C 
BRANCH   2   3
ATOM      3  C   UNL     1      26.000  -0.774  61.655  1.00  0.00     0.000 C 
BRANCH   3   4
ATOM      4  C   UNL     1      25.114   0.386  62.137  1.00  0.00     0.000 C 
BRANCH   4   5
ATOM      5  C   UNL     1      25.940   1.440  62.884  1.00  0.00     0.000 C 
BRANCH   5   6
ATOM      6  C   UNL     1      25.571   2.855  62.417  1.00  0.00     0.000 C 
BRANCH   6   7
ATOM      7  C   UNL     1      24.102   3.208  62.695  1.00  0.00     0.006 C 
BRANCH   7   8
ATOM      8  C   UNL     1      23.929   4.086  63.942  1.00  0.00     0.053 C 
BRANCH   8   9
ATOM      9  C   UNL     1      23.958   3.245  65.180  1.00  0.00     0.041 C 
ATOM     10  O   UNL     1      25.027   3.115  65.833  1.00  0.00    -0.550 OA
ATOM     11  O   UNL     1      22.793   2.644  65.639  1.00  0.00    -0.550 OA
ENDBRANCH   8   9
ENDBRANCH   7   8
ENDBRANCH   6   7
ENDBRANCH   5   6
ENDBRANCH   4   5
ENDBRANCH   3   4
ENDBRANCH   2   3
ENDBRANCH   1   2
BRANCH   1  12
ATOM     12  C   UNL     1      26.072  -2.762  59.624  1.00  0.00     0.000 C 
BRANCH  12  13
ATOM     13  C   UNL     1      24.971  -3.058  58.590  1.00  0.00    -0.000 C 
BRANCH  13  14
ATOM     14  C   UNL     1      23.586  -3.373  59.180  1.00  0.00    -0.000 C 
BRANCH  14  15
ATOM     15  C   UNL     1      22.481  -2.450  58.648  1.00  0.00    -0.000 C 
BRANCH  15  16
ATOM     16  C   UNL     1      21.467  -2.115  59.752  1.00  0.00    -0.000 C 
BRANCH  16  17
ATOM     17  C   UNL     1      21.978  -2.466  61.162  1.00  0.00    -0.000 C 
BRANCH  17  18
ATOM     18  C   UNL     1      21.811  -1.350  62.209  1.00  0.00    -0.000 C 
BRANCH  18  19
ATOM     19  C   UNL     1      21.118  -0.101  61.649  1.00  0.00    -0.003 C 
ATOM     20  C   UNL     1      21.405   1.124  62.514  1.00  0.00     0.004 C 
ENDBRANCH  18  19
ENDBRANCH  17  18
ENDBRANCH  16  17
ENDBRANCH  15  16
ENDBRANCH  14  15
ENDBRANCH  13  14
ENDBRANCH  12  13
ENDBRANCH   1  12
TORSDOF 16
ENDMDL
MODEL 5
REMARK VINA RESULT:    -5.738      1.079      1.691
REMARK INTER + INTRA:         -13.323
REMARK INTER:                 -11.341
REMARK INTRA:                  -1.982
REMARK UNBOUND:                -2.219
REMARK SMILES CCCCCCCCCCCCCCCCCC(=O)[O-]
REMARK SMILES IDX 10 1 11 2 12 3 13 4 14 5 15 6 16 7 17 8 18 9 19 10 20 11
REMARK SMILES IDX 9 12 8 13 7 14 6 15 5 16 4 17 3 18 2 19 1 20
REMARK H PARENT
REMARK Flexibility Score: inf
ROOT
ATOM      1  C   UNL     1      25.269  -0.277  62.330  1.00  0.00     0.000 C 
ENDROOT
BRANCH   1   2
ATOM      2  C   UNL     1      26.223   0.885  62.660  1.00  0.00     0.000 C 
BRANCH   2   3
ATOM      3  C   UNL     1      25.732   1.846  63.759  1.00  0.00     0.000 C 
BRANCH   3   4
ATOM      4  C   UNL     1      25.647   3.306  63.285  1.00  0.00     0.000 C 
BRANCH   4   5
ATOM      5  C   UNL     1      25.058   3.396  61.872  1.00  0.00     0.000 C 
BRANCH   5   6
ATOM      6  C   UNL     1      23.596   3.864  61.918  1.00  0.00     0.000 C 
BRANCH   6   7
ATOM      7  C   UNL     1      22.676   2.870  62.643  1.00  0.00     0.006 C 
BRANCH   7   8
ATOM      8  C   UNL     1      22.026   3.472  63.897  1.00  0.00     0.053 C 
BRANCH   8   9
ATOM      9  C   UNL     1      22.008   2.470  65.008  1.00  0.00     0.041 C 
ATOM     10  O   UNL     1      22.860   2.534  65.933  1.00  0.00    -0.550 OA
ATOM     11  O   UNL     1      21.020   1.494  65.049  1.00  0.00    -0.550 OA
ENDBRANCH   8   9
ENDBRANCH   7   8
ENDBRANCH   6   7
ENDBRANCH   5   6
ENDBRANCH   4   5
ENDBRANCH   3   4
ENDBRANCH   2   3
ENDBRANCH   1   2
BRANCH   1  12
ATOM     12  C   UNL     1      25.872  -1.291  61.344  1.00  0.00     0.000 C 
BRANCH  12  13
ATOM     13  C   UNL     1      25.613  -2.752  61.754  1.00  0.00    -0.000 C 
BRANCH  13  14
ATOM     14  C   UNL     1      25.093  -3.665  60.630  1.00  0.00    -0.000 C 
BRANCH  14  15
ATOM     15  C   UNL     1      25.017  -2.959  59.269  1.00  0.00    -0.000 C 
BRANCH  15  16
ATOM     16  C   UNL     1      23.593  -3.021  58.698  1.00  0.00    -0.000 C 
BRANCH  16  17
ATOM     17  C   UNL     1      22.541  -3.418  59.750  1.00  0.00    -0.000 C 
BRANCH  17  18
ATOM     18  C   UNL     1      21.658  -2.262  60.254  1.00  0.00    -0.000 C 
BRANCH  18  19
ATOM     19  C   UNL     1      21.998  -1.830  61.687  1.00  0.00    -0.003 C 
ATOM     20  C   UNL     1      21.352  -0.489  62.026  1.00  0.00     0.004 C 
ENDBRANCH  18  19
ENDBRANCH  17  18
ENDBRANCH  16  17
ENDBRANCH  15  16
ENDBRANCH  14  15
ENDBRANCH  13  14
ENDBRANCH  12  13
ENDBRANCH   1  12
TORSDOF 16
ENDMDL
MODEL 6
REMARK VINA RESULT:    -5.728      1.937      2.856
REMARK INTER + INTRA:         -13.305
REMARK INTER:                 -11.168
REMARK INTRA:                  -2.137
REMARK UNBOUND:                -2.219
REMARK SMILES CCCCCCCCCCCCCCCCCC(=O)[O-]
REMARK SMILES IDX 10 1 11 2 12 3 13 4 14 5 15 6 16 7 17 8 18 9 19 10 20 11
REMARK SMILES IDX 9 12 8 13 7 14 6 15 5 16 4 17 3 18 2 19 1 20
REMARK H PARENT
REMARK Flexibility Score: inf
ROOT
ATOM      1  C   UNL     1      25.141   0.384  61.995  1.00  0.00     0.000 C 
ENDROOT
BRANCH   1   2
ATOM      2  C   UNL     1      25.941   1.392  62.840  1.00  0.00     0.000 C 
BRANCH   2   3
ATOM      3  C   UNL     1      25.710   2.873  62.490  1.00  0.00     0.000 C 
BRANCH   3   4
ATOM      4  C   UNL     1      25.201   3.700  63.681  1.00  0.00     0.000 C 
BRANCH   4   5
ATOM      5  C   UNL     1      25.115   2.845  64.952  1.00  0.00     0.000 C 
BRANCH   5   6
ATOM      6  C   UNL     1      23.739   2.989  65.616  1.00  0.00     0.000 C 
BRANCH   6   7
ATOM      7  C   UNL     1      22.631   3.353  64.615  1.00  0.00     0.006 C 
BRANCH   7   8
ATOM      8  C   UNL     1      21.599   2.230  64.440  1.00  0.00     0.053 C 
BRANCH   8   9
ATOM      9  C   UNL     1      21.674   1.665  63.056  1.00  0.00     0.041 C 
ATOM     10  O   UNL     1      22.331   2.261  62.162  1.00  0.00    -0.550 OA
ATOM     11  O   UNL     1      21.058   0.454  62.766  1.00  0.00    -0.550 OA
ENDBRANCH   8   9
ENDBRANCH   7   8
ENDBRANCH   6   7
ENDBRANCH   5   6
ENDBRANCH   4   5
ENDBRANCH   3   4
ENDBRANCH   2   3
ENDBRANCH   1   2
BRANCH   1  12
ATOM     12  C   UNL     1      25.805  -1.000  61.918  1.00  0.00     0.000 C 
BRANCH  12  13
ATOM     13  C   UNL     1      26.021  -1.481  60.471  1.00  0.00    -0.000 C 
BRANCH  13  14
ATOM     14  C   UNL     1      25.954  -3.005  60.272  1.00  0.00    -0.000 C 
BRANCH  14  15
ATOM     15  C   UNL     1      25.283  -3.410  58.952  1.00  0.00    -0.000 C 
BRANCH  15  16
ATOM     16  C   UNL     1      23.816  -2.957  58.921  1.00  0.00    -0.000 C 
BRANCH  16  17
ATOM     17  C   UNL     1      22.972  -3.579  60.048  1.00  0.00    -0.000 C 
BRANCH  17  18
ATOM     18  C   UNL     1      22.295  -2.565  60.988  1.00  0.00    -0.000 C 
BRANCH  18  19
ATOM     19  C   UNL     1      22.779  -2.678  62.440  1.00  0.00    -0.003 C 
ATOM     20  C   UNL     1      23.600  -3.947  62.650  1.00  0.00     0.004 C 
ENDBRANCH  18  19
ENDBRANCH  17  18
ENDBRANCH  16  17
ENDBRANCH  15  16
ENDBRANCH  14  15
ENDBRANCH  13  14
ENDBRANCH  12  13
ENDBRANCH   1  12
TORSDOF 16
ENDMDL
MODEL 7
REMARK VINA RESULT:    -5.718      2.440      6.374
REMARK INTER + INTRA:         -13.286
REMARK INTER:                 -11.338
REMARK INTRA:                  -1.948
REMARK UNBOUND:                -2.219
REMARK SMILES CCCCCCCCCCCCCCCCCC(=O)[O-]
REMARK SMILES IDX 10 1 11 2 12 3 13 4 14 5 15 6 16 7 17 8 18 9 19 10 20 11
REMARK SMILES IDX 9 12 8 13 7 14 6 15 5 16 4 17 3 18 2 19 1 20
REMARK H PARENT
REMARK Flexibility Score: inf
ROOT
ATOM      1  C   UNL     1      25.112  -0.115  62.390  1.00  0.00     0.000 C 
ENDROOT
BRANCH   1   2
ATOM      2  C   UNL     1      25.839  -1.217  61.598  1.00  0.00     0.000 C 
BRANCH   2   3
ATOM      3  C   UNL     1      25.447  -2.659  61.968  1.00  0.00     0.000 C 
BRANCH   3   4
ATOM      4  C   UNL     1      25.567  -3.636  60.787  1.00  0.00     0.000 C 
BRANCH   4   5
ATOM      5  C   UNL     1      24.190  -3.948  60.187  1.00  0.00     0.000 C 
BRANCH   5   6
ATOM      6  C   UNL     1      23.905  -3.048  58.976  1.00  0.00     0.000 C 
BRANCH   6   7
ATOM      7  C   UNL     1      22.459  -2.528  58.950  1.00  0.00     0.006 C 
BRANCH   7   8
ATOM      8  C   UNL     1      21.677  -2.889  60.220  1.00  0.00     0.053 C 
BRANCH   8   9
ATOM      9  C   UNL     1      21.626  -1.718  61.151  1.00  0.00     0.041 C 
ATOM     10  O   UNL     1      22.122  -1.805  62.305  1.00  0.00    -0.550 OA
ATOM     11  O   UNL     1      21.074  -0.516  60.728  1.00  0.00    -0.550 OA
ENDBRANCH   8   9
ENDBRANCH   7   8
ENDBRANCH   6   7
ENDBRANCH   5   6
ENDBRANCH   4   5
ENDBRANCH   3   4
ENDBRANCH   2   3
ENDBRANCH   1   2
BRANCH   1  12
ATOM     12  C   UNL     1      25.878   1.218  62.412  1.00  0.00     0.000 C 
BRANCH  12  13
ATOM     13  C   UNL     1      26.296   1.645  63.831  1.00  0.00    -0.000 C 
BRANCH  13  14
ATOM     14  C   UNL     1      25.811   3.039  64.265  1.00  0.00    -0.000 C 
BRANCH  14  15
ATOM     15  C   UNL     1      25.145   3.040  65.648  1.00  0.00    -0.000 C 
BRANCH  15  16
ATOM     16  C   UNL     1      23.615   3.030  65.519  1.00  0.00    -0.000 C 
BRANCH  16  17
ATOM     17  C   UNL     1      23.118   3.686  64.217  1.00  0.00    -0.000 C 
BRANCH  17  18
ATOM     18  C   UNL     1      22.159   2.821  63.378  1.00  0.00    -0.000 C 
BRANCH  18  19
ATOM     19  C   UNL     1      22.672   2.568  61.954  1.00  0.00    -0.003 C 
ATOM     20  C   UNL     1      23.502   3.746  61.450  1.00  0.00     0.004 C 
ENDBRANCH  18  19
ENDBRANCH  17  18
ENDBRANCH  16  17
ENDBRANCH  15  16
ENDBRANCH  14  15
ENDBRANCH  13  14
ENDBRANCH  12  13
ENDBRANCH   1  12
TORSDOF 16
ENDMDL
MODEL 8
REMARK VINA RESULT:    -5.600      2.967      7.174
REMARK INTER + INTRA:         -13.057
REMARK INTER:                 -11.191
REMARK INTRA:                  -1.866
REMARK UNBOUND:                -2.219
REMARK SMILES CCCCCCCCCCCCCCCCCC(=O)[O-]
REMARK SMILES IDX 10 1 11 2 12 3 13 4 14 5 15 6 16 7 17 8 18 9 19 10 20 11
REMARK SMILES IDX 9 12 8 13 7 14 6 15 5 16 4 17 3 18 2 19 1 20
REMARK H PARENT
REMARK Flexibility Score: inf
ROOT
ATOM      1  C   UNL     1      20.961   0.707  62.131  1.00  0.00     0.000 C 
ENDROOT
BRANCH   1   2
ATOM      2  C   UNL     1      21.369  -0.760  62.357  1.00  0.00     0.000 C 
BRANCH   2   3
ATOM      3  C   UNL     1      22.372  -1.328  61.336  1.00  0.00     0.000 C 
BRANCH   3   4
ATOM      4  C   UNL     1      22.058  -2.776  60.928  1.00  0.00     0.000 C 
BRANCH   4   5
ATOM      5  C   UNL     1      23.062  -3.756  61.548  1.00  0.00     0.000 C 
BRANCH   5   6
ATOM      6  C   UNL     1      24.010  -3.030  62.512  1.00  0.00     0.000 C 
BRANCH   6   7
ATOM      7  C   UNL     1      25.481  -3.112  62.075  1.00  0.00     0.006 C 
BRANCH   7   8
ATOM      8  C   UNL     1      25.660  -3.831  60.731  1.00  0.00     0.053 C 
BRANCH   8   9
ATOM      9  C   UNL     1      25.880  -2.837  59.633  1.00  0.00     0.041 C 
ATOM     10  O   UNL     1      25.130  -2.833  58.622  1.00  0.00    -0.550 OA
ATOM     11  O   UNL     1      26.884  -1.884  59.749  1.00  0.00    -0.550 OA
ENDBRANCH   8   9
ENDBRANCH   7   8
ENDBRANCH   6   7
ENDBRANCH   5   6
ENDBRANCH   4   5
ENDBRANCH   3   4
ENDBRANCH   2   3
ENDBRANCH   1   2
BRANCH   1  12
ATOM     12  C   UNL     1      22.015   1.710  62.628  1.00  0.00     0.000 C 
BRANCH  12  13
ATOM     13  C   UNL     1      21.587   2.440  63.914  1.00  0.00    -0.000 C 
BRANCH  13  14
ATOM     14  C   UNL     1      22.547   3.544  64.391  1.00  0.00    -0.000 C 
BRANCH  14  15
ATOM     15  C   UNL     1      23.626   3.027  65.353  1.00  0.00    -0.000 C 
BRANCH  15  16
ATOM     16  C   UNL     1      25.030   3.397  64.852  1.00  0.00    -0.000 C 
BRANCH  16  17
ATOM     17  C   UNL     1      25.028   3.943  63.412  1.00  0.00    -0.000 C 
BRANCH  17  18
ATOM     18  C   UNL     1      25.472   2.937  62.335  1.00  0.00    -0.000 C 
BRANCH  18  19
ATOM     19  C   UNL     1      26.071   1.653  62.925  1.00  0.00    -0.003 C 
ATOM     20  C   UNL     1      25.498   0.414  62.242  1.00  0.00     0.004 C 
ENDBRANCH  18  19
ENDBRANCH  17  18
ENDBRANCH  16  17
ENDBRANCH  15  16
ENDBRANCH  14  15
ENDBRANCH  13  14
ENDBRANCH  12  13
ENDBRANCH   1  12
TORSDOF 16
ENDMDL
MODEL 9
REMARK VINA RESULT:    -5.510      2.580      6.370
REMARK INTER + INTRA:         -12.883
REMARK INTER:                 -11.377
REMARK INTRA:                  -1.507
REMARK UNBOUND:                -2.219
REMARK SMILES CCCCCCCCCCCCCCCCCC(=O)[O-]
REMARK SMILES IDX 10 1 11 2 12 3 13 4 14 5 15 6 16 7 17 8 18 9 19 10 20 11
REMARK SMILES IDX 9 12 8 13 7 14 6 15 5 16 4 17 3 18 2 19 1 20
REMARK H PARENT
REMARK Flexibility Score: inf
ROOT
ATOM      1  C   UNL     1      25.941   0.426  62.379  1.00  0.00     0.000 C 
ENDROOT
BRANCH   1   2
ATOM      2  C   UNL     1      25.299  -0.772  61.658  1.00  0.00     0.000 C 
BRANCH   2   3
ATOM      3  C   UNL     1      26.276  -1.885  61.234  1.00  0.00     0.000 C 
BRANCH   3   4
ATOM      4  C   UNL     1      26.316  -2.101  59.713  1.00  0.00     0.000 C 
BRANCH   4   5
ATOM      5  C   UNL     1      25.542  -3.363  59.313  1.00  0.00     0.000 C 
BRANCH   5   6
ATOM      6  C   UNL     1      24.265  -3.000  58.541  1.00  0.00     0.000 C 
BRANCH   6   7
ATOM      7  C   UNL     1      23.001  -3.080  59.411  1.00  0.00     0.006 C 
BRANCH   7   8
ATOM      8  C   UNL     1      23.165  -4.028  60.607  1.00  0.00     0.053 C 
BRANCH   8   9
ATOM      9  C   UNL     1      22.948  -3.290  61.891  1.00  0.00     0.041 C 
ATOM     10  O   UNL     1      22.183  -2.290  61.926  1.00  0.00    -0.550 OA
ATOM     11  O   UNL     1      23.551  -3.736  63.060  1.00  0.00    -0.550 OA
ENDBRANCH   8   9
ENDBRANCH   7   8
ENDBRANCH   6   7
ENDBRANCH   5   6
ENDBRANCH   4   5
ENDBRANCH   3   4
ENDBRANCH   2   3
ENDBRANCH   1   2
BRANCH   1  12
ATOM     12  C   UNL     1      25.074   1.695  62.331  1.00  0.00     0.000 C 
BRANCH  12  13
ATOM     13  C   UNL     1      25.845   2.964  62.739  1.00  0.00    -0.000 C 
BRANCH  13  14
ATOM     14  C   UNL     1      25.228   3.759  63.903  1.00  0.00    -0.000 C 
BRANCH  14  15
ATOM     15  C   UNL     1      25.064   2.924  65.181  1.00  0.00    -0.000 C 
BRANCH  15  16
ATOM     16  C   UNL     1      23.620   2.995  65.700  1.00  0.00    -0.000 C 
BRANCH  16  17
ATOM     17  C   UNL     1      22.604   3.358  64.601  1.00  0.00    -0.000 C 
BRANCH  17  18
ATOM     18  C   UNL     1      21.666   2.213  64.179  1.00  0.00    -0.000 C 
BRANCH  18  19
ATOM     19  C   UNL     1      21.804   1.841  62.697  1.00  0.00    -0.003 C 
ATOM     20  C   UNL     1      20.889   0.674  62.334  1.00  0.00     0.004 C 
ENDBRANCH  18  19
ENDBRANCH  17  18
ENDBRANCH  16  17
ENDBRANCH  15  16
ENDBRANCH  14  15
ENDBRANCH  13  14
ENDBRANCH  12  13
ENDBRANCH   1  12
TORSDOF 16
ENDMDL
