MODEL 1
REMARK VINA RESULT:    -5.582      0.000      0.000
REMARK INTER + INTRA:          -6.002
REMARK INTER:                  -5.908
REMARK INTRA:                  -0.094
REMARK UNBOUND:                -0.094
REMARK SMILES C=C(C)[C@@H]1CC=C(C)C(=O)C1
REMARK SMILES IDX 8 1 7 2 6 3 5 4 4 5 11 6 9 7 10 8 2 9 1 10 3 11
REMARK H PARENT
REMARK Flexibility Score: inf
ROOT
ATOM      1  C   UNL     1      -3.005 -11.366  26.137  1.00  0.00     0.048 C 
ATOM      2  C   UNL     1      -3.579 -11.881  27.428  1.00  0.00    -0.012 C 
ATOM      3  C   UNL     1      -3.451 -11.156  28.552  1.00  0.00    -0.019 C 
ATOM      4  C   UNL     1      -4.022 -11.616  29.868  1.00  0.00     0.036 C 
ATOM      5  C   UNL     1      -3.995 -13.152  29.978  1.00  0.00     0.025 C 
ATOM      6  C   UNL     1      -4.716 -13.787  28.775  1.00  0.00     0.089 C 
ATOM      7  C   UNL     1      -4.173 -13.240  27.483  1.00  0.00     0.158 C 
ATOM      8  O   UNL     1      -4.262 -13.937  26.437  1.00  0.00    -0.295 OA
ENDROOT
BRANCH   5   9
ATOM      9  C   UNL     1      -4.578 -13.632  31.300  1.00  0.00    -0.077 C 
ATOM     10  C   UNL     1      -4.233 -13.057  32.467  1.00  0.00     0.008 C 
ATOM     11  C   UNL     1      -5.561 -14.774  31.323  1.00  0.00     0.039 C 
ENDBRANCH   5   9
TORSDOF 1
ENDMDL
MODEL 2
REMARK VINA RESULT:    -5.566      3.095      4.832
REMARK INTER + INTRA:          -5.986
REMARK INTER:                  -5.892
REMARK INTRA:                  -0.094
REMARK UNBOUND:                -0.094
REMARK SMILES C=C(C)[C@@H]1CC=C(C)C(=O)C1
REMARK SMILES IDX 8 1 7 2 6 3 5 4 4 5 11 6 9 7 10 8 2 9 1 10 3 11
REMARK H PARENT
REMARK Flexibility Score: inf
ROOT
ATOM      1  C   UNL     1       0.332 -12.417  31.760  1.00  0.00     0.048 C 
ATOM      2  C   UNL     1      -0.697 -12.579  30.675  1.00  0.00    -0.012 C 
ATOM      3  C   UNL     1      -0.561 -13.560  29.767  1.00  0.00    -0.019 C 
ATOM      4  C   UNL     1      -1.570 -13.779  28.670  1.00  0.00     0.036 C 
ATOM      5  C   UNL     1      -2.202 -12.447  28.224  1.00  0.00     0.025 C 
ATOM      6  C   UNL     1      -2.804 -11.709  29.434  1.00  0.00     0.089 C 
ATOM      7  C   UNL     1      -1.789 -11.584  30.536  1.00  0.00     0.158 C 
ATOM      8  O   UNL     1      -1.898 -10.642  31.367  1.00  0.00    -0.295 OA
ENDROOT
BRANCH   5   9
ATOM      9  C   UNL     1      -3.232 -12.655  27.122  1.00  0.00    -0.077 C 
ATOM     10  C   UNL     1      -4.037 -13.732  27.111  1.00  0.00     0.008 C 
ATOM     11  C   UNL     1      -3.367 -11.644  26.012  1.00  0.00     0.039 C 
ENDBRANCH   5   9
TORSDOF 1
ENDMDL
MODEL 3
REMARK VINA RESULT:    -5.475      2.459      2.880
REMARK INTER + INTRA:          -5.889
REMARK INTER:                  -5.796
REMARK INTRA:                  -0.093
REMARK UNBOUND:                -0.094
REMARK SMILES C=C(C)[C@@H]1CC=C(C)C(=O)C1
REMARK SMILES IDX 8 1 7 2 6 3 5 4 4 5 11 6 9 7 10 8 2 9 1 10 3 11
REMARK H PARENT
REMARK Flexibility Score: inf
ROOT
ATOM      1  C   UNL     1       0.162 -14.332  28.378  1.00  0.00     0.048 C 
ATOM      2  C   UNL     1      -0.889 -13.793  29.309  1.00  0.00    -0.012 C 
ATOM      3  C   UNL     1      -0.587 -13.571  30.600  1.00  0.00    -0.019 C 
ATOM      4  C   UNL     1      -1.595 -13.015  31.571  1.00  0.00     0.036 C 
ATOM      5  C   UNL     1      -3.020 -13.482  31.220  1.00  0.00     0.025 C 
ATOM      6  C   UNL     1      -3.355 -13.122  29.760  1.00  0.00     0.089 C 
ATOM      7  C   UNL     1      -2.284 -13.624  28.832  1.00  0.00     0.158 C 
ATOM      8  O   UNL     1      -2.577 -13.865  27.630  1.00  0.00    -0.295 OA
ENDROOT
BRANCH   5   9
ATOM      9  C   UNL     1      -4.051 -12.919  32.188  1.00  0.00    -0.077 C 
ATOM     10  C   UNL     1      -4.299 -11.598  32.257  1.00  0.00     0.008 C 
ATOM     11  C   UNL     1      -4.819 -13.844  33.098  1.00  0.00     0.039 C 
ENDBRANCH   5   9
TORSDOF 1
ENDMDL
MODEL 4
REMARK VINA RESULT:    -5.338      2.771      4.067
REMARK INTER + INTRA:          -5.744
REMARK INTER:                  -5.651
REMARK INTRA:                  -0.094
REMARK UNBOUND:                -0.094
REMARK SMILES C=C(C)[C@@H]1CC=C(C)C(=O)C1
REMARK SMILES IDX 8 1 7 2 6 3 5 4 4 5 11 6 9 7 10 8 2 9 1 10 3 11
REMARK H PARENT
REMARK Flexibility Score: inf
ROOT
ATOM      1  C   UNL     1      -0.020 -12.183  31.823  1.00  0.00     0.048 C 
ATOM      2  C   UNL     1      -1.090 -12.354  30.780  1.00  0.00    -0.012 C 
ATOM      3  C   UNL     1      -2.375 -12.118  31.097  1.00  0.00    -0.019 C 
ATOM      4  C   UNL     1      -3.484 -12.256  30.087  1.00  0.00     0.036 C 
ATOM      5  C   UNL     1      -3.170 -13.367  29.066  1.00  0.00     0.025 C 
ATOM      6  C   UNL     1      -1.804 -13.112  28.403  1.00  0.00     0.089 C 
ATOM      7  C   UNL     1      -0.741 -12.898  29.444  1.00  0.00     0.158 C 
ATOM      8  O   UNL     1       0.459 -13.153  29.157  1.00  0.00    -0.295 OA
ENDROOT
BRANCH   5   9
ATOM      9  C   UNL     1      -4.279 -13.510  28.033  1.00  0.00    -0.077 C 
ATOM     10  C   UNL     1      -5.563 -13.669  28.402  1.00  0.00     0.008 C 
ATOM     11  C   UNL     1      -3.951 -13.479  26.562  1.00  0.00     0.039 C 
ENDBRANCH   5   9
TORSDOF 1
ENDMDL
MODEL 5
REMARK VINA RESULT:    -5.308      2.161      4.383
REMARK INTER + INTRA:          -5.713
REMARK INTER:                  -5.618
REMARK INTRA:                  -0.094
REMARK UNBOUND:                -0.094
REMARK SMILES C=C(C)[C@@H]1CC=C(C)C(=O)C1
REMARK SMILES IDX 8 1 7 2 6 3 5 4 4 5 11 6 9 7 10 8 2 9 1 10 3 11
REMARK H PARENT
REMARK Flexibility Score: inf
ROOT
ATOM      1  C   UNL     1      -4.478 -11.010  32.548  1.00  0.00     0.048 C 
ATOM      2  C   UNL     1      -4.118 -11.377  31.134  1.00  0.00    -0.012 C 
ATOM      3  C   UNL     1      -4.459 -10.558  30.125  1.00  0.00    -0.019 C 
ATOM      4  C   UNL     1      -4.108 -10.866  28.693  1.00  0.00     0.036 C 
ATOM      5  C   UNL     1      -4.104 -12.386  28.438  1.00  0.00     0.025 C 
ATOM      6  C   UNL     1      -3.167 -13.093  29.435  1.00  0.00     0.089 C 
ATOM      7  C   UNL     1      -3.499 -12.694  30.847  1.00  0.00     0.158 C 
ATOM      8  O   UNL     1      -3.210 -13.479  31.790  1.00  0.00    -0.295 OA
ENDROOT
BRANCH   5   9
ATOM      9  C   UNL     1      -3.741 -12.713  26.996  1.00  0.00    -0.077 C 
ATOM     10  C   UNL     1      -3.952 -13.938  26.482  1.00  0.00     0.008 C 
ATOM     11  C   UNL     1      -3.128 -11.657  26.112  1.00  0.00     0.039 C 
ENDBRANCH   5   9
TORSDOF 1
ENDMDL
MODEL 6
REMARK VINA RESULT:    -5.136      2.229      3.759
REMARK INTER + INTRA:          -5.530
REMARK INTER:                  -5.435
REMARK INTRA:                  -0.095
REMARK UNBOUND:                -0.094
REMARK SMILES C=C(C)[C@@H]1CC=C(C)C(=O)C1
REMARK SMILES IDX 8 1 7 2 6 3 5 4 4 5 11 6 9 7 10 8 2 9 1 10 3 11
REMARK H PARENT
REMARK Flexibility Score: inf
ROOT
ATOM      1  C   UNL     1      -2.394 -10.118  31.099  1.00  0.00     0.048 C 
ATOM      2  C   UNL     1      -2.980 -11.217  30.257  1.00  0.00    -0.012 C 
ATOM      3  C   UNL     1      -2.938 -11.125  28.916  1.00  0.00    -0.019 C 
ATOM      4  C   UNL     1      -3.493 -12.205  28.025  1.00  0.00     0.036 C 
ATOM      5  C   UNL     1      -4.707 -12.893  28.677  1.00  0.00     0.025 C 
ATOM      6  C   UNL     1      -4.334 -13.423  30.073  1.00  0.00     0.089 C 
ATOM      7  C   UNL     1      -3.709 -12.336  30.903  1.00  0.00     0.158 C 
ATOM      8  O   UNL     1      -3.780 -12.406  32.159  1.00  0.00    -0.295 OA
ENDROOT
BRANCH   5   9
ATOM      9  C   UNL     1      -5.273 -13.994  27.790  1.00  0.00    -0.077 C 
ATOM     10  C   UNL     1      -6.407 -14.640  28.114  1.00  0.00     0.008 C 
ATOM     11  C   UNL     1      -4.560 -14.384  26.520  1.00  0.00     0.039 C 
ENDBRANCH   5   9
TORSDOF 1
ENDMDL
MODEL 7
REMARK VINA RESULT:    -5.095      2.396      3.568
REMARK INTER + INTRA:          -5.487
REMARK INTER:                  -5.393
REMARK INTRA:                  -0.095
REMARK UNBOUND:                -0.094
REMARK SMILES C=C(C)[C@@H]1CC=C(C)C(=O)C1
REMARK SMILES IDX 8 1 7 2 6 3 5 4 4 5 11 6 9 7 10 8 2 9 1 10 3 11
REMARK H PARENT
REMARK Flexibility Score: inf
ROOT
ATOM      1  C   UNL     1      -6.385 -14.520  28.315  1.00  0.00     0.048 C 
ATOM      2  C   UNL     1      -5.253 -13.786  28.980  1.00  0.00    -0.012 C 
ATOM      3  C   UNL     1      -4.435 -13.013  28.246  1.00  0.00    -0.019 C 
ATOM      4  C   UNL     1      -3.298 -12.242  28.863  1.00  0.00     0.036 C 
ATOM      5  C   UNL     1      -2.709 -12.995  30.071  1.00  0.00     0.025 C 
ATOM      6  C   UNL     1      -3.816 -13.319  31.091  1.00  0.00     0.089 C 
ATOM      7  C   UNL     1      -4.968 -14.015  30.419  1.00  0.00     0.158 C 
ATOM      8  O   UNL     1      -5.713 -14.768  31.102  1.00  0.00    -0.295 OA
ENDROOT
BRANCH   5   9
ATOM      9  C   UNL     1      -1.564 -12.222  30.712  1.00  0.00    -0.077 C 
ATOM     10  C   UNL     1      -1.503 -10.880  30.646  1.00  0.00     0.008 C 
ATOM     11  C   UNL     1      -0.466 -12.958  31.436  1.00  0.00     0.039 C 
ENDBRANCH   5   9
TORSDOF 1
ENDMDL
MODEL 8
REMARK VINA RESULT:    -5.028      2.137      4.748
REMARK INTER + INTRA:          -5.417
REMARK INTER:                  -5.327
REMARK INTRA:                  -0.089
REMARK UNBOUND:                -0.094
REMARK SMILES C=C(C)[C@@H]1CC=C(C)C(=O)C1
REMARK SMILES IDX 8 1 7 2 6 3 5 4 4 5 11 6 9 7 10 8 2 9 1 10 3 11
REMARK H PARENT
REMARK Flexibility Score: inf
ROOT
ATOM      1  C   UNL     1      -4.017 -14.645  32.749  1.00  0.00     0.048 C 
ATOM      2  C   UNL     1      -3.915 -13.977  31.406  1.00  0.00    -0.012 C 
ATOM      3  C   UNL     1      -4.970 -13.988  30.573  1.00  0.00    -0.019 C 
ATOM      4  C   UNL     1      -4.929 -13.319  29.224  1.00  0.00     0.036 C 
ATOM      5  C   UNL     1      -3.514 -13.376  28.619  1.00  0.00     0.025 C 
ATOM      6  C   UNL     1      -2.489 -12.778  29.599  1.00  0.00     0.089 C 
ATOM      7  C   UNL     1      -2.617 -13.415  30.955  1.00  0.00     0.158 C 
ATOM      8  O   UNL     1      -1.617 -13.435  31.722  1.00  0.00    -0.295 OA
ENDROOT
BRANCH   5   9
ATOM      9  C   UNL     1      -3.456 -12.695  27.259  1.00  0.00    -0.077 C 
ATOM     10  C   UNL     1      -3.797 -13.348  26.133  1.00  0.00     0.008 C 
ATOM     11  C   UNL     1      -3.007 -11.259  27.150  1.00  0.00     0.039 C 
ENDBRANCH   5   9
TORSDOF 1
ENDMDL
MODEL 9
REMARK VINA RESULT:    -5.022      1.899      2.366
REMARK INTER + INTRA:          -5.410
REMARK INTER:                  -5.315
REMARK INTRA:                  -0.095
REMARK UNBOUND:                -0.094
REMARK SMILES C=C(C)[C@@H]1CC=C(C)C(=O)C1
REMARK SMILES IDX 8 1 7 2 6 3 5 4 4 5 11 6 9 7 10 8 2 9 1 10 3 11
REMARK H PARENT
REMARK Flexibility Score: inf
ROOT
ATOM      1  C   UNL     1      -3.389 -11.396  25.731  1.00  0.00     0.048 C 
ATOM      2  C   UNL     1      -3.107 -11.754  27.164  1.00  0.00    -0.012 C 
ATOM      3  C   UNL     1      -2.704 -10.802  28.023  1.00  0.00    -0.019 C 
ATOM      4  C   UNL     1      -2.426 -11.102  29.473  1.00  0.00     0.036 C 
ATOM      5  C   UNL     1      -1.878 -12.531  29.649  1.00  0.00     0.025 C 
ATOM      6  C   UNL     1      -2.839 -13.553  29.015  1.00  0.00     0.089 C 
ATOM      7  C   UNL     1      -3.156 -13.173  27.595  1.00  0.00     0.158 C 
ATOM      8  O   UNL     1      -3.500 -14.072  26.782  1.00  0.00    -0.295 OA
ENDROOT
BRANCH   5   9
ATOM      9  C   UNL     1      -1.601 -12.851  31.112  1.00  0.00    -0.077 C 
ATOM     10  C   UNL     1      -2.461 -13.582  31.843  1.00  0.00     0.008 C 
ATOM     11  C   UNL     1      -0.343 -12.345  31.772  1.00  0.00     0.039 C 
ENDBRANCH   5   9
TORSDOF 1
ENDMDL
