MODEL 1
REMARK VINA RESULT:    -5.557      0.000      0.000
REMARK INTER + INTRA:          -9.815
REMARK INTER:                  -8.319
REMARK INTRA:                  -1.496
REMARK UNBOUND:                -1.496
REMARK SMILES COC(=O)C1=CO[C@@H](O[C@@H]2O[C@@H](CO)[C@@H](O)[C@H](O)[C@H]2O)[C@@H]2C(CO)=CC[C@@H]12
REMARK SMILES IDX 9 1 8 2 5 3 6 4 27 5 7 6 21 7 26 8 22 9 25 10 3 11 4 12 2 13
REMARK SMILES IDX 1 14 23 15 24 16 10 18 19 19 11 20 17 21 12 22 15 23 20 24
REMARK SMILES IDX 18 26 13 28 14 29 16 31
REMARK H PARENT 24 17 20 25 18 27 14 30 16 32
REMARK Flexibility Score: inf
ROOT
ATOM      1  O   UNL     1      19.750  38.965  35.898  1.00  0.00    -0.310 OA
ENDROOT
BRANCH   1   2
ATOM      2  C   UNL     1      19.886  38.410  37.193  1.00  0.00     0.316 C 
ATOM      3  C   UNL     1      21.204  38.612  39.802  1.00  0.00     0.076 C 
ATOM      4  C   UNL     1      20.244  39.494  39.448  1.00  0.00     0.202 C 
ATOM      5  C   UNL     1      21.425  37.455  38.858  1.00  0.00     0.047 C 
ATOM      6  O   UNL     1      19.592  39.411  38.194  1.00  0.00    -0.471 OA
ATOM      7  C   UNL     1      21.332  37.953  37.418  1.00  0.00     0.094 C 
ATOM      8  C   UNL     1      22.729  36.662  38.866  1.00  0.00     0.037 C 
ATOM      9  C   UNL     1      21.922  36.804  36.663  1.00  0.00    -0.039 C 
ATOM     10  C   UNL     1      22.752  36.129  37.464  1.00  0.00    -0.024 C 
BRANCH   3  11
ATOM     11  C   UNL     1      21.847  38.679  41.134  1.00  0.00     0.337 C 
ATOM     12  O   UNL     1      21.307  38.113  42.125  1.00  0.00    -0.246 OA
BRANCH  11  13
ATOM     13  O   UNL     1      23.058  39.359  41.295  1.00  0.00    -0.466 OA
ATOM     14  C   UNL     1      23.125  40.735  41.649  1.00  0.00     0.282 C 
ENDBRANCH  11  13
ENDBRANCH   3  11
BRANCH   9  15
ATOM     15  C   UNL     1      21.903  36.624  35.174  1.00  0.00     0.187 C 
BRANCH  15  16
ATOM     16  O   UNL     1      21.993  37.876  34.554  1.00  0.00    -0.392 OA
ATOM     17  H   UNL     1      22.874  37.893  34.097  1.00  0.00     0.211 HD
ENDBRANCH  15  16
ENDBRANCH   9  15
ENDBRANCH   1   2
BRANCH   1  18
ATOM     18  C   UNL     1      18.384  39.010  35.504  1.00  0.00     0.286 C 
ATOM     19  C   UNL     1      18.122  40.261  34.633  1.00  0.00     0.202 C 
ATOM     20  O   UNL     1      17.981  37.821  34.835  1.00  0.00    -0.341 OA
ATOM     21  C   UNL     1      18.756  40.114  33.237  1.00  0.00     0.179 C 
ATOM     22  C   UNL     1      18.710  37.626  33.635  1.00  0.00     0.178 C 
ATOM     23  C   UNL     1      18.402  38.745  32.619  1.00  0.00     0.177 C 
BRANCH  19  24
ATOM     24  O   UNL     1      16.739  40.464  34.494  1.00  0.00    -0.385 OA
ATOM     25  H   UNL     1      16.580  40.741  33.553  1.00  0.00     0.211 HD
ENDBRANCH  19  24
BRANCH  21  26
ATOM     26  O   UNL     1      20.150  40.255  33.340  1.00  0.00    -0.387 OA
ATOM     27  H   UNL     1      20.322  40.864  34.106  1.00  0.00     0.211 HD
ENDBRANCH  21  26
BRANCH  22  28
ATOM     28  C   UNL     1      18.367  36.247  33.062  1.00  0.00     0.191 C 
BRANCH  28  29
ATOM     29  O   UNL     1      17.003  35.988  33.250  1.00  0.00    -0.394 OA
ATOM     30  H   UNL     1      16.568  36.152  32.373  1.00  0.00     0.210 HD
ENDBRANCH  28  29
ENDBRANCH  22  28
BRANCH  23  31
ATOM     31  O   UNL     1      17.042  38.711  32.268  1.00  0.00    -0.387 OA
ATOM     32  H   UNL     1      16.597  39.445  32.768  1.00  0.00     0.211 HD
ENDBRANCH  23  31
ENDBRANCH   1  18
TORSDOF 11
ENDMDL
MODEL 2
REMARK VINA RESULT:    -5.535      1.737      6.930
REMARK INTER + INTRA:          -9.781
REMARK INTER:                  -8.330
REMARK INTRA:                  -1.451
REMARK UNBOUND:                -1.496
REMARK SMILES COC(=O)C1=CO[C@@H](O[C@@H]2O[C@@H](CO)[C@@H](O)[C@H](O)[C@H]2O)[C@@H]2C(CO)=CC[C@@H]12
REMARK SMILES IDX 9 1 8 2 5 3 6 4 27 5 7 6 21 7 26 8 22 9 25 10 3 11 4 12 2 13
REMARK SMILES IDX 1 14 23 15 24 16 10 18 19 19 11 20 17 21 12 22 15 23 20 24
REMARK SMILES IDX 18 26 13 28 14 29 16 31
REMARK H PARENT 24 17 20 25 18 27 14 30 16 32
REMARK Flexibility Score: inf
ROOT
ATOM      1  O   UNL     1      20.734  39.346  36.713  1.00  0.00    -0.310 OA
ENDROOT
BRANCH   1   2
ATOM      2  C   UNL     1      20.158  39.648  35.456  1.00  0.00     0.316 C 
ATOM      3  C   UNL     1      17.717  39.644  33.834  1.00  0.00     0.076 C 
ATOM      4  C   UNL     1      17.875  40.539  34.834  1.00  0.00     0.202 C 
ATOM      5  C   UNL     1      18.917  38.785  33.514  1.00  0.00     0.047 C 
ATOM      6  O   UNL     1      19.048  40.559  35.626  1.00  0.00    -0.471 OA
ATOM      7  C   UNL     1      19.601  38.370  34.814  1.00  0.00     0.094 C 
ATOM      8  C   UNL     1      18.769  37.463  32.766  1.00  0.00     0.037 C 
ATOM      9  C   UNL     1      20.499  37.269  34.345  1.00  0.00    -0.039 C 
ATOM     10  C   UNL     1      19.988  36.727  33.235  1.00  0.00    -0.024 C 
BRANCH   3  11
ATOM     11  C   UNL     1      16.508  39.661  32.980  1.00  0.00     0.337 C 
ATOM     12  O   UNL     1      16.593  40.009  31.770  1.00  0.00    -0.246 OA
BRANCH  11  13
ATOM     13  O   UNL     1      15.271  39.282  33.510  1.00  0.00    -0.466 OA
ATOM     14  C   UNL     1      14.084  40.038  33.308  1.00  0.00     0.282 C 
ENDBRANCH  11  13
ENDBRANCH   3  11
BRANCH   9  15
ATOM     15  C   UNL     1      21.584  36.614  35.146  1.00  0.00     0.187 C 
BRANCH  15  16
ATOM     16  O   UNL     1      22.593  37.548  35.411  1.00  0.00    -0.392 OA
ATOM     17  H   UNL     1      22.437  37.865  36.339  1.00  0.00     0.211 HD
ENDBRANCH  15  16
ENDBRANCH   9  15
ENDBRANCH   1   2
BRANCH   1  18
ATOM     18  C   UNL     1      19.728  39.145  37.699  1.00  0.00     0.286 C 
ATOM     19  C   UNL     1      19.787  37.693  38.231  1.00  0.00     0.202 C 
ATOM     20  O   UNL     1      19.824  40.088  38.760  1.00  0.00    -0.341 OA
ATOM     21  C   UNL     1      21.025  37.473  39.121  1.00  0.00     0.179 C 
ATOM     22  C   UNL     1      21.056  39.971  39.452  1.00  0.00     0.178 C 
ATOM     23  C   UNL     1      21.158  38.605  40.161  1.00  0.00     0.177 C 
BRANCH  19  24
ATOM     24  O   UNL     1      18.628  37.410  38.973  1.00  0.00    -0.385 OA
ATOM     25  H   UNL     1      18.095  36.763  38.441  1.00  0.00     0.211 HD
ENDBRANCH  19  24
BRANCH  21  26
ATOM     26  O   UNL     1      22.174  37.416  38.315  1.00  0.00    -0.387 OA
ATOM     27  H   UNL     1      21.868  37.470  37.372  1.00  0.00     0.211 HD
ENDBRANCH  21  26
BRANCH  22  28
ATOM     28  C   UNL     1      21.177  41.125  40.452  1.00  0.00     0.191 C 
BRANCH  28  29
ATOM     29  O   UNL     1      21.787  40.665  41.627  1.00  0.00    -0.394 OA
ATOM     30  H   UNL     1      21.991  39.705  41.473  1.00  0.00     0.210 HD
ENDBRANCH  28  29
ENDBRANCH  22  28
BRANCH  23  31
ATOM     31  O   UNL     1      20.145  38.492  41.129  1.00  0.00    -0.387 OA
ATOM     32  H   UNL     1      20.597  38.415  42.010  1.00  0.00     0.211 HD
ENDBRANCH  23  31
ENDBRANCH   1  18
TORSDOF 11
ENDMDL
MODEL 3
REMARK VINA RESULT:    -5.411      2.172      7.262
REMARK INTER + INTRA:          -9.596
REMARK INTER:                  -8.481
REMARK INTRA:                  -1.115
REMARK UNBOUND:                -1.496
REMARK SMILES COC(=O)C1=CO[C@@H](O[C@@H]2O[C@@H](CO)[C@@H](O)[C@H](O)[C@H]2O)[C@@H]2C(CO)=CC[C@@H]12
REMARK SMILES IDX 9 1 8 2 5 3 6 4 27 5 7 6 21 7 26 8 22 9 25 10 3 11 4 12 2 13
REMARK SMILES IDX 1 14 23 15 24 16 10 18 19 19 11 20 17 21 12 22 15 23 20 24
REMARK SMILES IDX 18 26 13 28 14 29 16 31
REMARK H PARENT 24 17 20 25 18 27 14 30 16 32
REMARK Flexibility Score: inf
ROOT
ATOM      1  O   UNL     1      19.249  38.702  35.509  1.00  0.00    -0.310 OA
ENDROOT
BRANCH   1   2
ATOM      2  C   UNL     1      18.808  39.557  34.471  1.00  0.00     0.316 C 
ATOM      3  C   UNL     1      16.737  40.083  32.465  1.00  0.00     0.076 C 
ATOM      4  C   UNL     1      16.489  40.289  33.778  1.00  0.00     0.202 C 
ATOM      5  C   UNL     1      18.160  39.735  32.103  1.00  0.00     0.047 C 
ATOM      6  O   UNL     1      17.478  40.044  34.761  1.00  0.00    -0.471 OA
ATOM      7  C   UNL     1      18.728  38.780  33.150  1.00  0.00     0.094 C 
ATOM      8  C   UNL     1      18.497  39.041  30.785  1.00  0.00     0.037 C 
ATOM      9  C   UNL     1      19.955  38.270  32.461  1.00  0.00    -0.039 C 
ATOM     10  C   UNL     1      19.786  38.361  31.138  1.00  0.00    -0.024 C 
BRANCH   3  11
ATOM     11  C   UNL     1      15.712  40.387  31.440  1.00  0.00     0.337 C 
ATOM     12  O   UNL     1      16.014  40.350  30.215  1.00  0.00    -0.246 OA
BRANCH  11  13
ATOM     13  O   UNL     1      14.407  40.706  31.827  1.00  0.00    -0.466 OA
ATOM     14  C   UNL     1      13.342  40.844  30.896  1.00  0.00     0.282 C 
ENDBRANCH  11  13
ENDBRANCH   3  11
BRANCH   9  15
ATOM     15  C   UNL     1      21.044  37.454  33.088  1.00  0.00     0.187 C 
BRANCH  15  16
ATOM     16  O   UNL     1      20.480  36.530  33.976  1.00  0.00    -0.392 OA
ATOM     17  H   UNL     1      20.150  37.058  34.749  1.00  0.00     0.211 HD
ENDBRANCH  15  16
ENDBRANCH   9  15
ENDBRANCH   1   2
BRANCH   1  18
ATOM     18  C   UNL     1      20.320  39.295  36.235  1.00  0.00     0.286 C 
ATOM     19  C   UNL     1      19.790  39.923  37.545  1.00  0.00     0.202 C 
ATOM     20  O   UNL     1      21.367  38.367  36.494  1.00  0.00    -0.341 OA
ATOM     21  C   UNL     1      19.395  38.841  38.566  1.00  0.00     0.179 C 
ATOM     22  C   UNL     1      20.921  37.288  37.297  1.00  0.00     0.178 C 
ATOM     23  C   UNL     1      20.510  37.783  38.699  1.00  0.00     0.177 C 
BRANCH  19  24
ATOM     24  O   UNL     1      20.774  40.752  38.108  1.00  0.00    -0.385 OA
ATOM     25  H   UNL     1      21.387  41.016  37.372  1.00  0.00     0.211 HD
ENDBRANCH  19  24
BRANCH  21  26
ATOM     26  O   UNL     1      18.195  38.233  38.161  1.00  0.00    -0.387 OA
ATOM     27  H   UNL     1      18.442  37.409  37.663  1.00  0.00     0.211 HD
ENDBRANCH  21  26
BRANCH  22  28
ATOM     28  C   UNL     1      22.034  36.238  37.385  1.00  0.00     0.191 C 
BRANCH  28  29
ATOM     29  O   UNL     1      22.435  35.871  36.093  1.00  0.00    -0.394 OA
ATOM     30  H   UNL     1      21.662  36.062  35.500  1.00  0.00     0.210 HD
ENDBRANCH  28  29
ENDBRANCH  22  28
BRANCH  23  31
ATOM     31  O   UNL     1      21.623  38.336  39.357  1.00  0.00    -0.387 OA
ATOM     32  H   UNL     1      21.854  39.173  38.876  1.00  0.00     0.211 HD
ENDBRANCH  23  31
ENDBRANCH   1  18
TORSDOF 11
ENDMDL
MODEL 4
REMARK VINA RESULT:    -5.308      2.340      7.675
REMARK INTER + INTRA:          -9.442
REMARK INTER:                  -8.201
REMARK INTRA:                  -1.242
REMARK UNBOUND:                -1.496
REMARK SMILES COC(=O)C1=CO[C@@H](O[C@@H]2O[C@@H](CO)[C@@H](O)[C@H](O)[C@H]2O)[C@@H]2C(CO)=CC[C@@H]12
REMARK SMILES IDX 9 1 8 2 5 3 6 4 27 5 7 6 21 7 26 8 22 9 25 10 3 11 4 12 2 13
REMARK SMILES IDX 1 14 23 15 24 16 10 18 19 19 11 20 17 21 12 22 15 23 20 24
REMARK SMILES IDX 18 26 13 28 14 29 16 31
REMARK H PARENT 24 17 20 25 18 27 14 30 16 32
REMARK Flexibility Score: inf
ROOT
ATOM      1  O   UNL     1      20.692  37.658  35.207  1.00  0.00    -0.310 OA
ENDROOT
BRANCH   1   2
ATOM      2  C   UNL     1      20.167  37.016  34.060  1.00  0.00     0.316 C 
ATOM      3  C   UNL     1      19.586  37.241  31.196  1.00  0.00     0.076 C 
ATOM      4  C   UNL     1      20.859  37.104  31.630  1.00  0.00     0.202 C 
ATOM      5  C   UNL     1      18.508  37.106  32.244  1.00  0.00     0.047 C 
ATOM      6  O   UNL     1      21.159  36.990  33.009  1.00  0.00    -0.471 OA
ATOM      7  C   UNL     1      18.961  37.800  33.526  1.00  0.00     0.094 C 
ATOM      8  C   UNL     1      17.109  37.674  32.021  1.00  0.00     0.037 C 
ATOM      9  C   UNL     1      17.678  37.889  34.291  1.00  0.00    -0.039 C 
ATOM     10  C   UNL     1      16.653  37.884  33.434  1.00  0.00    -0.024 C 
BRANCH   3  11
ATOM     11  C   UNL     1      19.277  37.312  29.750  1.00  0.00     0.337 C 
ATOM     12  O   UNL     1      19.456  36.302  29.015  1.00  0.00    -0.246 OA
BRANCH  11  13
ATOM     13  O   UNL     1      18.778  38.496  29.197  1.00  0.00    -0.466 OA
ATOM     14  C   UNL     1      17.709  38.516  28.260  1.00  0.00     0.282 C 
ENDBRANCH  11  13
ENDBRANCH   3  11
BRANCH   9  15
ATOM     15  C   UNL     1      17.534  38.288  35.729  1.00  0.00     0.187 C 
BRANCH  15  16
ATOM     16  O   UNL     1      18.232  39.482  35.952  1.00  0.00    -0.392 OA
ATOM     17  H   UNL     1      18.264  39.948  35.076  1.00  0.00     0.211 HD
ENDBRANCH  15  16
ENDBRANCH   9  15
ENDBRANCH   1   2
BRANCH   1  18
ATOM     18  C   UNL     1      20.906  36.724  36.258  1.00  0.00     0.286 C 
ATOM     19  C   UNL     1      22.421  36.558  36.522  1.00  0.00     0.202 C 
ATOM     20  O   UNL     1      20.212  37.088  37.446  1.00  0.00    -0.341 OA
ATOM     21  C   UNL     1      23.011  37.806  37.204  1.00  0.00     0.179 C 
ATOM     22  C   UNL     1      20.663  38.333  37.952  1.00  0.00     0.178 C 
ATOM     23  C   UNL     1      22.137  38.241  38.399  1.00  0.00     0.177 C 
BRANCH  19  24
ATOM     24  O   UNL     1      22.643  35.437  37.340  1.00  0.00    -0.385 OA
ATOM     25  H   UNL     1      22.000  34.737  37.052  1.00  0.00     0.211 HD
ENDBRANCH  19  24
BRANCH  21  26
ATOM     26  O   UNL     1      23.105  38.849  36.266  1.00  0.00    -0.387 OA
ATOM     27  H   UNL     1      24.065  38.931  36.022  1.00  0.00     0.211 HD
ENDBRANCH  21  26
BRANCH  22  28
ATOM     28  C   UNL     1      19.758  38.757  39.114  1.00  0.00     0.191 C 
BRANCH  28  29
ATOM     29  O   UNL     1      18.614  37.948  39.135  1.00  0.00    -0.394 OA
ATOM     30  H   UNL     1      18.895  37.084  39.536  1.00  0.00     0.210 HD
ENDBRANCH  28  29
ENDBRANCH  22  28
BRANCH  23  31
ATOM     31  O   UNL     1      22.261  37.315  39.449  1.00  0.00    -0.387 OA
ATOM     32  H   UNL     1      21.469  37.437  40.035  1.00  0.00     0.211 HD
ENDBRANCH  23  31
ENDBRANCH   1  18
TORSDOF 11
ENDMDL
MODEL 5
REMARK VINA RESULT:    -5.283      3.683      9.072
REMARK INTER + INTRA:          -9.404
REMARK INTER:                  -7.854
REMARK INTRA:                  -1.550
REMARK UNBOUND:                -1.496
REMARK SMILES COC(=O)C1=CO[C@@H](O[C@@H]2O[C@@H](CO)[C@@H](O)[C@H](O)[C@H]2O)[C@@H]2C(CO)=CC[C@@H]12
REMARK SMILES IDX 9 1 8 2 5 3 6 4 27 5 7 6 21 7 26 8 22 9 25 10 3 11 4 12 2 13
REMARK SMILES IDX 1 14 23 15 24 16 10 18 19 19 11 20 17 21 12 22 15 23 20 24
REMARK SMILES IDX 18 26 13 28 14 29 16 31
REMARK H PARENT 24 17 20 25 18 27 14 30 16 32
REMARK Flexibility Score: inf
ROOT
ATOM      1  O   UNL     1      17.757  38.680  32.103  1.00  0.00    -0.310 OA
ENDROOT
BRANCH   1   2
ATOM      2  C   UNL     1      17.641  39.387  30.882  1.00  0.00     0.316 C 
ATOM      3  C   UNL     1      16.004  39.883  28.503  1.00  0.00     0.076 C 
ATOM      4  C   UNL     1      15.634  40.376  29.706  1.00  0.00     0.202 C 
ATOM      5  C   UNL     1      17.360  39.224  28.442  1.00  0.00     0.047 C 
ATOM      6  O   UNL     1      16.414  40.150  30.866  1.00  0.00    -0.471 OA
ATOM      7  C   UNL     1      17.578  38.400  29.709  1.00  0.00     0.094 C 
ATOM      8  C   UNL     1      17.717  38.243  27.328  1.00  0.00     0.037 C 
ATOM      9  C   UNL     1      18.753  37.557  29.324  1.00  0.00    -0.039 C 
ATOM     10  C   UNL     1      18.781  37.423  27.994  1.00  0.00    -0.024 C 
BRANCH   3  11
ATOM     11  C   UNL     1      15.207  40.164  27.287  1.00  0.00     0.337 C 
ATOM     12  O   UNL     1      15.523  41.125  26.532  1.00  0.00    -0.246 OA
BRANCH  11  13
ATOM     13  O   UNL     1      14.109  39.359  26.968  1.00  0.00    -0.466 OA
ATOM     14  C   UNL     1      14.197  38.260  26.071  1.00  0.00     0.282 C 
ENDBRANCH  11  13
ENDBRANCH   3  11
BRANCH   9  15
ATOM     15  C   UNL     1      19.560  36.694  30.246  1.00  0.00     0.187 C 
BRANCH  15  16
ATOM     16  O   UNL     1      20.476  37.490  30.944  1.00  0.00    -0.392 OA
ATOM     17  H   UNL     1      20.534  37.105  31.857  1.00  0.00     0.211 HD
ENDBRANCH  15  16
ENDBRANCH   9  15
ENDBRANCH   1   2
BRANCH   1  18
ATOM     18  C   UNL     1      18.344  39.497  33.109  1.00  0.00     0.286 C 
ATOM     19  C   UNL     1      17.346  39.708  34.272  1.00  0.00     0.202 C 
ATOM     20  O   UNL     1      19.577  38.964  33.578  1.00  0.00    -0.341 OA
ATOM     21  C   UNL     1      17.168  38.421  35.098  1.00  0.00     0.179 C 
ATOM     22  C   UNL     1      19.400  37.694  34.182  1.00  0.00     0.178 C 
ATOM     23  C   UNL     1      18.539  37.809  35.456  1.00  0.00     0.177 C 
BRANCH  19  24
ATOM     24  O   UNL     1      17.803  40.737  35.111  1.00  0.00    -0.385 OA
ATOM     25  H   UNL     1      17.040  40.999  35.691  1.00  0.00     0.211 HD
ENDBRANCH  19  24
BRANCH  21  26
ATOM     26  O   UNL     1      16.400  37.499  34.367  1.00  0.00    -0.387 OA
ATOM     27  H   UNL     1      16.196  36.744  34.980  1.00  0.00     0.211 HD
ENDBRANCH  21  26
BRANCH  22  28
ATOM     28  C   UNL     1      20.775  37.095  34.495  1.00  0.00     0.191 C 
BRANCH  28  29
ATOM     29  O   UNL     1      21.200  36.307  33.418  1.00  0.00    -0.394 OA
ATOM     30  H   UNL     1      20.388  35.849  33.074  1.00  0.00     0.210 HD
ENDBRANCH  28  29
ENDBRANCH  22  28
BRANCH  23  31
ATOM     31  O   UNL     1      19.193  38.613  36.405  1.00  0.00    -0.387 OA
ATOM     32  H   UNL     1      18.909  39.549  36.234  1.00  0.00     0.211 HD
ENDBRANCH  23  31
ENDBRANCH   1  18
TORSDOF 11
ENDMDL
MODEL 6
REMARK VINA RESULT:    -5.226      2.277      7.200
REMARK INTER + INTRA:          -9.320
REMARK INTER:                  -8.312
REMARK INTRA:                  -1.008
REMARK UNBOUND:                -1.496
REMARK SMILES COC(=O)C1=CO[C@@H](O[C@@H]2O[C@@H](CO)[C@@H](O)[C@H](O)[C@H]2O)[C@@H]2C(CO)=CC[C@@H]12
REMARK SMILES IDX 9 1 8 2 5 3 6 4 27 5 7 6 21 7 26 8 22 9 25 10 3 11 4 12 2 13
REMARK SMILES IDX 1 14 23 15 24 16 10 18 19 19 11 20 17 21 12 22 15 23 20 24
REMARK SMILES IDX 18 26 13 28 14 29 16 31
REMARK H PARENT 24 17 20 25 18 27 14 30 16 32
REMARK Flexibility Score: inf
ROOT
ATOM      1  O   UNL     1      20.489  38.835  35.396  1.00  0.00    -0.310 OA
ENDROOT
BRANCH   1   2
ATOM      2  C   UNL     1      19.653  38.768  34.255  1.00  0.00     0.316 C 
ATOM      3  C   UNL     1      18.202  37.024  32.400  1.00  0.00     0.076 C 
ATOM      4  C   UNL     1      17.754  37.208  33.662  1.00  0.00     0.202 C 
ATOM      5  C   UNL     1      19.370  37.882  31.977  1.00  0.00     0.047 C 
ATOM      6  O   UNL     1      18.439  38.050  34.572  1.00  0.00    -0.471 OA
ATOM      7  C   UNL     1      20.360  37.995  33.134  1.00  0.00     0.094 C 
ATOM      8  C   UNL     1      20.259  37.488  30.800  1.00  0.00     0.037 C 
ATOM      9  C   UNL     1      21.571  38.538  32.444  1.00  0.00    -0.039 C 
ATOM     10  C   UNL     1      21.535  38.192  31.153  1.00  0.00    -0.024 C 
BRANCH   3  11
ATOM     11  C   UNL     1      17.454  36.180  31.441  1.00  0.00     0.337 C 
ATOM     12  O   UNL     1      16.749  35.221  31.860  1.00  0.00    -0.246 OA
BRANCH  11  13
ATOM     13  O   UNL     1      17.519  36.450  30.071  1.00  0.00    -0.466 OA
ATOM     14  C   UNL     1      17.151  35.498  29.081  1.00  0.00     0.282 C 
ENDBRANCH  11  13
ENDBRANCH   3  11
BRANCH   9  15
ATOM     15  C   UNL     1      22.807  39.060  33.113  1.00  0.00     0.187 C 
BRANCH  15  16
ATOM     16  O   UNL     1      22.499  40.239  33.803  1.00  0.00    -0.392 OA
ATOM     17  H   UNL     1      21.510  40.326  33.770  1.00  0.00     0.211 HD
ENDBRANCH  15  16
ENDBRANCH   9  15
ENDBRANCH   1   2
BRANCH   1  18
ATOM     18  C   UNL     1      20.697  37.542  35.950  1.00  0.00     0.286 C 
ATOM     19  C   UNL     1      22.211  37.234  36.029  1.00  0.00     0.202 C 
ATOM     20  O   UNL     1      20.074  37.398  37.222  1.00  0.00    -0.341 OA
ATOM     21  C   UNL     1      22.895  38.066  37.130  1.00  0.00     0.179 C 
ATOM     22  C   UNL     1      20.612  38.304  38.171  1.00  0.00     0.178 C 
ATOM     23  C   UNL     1      22.097  37.989  38.448  1.00  0.00     0.177 C 
BRANCH  19  24
ATOM     24  O   UNL     1      22.407  35.868  36.293  1.00  0.00    -0.385 OA
ATOM     25  H   UNL     1      23.171  35.571  35.732  1.00  0.00     0.211 HD
ENDBRANCH  19  24
BRANCH  21  26
ATOM     26  O   UNL     1      23.005  39.401  36.706  1.00  0.00    -0.387 OA
ATOM     27  H   UNL     1      23.068  39.384  35.714  1.00  0.00     0.211 HD
ENDBRANCH  21  26
BRANCH  22  28
ATOM     28  C   UNL     1      19.782  38.232  39.456  1.00  0.00     0.191 C 
BRANCH  28  29
ATOM     29  O   UNL     1      18.615  37.494  39.219  1.00  0.00    -0.394 OA
ATOM     30  H   UNL     1      18.911  36.565  39.030  1.00  0.00     0.210 HD
ENDBRANCH  28  29
ENDBRANCH  22  28
BRANCH  23  31
ATOM     31  O   UNL     1      22.216  36.706  39.010  1.00  0.00    -0.387 OA
ATOM     32  H   UNL     1      21.635  36.690  39.815  1.00  0.00     0.211 HD
ENDBRANCH  23  31
ENDBRANCH   1  18
TORSDOF 11
ENDMDL
MODEL 7
REMARK VINA RESULT:    -5.097      4.359      9.797
REMARK INTER + INTRA:          -9.125
REMARK INTER:                  -7.540
REMARK INTRA:                  -1.585
REMARK UNBOUND:                -1.496
REMARK SMILES COC(=O)C1=CO[C@@H](O[C@@H]2O[C@@H](CO)[C@@H](O)[C@H](O)[C@H]2O)[C@@H]2C(CO)=CC[C@@H]12
REMARK SMILES IDX 9 1 8 2 5 3 6 4 27 5 7 6 21 7 26 8 22 9 25 10 3 11 4 12 2 13
REMARK SMILES IDX 1 14 23 15 24 16 10 18 19 19 11 20 17 21 12 22 15 23 20 24
REMARK SMILES IDX 18 26 13 28 14 29 16 31
REMARK H PARENT 24 17 20 25 18 27 14 30 16 32
REMARK Flexibility Score: inf
ROOT
ATOM      1  O   UNL     1      18.417  38.191  31.016  1.00  0.00    -0.310 OA
ENDROOT
BRANCH   1   2
ATOM      2  C   UNL     1      17.997  37.418  29.908  1.00  0.00     0.316 C 
ATOM      3  C   UNL     1      18.675  36.422  27.237  1.00  0.00     0.076 C 
ATOM      4  C   UNL     1      19.281  35.914  28.333  1.00  0.00     0.202 C 
ATOM      5  C   UNL     1      17.543  37.387  27.489  1.00  0.00     0.047 C 
ATOM      6  O   UNL     1      18.964  36.380  29.632  1.00  0.00    -0.471 OA
ATOM      7  C   UNL     1      17.909  38.301  28.656  1.00  0.00     0.094 C 
ATOM      8  C   UNL     1      17.082  38.369  26.414  1.00  0.00     0.037 C 
ATOM      9  C   UNL     1      16.885  39.384  28.525  1.00  0.00    -0.039 C 
ATOM     10  C   UNL     1      16.479  39.455  27.254  1.00  0.00    -0.024 C 
BRANCH   3  11
ATOM     11  C   UNL     1      18.979  35.896  25.886  1.00  0.00     0.337 C 
ATOM     12  O   UNL     1      19.655  36.588  25.076  1.00  0.00    -0.246 OA
BRANCH  11  13
ATOM     13  O   UNL     1      18.526  34.628  25.510  1.00  0.00    -0.466 OA
ATOM     14  C   UNL     1      17.146  34.286  25.468  1.00  0.00     0.282 C 
ENDBRANCH  11  13
ENDBRANCH   3  11
BRANCH   9  15
ATOM     15  C   UNL     1      16.608  40.462  29.530  1.00  0.00     0.187 C 
BRANCH  15  16
ATOM     16  O   UNL     1      17.820  40.970  30.011  1.00  0.00    -0.392 OA
ATOM     17  H   UNL     1      17.627  41.332  30.915  1.00  0.00     0.211 HD
ENDBRANCH  15  16
ENDBRANCH   9  15
ENDBRANCH   1   2
BRANCH   1  18
ATOM     18  C   UNL     1      17.483  38.098  32.084  1.00  0.00     0.286 C 
ATOM     19  C   UNL     1      17.549  36.693  32.728  1.00  0.00     0.202 C 
ATOM     20  O   UNL     1      17.677  39.120  33.055  1.00  0.00    -0.341 OA
ATOM     21  C   UNL     1      18.843  36.510  33.542  1.00  0.00     0.179 C 
ATOM     22  C   UNL     1      18.954  39.025  33.664  1.00  0.00     0.178 C 
ATOM     23  C   UNL     1      19.078  37.717  34.473  1.00  0.00     0.177 C 
BRANCH  19  24
ATOM     24  O   UNL     1      16.442  36.503  33.572  1.00  0.00    -0.385 OA
ATOM     25  H   UNL     1      16.579  37.084  34.365  1.00  0.00     0.211 HD
ENDBRANCH  19  24
BRANCH  21  26
ATOM     26  O   UNL     1      19.929  36.356  32.663  1.00  0.00    -0.387 OA
ATOM     27  H   UNL     1      19.962  35.396  32.411  1.00  0.00     0.211 HD
ENDBRANCH  21  26
BRANCH  22  28
ATOM     28  C   UNL     1      19.175  40.251  34.556  1.00  0.00     0.191 C 
BRANCH  28  29
ATOM     29  O   UNL     1      17.983  40.566  35.221  1.00  0.00    -0.394 OA
ATOM     30  H   UNL     1      17.715  41.465  34.896  1.00  0.00     0.210 HD
ENDBRANCH  28  29
ENDBRANCH  22  28
BRANCH  23  31
ATOM     31  O   UNL     1      18.137  37.710  35.518  1.00  0.00    -0.387 OA
ATOM     32  H   UNL     1      18.507  38.280  36.242  1.00  0.00     0.211 HD
ENDBRANCH  23  31
ENDBRANCH   1  18
TORSDOF 11
ENDMDL
MODEL 8
REMARK VINA RESULT:    -5.032      2.013      4.015
REMARK INTER + INTRA:          -9.029
REMARK INTER:                  -7.467
REMARK INTRA:                  -1.562
REMARK UNBOUND:                -1.496
REMARK SMILES COC(=O)C1=CO[C@@H](O[C@@H]2O[C@@H](CO)[C@@H](O)[C@H](O)[C@H]2O)[C@@H]2C(CO)=CC[C@@H]12
REMARK SMILES IDX 9 1 8 2 5 3 6 4 27 5 7 6 21 7 26 8 22 9 25 10 3 11 4 12 2 13
REMARK SMILES IDX 1 14 23 15 24 16 10 18 19 19 11 20 17 21 12 22 15 23 20 24
REMARK SMILES IDX 18 26 13 28 14 29 16 31
REMARK H PARENT 24 17 20 25 18 27 14 30 16 32
REMARK Flexibility Score: inf
ROOT
ATOM      1  O   UNL     1      19.821  37.075  33.619  1.00  0.00    -0.310 OA
ENDROOT
BRANCH   1   2
ATOM      2  C   UNL     1      20.619  37.558  34.683  1.00  0.00     0.316 C 
ATOM      3  C   UNL     1      21.866  36.946  37.263  1.00  0.00     0.076 C 
ATOM      4  C   UNL     1      22.359  36.419  36.120  1.00  0.00     0.202 C 
ATOM      5  C   UNL     1      20.769  37.970  37.105  1.00  0.00     0.047 C 
ATOM      6  O   UNL     1      21.773  36.706  34.864  1.00  0.00    -0.471 OA
ATOM      7  C   UNL     1      19.821  37.526  35.993  1.00  0.00     0.094 C 
ATOM      8  C   UNL     1      19.820  38.302  38.254  1.00  0.00     0.037 C 
ATOM      9  C   UNL     1      18.646  38.424  36.221  1.00  0.00    -0.039 C 
ATOM     10  C   UNL     1      18.620  38.798  37.504  1.00  0.00    -0.024 C 
BRANCH   3  11
ATOM     11  C   UNL     1      22.514  36.678  38.567  1.00  0.00     0.337 C 
ATOM     12  O   UNL     1      22.524  35.508  39.040  1.00  0.00    -0.246 OA
BRANCH  11  13
ATOM     13  O   UNL     1      23.125  37.719  39.273  1.00  0.00    -0.466 OA
ATOM     14  C   UNL     1      23.123  37.790  40.693  1.00  0.00     0.282 C 
ENDBRANCH  11  13
ENDBRANCH   3  11
BRANCH   9  15
ATOM     15  C   UNL     1      17.477  38.599  35.299  1.00  0.00     0.187 C 
BRANCH  15  16
ATOM     16  O   UNL     1      17.092  37.351  34.796  1.00  0.00    -0.392 OA
ATOM     17  H   UNL     1      16.374  37.531  34.134  1.00  0.00     0.211 HD
ENDBRANCH  15  16
ENDBRANCH   9  15
ENDBRANCH   1   2
BRANCH   1  18
ATOM     18  C   UNL     1      20.349  37.481  32.362  1.00  0.00     0.286 C 
ATOM     19  C   UNL     1      19.770  36.599  31.231  1.00  0.00     0.202 C 
ATOM     20  O   UNL     1      20.120  38.862  32.108  1.00  0.00    -0.341 OA
ATOM     21  C   UNL     1      18.287  36.924  30.971  1.00  0.00     0.179 C 
ATOM     22  C   UNL     1      18.735  39.159  32.046  1.00  0.00     0.178 C 
ATOM     23  C   UNL     1      18.076  38.447  30.846  1.00  0.00     0.177 C 
BRANCH  19  24
ATOM     24  O   UNL     1      20.501  36.798  30.049  1.00  0.00    -0.385 OA
ATOM     25  H   UNL     1      21.444  36.962  30.315  1.00  0.00     0.211 HD
ENDBRANCH  19  24
BRANCH  21  26
ATOM     26  O   UNL     1      17.505  36.409  32.018  1.00  0.00    -0.387 OA
ATOM     27  H   UNL     1      17.271  37.175  32.607  1.00  0.00     0.211 HD
ENDBRANCH  21  26
BRANCH  22  28
ATOM     28  C   UNL     1      18.553  40.677  31.958  1.00  0.00     0.191 C 
BRANCH  28  29
ATOM     29  O   UNL     1      17.344  40.968  31.314  1.00  0.00    -0.394 OA
ATOM     30  H   UNL     1      16.731  41.305  32.019  1.00  0.00     0.210 HD
ENDBRANCH  28  29
ENDBRANCH  22  28
BRANCH  23  31
ATOM     31  O   UNL     1      18.637  38.916  29.646  1.00  0.00    -0.387 OA
ATOM     32  H   UNL     1      17.883  39.211  29.072  1.00  0.00     0.211 HD
ENDBRANCH  23  31
ENDBRANCH   1  18
TORSDOF 11
ENDMDL
MODEL 9
REMARK VINA RESULT:    -4.874     10.253     12.446
REMARK INTER + INTRA:          -8.793
REMARK INTER:                  -7.486
REMARK INTRA:                  -1.307
REMARK UNBOUND:                -1.496
REMARK SMILES COC(=O)C1=CO[C@@H](O[C@@H]2O[C@@H](CO)[C@@H](O)[C@H](O)[C@H]2O)[C@@H]2C(CO)=CC[C@@H]12
REMARK SMILES IDX 9 1 8 2 5 3 6 4 27 5 7 6 21 7 26 8 22 9 25 10 3 11 4 12 2 13
REMARK SMILES IDX 1 14 23 15 24 16 10 18 19 19 11 20 17 21 12 22 15 23 20 24
REMARK SMILES IDX 18 26 13 28 14 29 16 31
REMARK H PARENT 24 17 20 25 18 27 14 30 16 32
REMARK Flexibility Score: inf
ROOT
ATOM      1  O   UNL     1      15.859  33.996  26.010  1.00  0.00    -0.310 OA
ENDROOT
BRANCH   1   2
ATOM      2  C   UNL     1      15.543  35.167  26.741  1.00  0.00     0.316 C 
ATOM      3  C   UNL     1      15.225  38.079  26.654  1.00  0.00     0.076 C 
ATOM      4  C   UNL     1      14.308  37.271  26.077  1.00  0.00     0.202 C 
ATOM      5  C   UNL     1      16.300  37.395  27.463  1.00  0.00     0.047 C 
ATOM      6  O   UNL     1      14.442  35.862  26.112  1.00  0.00    -0.471 OA
ATOM      7  C   UNL     1      16.742  36.123  26.742  1.00  0.00     0.094 C 
ATOM      8  C   UNL     1      17.622  38.091  27.776  1.00  0.00     0.037 C 
ATOM      9  C   UNL     1      18.012  35.794  27.462  1.00  0.00    -0.039 C 
ATOM     10  C   UNL     1      18.528  36.913  27.980  1.00  0.00    -0.024 C 
BRANCH   3  11
ATOM     11  C   UNL     1      15.052  39.550  26.653  1.00  0.00     0.337 C 
ATOM     12  O   UNL     1      15.819  40.276  25.962  1.00  0.00    -0.246 OA
BRANCH  11  13
ATOM     13  O   UNL     1      14.034  40.135  27.411  1.00  0.00    -0.466 OA
ATOM     14  C   UNL     1      14.264  40.716  28.689  1.00  0.00     0.282 C 
ENDBRANCH  11  13
ENDBRANCH   3  11
BRANCH   9  15
ATOM     15  C   UNL     1      18.794  34.521  27.335  1.00  0.00     0.187 C 
BRANCH  15  16
ATOM     16  O   UNL     1      18.688  34.041  26.024  1.00  0.00    -0.392 OA
ATOM     17  H   UNL     1      19.455  33.424  25.895  1.00  0.00     0.211 HD
ENDBRANCH  15  16
ENDBRANCH   9  15
ENDBRANCH   1   2
BRANCH   1  18
ATOM     18  C   UNL     1      14.677  33.322  25.595  1.00  0.00     0.286 C 
ATOM     19  C   UNL     1      15.020  32.261  24.523  1.00  0.00     0.202 C 
ATOM     20  O   UNL     1      13.979  32.743  26.691  1.00  0.00    -0.341 OA
ATOM     21  C   UNL     1      15.761  31.060  25.140  1.00  0.00     0.179 C 
ATOM     22  C   UNL     1      14.762  31.759  27.346  1.00  0.00     0.178 C 
ATOM     23  C   UNL     1      15.036  30.564  26.408  1.00  0.00     0.177 C 
BRANCH  19  24
ATOM     24  O   UNL     1      13.841  31.808  23.906  1.00  0.00    -0.385 OA
ATOM     25  H   UNL     1      13.928  30.824  23.802  1.00  0.00     0.211 HD
ENDBRANCH  19  24
BRANCH  21  26
ATOM     26  O   UNL     1      17.079  31.435  25.449  1.00  0.00    -0.387 OA
ATOM     27  H   UNL     1      17.619  30.601  25.471  1.00  0.00     0.211 HD
ENDBRANCH  21  26
BRANCH  22  28
ATOM     28  C   UNL     1      14.036  31.309  28.618  1.00  0.00     0.191 C 
BRANCH  28  29
ATOM     29  O   UNL     1      14.130  29.917  28.744  1.00  0.00    -0.394 OA
ATOM     30  H   UNL     1      13.673  29.687  29.595  1.00  0.00     0.210 HD
ENDBRANCH  28  29
ENDBRANCH  22  28
BRANCH  23  31
ATOM     31  O   UNL     1      13.825  29.943  26.060  1.00  0.00    -0.387 OA
ATOM     32  H   UNL     1      14.037  28.994  25.855  1.00  0.00     0.211 HD
ENDBRANCH  23  31
ENDBRANCH   1  18
TORSDOF 11
ENDMDL
