MODEL 1
REMARK VINA RESULT:    -3.455      0.000      0.000
REMARK INTER + INTRA:          -5.669
REMARK INTER:                  -5.273
REMARK INTRA:                  -0.397
REMARK UNBOUND:                -0.397
REMARK SMILES CC1=CCC[C@@H](C)C(=O)C[C@H](C(C)C)C(=O)C1
REMARK SMILES IDX 8 1 9 2 6 3 7 4 5 5 4 6 3 7 2 8 1 9 10 11 11 12 15 13 16 14
REMARK SMILES IDX 17 15 12 17 13 18 14 19
REMARK H PARENT
REMARK Flexibility Score: 70.00
ROOT
ATOM      1  C   UNL     1     -20.894  -2.707   9.514  1.00  0.00     0.136 C 
ATOM      2  O   UNL     1     -21.814  -3.297  10.062  1.00  0.00    -0.299 OA
ENDROOT
BRANCH   1   3
ATOM      3  C   UNL     1     -19.744  -3.498   8.921  1.00  0.00     0.053 C 
ATOM      4  C   UNL     1     -20.218  -4.915   8.583  1.00  0.00     0.016 C 
BRANCH   3   5
ATOM      5  C   UNL     1     -18.531  -3.551   9.874  1.00  0.00     0.015 C 
BRANCH   5   6
ATOM      6  C   UNL     1     -17.471  -2.466   9.622  1.00  0.00     0.028 C 
BRANCH   6   7
ATOM      7  C   UNL     1     -17.061  -1.715  10.868  1.00  0.00    -0.028 C 
ATOM      8  C   UNL     1     -17.586  -0.560  11.357  1.00  0.00    -0.070 CG0
ATOM      9  C   UNL     1     -17.048  -0.081  12.685  1.00  0.00     0.039 C 
ATOM     10  G   UNL     1     -18.596   0.329  10.639  1.00  0.00     0.000 G0
ENDBRANCH   6   7
ENDBRANCH   5   6
ENDBRANCH   3   5
ENDBRANCH   1   3
BRANCH   1  11
ATOM     11  C   UNL     1     -20.946  -1.204   9.414  1.00  0.00     0.087 C 
BRANCH  11  12
ATOM     12  C   UNL     1     -21.130  -0.525  10.800  1.00  0.00     0.066 C 
BRANCH  12  13
ATOM     13  C   UNL     1     -19.987   0.400  11.217  1.00  0.00     0.140 C 
ATOM     14  O   UNL     1     -20.234   1.303  12.003  1.00  0.00    -0.299 OA
BRANCH  13  15
ATOM     15  C   UNL     1     -18.604   0.339  10.614  1.00  0.00     0.106 CG0
ATOM     16  G   UNL     1     -17.613  -0.548  11.362  1.00  0.00     0.000 G0
ENDBRANCH  13  15
ENDBRANCH  12  13
BRANCH  12  17
ATOM     17  C   UNL     1     -22.499   0.211  10.951  1.00  0.00    -0.006 C 
ATOM     18  C   UNL     1     -23.235  -0.192  12.239  1.00  0.00     0.008 C 
ATOM     19  C   UNL     1     -23.426   0.035   9.737  1.00  0.00     0.008 C 
ENDBRANCH  12  17
ENDBRANCH  11  12
ENDBRANCH   1  11
TORSDOF 1
ENDMDL
MODEL 2
REMARK VINA RESULT:    -3.203      1.573      3.950
REMARK INTER + INTRA:          -5.285
REMARK INTER:                  -4.826
REMARK INTRA:                  -0.458
REMARK UNBOUND:                -0.397
REMARK SMILES CC1=CCC[C@@H](C)C(=O)C[C@H](C(C)C)C(=O)C1
REMARK SMILES IDX 8 1 9 2 6 3 7 4 5 5 4 6 3 7 2 8 1 9 10 11 11 12 15 13 16 14
REMARK SMILES IDX 17 15 12 17 13 18 14 19
REMARK H PARENT
REMARK Flexibility Score: 70.00
ROOT
ATOM      1  C   UNL     1     -21.873  -1.888  11.026  1.00  0.00     0.136 C 
ATOM      2  O   UNL     1     -23.023  -2.066  10.649  1.00  0.00    -0.299 OA
ENDROOT
BRANCH   1   3
ATOM      3  C   UNL     1     -21.499  -0.581  11.698  1.00  0.00     0.053 C 
ATOM      4  C   UNL     1     -22.548  -0.231  12.758  1.00  0.00     0.016 C 
BRANCH   3   5
ATOM      5  C   UNL     1     -21.362   0.569  10.678  1.00  0.00     0.015 C 
BRANCH   5   6
ATOM      6  C   UNL     1     -19.948   1.166  10.571  1.00  0.00     0.028 C 
BRANCH   6   7
ATOM      7  C   UNL     1     -18.940   0.507  11.485  1.00  0.00    -0.028 C 
ATOM      8  C   UNL     1     -18.009  -0.429  11.164  1.00  0.00    -0.070 CG0
ATOM      9  C   UNL     1     -17.057  -0.843  12.262  1.00  0.00     0.039 C 
ATOM     10  G   UNL     1     -17.904  -1.154   9.826  1.00  0.00     0.000 G0
ENDBRANCH   6   7
ENDBRANCH   5   6
ENDBRANCH   3   5
ENDBRANCH   1   3
BRANCH   1  11
ATOM     11  C   UNL     1     -20.865  -2.993  10.842  1.00  0.00     0.087 C 
BRANCH  11  12
ATOM     12  C   UNL     1     -20.007  -2.804   9.560  1.00  0.00     0.066 C 
BRANCH  12  13
ATOM     13  C   UNL     1     -18.520  -2.559   9.814  1.00  0.00     0.140 C 
ATOM     14  O   UNL     1     -17.823  -3.514  10.126  1.00  0.00    -0.299 OA
BRANCH  13  15
ATOM     15  C   UNL     1     -17.893  -1.186   9.826  1.00  0.00     0.106 CG0
ATOM     16  G   UNL     1     -18.012  -0.433  11.147  1.00  0.00     0.000 G0
ENDBRANCH  13  15
ENDBRANCH  12  13
BRANCH  12  17
ATOM     17  C   UNL     1     -20.192  -3.953   8.518  1.00  0.00    -0.006 C 
ATOM     18  C   UNL     1     -20.946  -3.481   7.263  1.00  0.00     0.008 C 
ATOM     19  C   UNL     1     -20.870  -5.205   9.100  1.00  0.00     0.008 C 
ENDBRANCH  12  17
ENDBRANCH  11  12
ENDBRANCH   1  11
TORSDOF 1
ENDMDL
MODEL 3
REMARK VINA RESULT:    -3.202      2.077      4.224
REMARK INTER + INTRA:          -5.284
REMARK INTER:                  -4.900
REMARK INTRA:                  -0.384
REMARK UNBOUND:                -0.397
REMARK SMILES CC1=CCC[C@@H](C)C(=O)C[C@H](C(C)C)C(=O)C1
REMARK SMILES IDX 8 1 9 2 6 3 7 4 5 5 4 6 3 7 2 8 1 9 10 11 11 12 15 13 16 14
REMARK SMILES IDX 17 15 12 17 13 18 14 19
REMARK H PARENT
REMARK Flexibility Score: 70.00
ROOT
ATOM      1  C   UNL     1     -19.415  -1.058  11.088  1.00  0.00     0.136 C 
ATOM      2  O   UNL     1     -19.442   0.059  10.592  1.00  0.00    -0.299 OA
ENDROOT
BRANCH   1   3
ATOM      3  C   UNL     1     -18.102  -1.812  11.167  1.00  0.00     0.053 C 
ATOM      4  C   UNL     1     -17.002  -0.873  11.673  1.00  0.00     0.016 C 
BRANCH   3   5
ATOM      5  C   UNL     1     -17.704  -2.417   9.804  1.00  0.00     0.015 C 
BRANCH   5   6
ATOM      6  C   UNL     1     -18.234  -3.840   9.556  1.00  0.00     0.028 C 
BRANCH   6   7
ATOM      7  C   UNL     1     -19.219  -3.933   8.414  1.00  0.00    -0.028 C 
ATOM      8  C   UNL     1     -20.576  -3.915   8.479  1.00  0.00    -0.070 CG0
ATOM      9  C   UNL     1     -21.318  -3.922   7.162  1.00  0.00     0.039 C 
ATOM     10  G   UNL     1     -21.404  -3.979   9.758  1.00  0.00     0.000 G0
ENDBRANCH   6   7
ENDBRANCH   5   6
ENDBRANCH   3   5
ENDBRANCH   1   3
BRANCH   1  11
ATOM     11  C   UNL     1     -20.690  -1.644  11.639  1.00  0.00     0.087 C 
BRANCH  11  12
ATOM     12  C   UNL     1     -21.882  -1.503  10.651  1.00  0.00     0.066 C 
BRANCH  12  13
ATOM     13  C   UNL     1     -22.320  -2.807   9.986  1.00  0.00     0.140 C 
ATOM     14  O   UNL     1     -23.505  -2.949   9.718  1.00  0.00    -0.299 OA
BRANCH  13  15
ATOM     15  C   UNL     1     -21.394  -3.978   9.759  1.00  0.00     0.106 CG0
ATOM     16  G   UNL     1     -20.585  -3.921   8.468  1.00  0.00     0.000 G0
ENDBRANCH  13  15
ENDBRANCH  12  13
BRANCH  12  17
ATOM     17  C   UNL     1     -23.116  -0.775  11.272  1.00  0.00    -0.006 C 
ATOM     18  C   UNL     1     -23.552   0.440  10.437  1.00  0.00     0.008 C 
ATOM     19  C   UNL     1     -22.910  -0.360  12.738  1.00  0.00     0.008 C 
ENDBRANCH  12  17
ENDBRANCH  11  12
ENDBRANCH   1  11
TORSDOF 1
ENDMDL
MODEL 4
REMARK VINA RESULT:    -3.198      1.806      3.998
REMARK INTER + INTRA:          -5.277
REMARK INTER:                  -5.544
REMARK INTRA:                   0.266
REMARK UNBOUND:                -0.397
REMARK SMILES CC1=CCC[C@@H](C)C(=O)C[C@H](C(C)C)C(=O)C1
REMARK SMILES IDX 8 1 9 2 6 3 7 4 5 5 4 6 3 7 2 8 1 9 10 11 11 12 15 13 16 14
REMARK SMILES IDX 17 15 12 17 13 18 14 19
REMARK H PARENT
REMARK Flexibility Score: 70.00
ROOT
ATOM      1  C   UNL     1     -19.036   0.094  10.917  1.00  0.00     0.136 C 
ATOM      2  O   UNL     1     -18.963   1.215  11.400  1.00  0.00    -0.299 OA
ENDROOT
BRANCH   1   3
ATOM      3  C   UNL     1     -18.112  -0.999  11.418  1.00  0.00     0.053 C 
ATOM      4  C   UNL     1     -17.034  -0.385  12.317  1.00  0.00     0.016 C 
BRANCH   3   5
ATOM      5  C   UNL     1     -17.461  -1.778  10.255  1.00  0.00     0.015 C 
BRANCH   5   6
ATOM      6  C   UNL     1     -17.882  -3.254  10.158  1.00  0.00     0.028 C 
BRANCH   6   7
ATOM      7  C   UNL     1     -18.808  -3.547   9.000  1.00  0.00    -0.028 C 
ATOM      8  C   UNL     1     -20.163  -3.457   8.971  1.00  0.00    -0.070 CG0
ATOM      9  C   UNL     1     -20.832  -3.715   7.640  1.00  0.00     0.039 C 
ATOM     10  G   UNL     1     -21.062  -3.207  10.178  1.00  0.00     0.000 G0
ENDBRANCH   6   7
ENDBRANCH   5   6
ENDBRANCH   3   5
ENDBRANCH   1   3
BRANCH   1  11
ATOM     11  C   UNL     1     -20.071  -0.178   9.855  1.00  0.00     0.087 C 
BRANCH  11  12
ATOM     12  C   UNL     1     -21.449  -0.568  10.458  1.00  0.00     0.066 C 
BRANCH  12  13
ATOM     13  C   UNL     1     -21.938  -1.968  10.088  1.00  0.00     0.140 C 
ATOM     14  O   UNL     1     -23.118  -2.110   9.803  1.00  0.00    -0.299 OA
BRANCH  13  15
ATOM     15  C   UNL     1     -21.074  -3.203  10.181  1.00  0.00     0.106 CG0
ATOM     16  G   UNL     1     -20.175  -3.453   8.974  1.00  0.00     0.000 G0
ENDBRANCH  13  15
ENDBRANCH  12  13
BRANCH  12  17
ATOM     17  C   UNL     1     -21.527  -0.363  12.004  1.00  0.00    -0.006 C 
ATOM     18  C   UNL     1     -21.931  -1.651  12.740  1.00  0.00     0.008 C 
ATOM     19  C   UNL     1     -22.450   0.794  12.423  1.00  0.00     0.008 C 
ENDBRANCH  12  17
ENDBRANCH  11  12
ENDBRANCH   1  11
TORSDOF 1
ENDMDL
MODEL 5
REMARK VINA RESULT:    -3.139      2.052      4.316
REMARK INTER + INTRA:          -5.187
REMARK INTER:                  -4.919
REMARK INTRA:                  -0.268
REMARK UNBOUND:                -0.397
REMARK SMILES CC1=CCC[C@@H](C)C(=O)C[C@H](C(C)C)C(=O)C1
REMARK SMILES IDX 8 1 9 2 6 3 7 4 5 5 4 6 3 7 2 8 1 9 10 11 11 12 15 13 16 14
REMARK SMILES IDX 17 15 12 17 13 18 14 19
REMARK H PARENT
REMARK Flexibility Score: 70.00
ROOT
ATOM      1  C   UNL     1     -18.605  -2.367   9.906  1.00  0.00     0.136 C 
ATOM      2  O   UNL     1     -18.142  -3.482  10.098  1.00  0.00    -0.299 OA
ENDROOT
BRANCH   1   3
ATOM      3  C   UNL     1     -17.759  -1.144  10.201  1.00  0.00     0.053 C 
ATOM      4  C   UNL     1     -17.032  -1.333  11.536  1.00  0.00     0.016 C 
BRANCH   3   5
ATOM      5  C   UNL     1     -18.606   0.147  10.230  1.00  0.00     0.015 C 
BRANCH   5   6
ATOM      6  C   UNL     1     -19.267   0.448  11.586  1.00  0.00     0.028 C 
BRANCH   6   7
ATOM      7  C   UNL     1     -20.736   0.790  11.484  1.00  0.00    -0.028 C 
ATOM      8  C   UNL     1     -21.800  -0.012  11.752  1.00  0.00    -0.070 CG0
ATOM      9  C   UNL     1     -23.167   0.625  11.661  1.00  0.00     0.039 C 
ATOM     10  G   UNL     1     -21.732  -1.507  12.044  1.00  0.00     0.000 G0
ENDBRANCH   6   7
ENDBRANCH   5   6
ENDBRANCH   3   5
ENDBRANCH   1   3
BRANCH   1  11
ATOM     11  C   UNL     1     -19.999  -2.241   9.347  1.00  0.00     0.087 C 
BRANCH  11  12
ATOM     12  C   UNL     1     -21.015  -3.165  10.076  1.00  0.00     0.066 C 
BRANCH  12  13
ATOM     13  C   UNL     1     -22.070  -2.431  10.903  1.00  0.00     0.140 C 
ATOM     14  O   UNL     1     -23.238  -2.509  10.548  1.00  0.00    -0.299 OA
BRANCH  13  15
ATOM     15  C   UNL     1     -21.736  -1.514  12.055  1.00  0.00     0.106 CG0
ATOM     16  G   UNL     1     -21.805  -0.024  11.735  1.00  0.00     0.000 G0
ENDBRANCH  13  15
ENDBRANCH  12  13
BRANCH  12  17
ATOM     17  C   UNL     1     -21.699  -4.200   9.128  1.00  0.00    -0.006 C 
ATOM     18  C   UNL     1     -21.852  -5.579   9.790  1.00  0.00     0.008 C 
ATOM     19  C   UNL     1     -20.996  -4.343   7.768  1.00  0.00     0.008 C 
ENDBRANCH  12  17
ENDBRANCH  11  12
ENDBRANCH   1  11
TORSDOF 1
ENDMDL
MODEL 6
REMARK VINA RESULT:    -3.069      2.524      4.776
REMARK INTER + INTRA:          -5.081
REMARK INTER:                  -4.827
REMARK INTRA:                  -0.254
REMARK UNBOUND:                -0.397
REMARK SMILES CC1=CCC[C@@H](C)C(=O)C[C@H](C(C)C)C(=O)C1
REMARK SMILES IDX 8 1 9 2 6 3 7 4 5 5 4 6 3 7 2 8 1 9 10 11 11 12 15 13 16 14
REMARK SMILES IDX 17 15 12 17 13 18 14 19
REMARK H PARENT
REMARK Flexibility Score: 70.00
ROOT
ATOM      1  C   UNL     1     -18.587  -4.232   8.367  1.00  0.00     0.136 C 
ATOM      2  O   UNL     1     -17.561  -4.398   7.723  1.00  0.00    -0.299 OA
ENDROOT
BRANCH   1   3
ATOM      3  C   UNL     1     -19.916  -4.676   7.787  1.00  0.00     0.053 C 
ATOM      4  C   UNL     1     -19.875  -6.181   7.505  1.00  0.00     0.016 C 
BRANCH   3   5
ATOM      5  C   UNL     1     -20.268  -3.900   6.499  1.00  0.00     0.015 C 
BRANCH   5   6
ATOM      6  C   UNL     1     -21.446  -2.920   6.644  1.00  0.00     0.028 C 
BRANCH   6   7
ATOM      7  C   UNL     1     -22.496  -3.374   7.631  1.00  0.00    -0.028 C 
ATOM      8  C   UNL     1     -22.754  -2.871   8.867  1.00  0.00    -0.070 CG0
ATOM      9  C   UNL     1     -23.937  -3.456   9.603  1.00  0.00     0.039 C 
ATOM     10  G   UNL     1     -21.901  -1.841   9.600  1.00  0.00     0.000 G0
ENDBRANCH   6   7
ENDBRANCH   5   6
ENDBRANCH   3   5
ENDBRANCH   1   3
BRANCH   1  11
ATOM     11  C   UNL     1     -18.497  -3.618   9.741  1.00  0.00     0.087 C 
BRANCH  11  12
ATOM     12  C   UNL     1     -19.270  -2.273   9.840  1.00  0.00     0.066 C 
BRANCH  12  13
ATOM     13  C   UNL     1     -20.707  -2.396  10.343  1.00  0.00     0.140 C 
ATOM     14  O   UNL     1     -20.913  -3.071  11.342  1.00  0.00    -0.299 OA
BRANCH  13  15
ATOM     15  C   UNL     1     -21.899  -1.836   9.604  1.00  0.00     0.106 CG0
ATOM     16  G   UNL     1     -22.749  -2.871   8.873  1.00  0.00     0.000 G0
ENDBRANCH  13  15
ENDBRANCH  12  13
BRANCH  12  17
ATOM     17  C   UNL     1     -18.507  -1.181  10.654  1.00  0.00    -0.006 C 
ATOM     18  C   UNL     1     -18.887   0.242  10.213  1.00  0.00     0.008 C 
ATOM     19  C   UNL     1     -16.979  -1.350  10.625  1.00  0.00     0.008 C 
ENDBRANCH  12  17
ENDBRANCH  11  12
ENDBRANCH   1  11
TORSDOF 1
ENDMDL
MODEL 7
REMARK VINA RESULT:    -3.009      2.785      5.569
REMARK INTER + INTRA:          -4.988
REMARK INTER:                  -4.560
REMARK INTRA:                  -0.428
REMARK UNBOUND:                -0.397
REMARK SMILES CC1=CCC[C@@H](C)C(=O)C[C@H](C(C)C)C(=O)C1
REMARK SMILES IDX 8 1 9 2 6 3 7 4 5 5 4 6 3 7 2 8 1 9 10 11 11 12 15 13 16 14
REMARK SMILES IDX 17 15 12 17 13 18 14 19
REMARK H PARENT
REMARK Flexibility Score: 70.00
ROOT
ATOM      1  C   UNL     1     -18.886  -3.292   9.577  1.00  0.00     0.136 C 
ATOM      2  O   UNL     1     -18.241  -4.175  10.126  1.00  0.00    -0.299 OA
ENDROOT
BRANCH   1   3
ATOM      3  C   UNL     1     -18.811  -1.873  10.103  1.00  0.00     0.053 C 
ATOM      4  C   UNL     1     -17.358  -1.387  10.061  1.00  0.00     0.016 C 
BRANCH   3   5
ATOM      5  C   UNL     1     -19.372  -1.761  11.537  1.00  0.00     0.015 C 
BRANCH   5   6
ATOM      6  C   UNL     1     -20.770  -2.375  11.726  1.00  0.00     0.028 C 
BRANCH   6   7
ATOM      7  C   UNL     1     -21.845  -1.708  10.899  1.00  0.00    -0.028 C 
ATOM      8  C   UNL     1     -22.824  -2.301  10.168  1.00  0.00    -0.070 CG0
ATOM      9  C   UNL     1     -23.832  -1.384   9.515  1.00  0.00     0.039 C 
ATOM     10  G   UNL     1     -22.936  -3.795   9.882  1.00  0.00     0.000 G0
ENDBRANCH   6   7
ENDBRANCH   5   6
ENDBRANCH   3   5
ENDBRANCH   1   3
BRANCH   1  11
ATOM     11  C   UNL     1     -19.714  -3.638   8.365  1.00  0.00     0.087 C 
BRANCH  11  12
ATOM     12  C   UNL     1     -20.760  -4.748   8.661  1.00  0.00     0.066 C 
BRANCH  12  13
ATOM     13  C   UNL     1     -22.215  -4.280   8.641  1.00  0.00     0.140 C 
ATOM     14  O   UNL     1     -22.779  -4.197   7.559  1.00  0.00    -0.299 OA
BRANCH  13  15
ATOM     15  C   UNL     1     -22.950  -3.793   9.867  1.00  0.00     0.106 CG0
ATOM     16  G   UNL     1     -22.810  -2.302  10.154  1.00  0.00     0.000 G0
ENDBRANCH  13  15
ENDBRANCH  12  13
BRANCH  12  17
ATOM     17  C   UNL     1     -20.591  -6.012   7.760  1.00  0.00    -0.006 C 
ATOM     18  C   UNL     1     -20.150  -7.244   8.568  1.00  0.00     0.008 C 
ATOM     19  C   UNL     1     -19.641  -5.794   6.571  1.00  0.00     0.008 C 
ENDBRANCH  12  17
ENDBRANCH  11  12
ENDBRANCH   1  11
TORSDOF 1
ENDMDL
MODEL 8
REMARK VINA RESULT:    -2.884      2.223      4.168
REMARK INTER + INTRA:          -4.799
REMARK INTER:                  -4.661
REMARK INTRA:                  -0.138
REMARK UNBOUND:                -0.397
REMARK SMILES CC1=CCC[C@@H](C)C(=O)C[C@H](C(C)C)C(=O)C1
REMARK SMILES IDX 8 1 9 2 6 3 7 4 5 5 4 6 3 7 2 8 1 9 10 11 11 12 15 13 16 14
REMARK SMILES IDX 17 15 12 17 13 18 14 19
REMARK H PARENT
REMARK Flexibility Score: 70.00
ROOT
ATOM      1  C   UNL     1     -20.163  -1.468  11.380  1.00  0.00     0.136 C 
ATOM      2  O   UNL     1     -20.345  -2.415  12.132  1.00  0.00    -0.299 OA
ENDROOT
BRANCH   1   3
ATOM      3  C   UNL     1     -18.771  -0.885  11.234  1.00  0.00     0.053 C 
ATOM      4  C   UNL     1     -18.778   0.192  10.144  1.00  0.00     0.016 C 
BRANCH   3   5
ATOM      5  C   UNL     1     -17.725  -1.972  10.905  1.00  0.00     0.015 C 
BRANCH   5   6
ATOM      6  C   UNL     1     -17.860  -2.588   9.502  1.00  0.00     0.028 C 
BRANCH   6   7
ATOM      7  C   UNL     1     -18.464  -3.973   9.501  1.00  0.00    -0.028 C 
ATOM      8  C   UNL     1     -19.530  -4.418   8.786  1.00  0.00    -0.070 CG0
ATOM      9  C   UNL     1     -19.858  -5.889   8.904  1.00  0.00     0.039 C 
ATOM     10  G   UNL     1     -20.466  -3.548   7.954  1.00  0.00     0.000 G0
ENDBRANCH   6   7
ENDBRANCH   5   6
ENDBRANCH   3   5
ENDBRANCH   1   3
BRANCH   1  11
ATOM     11  C   UNL     1     -21.327  -0.926  10.591  1.00  0.00     0.087 C 
BRANCH  11  12
ATOM     12  C   UNL     1     -21.218  -1.251   9.075  1.00  0.00     0.066 C 
BRANCH  12  13
ATOM     13  C   UNL     1     -21.455  -2.718   8.716  1.00  0.00     0.140 C 
ATOM     14  O   UNL     1     -22.447  -3.270   9.170  1.00  0.00    -0.299 OA
BRANCH  13  15
ATOM     15  C   UNL     1     -20.467  -3.555   7.939  1.00  0.00     0.106 CG0
ATOM     16  G   UNL     1     -19.530  -4.405   8.791  1.00  0.00     0.000 G0
ENDBRANCH  13  15
ENDBRANCH  12  13
BRANCH  12  17
ATOM     17  C   UNL     1     -22.104  -0.329   8.179  1.00  0.00    -0.006 C 
ATOM     18  C   UNL     1     -21.693  -0.391   6.699  1.00  0.00     0.008 C 
ATOM     19  C   UNL     1     -22.142   1.133   8.655  1.00  0.00     0.008 C 
ENDBRANCH  12  17
ENDBRANCH  11  12
ENDBRANCH   1  11
TORSDOF 1
ENDMDL
MODEL 9
REMARK VINA RESULT:    -2.743      2.003      5.167
REMARK INTER + INTRA:          -4.583
REMARK INTER:                  -4.939
REMARK INTRA:                   0.356
REMARK UNBOUND:                -0.397
REMARK SMILES CC1=CCC[C@@H](C)C(=O)C[C@H](C(C)C)C(=O)C1
REMARK SMILES IDX 8 1 9 2 6 3 7 4 5 5 4 6 3 7 2 8 1 9 10 11 11 12 15 13 16 14
REMARK SMILES IDX 17 15 12 17 13 18 14 19
REMARK H PARENT
REMARK Flexibility Score: 70.00
ROOT
ATOM      1  C   UNL     1     -18.914  -1.669  10.874  1.00  0.00     0.136 C 
ATOM      2  O   UNL     1     -19.610  -2.076  11.794  1.00  0.00    -0.299 OA
ENDROOT
BRANCH   1   3
ATOM      3  C   UNL     1     -18.246  -0.312  10.984  1.00  0.00     0.053 C 
ATOM      4  C   UNL     1     -17.537  -0.199  12.338  1.00  0.00     0.016 C 
BRANCH   3   5
ATOM      5  C   UNL     1     -19.257   0.841  10.811  1.00  0.00     0.015 C 
BRANCH   5   6
ATOM      6  C   UNL     1     -20.123   0.749   9.542  1.00  0.00     0.028 C 
BRANCH   6   7
ATOM      7  C   UNL     1     -21.532   0.270   9.801  1.00  0.00    -0.028 C 
ATOM      8  C   UNL     1     -22.092  -0.913   9.438  1.00  0.00    -0.070 CG0
ATOM      9  C   UNL     1     -23.501  -1.172   9.918  1.00  0.00     0.039 C 
ATOM     10  G   UNL     1     -21.454  -1.952   8.521  1.00  0.00     0.000 G0
ENDBRANCH   6   7
ENDBRANCH   5   6
ENDBRANCH   3   5
ENDBRANCH   1   3
BRANCH   1  11
ATOM     11  C   UNL     1     -18.712  -2.547   9.666  1.00  0.00     0.087 C 
BRANCH  11  12
ATOM     12  C   UNL     1     -19.747  -3.705   9.597  1.00  0.00     0.066 C 
BRANCH  12  13
ATOM     13  C   UNL     1     -21.147  -3.287   9.149  1.00  0.00     0.140 C 
ATOM     14  O   UNL     1     -22.046  -4.114   9.219  1.00  0.00    -0.299 OA
BRANCH  13  15
ATOM     15  C   UNL     1     -21.453  -1.955   8.509  1.00  0.00     0.106 CG0
ATOM     16  G   UNL     1     -22.083  -0.921   9.438  1.00  0.00     0.000 G0
ENDBRANCH  13  15
ENDBRANCH  12  13
BRANCH  12  17
ATOM     17  C   UNL     1     -19.255  -4.924   8.753  1.00  0.00    -0.006 C 
ATOM     18  C   UNL     1     -19.449  -4.700   7.244  1.00  0.00     0.008 C 
ATOM     19  C   UNL     1     -19.893  -6.258   9.174  1.00  0.00     0.008 C 
ENDBRANCH  12  17
ENDBRANCH  11  12
ENDBRANCH   1  11
TORSDOF 1
ENDMDL
