MODEL 1
REMARK VINA RESULT:    -5.337      0.000      0.000
REMARK INTER + INTRA:          -6.024
REMARK INTER:                  -5.805
REMARK INTRA:                  -0.219
REMARK UNBOUND:                -0.219
REMARK SMILES O=C([O-])c1ccccc1O
REMARK SMILES IDX 4 1 9 2 5 3 8 4 6 5 7 6 2 7 1 8 3 9 10 10
REMARK H PARENT 10 11
REMARK Flexibility Score: inf
ROOT
ATOM      1  C   UNL     1     -32.682  -2.963 -18.606  1.00  0.00     0.039 A 
ATOM      2  C   UNL     1     -32.249  -2.492 -19.873  1.00  0.00     0.124 A 
ATOM      3  C   UNL     1     -31.717  -3.377 -17.670  1.00  0.00     0.014 A 
ATOM      4  C   UNL     1     -30.884  -2.506 -20.188  1.00  0.00     0.047 A 
ATOM      5  C   UNL     1     -30.359  -3.366 -17.992  1.00  0.00     0.001 A 
ATOM      6  C   UNL     1     -29.943  -2.941 -19.253  1.00  0.00     0.004 A 
ENDROOT
BRANCH   1   7
ATOM      7  C   UNL     1     -34.110  -3.071 -18.236  1.00  0.00     0.075 C 
ATOM      8  O   UNL     1     -35.015  -2.916 -19.096  1.00  0.00    -0.545 OA
ATOM      9  O   UNL     1     -34.468  -3.414 -16.936  1.00  0.00    -0.545 OA
ENDBRANCH   1   7
BRANCH   2  10
ATOM     10  O   UNL     1     -33.129  -1.972 -20.826  1.00  0.00    -0.507 OA
ATOM     11  H   UNL     1     -33.673  -2.545 -21.454  1.00  0.00     0.293 HD
ENDBRANCH   2  10
TORSDOF 2
ENDMDL
MODEL 2
REMARK VINA RESULT:    -5.131      0.933      1.189
REMARK INTER + INTRA:          -5.801
REMARK INTER:                  -5.723
REMARK INTRA:                  -0.078
REMARK UNBOUND:                -0.219
REMARK SMILES O=C([O-])c1ccccc1O
REMARK SMILES IDX 4 1 9 2 5 3 8 4 6 5 7 6 2 7 1 8 3 9 10 10
REMARK H PARENT 10 11
REMARK Flexibility Score: inf
ROOT
ATOM      1  C   UNL     1     -33.239  -3.277 -18.729  1.00  0.00     0.039 A 
ATOM      2  C   UNL     1     -32.473  -2.595 -19.710  1.00  0.00     0.124 A 
ATOM      3  C   UNL     1     -32.595  -3.744 -17.568  1.00  0.00     0.014 A 
ATOM      4  C   UNL     1     -31.090  -2.455 -19.535  1.00  0.00     0.047 A 
ATOM      5  C   UNL     1     -31.219  -3.578 -17.400  1.00  0.00     0.001 A 
ATOM      6  C   UNL     1     -30.466  -2.944 -18.387  1.00  0.00     0.004 A 
ENDROOT
BRANCH   1   7
ATOM      7  C   UNL     1     -34.685  -3.550 -18.887  1.00  0.00     0.075 C 
ATOM      8  O   UNL     1     -35.544  -2.684 -18.580  1.00  0.00    -0.545 OA
ATOM      9  O   UNL     1     -35.108  -4.751 -19.445  1.00  0.00    -0.545 OA
ENDBRANCH   1   7
BRANCH   2  10
ATOM     10  O   UNL     1     -33.045  -2.015 -20.845  1.00  0.00    -0.507 OA
ATOM     11  H   UNL     1     -32.511  -1.538 -21.557  1.00  0.00     0.293 HD
ENDBRANCH   2  10
TORSDOF 2
ENDMDL
MODEL 3
REMARK VINA RESULT:    -5.099      9.197     10.201
REMARK INTER + INTRA:          -5.766
REMARK INTER:                  -5.516
REMARK INTRA:                  -0.249
REMARK UNBOUND:                -0.219
REMARK SMILES O=C([O-])c1ccccc1O
REMARK SMILES IDX 4 1 9 2 5 3 8 4 6 5 7 6 2 7 1 8 3 9 10 10
REMARK H PARENT 10 11
REMARK Flexibility Score: inf
ROOT
ATOM      1  C   UNL     1     -39.301  -7.415 -13.079  1.00  0.00     0.039 A 
ATOM      2  C   UNL     1     -39.062  -8.801 -13.270  1.00  0.00     0.124 A 
ATOM      3  C   UNL     1     -38.239  -6.510 -13.260  1.00  0.00     0.014 A 
ATOM      4  C   UNL     1     -37.767  -9.245 -13.571  1.00  0.00     0.047 A 
ATOM      5  C   UNL     1     -36.959  -6.968 -13.580  1.00  0.00     0.001 A 
ATOM      6  C   UNL     1     -36.722  -8.334 -13.726  1.00  0.00     0.004 A 
ENDROOT
BRANCH   1   7
ATOM      7  C   UNL     1     -40.617  -6.878 -12.664  1.00  0.00     0.075 C 
ATOM      8  O   UNL     1     -41.681  -7.294 -13.192  1.00  0.00    -0.545 OA
ATOM      9  O   UNL     1     -40.695  -5.951 -11.631  1.00  0.00    -0.545 OA
ENDBRANCH   1   7
BRANCH   2  10
ATOM     10  O   UNL     1     -40.077  -9.758 -13.206  1.00  0.00    -0.507 OA
ATOM     11  H   UNL     1     -41.061  -9.531 -13.228  1.00  0.00     0.293 HD
ENDBRANCH   2  10
TORSDOF 2
ENDMDL
MODEL 4
REMARK VINA RESULT:    -5.054      9.107     10.485
REMARK INTER + INTRA:          -5.717
REMARK INTER:                  -5.537
REMARK INTRA:                  -0.180
REMARK UNBOUND:                -0.219
REMARK SMILES O=C([O-])c1ccccc1O
REMARK SMILES IDX 4 1 9 2 5 3 8 4 6 5 7 6 2 7 1 8 3 9 10 10
REMARK H PARENT 10 11
REMARK Flexibility Score: inf
ROOT
ATOM      1  C   UNL     1     -38.414  -7.946 -13.396  1.00  0.00     0.039 A 
ATOM      2  C   UNL     1     -39.592  -8.728 -13.267  1.00  0.00     0.124 A 
ATOM      3  C   UNL     1     -38.512  -6.547 -13.285  1.00  0.00     0.014 A 
ATOM      4  C   UNL     1     -40.829  -8.092 -13.094  1.00  0.00     0.047 A 
ATOM      5  C   UNL     1     -39.749  -5.931 -13.092  1.00  0.00     0.001 A 
ATOM      6  C   UNL     1     -40.908  -6.702 -13.007  1.00  0.00     0.004 A 
ENDROOT
BRANCH   1   7
ATOM      7  C   UNL     1     -37.087  -8.537 -13.678  1.00  0.00     0.075 C 
ATOM      8  O   UNL     1     -36.871  -9.161 -14.749  1.00  0.00    -0.545 OA
ATOM      9  O   UNL     1     -36.038  -8.348 -12.784  1.00  0.00    -0.545 OA
ENDBRANCH   1   7
BRANCH   2  10
ATOM     10  O   UNL     1     -39.575 -10.124 -13.268  1.00  0.00    -0.507 OA
ATOM     11  H   UNL     1     -40.180 -10.689 -13.846  1.00  0.00     0.293 HD
ENDBRANCH   2  10
TORSDOF 2
ENDMDL
MODEL 5
REMARK VINA RESULT:    -4.964      8.830     10.244
REMARK INTER + INTRA:          -5.619
REMARK INTER:                  -5.366
REMARK INTRA:                  -0.253
REMARK UNBOUND:                -0.219
REMARK SMILES O=C([O-])c1ccccc1O
REMARK SMILES IDX 4 1 9 2 5 3 8 4 6 5 7 6 2 7 1 8 3 9 10 10
REMARK H PARENT 10 11
REMARK Flexibility Score: inf
ROOT
ATOM      1  C   UNL     1     -38.311  -8.060 -13.450  1.00  0.00     0.039 A 
ATOM      2  C   UNL     1     -38.835  -6.780 -13.133  1.00  0.00     0.124 A 
ATOM      3  C   UNL     1     -39.198  -9.143 -13.586  1.00  0.00     0.014 A 
ATOM      4  C   UNL     1     -40.209  -6.632 -12.903  1.00  0.00     0.047 A 
ATOM      5  C   UNL     1     -40.568  -8.974 -13.373  1.00  0.00     0.001 A 
ATOM      6  C   UNL     1     -41.071  -7.722 -13.022  1.00  0.00     0.004 A 
ENDROOT
BRANCH   1   7
ATOM      7  C   UNL     1     -36.862  -8.316 -13.611  1.00  0.00     0.075 C 
ATOM      8  O   UNL     1     -36.437  -9.080 -14.516  1.00  0.00    -0.545 OA
ATOM      9  O   UNL     1     -35.945  -7.656 -12.801  1.00  0.00    -0.545 OA
ENDBRANCH   1   7
BRANCH   2  10
ATOM     10  O   UNL     1     -38.040  -5.632 -13.073  1.00  0.00    -0.507 OA
ATOM     11  H   UNL     1     -37.893  -5.014 -13.858  1.00  0.00     0.293 HD
ENDBRANCH   2  10
TORSDOF 2
ENDMDL
MODEL 6
REMARK VINA RESULT:    -4.720      8.310      9.621
REMARK INTER + INTRA:          -5.353
REMARK INTER:                  -5.155
REMARK INTRA:                  -0.198
REMARK UNBOUND:                -0.219
REMARK SMILES O=C([O-])c1ccccc1O
REMARK SMILES IDX 4 1 9 2 5 3 8 4 6 5 7 6 2 7 1 8 3 9 10 10
REMARK H PARENT 10 11
REMARK Flexibility Score: inf
ROOT
ATOM      1  C   UNL     1     -38.891  -7.719 -13.256  1.00  0.00     0.039 A 
ATOM      2  C   UNL     1     -38.426  -6.378 -13.245  1.00  0.00     0.124 A 
ATOM      3  C   UNL     1     -37.951  -8.764 -13.331  1.00  0.00     0.014 A 
ATOM      4  C   UNL     1     -37.055  -6.120 -13.371  1.00  0.00     0.047 A 
ATOM      5  C   UNL     1     -36.587  -8.489 -13.435  1.00  0.00     0.001 A 
ATOM      6  C   UNL     1     -36.140  -7.169 -13.465  1.00  0.00     0.004 A 
ENDROOT
BRANCH   1   7
ATOM      7  C   UNL     1     -40.329  -8.070 -13.226  1.00  0.00     0.075 C 
ATOM      8  O   UNL     1     -40.705  -9.267 -13.328  1.00  0.00    -0.545 OA
ATOM      9  O   UNL     1     -41.282  -7.079 -13.017  1.00  0.00    -0.545 OA
ENDBRANCH   1   7
BRANCH   2  10
ATOM     10  O   UNL     1     -39.279  -5.285 -13.077  1.00  0.00    -0.507 OA
ATOM     11  H   UNL     1     -39.913  -5.186 -12.297  1.00  0.00     0.293 HD
ENDBRANCH   2  10
TORSDOF 2
ENDMDL
MODEL 7
REMARK VINA RESULT:    -4.678      7.779      9.717
REMARK INTER + INTRA:          -5.308
REMARK INTER:                  -5.056
REMARK INTRA:                  -0.251
REMARK UNBOUND:                -0.219
REMARK SMILES O=C([O-])c1ccccc1O
REMARK SMILES IDX 4 1 9 2 5 3 8 4 6 5 7 6 2 7 1 8 3 9 10 10
REMARK H PARENT 10 11
REMARK Flexibility Score: inf
ROOT
ATOM      1  C   UNL     1     -38.023  -7.001 -13.364  1.00  0.00     0.039 A 
ATOM      2  C   UNL     1     -37.858  -8.372 -13.695  1.00  0.00     0.124 A 
ATOM      3  C   UNL     1     -39.293  -6.548 -12.961  1.00  0.00     0.014 A 
ATOM      4  C   UNL     1     -38.967  -9.228 -13.675  1.00  0.00     0.047 A 
ATOM      5  C   UNL     1     -40.384  -7.418 -12.927  1.00  0.00     0.001 A 
ATOM      6  C   UNL     1     -40.223  -8.754 -13.293  1.00  0.00     0.004 A 
ENDROOT
BRANCH   1   7
ATOM      7  C   UNL     1     -36.923  -6.016 -13.455  1.00  0.00     0.075 C 
ATOM      8  O   UNL     1     -37.141  -4.835 -13.832  1.00  0.00    -0.545 OA
ATOM      9  O   UNL     1     -35.638  -6.369 -13.058  1.00  0.00    -0.545 OA
ENDBRANCH   1   7
BRANCH   2  10
ATOM     10  O   UNL     1     -36.616  -8.927 -14.011  1.00  0.00    -0.507 OA
ATOM     11  H   UNL     1     -36.498  -9.710 -14.638  1.00  0.00     0.293 HD
ENDBRANCH   2  10
TORSDOF 2
ENDMDL
MODEL 8
REMARK VINA RESULT:    -4.556      7.594      8.911
REMARK INTER + INTRA:          -5.175
REMARK INTER:                  -4.928
REMARK INTRA:                  -0.247
REMARK UNBOUND:                -0.219
REMARK SMILES O=C([O-])c1ccccc1O
REMARK SMILES IDX 4 1 9 2 5 3 8 4 6 5 7 6 2 7 1 8 3 9 10 10
REMARK H PARENT 10 11
REMARK Flexibility Score: inf
ROOT
ATOM      1  C   UNL     1     -37.863  -7.542 -13.755  1.00  0.00     0.039 A 
ATOM      2  C   UNL     1     -36.514  -7.543 -13.313  1.00  0.00     0.124 A 
ATOM      3  C   UNL     1     -38.304  -6.495 -14.585  1.00  0.00     0.014 A 
ATOM      4  C   UNL     1     -35.671  -6.478 -13.656  1.00  0.00     0.047 A 
ATOM      5  C   UNL     1     -37.446  -5.451 -14.934  1.00  0.00     0.001 A 
ATOM      6  C   UNL     1     -36.134  -5.437 -14.462  1.00  0.00     0.004 A 
ENDROOT
BRANCH   1   7
ATOM      7  C   UNL     1     -38.839  -8.579 -13.355  1.00  0.00     0.075 C 
ATOM      8  O   UNL     1     -38.496  -9.786 -13.254  1.00  0.00    -0.545 OA
ATOM      9  O   UNL     1     -40.139  -8.218 -13.018  1.00  0.00    -0.545 OA
ENDBRANCH   1   7
BRANCH   2  10
ATOM     10  O   UNL     1     -35.965  -8.590 -12.568  1.00  0.00    -0.507 OA
ATOM     11  H   UNL     1     -36.517  -9.238 -12.024  1.00  0.00     0.293 HD
ENDBRANCH   2  10
TORSDOF 2
ENDMDL
MODEL 9
REMARK VINA RESULT:    -4.517      1.416      2.501
REMARK INTER + INTRA:          -5.133
REMARK INTER:                  -4.884
REMARK INTRA:                  -0.249
REMARK UNBOUND:                -0.219
REMARK SMILES O=C([O-])c1ccccc1O
REMARK SMILES IDX 4 1 9 2 5 3 8 4 6 5 7 6 2 7 1 8 3 9 10 10
REMARK H PARENT 10 11
REMARK Flexibility Score: inf
ROOT
ATOM      1  C   UNL     1     -33.164  -3.272 -18.289  1.00  0.00     0.039 A 
ATOM      2  C   UNL     1     -31.982  -3.341 -17.505  1.00  0.00     0.124 A 
ATOM      3  C   UNL     1     -33.057  -2.927 -19.648  1.00  0.00     0.014 A 
ATOM      4  C   UNL     1     -30.749  -3.007 -18.080  1.00  0.00     0.047 A 
ATOM      5  C   UNL     1     -31.818  -2.617 -20.211  1.00  0.00     0.001 A 
ATOM      6  C   UNL     1     -30.666  -2.647 -19.425  1.00  0.00     0.004 A 
ENDROOT
BRANCH   1   7
ATOM      7  C   UNL     1     -34.512  -3.514 -17.730  1.00  0.00     0.075 C 
ATOM      8  O   UNL     1     -34.726  -4.481 -16.953  1.00  0.00    -0.545 OA
ATOM      9  O   UNL     1     -35.549  -2.630 -18.005  1.00  0.00    -0.545 OA
ENDBRANCH   1   7
BRANCH   2  10
ATOM     10  O   UNL     1     -31.983  -3.768 -16.174  1.00  0.00    -0.507 OA
ATOM     11  H   UNL     1     -31.221  -3.598 -15.533  1.00  0.00     0.293 HD
ENDBRANCH   2  10
TORSDOF 2
ENDMDL
