MODEL 1
REMARK VINA RESULT:    -3.978      0.000      0.000
REMARK INTER + INTRA:          -5.155
REMARK INTER:                  -4.676
REMARK INTRA:                  -0.479
REMARK UNBOUND:                -0.479
REMARK SMILES CCCC[C@@H]1OC(=O)C2=C1CCC=C2
REMARK SMILES IDX 3 1 2 2 1 3 4 4 5 5 10 6 6 7 9 8 11 9 7 10 14 11 12 12 8 13
REMARK SMILES IDX 13 14
REMARK H PARENT
REMARK Flexibility Score: inf
ROOT
ATOM      1  C   UNL     1     102.767  83.490  23.067  1.00  0.00     0.004 C 
ENDROOT
BRANCH   1   2
ATOM      2  C   UNL     1     103.986  84.305  22.618  1.00  0.00    -0.003 C 
ATOM      3  C   UNL     1     105.252  83.453  22.630  1.00  0.00     0.004 C 
ENDBRANCH   1   2
BRANCH   1   4
ATOM      4  C   UNL     1     103.132  82.010  23.245  1.00  0.00     0.050 C 
BRANCH   4   5
ATOM      5  C   UNL     1     102.627  81.471  24.589  1.00  0.00     0.204 C 
ATOM      6  C   UNL     1     103.242  82.217  25.750  1.00  0.00    -0.015 C 
ATOM      7  O   UNL     1     101.228  81.729  24.745  1.00  0.00    -0.454 OA
ATOM      8  C   UNL     1     102.303  82.790  26.486  1.00  0.00     0.062 C 
ATOM      9  C   UNL     1     104.663  82.119  26.237  1.00  0.00     0.040 C 
ATOM     10  C   UNL     1     101.032  82.505  25.874  1.00  0.00     0.338 C 
ATOM     11  C   UNL     1     102.592  83.466  27.757  1.00  0.00     0.011 C 
ATOM     12  C   UNL     1     105.004  83.295  27.180  1.00  0.00     0.032 C 
ATOM     13  O   UNL     1      99.905  82.882  26.290  1.00  0.00    -0.246 OA
ATOM     14  C   UNL     1     103.868  83.643  28.122  1.00  0.00    -0.026 C 
ENDBRANCH   4   5
ENDBRANCH   1   4
TORSDOF 3
ENDMDL
MODEL 2
REMARK VINA RESULT:    -3.830      1.012      1.361
REMARK INTER + INTRA:          -4.981
REMARK INTER:                  -4.556
REMARK INTRA:                  -0.425
REMARK UNBOUND:                -0.479
REMARK SMILES CCCC[C@@H]1OC(=O)C2=C1CCC=C2
REMARK SMILES IDX 3 1 2 2 1 3 4 4 5 5 10 6 6 7 9 8 11 9 7 10 14 11 12 12 8 13
REMARK SMILES IDX 13 14
REMARK H PARENT
REMARK Flexibility Score: inf
ROOT
ATOM      1  C   UNL     1     104.873  83.402  23.551  1.00  0.00     0.004 C 
ENDROOT
BRANCH   1   2
ATOM      2  C   UNL     1     104.370  84.008  22.236  1.00  0.00    -0.003 C 
ATOM      3  C   UNL     1     102.876  84.311  22.305  1.00  0.00     0.004 C 
ENDBRANCH   1   2
BRANCH   1   4
ATOM      4  C   UNL     1     104.880  81.869  23.481  1.00  0.00     0.050 C 
BRANCH   4   5
ATOM      5  C   UNL     1     104.018  81.257  24.593  1.00  0.00     0.204 C 
ATOM      6  C   UNL     1     104.006  82.130  25.826  1.00  0.00    -0.015 C 
ATOM      7  O   UNL     1     102.641  81.225  24.207  1.00  0.00    -0.454 OA
ATOM      8  C   UNL     1     102.772  82.509  26.116  1.00  0.00     0.062 C 
ATOM      9  C   UNL     1     105.134  82.332  26.802  1.00  0.00     0.040 C 
ATOM     10  C   UNL     1     101.898  81.962  25.113  1.00  0.00     0.338 C 
ATOM     11  C   UNL     1     102.435  83.249  27.340  1.00  0.00     0.011 C 
ATOM     12  C   UNL     1     104.876  83.566  27.695  1.00  0.00     0.032 C 
ATOM     13  O   UNL     1     100.649  82.106  25.057  1.00  0.00    -0.246 OA
ATOM     14  C   UNL     1     103.426  83.688  28.125  1.00  0.00    -0.026 C 
ENDBRANCH   4   5
ENDBRANCH   1   4
TORSDOF 3
ENDMDL
MODEL 3
REMARK VINA RESULT:    -3.599     12.734     13.946
REMARK INTER + INTRA:          -4.710
REMARK INTER:                  -4.228
REMARK INTRA:                  -0.481
REMARK UNBOUND:                -0.479
REMARK SMILES CCCC[C@@H]1OC(=O)C2=C1CCC=C2
REMARK SMILES IDX 3 1 2 2 1 3 4 4 5 5 10 6 6 7 9 8 11 9 7 10 14 11 12 12 8 13
REMARK SMILES IDX 13 14
REMARK H PARENT
REMARK Flexibility Score: inf
ROOT
ATOM      1  C   UNL     1     109.576  94.883  23.549  1.00  0.00     0.004 C 
ENDROOT
BRANCH   1   2
ATOM      2  C   UNL     1     110.328  93.550  23.651  1.00  0.00    -0.003 C 
ATOM      3  C   UNL     1     109.764  92.685  24.775  1.00  0.00     0.004 C 
ENDBRANCH   1   2
BRANCH   1   4
ATOM      4  C   UNL     1     108.639  94.892  22.334  1.00  0.00     0.050 C 
BRANCH   4   5
ATOM      5  C   UNL     1     107.352  95.673  22.630  1.00  0.00     0.204 C 
ATOM      6  C   UNL     1     106.878  95.440  24.046  1.00  0.00    -0.015 C 
ATOM      7  O   UNL     1     107.597  97.083  22.601  1.00  0.00    -0.454 OA
ATOM      8  C   UNL     1     106.827  96.580  24.714  1.00  0.00     0.062 C 
ATOM      9  C   UNL     1     106.252  94.185  24.593  1.00  0.00     0.040 C 
ATOM     10  C   UNL     1     107.279  97.625  23.834  1.00  0.00     0.338 C 
ATOM     11  C   UNL     1     106.270  96.683  26.070  1.00  0.00     0.011 C 
ATOM     12  C   UNL     1     106.256  94.198  26.139  1.00  0.00     0.032 C 
ATOM     13  O   UNL     1     107.367  98.849  24.116  1.00  0.00    -0.246 OA
ATOM     14  C   UNL     1     105.933  95.562  26.718  1.00  0.00    -0.026 C 
ENDBRANCH   4   5
ENDBRANCH   1   4
TORSDOF 3
ENDMDL
MODEL 4
REMARK VINA RESULT:    -3.526     12.434     13.885
REMARK INTER + INTRA:          -4.623
REMARK INTER:                  -4.113
REMARK INTRA:                  -0.510
REMARK UNBOUND:                -0.479
REMARK SMILES CCCC[C@@H]1OC(=O)C2=C1CCC=C2
REMARK SMILES IDX 3 1 2 2 1 3 4 4 5 5 10 6 6 7 9 8 11 9 7 10 14 11 12 12 8 13
REMARK SMILES IDX 13 14
REMARK H PARENT
REMARK Flexibility Score: inf
ROOT
ATOM      1  C   UNL     1     106.253  94.071  25.357  1.00  0.00     0.004 C 
ENDROOT
BRANCH   1   2
ATOM      2  C   UNL     1     104.842  94.340  24.822  1.00  0.00    -0.003 C 
ATOM      3  C   UNL     1     104.832  94.392  23.297  1.00  0.00     0.004 C 
ENDBRANCH   1   2
BRANCH   1   4
ATOM      4  C   UNL     1     106.758  95.254  26.193  1.00  0.00     0.050 C 
BRANCH   4   5
ATOM      5  C   UNL     1     107.804  96.072  25.426  1.00  0.00     0.204 C 
ATOM      6  C   UNL     1     108.635  95.194  24.519  1.00  0.00    -0.015 C 
ATOM      7  O   UNL     1     107.172  96.973  24.511  1.00  0.00    -0.454 OA
ATOM      8  C   UNL     1     108.514  95.578  23.259  1.00  0.00     0.062 C 
ATOM      9  C   UNL     1     109.698  94.213  24.937  1.00  0.00     0.040 C 
ATOM     10  C   UNL     1     107.597  96.687  23.225  1.00  0.00     0.338 C 
ATOM     11  C   UNL     1     109.313  94.999  22.171  1.00  0.00     0.011 C 
ATOM     12  C   UNL     1     110.043  93.249  23.779  1.00  0.00     0.032 C 
ATOM     13  O   UNL     1     107.235  97.320  22.200  1.00  0.00    -0.246 OA
ATOM     14  C   UNL     1     110.092  93.942  22.431  1.00  0.00    -0.026 C 
ENDBRANCH   4   5
ENDBRANCH   1   4
TORSDOF 3
ENDMDL
MODEL 5
REMARK VINA RESULT:    -3.484     12.598     14.025
REMARK INTER + INTRA:          -4.574
REMARK INTER:                  -3.939
REMARK INTRA:                  -0.635
REMARK UNBOUND:                -0.479
REMARK SMILES CCCC[C@@H]1OC(=O)C2=C1CCC=C2
REMARK SMILES IDX 3 1 2 2 1 3 4 4 5 5 10 6 6 7 9 8 11 9 7 10 14 11 12 12 8 13
REMARK SMILES IDX 13 14
REMARK H PARENT
REMARK Flexibility Score: inf
ROOT
ATOM      1  C   UNL     1     108.038  97.772  24.000  1.00  0.00     0.004 C 
ENDROOT
BRANCH   1   2
ATOM      2  C   UNL     1     109.510  98.165  23.825  1.00  0.00    -0.003 C 
ATOM      3  C   UNL     1     110.403  97.396  24.795  1.00  0.00     0.004 C 
ENDBRANCH   1   2
BRANCH   1   4
ATOM      4  C   UNL     1     107.481  97.150  22.712  1.00  0.00     0.050 C 
BRANCH   4   5
ATOM      5  C   UNL     1     107.163  95.661  22.906  1.00  0.00     0.204 C 
ATOM      6  C   UNL     1     108.414  94.862  23.190  1.00  0.00    -0.015 C 
ATOM      7  O   UNL     1     106.377  95.460  24.084  1.00  0.00    -0.454 OA
ATOM      8  C   UNL     1     108.324  94.258  24.364  1.00  0.00     0.062 C 
ATOM      9  C   UNL     1     109.503  94.510  22.213  1.00  0.00     0.040 C 
ATOM     10  C   UNL     1     107.060  94.622  24.949  1.00  0.00     0.338 C 
ATOM     11  C   UNL     1     109.329  93.301  24.844  1.00  0.00     0.011 C 
ATOM     12  C   UNL     1     110.771  94.025  22.952  1.00  0.00     0.032 C 
ATOM     13  O   UNL     1     106.619  94.239  26.064  1.00  0.00    -0.246 OA
ATOM     14  C   UNL     1     110.456  93.137  24.140  1.00  0.00    -0.026 C 
ENDBRANCH   4   5
ENDBRANCH   1   4
TORSDOF 3
ENDMDL
MODEL 6
REMARK VINA RESULT:    -3.475      2.120      4.592
REMARK INTER + INTRA:          -4.563
REMARK INTER:                  -4.078
REMARK INTRA:                  -0.485
REMARK UNBOUND:                -0.479
REMARK SMILES CCCC[C@@H]1OC(=O)C2=C1CCC=C2
REMARK SMILES IDX 3 1 2 2 1 3 4 4 5 5 10 6 6 7 9 8 11 9 7 10 14 11 12 12 8 13
REMARK SMILES IDX 13 14
REMARK H PARENT
REMARK Flexibility Score: inf
ROOT
ATOM      1  C   UNL     1     104.671  82.949  26.354  1.00  0.00     0.004 C 
ENDROOT
BRANCH   1   2
ATOM      2  C   UNL     1     104.119  83.307  27.739  1.00  0.00    -0.003 C 
ATOM      3  C   UNL     1     102.598  83.436  27.709  1.00  0.00     0.004 C 
ENDBRANCH   1   2
BRANCH   1   4
ATOM      4  C   UNL     1     104.168  81.571  25.903  1.00  0.00     0.050 C 
BRANCH   4   5
ATOM      5  C   UNL     1     103.869  81.553  24.398  1.00  0.00     0.204 C 
ATOM      6  C   UNL     1     102.862  82.616  24.023  1.00  0.00    -0.015 C 
ATOM      7  O   UNL     1     105.027  81.927  23.647  1.00  0.00    -0.454 OA
ATOM      8  C   UNL     1     103.380  83.457  23.143  1.00  0.00     0.062 C 
ATOM      9  C   UNL     1     101.388  82.610  24.324  1.00  0.00     0.040 C 
ATOM     10  C   UNL     1     104.738  83.052  22.895  1.00  0.00     0.338 C 
ATOM     11  C   UNL     1     102.590  84.511  22.491  1.00  0.00     0.011 C 
ATOM     12  C   UNL     1     100.779  84.017  24.122  1.00  0.00     0.032 C 
ATOM     13  O   UNL     1     105.549  83.611  22.111  1.00  0.00    -0.246 OA
ATOM     14  C   UNL     1     101.336  84.730  22.904  1.00  0.00    -0.026 C 
ENDBRANCH   4   5
ENDBRANCH   1   4
TORSDOF 3
ENDMDL
MODEL 7
REMARK VINA RESULT:    -3.447     12.273     14.034
REMARK INTER + INTRA:          -4.530
REMARK INTER:                  -4.305
REMARK INTRA:                  -0.225
REMARK UNBOUND:                -0.479
REMARK SMILES CCCC[C@@H]1OC(=O)C2=C1CCC=C2
REMARK SMILES IDX 3 1 2 2 1 3 4 4 5 5 10 6 6 7 9 8 11 9 7 10 14 11 12 12 8 13
REMARK SMILES IDX 13 14
REMARK H PARENT
REMARK Flexibility Score: inf
ROOT
ATOM      1  C   UNL     1     106.554  95.562  25.841  1.00  0.00     0.004 C 
ENDROOT
BRANCH   1   2
ATOM      2  C   UNL     1     105.928  94.169  25.710  1.00  0.00    -0.003 C 
ATOM      3  C   UNL     1     104.878  94.139  24.604  1.00  0.00     0.004 C 
ENDBRANCH   1   2
BRANCH   1   4
ATOM      4  C   UNL     1     108.032  95.541  25.427  1.00  0.00     0.050 C 
BRANCH   4   5
ATOM      5  C   UNL     1     108.315  94.404  24.436  1.00  0.00     0.204 C 
ATOM      6  C   UNL     1     109.099  94.897  23.242  1.00  0.00    -0.015 C 
ATOM      7  O   UNL     1     109.189  93.432  25.016  1.00  0.00    -0.454 OA
ATOM      8  C   UNL     1     110.251  94.253  23.143  1.00  0.00     0.062 C 
ATOM      9  C   UNL     1     108.588  95.759  22.118  1.00  0.00     0.040 C 
ATOM     10  C   UNL     1     110.336  93.334  24.247  1.00  0.00     0.338 C 
ATOM     11  C   UNL     1     111.160  94.421  22.001  1.00  0.00     0.011 C 
ATOM     12  C   UNL     1     109.760  96.355  21.305  1.00  0.00     0.032 C 
ATOM     13  O   UNL     1     111.288  92.547  24.487  1.00  0.00    -0.246 OA
ATOM     14  C   UNL     1     110.891  95.367  21.093  1.00  0.00    -0.026 C 
ENDBRANCH   4   5
ENDBRANCH   1   4
TORSDOF 3
ENDMDL
MODEL 8
REMARK VINA RESULT:    -3.432     12.777     14.077
REMARK INTER + INTRA:          -4.513
REMARK INTER:                  -3.874
REMARK INTRA:                  -0.639
REMARK UNBOUND:                -0.479
REMARK SMILES CCCC[C@@H]1OC(=O)C2=C1CCC=C2
REMARK SMILES IDX 3 1 2 2 1 3 4 4 5 5 10 6 6 7 9 8 11 9 7 10 14 11 12 12 8 13
REMARK SMILES IDX 13 14
REMARK H PARENT
REMARK Flexibility Score: inf
ROOT
ATOM      1  C   UNL     1     108.747  96.799  22.293  1.00  0.00     0.004 C 
ENDROOT
BRANCH   1   2
ATOM      2  C   UNL     1     107.317  96.935  21.755  1.00  0.00    -0.003 C 
ATOM      3  C   UNL     1     106.594  95.591  21.770  1.00  0.00     0.004 C 
ENDBRANCH   1   2
BRANCH   1   4
ATOM      4  C   UNL     1     108.922  97.595  23.593  1.00  0.00     0.050 C 
BRANCH   4   5
ATOM      5  C   UNL     1     109.150  96.663  24.790  1.00  0.00     0.204 C 
ATOM      6  C   UNL     1     107.894  95.903  25.146  1.00  0.00    -0.015 C 
ATOM      7  O   UNL     1     110.072  95.623  24.453  1.00  0.00    -0.454 OA
ATOM      8  C   UNL     1     108.097  94.599  25.056  1.00  0.00     0.062 C 
ATOM      9  C   UNL     1     106.658  96.456  25.804  1.00  0.00     0.040 C 
ATOM     10  C   UNL     1     109.453  94.396  24.616  1.00  0.00     0.338 C 
ATOM     11  C   UNL     1     107.098  93.607  25.476  1.00  0.00     0.011 C 
ATOM     12  C   UNL     1     105.470  95.478  25.655  1.00  0.00     0.032 C 
ATOM     13  O   UNL     1     110.012  93.285  24.419  1.00  0.00    -0.246 OA
ATOM     14  C   UNL     1     105.877  94.028  25.828  1.00  0.00    -0.026 C 
ENDBRANCH   4   5
ENDBRANCH   1   4
TORSDOF 3
ENDMDL
MODEL 9
REMARK VINA RESULT:    -3.386      1.886      3.661
REMARK INTER + INTRA:          -4.459
REMARK INTER:                  -3.945
REMARK INTRA:                  -0.514
REMARK UNBOUND:                -0.479
REMARK SMILES CCCC[C@@H]1OC(=O)C2=C1CCC=C2
REMARK SMILES IDX 3 1 2 2 1 3 4 4 5 5 10 6 6 7 9 8 11 9 7 10 14 11 12 12 8 13
REMARK SMILES IDX 13 14
REMARK H PARENT
REMARK Flexibility Score: inf
ROOT
ATOM      1  C   UNL     1     104.572  82.869  25.882  1.00  0.00     0.004 C 
ENDROOT
BRANCH   1   2
ATOM      2  C   UNL     1     105.075  82.945  27.328  1.00  0.00    -0.003 C 
ATOM      3  C   UNL     1     104.302  83.992  28.125  1.00  0.00     0.004 C 
ENDBRANCH   1   2
BRANCH   1   4
ATOM      4  C   UNL     1     104.183  81.431  25.512  1.00  0.00     0.050 C 
BRANCH   4   5
ATOM      5  C   UNL     1     102.824  81.388  24.802  1.00  0.00     0.204 C 
ATOM      6  C   UNL     1     101.898  82.466  25.318  1.00  0.00    -0.015 C 
ATOM      7  O   UNL     1     102.964  81.719  23.418  1.00  0.00    -0.454 OA
ATOM      8  C   UNL     1     101.534  83.276  24.337  1.00  0.00     0.062 C 
ATOM      9  C   UNL     1     101.207  82.500  26.655  1.00  0.00     0.040 C 
ATOM     10  C   UNL     1     102.194  82.834  23.136  1.00  0.00     0.338 C 
ATOM     11  C   UNL     1     100.529  84.333  24.510  1.00  0.00     0.011 C 
ATOM     12  C   UNL     1     100.665  83.916  26.957  1.00  0.00     0.032 C 
ATOM     13  O   UNL     1     102.091  83.357  21.996  1.00  0.00    -0.246 OA
ATOM     14  C   UNL     1     100.065  84.589  25.739  1.00  0.00    -0.026 C 
ENDBRANCH   4   5
ENDBRANCH   1   4
TORSDOF 3
ENDMDL
