MODEL 1
REMARK VINA RESULT:    -5.677      0.000      0.000
REMARK INTER + INTRA:          -6.968
REMARK INTER:                  -6.672
REMARK INTRA:                  -0.296
REMARK UNBOUND:                -0.296
REMARK SMILES O=c1cc(-c2ccc(O)c(O)c2)oc2cc(O)cc(O)c12
REMARK SMILES IDX 4 1 3 2 2 3 1 4 21 5 19 6 18 7 16 8 15 9 14 10 13 11 5 12
REMARK SMILES IDX 6 13 7 14 8 15 12 16 10 17 9 18 11 20 20 22 17 24
REMARK H PARENT 9 19 11 21 20 23 17 25
REMARK Flexibility Score: inf
ROOT
ATOM      1  C   UNL     1      15.897  -6.238   8.264  1.00  0.00     0.138 A 
ATOM      2  C   UNL     1      14.715  -5.983   7.556  1.00  0.00     0.100 A 
ATOM      3  C   UNL     1      14.206  -4.684   7.507  1.00  0.00     0.197 A 
ATOM      4  O   UNL     1      13.111  -4.498   6.917  1.00  0.00    -0.289 OA
ATOM      5  C   UNL     1      14.902  -3.631   8.147  1.00  0.00     0.107 A 
ATOM      6  C   UNL     1      14.499  -2.262   8.129  1.00  0.00     0.134 A 
ATOM      7  C   UNL     1      15.205  -1.326   8.895  1.00  0.00     0.093 A 
ATOM      8  C   UNL     1      16.332  -1.697   9.628  1.00  0.00     0.123 A 
ATOM      9  C   UNL     1      16.767  -3.022   9.609  1.00  0.00     0.094 A 
ATOM     10  C   UNL     1      16.065  -3.987   8.882  1.00  0.00     0.146 A 
ATOM     11  O   UNL     1      16.502  -5.241   8.902  1.00  0.00    -0.456 OA
ENDROOT
BRANCH   1  12
ATOM     12  C   UNL     1      16.483  -7.600   8.346  1.00  0.00     0.021 A 
ATOM     13  C   UNL     1      16.496  -8.417   7.204  1.00  0.00     0.016 A 
ATOM     14  C   UNL     1      17.034  -9.705   7.256  1.00  0.00     0.051 A 
ATOM     15  C   UNL     1      17.558 -10.204   8.451  1.00  0.00     0.157 A 
ATOM     16  C   UNL     1      17.001  -8.112   9.552  1.00  0.00     0.062 A 
ATOM     17  C   UNL     1      17.539  -9.406   9.607  1.00  0.00     0.158 A 
BRANCH  15  18
ATOM     18  O   UNL     1      18.090 -11.493   8.473  1.00  0.00    -0.504 OA
ATOM     19  H   UNL     1      18.354 -11.981   7.627  1.00  0.00     0.293 HD
ENDBRANCH  15  18
BRANCH  17  20
ATOM     20  O   UNL     1      18.051  -9.901  10.805  1.00  0.00    -0.504 OA
ATOM     21  H   UNL     1      18.972 -10.321  10.856  1.00  0.00     0.293 HD
ENDBRANCH  17  20
ENDBRANCH   1  12
BRANCH   6  22
ATOM     22  O   UNL     1      13.438  -1.770   7.364  1.00  0.00    -0.507 OA
ATOM     23  H   UNL     1      12.628  -1.302   7.735  1.00  0.00     0.293 HD
ENDBRANCH   6  22
BRANCH   8  24
ATOM     24  O   UNL     1      17.018  -0.734  10.366  1.00  0.00    -0.508 OA
ATOM     25  H   UNL     1      17.042  -0.762  11.379  1.00  0.00     0.293 HD
ENDBRANCH   8  24
TORSDOF 5
ENDMDL
MODEL 2
REMARK VINA RESULT:    -5.642      1.866      6.932
REMARK INTER + INTRA:          -6.927
REMARK INTER:                  -6.663
REMARK INTRA:                  -0.264
REMARK UNBOUND:                -0.296
REMARK SMILES O=c1cc(-c2ccc(O)c(O)c2)oc2cc(O)cc(O)c12
REMARK SMILES IDX 4 1 3 2 2 3 1 4 21 5 19 6 18 7 16 8 15 9 14 10 13 11 5 12
REMARK SMILES IDX 6 13 7 14 8 15 12 16 10 17 9 18 11 20 20 22 17 24
REMARK H PARENT 9 19 11 21 20 23 17 25
REMARK Flexibility Score: inf
ROOT
ATOM      1  C   UNL     1      16.194  -5.690   7.890  1.00  0.00     0.138 A 
ATOM      2  C   UNL     1      15.666  -6.458   6.843  1.00  0.00     0.100 A 
ATOM      3  C   UNL     1      15.822  -7.845   6.858  1.00  0.00     0.197 A 
ATOM      4  O   UNL     1      15.393  -8.502   5.875  1.00  0.00    -0.289 OA
ATOM      5  C   UNL     1      16.485  -8.467   7.944  1.00  0.00     0.107 A 
ATOM      6  C   UNL     1      16.666  -9.875   8.086  1.00  0.00     0.134 A 
ATOM      7  C   UNL     1      17.439 -10.367   9.145  1.00  0.00     0.093 A 
ATOM      8  C   UNL     1      17.985  -9.508  10.099  1.00  0.00     0.123 A 
ATOM      9  C   UNL     1      17.768  -8.134  10.000  1.00  0.00     0.094 A 
ATOM     10  C   UNL     1      17.030  -7.609   8.936  1.00  0.00     0.146 A 
ATOM     11  O   UNL     1      16.859  -6.293   8.869  1.00  0.00    -0.456 OA
ENDROOT
BRANCH   1  12
ATOM     12  C   UNL     1      16.055  -4.212   7.923  1.00  0.00     0.021 A 
ATOM     13  C   UNL     1      15.211  -3.618   8.877  1.00  0.00     0.016 A 
ATOM     14  C   UNL     1      15.056  -2.231   8.925  1.00  0.00     0.051 A 
ATOM     15  C   UNL     1      15.733  -1.413   8.018  1.00  0.00     0.157 A 
ATOM     16  C   UNL     1      16.726  -3.384   7.002  1.00  0.00     0.062 A 
ATOM     17  C   UNL     1      16.569  -1.990   7.048  1.00  0.00     0.158 A 
BRANCH  15  18
ATOM     18  O   UNL     1      15.561  -0.031   8.091  1.00  0.00    -0.504 OA
ATOM     19  H   UNL     1      14.939   0.469   7.467  1.00  0.00     0.293 HD
ENDBRANCH  15  18
BRANCH  17  20
ATOM     20  O   UNL     1      17.239  -1.180   6.133  1.00  0.00    -0.504 OA
ATOM     21  H   UNL     1      17.080  -1.261   5.135  1.00  0.00     0.293 HD
ENDBRANCH  17  20
ENDBRANCH   1  12
BRANCH   6  22
ATOM     22  O   UNL     1      16.093 -10.826   7.237  1.00  0.00    -0.507 OA
ATOM     23  H   UNL     1      15.161 -10.773   6.856  1.00  0.00     0.293 HD
ENDBRANCH   6  22
BRANCH   8  24
ATOM     24  O   UNL     1      18.736 -10.036  11.147  1.00  0.00    -0.508 OA
ATOM     25  H   UNL     1      18.898 -11.033  11.232  1.00  0.00     0.293 HD
ENDBRANCH   8  24
TORSDOF 5
ENDMDL
MODEL 3
REMARK VINA RESULT:    -5.460      2.818      4.849
REMARK INTER + INTRA:          -6.713
REMARK INTER:                  -6.435
REMARK INTRA:                  -0.279
REMARK UNBOUND:                -0.296
REMARK SMILES O=c1cc(-c2ccc(O)c(O)c2)oc2cc(O)cc(O)c12
REMARK SMILES IDX 4 1 3 2 2 3 1 4 21 5 19 6 18 7 16 8 15 9 14 10 13 11 5 12
REMARK SMILES IDX 6 13 7 14 8 15 12 16 10 17 9 18 11 20 20 22 17 24
REMARK H PARENT 9 19 11 21 20 23 17 25
REMARK Flexibility Score: inf
ROOT
ATOM      1  C   UNL     1      16.165  -9.622   8.102  1.00  0.00     0.138 A 
ATOM      2  C   UNL     1      17.086  -9.561   9.157  1.00  0.00     0.100 A 
ATOM      3  C   UNL     1      17.662  -8.336   9.500  1.00  0.00     0.197 A 
ATOM      4  O   UNL     1      18.530  -8.322  10.409  1.00  0.00    -0.289 OA
ATOM      5  C   UNL     1      17.290  -7.163   8.799  1.00  0.00     0.107 A 
ATOM      6  C   UNL     1      17.781  -5.855   9.088  1.00  0.00     0.134 A 
ATOM      7  C   UNL     1      17.430  -4.787   8.253  1.00  0.00     0.093 A 
ATOM      8  C   UNL     1      16.560  -4.968   7.178  1.00  0.00     0.123 A 
ATOM      9  C   UNL     1      16.031  -6.233   6.919  1.00  0.00     0.094 A 
ATOM     10  C   UNL     1      16.388  -7.325   7.714  1.00  0.00     0.146 A 
ATOM     11  O   UNL     1      15.875  -8.516   7.425  1.00  0.00    -0.456 OA
ENDROOT
BRANCH   1  12
ATOM     12  C   UNL     1      15.522 -10.898   7.697  1.00  0.00     0.021 A 
ATOM     13  C   UNL     1      14.149 -10.916   7.398  1.00  0.00     0.016 A 
ATOM     14  C   UNL     1      13.518 -12.103   7.022  1.00  0.00     0.051 A 
ATOM     15  C   UNL     1      14.242 -13.296   6.949  1.00  0.00     0.157 A 
ATOM     16  C   UNL     1      16.246 -12.105   7.634  1.00  0.00     0.062 A 
ATOM     17  C   UNL     1      15.612 -13.299   7.259  1.00  0.00     0.158 A 
BRANCH  15  18
ATOM     18  O   UNL     1      13.586 -14.466   6.569  1.00  0.00    -0.504 OA
ATOM     19  H   UNL     1      12.729 -14.772   7.014  1.00  0.00     0.293 HD
ENDBRANCH  15  18
BRANCH  17  20
ATOM     20  O   UNL     1      16.338 -14.487   7.198  1.00  0.00    -0.504 OA
ATOM     21  H   UNL     1      16.493 -15.059   8.020  1.00  0.00     0.293 HD
ENDBRANCH  17  20
ENDBRANCH   1  12
BRANCH   6  22
ATOM     22  O   UNL     1      18.589  -5.549  10.187  1.00  0.00    -0.507 OA
ATOM     23  H   UNL     1      19.384  -4.931  10.164  1.00  0.00     0.293 HD
ENDBRANCH   6  22
BRANCH   8  24
ATOM     24  O   UNL     1      16.221  -3.879   6.378  1.00  0.00    -0.508 OA
ATOM     25  H   UNL     1      16.466  -2.932   6.643  1.00  0.00     0.293 HD
ENDBRANCH   8  24
TORSDOF 5
ENDMDL
MODEL 4
REMARK VINA RESULT:    -5.388      1.166      2.685
REMARK INTER + INTRA:          -6.629
REMARK INTER:                  -6.344
REMARK INTRA:                  -0.285
REMARK UNBOUND:                -0.296
REMARK SMILES O=c1cc(-c2ccc(O)c(O)c2)oc2cc(O)cc(O)c12
REMARK SMILES IDX 4 1 3 2 2 3 1 4 21 5 19 6 18 7 16 8 15 9 14 10 13 11 5 12
REMARK SMILES IDX 6 13 7 14 8 15 12 16 10 17 9 18 11 20 20 22 17 24
REMARK H PARENT 9 19 11 21 20 23 17 25
REMARK Flexibility Score: inf
ROOT
ATOM      1  C   UNL     1      16.224  -6.073   8.556  1.00  0.00     0.138 A 
ATOM      2  C   UNL     1      16.912  -5.077   9.263  1.00  0.00     0.100 A 
ATOM      3  C   UNL     1      16.440  -3.763   9.239  1.00  0.00     0.197 A 
ATOM      4  O   UNL     1      17.112  -2.880   9.831  1.00  0.00    -0.289 OA
ATOM      5  C   UNL     1      15.257  -3.454   8.526  1.00  0.00     0.107 A 
ATOM      6  C   UNL     1      14.661  -2.158   8.465  1.00  0.00     0.134 A 
ATOM      7  C   UNL     1      13.554  -1.948   7.634  1.00  0.00     0.093 A 
ATOM      8  C   UNL     1      12.986  -2.996   6.909  1.00  0.00     0.123 A 
ATOM      9  C   UNL     1      13.528  -4.277   7.005  1.00  0.00     0.094 A 
ATOM     10  C   UNL     1      14.652  -4.513   7.799  1.00  0.00     0.146 A 
ATOM     11  O   UNL     1      15.147  -5.746   7.850  1.00  0.00    -0.456 OA
ENDROOT
BRANCH   1  12
ATOM     12  C   UNL     1      16.682  -7.486   8.549  1.00  0.00     0.021 A 
ATOM     13  C   UNL     1      16.505  -8.264   7.393  1.00  0.00     0.016 A 
ATOM     14  C   UNL     1      16.919  -9.598   7.363  1.00  0.00     0.051 A 
ATOM     15  C   UNL     1      17.506 -10.181   8.488  1.00  0.00     0.157 A 
ATOM     16  C   UNL     1      17.263  -8.082   9.686  1.00  0.00     0.062 A 
ATOM     17  C   UNL     1      17.677  -9.422   9.657  1.00  0.00     0.158 A 
BRANCH  15  18
ATOM     18  O   UNL     1      17.912 -11.514   8.428  1.00  0.00    -0.504 OA
ATOM     19  H   UNL     1      18.767 -11.837   8.863  1.00  0.00     0.293 HD
ENDBRANCH  15  18
BRANCH  17  20
ATOM     20  O   UNL     1      18.253 -10.000  10.787  1.00  0.00    -0.504 OA
ATOM     21  H   UNL     1      19.098 -10.556  10.727  1.00  0.00     0.293 HD
ENDBRANCH  17  20
ENDBRANCH   1  12
BRANCH   6  22
ATOM     22  O   UNL     1      15.098  -1.061   9.213  1.00  0.00    -0.507 OA
ATOM     23  H   UNL     1      14.496  -0.366   9.623  1.00  0.00     0.293 HD
ENDBRANCH   6  22
BRANCH   8  24
ATOM     24  O   UNL     1      11.875  -2.751   6.105  1.00  0.00    -0.508 OA
ATOM     25  H   UNL     1      11.499  -1.816   5.992  1.00  0.00     0.293 HD
ENDBRANCH   8  24
TORSDOF 5
ENDMDL
MODEL 5
REMARK VINA RESULT:    -5.256      2.758      8.006
REMARK INTER + INTRA:          -6.474
REMARK INTER:                  -6.175
REMARK INTRA:                  -0.300
REMARK UNBOUND:                -0.296
REMARK SMILES O=c1cc(-c2ccc(O)c(O)c2)oc2cc(O)cc(O)c12
REMARK SMILES IDX 4 1 3 2 2 3 1 4 21 5 19 6 18 7 16 8 15 9 14 10 13 11 5 12
REMARK SMILES IDX 6 13 7 14 8 15 12 16 10 17 9 18 11 20 20 22 17 24
REMARK H PARENT 9 19 11 21 20 23 17 25
REMARK Flexibility Score: inf
ROOT
ATOM      1  C   UNL     1      16.435  -9.460   7.763  1.00  0.00     0.138 A 
ATOM      2  C   UNL     1      15.165 -10.051   7.705  1.00  0.00     0.100 A 
ATOM      3  C   UNL     1      15.042 -11.385   7.311  1.00  0.00     0.197 A 
ATOM      4  O   UNL     1      13.886 -11.869   7.208  1.00  0.00    -0.289 OA
ATOM      5  C   UNL     1      16.200 -12.137   7.003  1.00  0.00     0.107 A 
ATOM      6  C   UNL     1      16.199 -13.515   6.630  1.00  0.00     0.134 A 
ATOM      7  C   UNL     1      17.397 -14.124   6.236  1.00  0.00     0.093 A 
ATOM      8  C   UNL     1      18.603 -13.424   6.259  1.00  0.00     0.123 A 
ATOM      9  C   UNL     1      18.624 -12.092   6.675  1.00  0.00     0.094 A 
ATOM     10  C   UNL     1      17.441 -11.447   7.042  1.00  0.00     0.146 A 
ATOM     11  O   UNL     1      17.501 -10.173   7.416  1.00  0.00    -0.456 OA
ENDROOT
BRANCH   1  12
ATOM     12  C   UNL     1      16.623  -8.047   8.177  1.00  0.00     0.021 A 
ATOM     13  C   UNL     1      15.680  -7.081   7.785  1.00  0.00     0.016 A 
ATOM     14  C   UNL     1      15.838  -5.743   8.154  1.00  0.00     0.051 A 
ATOM     15  C   UNL     1      16.942  -5.344   8.911  1.00  0.00     0.157 A 
ATOM     16  C   UNL     1      17.741  -7.637   8.929  1.00  0.00     0.062 A 
ATOM     17  C   UNL     1      17.901  -6.293   9.298  1.00  0.00     0.158 A 
BRANCH  15  18
ATOM     18  O   UNL     1      17.072  -4.001   9.266  1.00  0.00    -0.504 OA
ATOM     19  H   UNL     1      17.511  -3.323   8.656  1.00  0.00     0.293 HD
ENDBRANCH  15  18
BRANCH  17  20
ATOM     20  O   UNL     1      19.011  -5.900  10.044  1.00  0.00    -0.504 OA
ATOM     21  H   UNL     1      18.921  -5.576  11.000  1.00  0.00     0.293 HD
ENDBRANCH  17  20
ENDBRANCH   1  12
BRANCH   6  22
ATOM     22  O   UNL     1      15.063 -14.329   6.653  1.00  0.00    -0.507 OA
ATOM     23  H   UNL     1      14.383 -14.391   5.912  1.00  0.00     0.293 HD
ENDBRANCH   6  22
BRANCH   8  24
ATOM     24  O   UNL     1      19.777 -14.068   5.875  1.00  0.00    -0.508 OA
ATOM     25  H   UNL     1      20.010 -14.206   4.899  1.00  0.00     0.293 HD
ENDBRANCH   8  24
TORSDOF 5
ENDMDL
MODEL 6
REMARK VINA RESULT:    -5.057      2.841      4.133
REMARK INTER + INTRA:          -6.240
REMARK INTER:                  -5.932
REMARK INTRA:                  -0.308
REMARK UNBOUND:                -0.296
REMARK SMILES O=c1cc(-c2ccc(O)c(O)c2)oc2cc(O)cc(O)c12
REMARK SMILES IDX 4 1 3 2 2 3 1 4 21 5 19 6 18 7 16 8 15 9 14 10 13 11 5 12
REMARK SMILES IDX 6 13 7 14 8 15 12 16 10 17 9 18 11 20 20 22 17 24
REMARK H PARENT 9 19 11 21 20 23 17 25
REMARK Flexibility Score: inf
ROOT
ATOM      1  C   UNL     1      15.142  -9.349   7.762  1.00  0.00     0.138 A 
ATOM      2  C   UNL     1      14.205  -8.375   7.390  1.00  0.00     0.100 A 
ATOM      3  C   UNL     1      14.489  -7.026   7.606  1.00  0.00     0.197 A 
ATOM      4  O   UNL     1      13.604  -6.180   7.320  1.00  0.00    -0.289 OA
ATOM      5  C   UNL     1      15.731  -6.651   8.172  1.00  0.00     0.107 A 
ATOM      6  C   UNL     1      16.145  -5.304   8.401  1.00  0.00     0.134 A 
ATOM      7  C   UNL     1      17.349  -5.059   9.074  1.00  0.00     0.093 A 
ATOM      8  C   UNL     1      18.181  -6.106   9.470  1.00  0.00     0.123 A 
ATOM      9  C   UNL     1      17.811  -7.424   9.202  1.00  0.00     0.094 A 
ATOM     10  C   UNL     1      16.600  -7.704   8.564  1.00  0.00     0.146 A 
ATOM     11  O   UNL     1      16.277  -8.973   8.341  1.00  0.00    -0.456 OA
ENDROOT
BRANCH   1  12
ATOM     12  C   UNL     1      14.891 -10.798   7.552  1.00  0.00     0.021 A 
ATOM     13  C   UNL     1      13.569 -11.273   7.521  1.00  0.00     0.016 A 
ATOM     14  C   UNL     1      13.306 -12.632   7.334  1.00  0.00     0.051 A 
ATOM     15  C   UNL     1      14.356 -13.541   7.184  1.00  0.00     0.157 A 
ATOM     16  C   UNL     1      15.947 -11.720   7.413  1.00  0.00     0.062 A 
ATOM     17  C   UNL     1      15.684 -13.085   7.227  1.00  0.00     0.158 A 
BRANCH  15  18
ATOM     18  O   UNL     1      14.063 -14.892   6.996  1.00  0.00    -0.504 OA
ATOM     19  H   UNL     1      13.378 -15.378   7.561  1.00  0.00     0.293 HD
ENDBRANCH  15  18
BRANCH  17  20
ATOM     20  O   UNL     1      16.736 -13.988   7.089  1.00  0.00    -0.504 OA
ATOM     21  H   UNL     1      17.626 -13.843   7.551  1.00  0.00     0.293 HD
ENDBRANCH  17  20
ENDBRANCH   1  12
BRANCH   6  22
ATOM     22  O   UNL     1      15.430  -4.183   7.971  1.00  0.00    -0.507 OA
ATOM     23  H   UNL     1      15.805  -3.446   7.396  1.00  0.00     0.293 HD
ENDBRANCH   6  22
BRANCH   8  24
ATOM     24  O   UNL     1      19.378  -5.822  10.123  1.00  0.00    -0.508 OA
ATOM     25  H   UNL     1      19.672  -6.344  10.940  1.00  0.00     0.293 HD
ENDBRANCH   8  24
TORSDOF 5
ENDMDL
MODEL 7
REMARK VINA RESULT:    -4.921      2.800      8.014
REMARK INTER + INTRA:          -6.080
REMARK INTER:                  -5.797
REMARK INTRA:                  -0.283
REMARK UNBOUND:                -0.296
REMARK SMILES O=c1cc(-c2ccc(O)c(O)c2)oc2cc(O)cc(O)c12
REMARK SMILES IDX 4 1 3 2 2 3 1 4 21 5 19 6 18 7 16 8 15 9 14 10 13 11 5 12
REMARK SMILES IDX 6 13 7 14 8 15 12 16 10 17 9 18 11 20 20 22 17 24
REMARK H PARENT 9 19 11 21 20 23 17 25
REMARK Flexibility Score: inf
ROOT
ATOM      1  C   UNL     1      16.324  -9.116   7.891  1.00  0.00     0.138 A 
ATOM      2  C   UNL     1      17.517  -9.839   7.744  1.00  0.00     0.100 A 
ATOM      3  C   UNL     1      17.466 -11.207   7.474  1.00  0.00     0.197 A 
ATOM      4  O   UNL     1      18.550 -11.840   7.408  1.00  0.00    -0.289 OA
ATOM      5  C   UNL     1      16.212 -11.848   7.321  1.00  0.00     0.107 A 
ATOM      6  C   UNL     1      16.040 -13.228   7.004  1.00  0.00     0.134 A 
ATOM      7  C   UNL     1      14.751 -13.776   6.992  1.00  0.00     0.093 A 
ATOM      8  C   UNL     1      13.627 -12.983   7.225  1.00  0.00     0.123 A 
ATOM      9  C   UNL     1      13.782 -11.621   7.482  1.00  0.00     0.094 A 
ATOM     10  C   UNL     1      15.056 -11.051   7.534  1.00  0.00     0.146 A 
ATOM     11  O   UNL     1      15.162  -9.752   7.797  1.00  0.00    -0.456 OA
ENDROOT
BRANCH   1  12
ATOM     12  C   UNL     1      16.322  -7.659   8.178  1.00  0.00     0.021 A 
ATOM     13  C   UNL     1      15.328  -6.845   7.609  1.00  0.00     0.016 A 
ATOM     14  C   UNL     1      15.307  -5.470   7.856  1.00  0.00     0.051 A 
ATOM     15  C   UNL     1      16.282  -4.883   8.666  1.00  0.00     0.157 A 
ATOM     16  C   UNL     1      17.310  -7.061   8.984  1.00  0.00     0.062 A 
ATOM     17  C   UNL     1      17.291  -5.680   9.231  1.00  0.00     0.158 A 
BRANCH  15  18
ATOM     18  O   UNL     1      16.235  -3.508   8.897  1.00  0.00    -0.504 OA
ATOM     19  H   UNL     1      17.030  -2.996   9.259  1.00  0.00     0.293 HD
ENDBRANCH  15  18
BRANCH  17  20
ATOM     20  O   UNL     1      18.273  -5.099  10.032  1.00  0.00    -0.504 OA
ATOM     21  H   UNL     1      18.251  -5.179  11.042  1.00  0.00     0.293 HD
ENDBRANCH  17  20
ENDBRANCH   1  12
BRANCH   6  22
ATOM     22  O   UNL     1      17.088 -14.091   6.672  1.00  0.00    -0.507 OA
ATOM     23  H   UNL     1      18.066 -13.851   6.710  1.00  0.00     0.293 HD
ENDBRANCH   6  22
BRANCH   8  24
ATOM     24  O   UNL     1      12.360 -13.561   7.190  1.00  0.00    -0.508 OA
ATOM     25  H   UNL     1      11.924 -13.931   8.026  1.00  0.00     0.293 HD
ENDBRANCH   8  24
TORSDOF 5
ENDMDL
MODEL 8
REMARK VINA RESULT:    -4.821      2.693      4.457
REMARK INTER + INTRA:          -5.962
REMARK INTER:                  -5.662
REMARK INTRA:                  -0.300
REMARK UNBOUND:                -0.296
REMARK SMILES O=c1cc(-c2ccc(O)c(O)c2)oc2cc(O)cc(O)c12
REMARK SMILES IDX 4 1 3 2 2 3 1 4 21 5 19 6 18 7 16 8 15 9 14 10 13 11 5 12
REMARK SMILES IDX 6 13 7 14 8 15 12 16 10 17 9 18 11 20 20 22 17 24
REMARK H PARENT 9 19 11 21 20 23 17 25
REMARK Flexibility Score: inf
ROOT
ATOM      1  C   UNL     1      16.469 -10.173   7.084  1.00  0.00     0.138 A 
ATOM      2  C   UNL     1      15.228  -9.687   6.649  1.00  0.00     0.100 A 
ATOM      3  C   UNL     1      14.854  -8.377   6.955  1.00  0.00     0.197 A 
ATOM      4  O   UNL     1      13.710  -7.990   6.606  1.00  0.00    -0.289 OA
ATOM      5  C   UNL     1      15.742  -7.543   7.676  1.00  0.00     0.107 A 
ATOM      6  C   UNL     1      15.484  -6.179   8.009  1.00  0.00     0.134 A 
ATOM      7  C   UNL     1      16.388  -5.487   8.825  1.00  0.00     0.093 A 
ATOM      8  C   UNL     1      17.566  -6.088   9.270  1.00  0.00     0.123 A 
ATOM      9  C   UNL     1      17.853  -7.403   8.904  1.00  0.00     0.094 A 
ATOM     10  C   UNL     1      16.957  -8.131   8.119  1.00  0.00     0.146 A 
ATOM     11  O   UNL     1      17.260  -9.387   7.806  1.00  0.00    -0.456 OA
ENDROOT
BRANCH   1  12
ATOM     12  C   UNL     1      16.917 -11.557   6.785  1.00  0.00     0.021 A 
ATOM     13  C   UNL     1      15.979 -12.603   6.789  1.00  0.00     0.016 A 
ATOM     14  C   UNL     1      16.375 -13.915   6.519  1.00  0.00     0.051 A 
ATOM     15  C   UNL     1      17.714 -14.207   6.249  1.00  0.00     0.157 A 
ATOM     16  C   UNL     1      18.268 -11.859   6.525  1.00  0.00     0.062 A 
ATOM     17  C   UNL     1      18.667 -13.176   6.255  1.00  0.00     0.158 A 
BRANCH  15  18
ATOM     18  O   UNL     1      18.080 -15.526   5.981  1.00  0.00    -0.504 OA
ATOM     19  H   UNL     1      17.987 -15.934   5.058  1.00  0.00     0.293 HD
ENDBRANCH  15  18
BRANCH  17  20
ATOM     20  O   UNL     1      20.006 -13.463   5.997  1.00  0.00    -0.504 OA
ATOM     21  H   UNL     1      20.725 -13.320   6.697  1.00  0.00     0.293 HD
ENDBRANCH  17  20
ENDBRANCH   1  12
BRANCH   6  22
ATOM     22  O   UNL     1      14.379  -5.458   7.548  1.00  0.00    -0.507 OA
ATOM     23  H   UNL     1      14.057  -4.586   7.937  1.00  0.00     0.293 HD
ENDBRANCH   6  22
BRANCH   8  24
ATOM     24  O   UNL     1      18.447  -5.362  10.067  1.00  0.00    -0.508 OA
ATOM     25  H   UNL     1      19.418  -5.237   9.805  1.00  0.00     0.293 HD
ENDBRANCH   8  24
TORSDOF 5
ENDMDL
MODEL 9
REMARK VINA RESULT:    -4.803      1.552      3.170
REMARK INTER + INTRA:          -5.942
REMARK INTER:                  -5.645
REMARK INTRA:                  -0.297
REMARK UNBOUND:                -0.296
REMARK SMILES O=c1cc(-c2ccc(O)c(O)c2)oc2cc(O)cc(O)c12
REMARK SMILES IDX 4 1 3 2 2 3 1 4 21 5 19 6 18 7 16 8 15 9 14 10 13 11 5 12
REMARK SMILES IDX 6 13 7 14 8 15 12 16 10 17 9 18 11 20 20 22 17 24
REMARK H PARENT 9 19 11 21 20 23 17 25
REMARK Flexibility Score: inf
ROOT
ATOM      1  C   UNL     1      16.588  -7.397   7.955  1.00  0.00     0.138 A 
ATOM      2  C   UNL     1      17.615  -6.956   8.800  1.00  0.00     0.100 A 
ATOM      3  C   UNL     1      17.602  -5.643   9.275  1.00  0.00     0.197 A 
ATOM      4  O   UNL     1      18.569  -5.258   9.981  1.00  0.00    -0.289 OA
ATOM      5  C   UNL     1      16.538  -4.778   8.923  1.00  0.00     0.107 A 
ATOM      6  C   UNL     1      16.400  -3.434   9.381  1.00  0.00     0.134 A 
ATOM      7  C   UNL     1      15.367  -2.636   8.873  1.00  0.00     0.093 A 
ATOM      8  C   UNL     1      14.433  -3.151   7.974  1.00  0.00     0.123 A 
ATOM      9  C   UNL     1      14.528  -4.480   7.562  1.00  0.00     0.094 A 
ATOM     10  C   UNL     1      15.566  -5.292   8.024  1.00  0.00     0.146 A 
ATOM     11  O   UNL     1      15.630  -6.549   7.596  1.00  0.00    -0.456 OA
ENDROOT
BRANCH   1  12
ATOM     12  C   UNL     1      16.552  -8.783   7.423  1.00  0.00     0.021 A 
ATOM     13  C   UNL     1      15.531  -9.155   6.532  1.00  0.00     0.016 A 
ATOM     14  C   UNL     1      15.469 -10.455   6.023  1.00  0.00     0.051 A 
ATOM     15  C   UNL     1      16.418 -11.407   6.401  1.00  0.00     0.157 A 
ATOM     16  C   UNL     1      17.499  -9.750   7.812  1.00  0.00     0.062 A 
ATOM     17  C   UNL     1      17.437 -11.056   7.303  1.00  0.00     0.158 A 
BRANCH  15  18
ATOM     18  O   UNL     1      16.333 -12.696   5.876  1.00  0.00    -0.504 OA
ATOM     19  H   UNL     1      16.097 -12.868   4.906  1.00  0.00     0.293 HD
ENDBRANCH  15  18
BRANCH  17  20
ATOM     20  O   UNL     1      18.381 -12.005   7.692  1.00  0.00    -0.504 OA
ATOM     21  H   UNL     1      18.115 -12.953   7.931  1.00  0.00     0.293 HD
ENDBRANCH  17  20
ENDBRANCH   1  12
BRANCH   6  22
ATOM     22  O   UNL     1      17.228  -2.847  10.342  1.00  0.00    -0.507 OA
ATOM     23  H   UNL     1      18.183  -2.566  10.186  1.00  0.00     0.293 HD
ENDBRANCH   6  22
BRANCH   8  24
ATOM     24  O   UNL     1      13.410  -2.331   7.502  1.00  0.00    -0.508 OA
ATOM     25  H   UNL     1      13.313  -1.372   7.815  1.00  0.00     0.293 HD
ENDBRANCH   8  24
TORSDOF 5
ENDMDL
