MODEL 1
REMARK VINA RESULT:    -3.599      0.000      0.000
REMARK INTER + INTRA:          -4.326
REMARK INTER:                  -4.230
REMARK INTRA:                  -0.096
REMARK UNBOUND:                -0.096
REMARK SMILES O=C([O-])CCC(=O)[O-]
REMARK SMILES IDX 4 1 2 2 1 3 3 4 5 5 6 6 7 7 8 8
REMARK H PARENT
REMARK Flexibility Score: inf
ROOT
ATOM      1  C   UNL     1     172.366 171.285 209.323  1.00  0.00     0.059 C 
ENDROOT
BRANCH   1   2
ATOM      2  C   UNL     1     173.365 170.757 208.339  1.00  0.00     0.042 C 
ATOM      3  O   UNL     1     174.399 170.161 208.743  1.00  0.00    -0.550 OA
ATOM      4  O   UNL     1     173.134 170.889 206.976  1.00  0.00    -0.550 OA
ENDBRANCH   1   2
BRANCH   1   5
ATOM      5  C   UNL     1     172.021 172.752 209.044  1.00  0.00     0.059 C 
BRANCH   5   6
ATOM      6  C   UNL     1     170.646 172.897 208.467  1.00  0.00     0.042 C 
ATOM      7  O   UNL     1     169.668 173.158 209.217  1.00  0.00    -0.550 OA
ATOM      8  O   UNL     1     170.437 172.702 207.107  1.00  0.00    -0.550 OA
ENDBRANCH   5   6
ENDBRANCH   1   5
TORSDOF 3
ENDMDL
MODEL 2
REMARK VINA RESULT:    -3.598      0.096      3.766
REMARK INTER + INTRA:          -4.324
REMARK INTER:                  -4.218
REMARK INTRA:                  -0.106
REMARK UNBOUND:                -0.096
REMARK SMILES O=C([O-])CCC(=O)[O-]
REMARK SMILES IDX 4 1 2 2 1 3 3 4 5 5 6 6 7 7 8 8
REMARK H PARENT
REMARK Flexibility Score: inf
ROOT
ATOM      1  C   UNL     1     171.945 172.763 208.961  1.00  0.00     0.059 C 
ENDROOT
BRANCH   1   2
ATOM      2  C   UNL     1     170.569 172.894 208.383  1.00  0.00     0.042 C 
ATOM      3  O   UNL     1     169.595 173.188 209.126  1.00  0.00    -0.550 OA
ATOM      4  O   UNL     1     170.370 172.730 207.019  1.00  0.00    -0.550 OA
ENDBRANCH   1   2
BRANCH   1   5
ATOM      5  C   UNL     1     172.291 171.302 209.268  1.00  0.00     0.059 C 
BRANCH   5   6
ATOM      6  C   UNL     1     173.303 170.759 208.307  1.00  0.00     0.042 C 
ATOM      7  O   UNL     1     174.348 170.201 208.734  1.00  0.00    -0.550 OA
ATOM      8  O   UNL     1     173.113 170.907 206.938  1.00  0.00    -0.550 OA
ENDBRANCH   5   6
ENDBRANCH   1   5
TORSDOF 3
ENDMDL
MODEL 3
REMARK VINA RESULT:    -3.553      1.397      4.041
REMARK INTER + INTRA:          -4.272
REMARK INTER:                  -4.237
REMARK INTRA:                  -0.035
REMARK UNBOUND:                -0.096
REMARK SMILES O=C([O-])CCC(=O)[O-]
REMARK SMILES IDX 4 1 2 2 1 3 3 4 5 5 6 6 7 7 8 8
REMARK H PARENT
REMARK Flexibility Score: inf
ROOT
ATOM      1  C   UNL     1     170.813 172.378 207.685  1.00  0.00     0.059 C 
ENDROOT
BRANCH   1   2
ATOM      2  C   UNL     1     170.016 172.935 208.825  1.00  0.00     0.042 C 
ATOM      3  O   UNL     1     168.936 173.545 208.605  1.00  0.00    -0.550 OA
ATOM      4  O   UNL     1     170.446 172.744 210.132  1.00  0.00    -0.550 OA
ENDBRANCH   1   2
BRANCH   1   5
ATOM      5  C   UNL     1     171.563 171.104 208.090  1.00  0.00     0.059 C 
BRANCH   5   6
ATOM      6  C   UNL     1     172.995 171.388 208.425  1.00  0.00     0.042 C 
ATOM      7  O   UNL     1     173.405 172.577 208.499  1.00  0.00    -0.550 OA
ATOM      8  O   UNL     1     173.887 170.340 208.614  1.00  0.00    -0.550 OA
ENDBRANCH   5   6
ENDBRANCH   1   5
TORSDOF 3
ENDMDL
MODEL 4
REMARK VINA RESULT:    -3.546      1.286      1.910
REMARK INTER + INTRA:          -4.264
REMARK INTER:                  -4.214
REMARK INTRA:                  -0.049
REMARK UNBOUND:                -0.096
REMARK SMILES O=C([O-])CCC(=O)[O-]
REMARK SMILES IDX 4 1 2 2 1 3 3 4 5 5 6 6 7 7 8 8
REMARK H PARENT
REMARK Flexibility Score: inf
ROOT
ATOM      1  C   UNL     1     172.377 172.455 207.968  1.00  0.00     0.059 C 
ENDROOT
BRANCH   1   2
ATOM      2  C   UNL     1     173.053 171.195 207.521  1.00  0.00     0.042 C 
ATOM      3  O   UNL     1     173.024 170.855 206.308  1.00  0.00    -0.550 OA
ATOM      4  O   UNL     1     173.748 170.417 208.437  1.00  0.00    -0.550 OA
ENDBRANCH   1   2
BRANCH   1   5
ATOM      5  C   UNL     1     170.867 172.406 207.714  1.00  0.00     0.059 C 
BRANCH   5   6
ATOM      6  C   UNL     1     170.090 172.888 208.901  1.00  0.00     0.042 C 
ATOM      7  O   UNL     1     169.020 173.531 208.739  1.00  0.00    -0.550 OA
ATOM      8  O   UNL     1     170.571 172.664 210.185  1.00  0.00    -0.550 OA
ENDBRANCH   5   6
ENDBRANCH   1   5
TORSDOF 3
ENDMDL
MODEL 5
REMARK VINA RESULT:    -3.429      2.119      3.285
REMARK INTER + INTRA:          -4.126
REMARK INTER:                  -3.974
REMARK INTRA:                  -0.152
REMARK UNBOUND:                -0.096
REMARK SMILES O=C([O-])CCC(=O)[O-]
REMARK SMILES IDX 4 1 2 2 1 3 3 4 5 5 6 6 7 7 8 8
REMARK H PARENT
REMARK Flexibility Score: inf
ROOT
ATOM      1  C   UNL     1     172.141 170.905 208.300  1.00  0.00     0.059 C 
ENDROOT
BRANCH   1   2
ATOM      2  C   UNL     1     170.677 170.841 208.612  1.00  0.00     0.042 C 
ATOM      3  O   UNL     1     170.100 169.726 208.719  1.00  0.00    -0.550 OA
ATOM      4  O   UNL     1     169.960 172.011 208.825  1.00  0.00    -0.550 OA
ENDBRANCH   1   2
BRANCH   1   5
ATOM      5  C   UNL     1     172.475 172.106 207.407  1.00  0.00     0.059 C 
BRANCH   5   6
ATOM      6  C   UNL     1     172.038 171.881 205.992  1.00  0.00     0.042 C 
ATOM      7  O   UNL     1     172.672 171.083 205.252  1.00  0.00    -0.550 OA
ATOM      8  O   UNL     1     170.956 172.585 205.477  1.00  0.00    -0.550 OA
ENDBRANCH   5   6
ENDBRANCH   1   5
TORSDOF 3
ENDMDL
MODEL 6
REMARK VINA RESULT:    -3.391      2.117      2.953
REMARK INTER + INTRA:          -4.082
REMARK INTER:                  -3.931
REMARK INTRA:                  -0.151
REMARK UNBOUND:                -0.096
REMARK SMILES O=C([O-])CCC(=O)[O-]
REMARK SMILES IDX 4 1 2 2 1 3 3 4 5 5 6 6 7 7 8 8
REMARK H PARENT
REMARK Flexibility Score: inf
ROOT
ATOM      1  C   UNL     1     172.483 172.076 207.389  1.00  0.00     0.059 C 
ENDROOT
BRANCH   1   2
ATOM      2  C   UNL     1     171.890 171.885 206.027  1.00  0.00     0.042 C 
ATOM      3  O   UNL     1     170.935 172.611 205.642  1.00  0.00    -0.550 OA
ATOM      4  O   UNL     1     172.419 170.931 205.167  1.00  0.00    -0.550 OA
ENDBRANCH   1   2
BRANCH   1   5
ATOM      5  C   UNL     1     172.192 170.881 208.303  1.00  0.00     0.059 C 
BRANCH   5   6
ATOM      6  C   UNL     1     170.741 170.805 208.669  1.00  0.00     0.042 C 
ATOM      7  O   UNL     1     170.144 169.695 208.668  1.00  0.00    -0.550 OA
ATOM      8  O   UNL     1     170.037 171.964 208.970  1.00  0.00    -0.550 OA
ENDBRANCH   5   6
ENDBRANCH   1   5
TORSDOF 3
ENDMDL
MODEL 7
REMARK VINA RESULT:    -3.316      2.258      3.256
REMARK INTER + INTRA:          -3.993
REMARK INTER:                  -3.851
REMARK INTRA:                  -0.141
REMARK UNBOUND:                -0.096
REMARK SMILES O=C([O-])CCC(=O)[O-]
REMARK SMILES IDX 4 1 2 2 1 3 3 4 5 5 6 6 7 7 8 8
REMARK H PARENT
REMARK Flexibility Score: inf
ROOT
ATOM      1  C   UNL     1     172.282 171.310 208.010  1.00  0.00     0.059 C 
ENDROOT
BRANCH   1   2
ATOM      2  C   UNL     1     172.098 172.715 208.498  1.00  0.00     0.042 C 
ATOM      3  O   UNL     1     170.948 173.141 208.786  1.00  0.00    -0.550 OA
ATOM      4  O   UNL     1     173.202 173.539 208.674  1.00  0.00    -0.550 OA
ENDBRANCH   1   2
BRANCH   1   5
ATOM      5  C   UNL     1     172.697 171.276 206.535  1.00  0.00     0.059 C 
BRANCH   5   6
ATOM      6  C   UNL     1     171.540 171.559 205.628  1.00  0.00     0.042 C 
ATOM      7  O   UNL     1     170.693 170.659 205.382  1.00  0.00    -0.550 OA
ATOM      8  O   UNL     1     171.419 172.802 205.019  1.00  0.00    -0.550 OA
ENDBRANCH   5   6
ENDBRANCH   1   5
TORSDOF 3
ENDMDL
MODEL 8
REMARK VINA RESULT:    -3.310      2.253      3.369
REMARK INTER + INTRA:          -3.986
REMARK INTER:                  -3.838
REMARK INTRA:                  -0.148
REMARK UNBOUND:                -0.096
REMARK SMILES O=C([O-])CCC(=O)[O-]
REMARK SMILES IDX 4 1 2 2 1 3 3 4 5 5 6 6 7 7 8 8
REMARK H PARENT
REMARK Flexibility Score: inf
ROOT
ATOM      1  C   UNL     1     171.413 172.240 206.461  1.00  0.00     0.059 C 
ENDROOT
BRANCH   1   2
ATOM      2  C   UNL     1     171.931 171.469 205.285  1.00  0.00     0.042 C 
ATOM      3  O   UNL     1     173.092 171.682 204.848  1.00  0.00    -0.550 OA
ATOM      4  O   UNL     1     171.144 170.486 204.699  1.00  0.00    -0.550 OA
ENDBRANCH   1   2
BRANCH   1   5
ATOM      5  C   UNL     1     172.451 172.316 207.586  1.00  0.00     0.059 C 
BRANCH   5   6
ATOM      6  C   UNL     1     172.612 170.998 208.279  1.00  0.00     0.042 C 
ATOM      7  O   UNL     1     171.604 170.389 208.727  1.00  0.00    -0.550 OA
ATOM      8  O   UNL     1     173.880 170.461 208.469  1.00  0.00    -0.550 OA
ENDBRANCH   5   6
ENDBRANCH   1   5
TORSDOF 3
ENDMDL
MODEL 9
REMARK VINA RESULT:    -3.300      2.247      3.151
REMARK INTER + INTRA:          -3.975
REMARK INTER:                  -3.834
REMARK INTRA:                  -0.141
REMARK UNBOUND:                -0.096
REMARK SMILES O=C([O-])CCC(=O)[O-]
REMARK SMILES IDX 4 1 2 2 1 3 3 4 5 5 6 6 7 7 8 8
REMARK H PARENT
REMARK Flexibility Score: inf
ROOT
ATOM      1  C   UNL     1     172.485 172.311 207.584  1.00  0.00     0.059 C 
ENDROOT
BRANCH   1   2
ATOM      2  C   UNL     1     172.614 171.006 208.309  1.00  0.00     0.042 C 
ATOM      3  O   UNL     1     171.585 170.392 208.698  1.00  0.00    -0.550 OA
ATOM      4  O   UNL     1     173.868 170.449 208.519  1.00  0.00    -0.550 OA
ENDBRANCH   1   2
BRANCH   1   5
ATOM      5  C   UNL     1     171.401 172.250 206.503  1.00  0.00     0.059 C 
BRANCH   5   6
ATOM      6  C   UNL     1     171.810 171.376 205.358  1.00  0.00     0.042 C 
ATOM      7  O   UNL     1     172.941 171.520 204.823  1.00  0.00    -0.550 OA
ATOM      8  O   UNL     1     170.926 170.430 204.853  1.00  0.00    -0.550 OA
ENDBRANCH   5   6
ENDBRANCH   1   5
TORSDOF 3
ENDMDL
