MODEL 1
REMARK VINA RESULT:    -4.115      0.000      0.000
REMARK INTER + INTRA:          -6.319
REMARK INTER:                  -5.559
REMARK INTRA:                  -0.760
REMARK UNBOUND:                -0.760
REMARK SMILES CC(=O)CCC=C(C)CCC=C(C)C
REMARK SMILES IDX 7 1 6 2 8 3 9 4 10 5 11 6 13 7 12 8 14 9 5 10 4 11 2 12 3 13
REMARK SMILES IDX 1 14
REMARK H PARENT
REMARK Flexibility Score: inf
ROOT
ATOM      1  C   UNL     1     149.764 154.326 165.554  1.00  0.00    -0.077 C 
ATOM      2  C   UNL     1     150.524 153.306 166.016  1.00  0.00    -0.028 C 
ATOM      3  C   UNL     1     148.273 154.189 165.367  1.00  0.00     0.039 C 
ENDROOT
BRANCH   1   4
ATOM      4  C   UNL     1     150.437 155.635 165.205  1.00  0.00     0.034 C 
BRANCH   4   5
ATOM      5  C   UNL     1     150.128 156.031 163.756  1.00  0.00     0.032 C 
BRANCH   5   6
ATOM      6  C   UNL     1     149.619 157.449 163.685  1.00  0.00    -0.028 C 
ATOM      7  C   UNL     1     148.022 159.257 163.215  1.00  0.00     0.039 C 
ATOM      8  C   UNL     1     148.414 157.802 163.187  1.00  0.00    -0.080 C 
ATOM      9  C   UNL     1     147.466 156.786 162.592  1.00  0.00     0.039 C 
ENDBRANCH   5   6
ENDBRANCH   4   5
ENDBRANCH   1   4
BRANCH   2  10
ATOM     10  C   UNL     1     149.980 151.981 166.489  1.00  0.00     0.035 C 
BRANCH  10  11
ATOM     11  C   UNL     1     150.183 151.799 167.999  1.00  0.00     0.079 C 
BRANCH  11  12
ATOM     12  C   UNL     1     148.873 151.565 168.709  1.00  0.00     0.130 C 
ATOM     13  O   UNL     1     148.805 150.713 169.581  1.00  0.00    -0.300 OA
ATOM     14  C   UNL     1     147.650 152.362 168.366  1.00  0.00     0.087 C 
ENDBRANCH  11  12
ENDBRANCH  10  11
ENDBRANCH   2  10
TORSDOF 6
ENDMDL
MODEL 2
REMARK VINA RESULT:    -4.092      2.512      4.654
REMARK INTER + INTRA:          -6.287
REMARK INTER:                  -5.589
REMARK INTRA:                  -0.699
REMARK UNBOUND:                -0.760
REMARK SMILES CC(=O)CCC=C(C)CCC=C(C)C
REMARK SMILES IDX 7 1 6 2 8 3 9 4 10 5 11 6 13 7 12 8 14 9 5 10 4 11 2 12 3 13
REMARK SMILES IDX 1 14
REMARK H PARENT
REMARK Flexibility Score: inf
ROOT
ATOM      1  C   UNL     1     148.868 151.593 168.541  1.00  0.00    -0.077 C 
ATOM      2  C   UNL     1     147.799 152.211 167.987  1.00  0.00    -0.028 C 
ATOM      3  C   UNL     1     148.720 150.600 169.669  1.00  0.00     0.039 C 
ENDROOT
BRANCH   1   4
ATOM      4  C   UNL     1     150.249 151.920 168.019  1.00  0.00     0.034 C 
BRANCH   4   5
ATOM      5  C   UNL     1     150.235 152.037 166.490  1.00  0.00     0.032 C 
BRANCH   5   6
ATOM      6  C   UNL     1     150.818 153.356 166.049  1.00  0.00    -0.028 C 
ATOM      7  C   UNL     1     150.816 155.628 165.114  1.00  0.00     0.039 C 
ATOM      8  C   UNL     1     150.106 154.347 165.469  1.00  0.00    -0.080 C 
ATOM      9  C   UNL     1     148.636 154.197 165.154  1.00  0.00     0.039 C 
ENDBRANCH   5   6
ENDBRANCH   4   5
ENDBRANCH   1   4
BRANCH   2  10
ATOM     10  C   UNL     1     146.362 151.917 168.342  1.00  0.00     0.035 C 
BRANCH  10  11
ATOM     11  C   UNL     1     145.423 153.023 167.842  1.00  0.00     0.079 C 
BRANCH  11  12
ATOM     12  C   UNL     1     144.224 153.180 168.743  1.00  0.00     0.130 C 
ATOM     13  O   UNL     1     144.225 152.650 169.843  1.00  0.00    -0.300 OA
ATOM     14  C   UNL     1     143.029 153.978 168.315  1.00  0.00     0.087 C 
ENDBRANCH  11  12
ENDBRANCH  10  11
ENDBRANCH   2  10
TORSDOF 6
ENDMDL
MODEL 3
REMARK VINA RESULT:    -4.031      2.936      6.697
REMARK INTER + INTRA:          -6.206
REMARK INTER:                  -5.554
REMARK INTRA:                  -0.651
REMARK UNBOUND:                -0.760
REMARK SMILES CC(=O)CCC=C(C)CCC=C(C)C
REMARK SMILES IDX 7 1 6 2 8 3 9 4 10 5 11 6 13 7 12 8 14 9 5 10 4 11 2 12 3 13
REMARK SMILES IDX 1 14
REMARK H PARENT
REMARK Flexibility Score: inf
ROOT
ATOM      1  C   UNL     1     150.102 153.168 164.810  1.00  0.00    -0.077 C 
ATOM      2  C   UNL     1     150.539 154.340 165.327  1.00  0.00    -0.028 C 
ATOM      3  C   UNL     1     149.671 153.044 163.368  1.00  0.00     0.039 C 
ENDROOT
BRANCH   1   4
ATOM      4  C   UNL     1     150.032 151.956 165.710  1.00  0.00     0.034 C 
BRANCH   4   5
ATOM      5  C   UNL     1     150.599 152.280 167.097  1.00  0.00     0.032 C 
BRANCH   5   6
ATOM      6  C   UNL     1     150.029 151.351 168.139  1.00  0.00    -0.028 C 
ATOM      7  C   UNL     1     148.367 150.484 169.729  1.00  0.00     0.039 C 
ATOM      8  C   UNL     1     148.825 151.515 168.730  1.00  0.00    -0.080 C 
ATOM      9  C   UNL     1     147.943 152.705 168.430  1.00  0.00     0.039 C 
ENDBRANCH   5   6
ENDBRANCH   4   5
ENDBRANCH   1   4
BRANCH   2  10
ATOM     10  C   UNL     1     150.747 155.603 164.528  1.00  0.00     0.035 C 
BRANCH  10  11
ATOM     11  C   UNL     1     149.482 156.471 164.511  1.00  0.00     0.079 C 
BRANCH  11  12
ATOM     12  C   UNL     1     149.410 157.321 163.268  1.00  0.00     0.130 C 
ATOM     13  O   UNL     1     149.074 158.491 163.356  1.00  0.00    -0.300 OA
ATOM     14  C   UNL     1     149.749 156.756 161.920  1.00  0.00     0.087 C 
ENDBRANCH  11  12
ENDBRANCH  10  11
ENDBRANCH   2  10
TORSDOF 6
ENDMDL
MODEL 4
REMARK VINA RESULT:    -3.913      3.467      6.215
REMARK INTER + INTRA:          -6.046
REMARK INTER:                  -5.159
REMARK INTRA:                  -0.887
REMARK UNBOUND:                -0.760
REMARK SMILES CC(=O)CCC=C(C)CCC=C(C)C
REMARK SMILES IDX 7 1 6 2 8 3 9 4 10 5 11 6 13 7 12 8 14 9 5 10 4 11 2 12 3 13
REMARK SMILES IDX 1 14
REMARK H PARENT
REMARK Flexibility Score: inf
ROOT
ATOM      1  C   UNL     1     149.245 152.892 165.370  1.00  0.00    -0.077 C 
ATOM      2  C   UNL     1     149.302 151.651 164.833  1.00  0.00    -0.028 C 
ATOM      3  C   UNL     1     150.414 153.844 165.305  1.00  0.00     0.039 C 
ENDROOT
BRANCH   1   4
ATOM      4  C   UNL     1     147.975 153.326 166.066  1.00  0.00     0.034 C 
BRANCH   4   5
ATOM      5  C   UNL     1     148.242 153.612 167.549  1.00  0.00     0.032 C 
BRANCH   5   6
ATOM      6  C   UNL     1     147.907 152.411 168.395  1.00  0.00    -0.028 C 
ATOM      7  C   UNL     1     148.341 150.386 169.719  1.00  0.00     0.039 C 
ATOM      8  C   UNL     1     148.817 151.520 168.849  1.00  0.00    -0.080 C 
ATOM      9  C   UNL     1     150.282 151.622 168.492  1.00  0.00     0.039 C 
ENDBRANCH   5   6
ENDBRANCH   4   5
ENDBRANCH   1   4
BRANCH   2  10
ATOM     10  C   UNL     1     150.465 151.118 164.032  1.00  0.00     0.035 C 
BRANCH  10  11
ATOM     11  C   UNL     1     150.608 149.599 164.194  1.00  0.00     0.079 C 
BRANCH  11  12
ATOM     12  C   UNL     1     150.018 148.859 163.020  1.00  0.00     0.130 C 
ATOM     13  O   UNL     1     149.136 148.036 163.208  1.00  0.00    -0.300 OA
ATOM     14  C   UNL     1     150.490 149.119 161.620  1.00  0.00     0.087 C 
ENDBRANCH  11  12
ENDBRANCH  10  11
ENDBRANCH   2  10
TORSDOF 6
ENDMDL
MODEL 5
REMARK VINA RESULT:    -3.893      2.184      3.712
REMARK INTER + INTRA:          -6.019
REMARK INTER:                  -5.379
REMARK INTRA:                  -0.640
REMARK UNBOUND:                -0.760
REMARK SMILES CC(=O)CCC=C(C)CCC=C(C)C
REMARK SMILES IDX 7 1 6 2 8 3 9 4 10 5 11 6 13 7 12 8 14 9 5 10 4 11 2 12 3 13
REMARK SMILES IDX 1 14
REMARK H PARENT
REMARK Flexibility Score: inf
ROOT
ATOM      1  C   UNL     1     149.419 156.543 163.155  1.00  0.00    -0.077 C 
ATOM      2  C   UNL     1     149.700 156.657 164.474  1.00  0.00    -0.028 C 
ATOM      3  C   UNL     1     150.018 155.450 162.302  1.00  0.00     0.039 C 
ENDROOT
BRANCH   1   4
ATOM      4  C   UNL     1     148.488 157.551 162.520  1.00  0.00     0.034 C 
BRANCH   4   5
ATOM      5  C   UNL     1     148.873 158.976 162.930  1.00  0.00     0.032 C 
BRANCH   5   6
ATOM      6  C   UNL     1     147.727 159.659 163.634  1.00  0.00    -0.028 C 
ATOM      7  C   UNL     1     145.739 161.087 163.856  1.00  0.00     0.039 C 
ATOM      8  C   UNL     1     146.862 160.507 163.035  1.00  0.00    -0.080 C 
ATOM      9  C   UNL     1     147.002 160.897 161.581  1.00  0.00     0.039 C 
ENDBRANCH   5   6
ENDBRANCH   4   5
ENDBRANCH   1   4
BRANCH   2  10
ATOM     10  C   UNL     1     150.536 155.674 165.258  1.00  0.00     0.035 C 
BRANCH  10  11
ATOM     11  C   UNL     1     149.678 154.534 165.822  1.00  0.00     0.079 C 
BRANCH  11  12
ATOM     12  C   UNL     1     150.345 153.195 165.634  1.00  0.00     0.130 C 
ATOM     13  O   UNL     1     151.173 152.816 166.447  1.00  0.00    -0.300 OA
ATOM     14  C   UNL     1     150.008 152.315 164.467  1.00  0.00     0.087 C 
ENDBRANCH  11  12
ENDBRANCH  10  11
ENDBRANCH   2  10
TORSDOF 6
ENDMDL
MODEL 6
REMARK VINA RESULT:    -3.892      3.740      5.675
REMARK INTER + INTRA:          -6.017
REMARK INTER:                  -5.202
REMARK INTRA:                  -0.815
REMARK UNBOUND:                -0.760
REMARK SMILES CC(=O)CCC=C(C)CCC=C(C)C
REMARK SMILES IDX 7 1 6 2 8 3 9 4 10 5 11 6 13 7 12 8 14 9 5 10 4 11 2 12 3 13
REMARK SMILES IDX 1 14
REMARK H PARENT
REMARK Flexibility Score: inf
ROOT
ATOM      1  C   UNL     1     149.997 151.855 165.083  1.00  0.00    -0.077 C 
ATOM      2  C   UNL     1     150.768 151.890 166.195  1.00  0.00    -0.028 C 
ATOM      3  C   UNL     1     148.529 152.207 165.118  1.00  0.00     0.039 C 
ENDROOT
BRANCH   1   4
ATOM      4  C   UNL     1     150.626 151.438 163.773  1.00  0.00     0.034 C 
BRANCH   4   5
ATOM      5  C   UNL     1     151.194 150.018 163.875  1.00  0.00     0.032 C 
BRANCH   5   6
ATOM      6  C   UNL     1     150.090 148.994 163.814  1.00  0.00    -0.028 C 
ATOM      7  C   UNL     1     148.581 147.355 162.777  1.00  0.00     0.039 C 
ATOM      8  C   UNL     1     149.672 148.389 162.680  1.00  0.00    -0.080 C 
ATOM      9  C   UNL     1     150.254 148.736 161.329  1.00  0.00     0.039 C 
ENDBRANCH   5   6
ENDBRANCH   4   5
ENDBRANCH   1   4
BRANCH   2  10
ATOM     10  C   UNL     1     150.300 152.373 167.546  1.00  0.00     0.035 C 
BRANCH  10  11
ATOM     11  C   UNL     1     150.008 151.200 168.491  1.00  0.00     0.079 C 
BRANCH  11  12
ATOM     12  C   UNL     1     148.593 151.246 169.009  1.00  0.00     0.130 C 
ATOM     13  O   UNL     1     148.204 150.380 169.777  1.00  0.00    -0.300 OA
ATOM     14  C   UNL     1     147.651 152.340 168.601  1.00  0.00     0.087 C 
ENDBRANCH  11  12
ENDBRANCH  10  11
ENDBRANCH   2  10
TORSDOF 6
ENDMDL
MODEL 7
REMARK VINA RESULT:    -3.891      1.449      2.384
REMARK INTER + INTRA:          -6.016
REMARK INTER:                  -5.369
REMARK INTRA:                  -0.647
REMARK UNBOUND:                -0.760
REMARK SMILES CC(=O)CCC=C(C)CCC=C(C)C
REMARK SMILES IDX 7 1 6 2 8 3 9 4 10 5 11 6 13 7 12 8 14 9 5 10 4 11 2 12 3 13
REMARK SMILES IDX 1 14
REMARK H PARENT
REMARK Flexibility Score: inf
ROOT
ATOM      1  C   UNL     1     149.423 155.299 164.601  1.00  0.00    -0.077 C 
ATOM      2  C   UNL     1     148.524 154.532 165.261  1.00  0.00    -0.028 C 
ATOM      3  C   UNL     1     150.736 155.706 165.225  1.00  0.00     0.039 C 
ENDROOT
BRANCH   1   4
ATOM      4  C   UNL     1     149.091 155.769 163.203  1.00  0.00     0.034 C 
BRANCH   4   5
ATOM      5  C   UNL     1     149.625 157.187 162.969  1.00  0.00     0.032 C 
BRANCH   5   6
ATOM      6  C   UNL     1     148.680 158.216 163.537  1.00  0.00    -0.028 C 
ATOM      7  C   UNL     1     147.181 160.163 163.517  1.00  0.00     0.039 C 
ATOM      8  C   UNL     1     148.141 159.230 162.825  1.00  0.00    -0.080 C 
ATOM      9  C   UNL     1     148.490 159.462 161.373  1.00  0.00     0.039 C 
ENDBRANCH   5   6
ENDBRANCH   4   5
ENDBRANCH   1   4
BRANCH   2  10
ATOM     10  C   UNL     1     148.758 153.916 166.619  1.00  0.00     0.035 C 
BRANCH  10  11
ATOM     11  C   UNL     1     149.275 152.476 166.500  1.00  0.00     0.079 C 
BRANCH  11  12
ATOM     12  C   UNL     1     150.540 152.274 167.295  1.00  0.00     0.130 C 
ATOM     13  O   UNL     1     150.475 151.803 168.420  1.00  0.00    -0.300 OA
ATOM     14  C   UNL     1     151.880 152.639 166.729  1.00  0.00     0.087 C 
ENDBRANCH  11  12
ENDBRANCH  10  11
ENDBRANCH   2  10
TORSDOF 6
ENDMDL
MODEL 8
REMARK VINA RESULT:    -3.884      3.075      6.953
REMARK INTER + INTRA:          -6.007
REMARK INTER:                  -5.479
REMARK INTRA:                  -0.528
REMARK UNBOUND:                -0.760
REMARK SMILES CC(=O)CCC=C(C)CCC=C(C)C
REMARK SMILES IDX 7 1 6 2 8 3 9 4 10 5 11 6 13 7 12 8 14 9 5 10 4 11 2 12 3 13
REMARK SMILES IDX 1 14
REMARK H PARENT
REMARK Flexibility Score: inf
ROOT
ATOM      1  C   UNL     1     150.060 155.779 164.056  1.00  0.00    -0.077 C 
ATOM      2  C   UNL     1     149.347 156.921 164.191  1.00  0.00    -0.028 C 
ATOM      3  C   UNL     1     150.013 154.953 162.793  1.00  0.00     0.039 C 
ENDROOT
BRANCH   1   4
ATOM      4  C   UNL     1     150.918 155.315 165.212  1.00  0.00     0.034 C 
BRANCH   4   5
ATOM      5  C   UNL     1     150.574 153.870 165.593  1.00  0.00     0.032 C 
BRANCH   5   6
ATOM      6  C   UNL     1     149.244 153.805 166.301  1.00  0.00    -0.028 C 
ATOM      7  C   UNL     1     147.582 152.993 167.919  1.00  0.00     0.039 C 
ATOM      8  C   UNL     1     148.941 152.917 167.273  1.00  0.00    -0.080 C 
ATOM      9  C   UNL     1     149.916 151.848 167.711  1.00  0.00     0.039 C 
ENDBRANCH   5   6
ENDBRANCH   4   5
ENDBRANCH   1   4
BRANCH   2  10
ATOM     10  C   UNL     1     148.524 157.551 163.094  1.00  0.00     0.035 C 
BRANCH  10  11
ATOM     11  C   UNL     1     148.896 159.026 162.891  1.00  0.00     0.079 C 
BRANCH  11  12
ATOM     12  C   UNL     1     147.707 159.929 163.099  1.00  0.00     0.130 C 
ATOM     13  O   UNL     1     147.217 160.033 164.212  1.00  0.00    -0.300 OA
ATOM     14  C   UNL     1     147.114 160.708 161.962  1.00  0.00     0.087 C 
ENDBRANCH  11  12
ENDBRANCH  10  11
ENDBRANCH   2  10
TORSDOF 6
ENDMDL
MODEL 9
REMARK VINA RESULT:    -3.862      4.140      5.384
REMARK INTER + INTRA:          -5.977
REMARK INTER:                  -4.850
REMARK INTRA:                  -1.127
REMARK UNBOUND:                -0.760
REMARK SMILES CC(=O)CCC=C(C)CCC=C(C)C
REMARK SMILES IDX 7 1 6 2 8 3 9 4 10 5 11 6 13 7 12 8 14 9 5 10 4 11 2 12 3 13
REMARK SMILES IDX 1 14
REMARK H PARENT
REMARK Flexibility Score: inf
ROOT
ATOM      1  C   UNL     1     149.079 151.850 168.453  1.00  0.00    -0.077 C 
ATOM      2  C   UNL     1     148.139 152.687 167.956  1.00  0.00    -0.028 C 
ATOM      3  C   UNL     1     148.737 150.759 169.439  1.00  0.00     0.039 C 
ENDROOT
BRANCH   1   4
ATOM      4  C   UNL     1     150.516 152.026 168.013  1.00  0.00     0.034 C 
BRANCH   4   5
ATOM      5  C   UNL     1     150.582 152.450 166.542  1.00  0.00     0.032 C 
BRANCH   5   6
ATOM      6  C   UNL     1     150.816 151.257 165.650  1.00  0.00    -0.028 C 
ATOM      7  C   UNL     1     150.366 149.678 163.822  1.00  0.00     0.039 C 
ATOM      8  C   UNL     1     149.983 150.871 164.659  1.00  0.00    -0.080 C 
ATOM      9  C   UNL     1     148.681 151.588 164.385  1.00  0.00     0.039 C 
ENDBRANCH   5   6
ENDBRANCH   4   5
ENDBRANCH   1   4
BRANCH   2  10
ATOM     10  C   UNL     1     146.660 152.572 168.233  1.00  0.00     0.035 C 
BRANCH  10  11
ATOM     11  C   UNL     1     145.954 151.726 167.164  1.00  0.00     0.079 C 
BRANCH  11  12
ATOM     12  C   UNL     1     145.146 150.614 167.783  1.00  0.00     0.130 C 
ATOM     13  O   UNL     1     144.556 149.826 167.062  1.00  0.00    -0.300 OA
ATOM     14  C   UNL     1     145.055 150.454 169.272  1.00  0.00     0.087 C 
ENDBRANCH  11  12
ENDBRANCH  10  11
ENDBRANCH   2  10
TORSDOF 6
ENDMDL
