MODEL 1
REMARK VINA RESULT:    73.869      0.000      0.000
REMARK INTER + INTRA:         112.114
REMARK INTER:                 108.415
REMARK INTRA:                   3.698
REMARK UNBOUND:                 3.698
REMARK SMILES O=c1c(O[C@H]2O[C@H](CO)[C@H](O)[C@@H](O)[C@@H]2O)c(-c2ccc(O)c(O)c2)oc2cc(O)cc(O)c12
REMARK SMILES IDX 4 1 3 2 16 3 25 4 2 5 26 6 1 7 33 8 27 9 31 10 28 11 30 12
REMARK SMILES IDX 17 13 18 14 19 15 20 16 24 17 22 18 21 19 23 21 32 23 29 25
REMARK SMILES IDX 5 27 14 28 6 29 12 30 7 31 10 32 15 33 13 35 8 37 9 38 11 40
REMARK H PARENT 21 20 23 22 32 24 29 26 15 34 13 36 9 39 11 41
REMARK Flexibility Score: inf
ROOT
ATOM      1  O   UNL     1      -7.426  -5.316  18.494  1.00  0.00    -0.454 OA
ENDROOT
BRANCH   1   2
ATOM      2  C   UNL     1      -7.748  -5.882  19.738  1.00  0.00     0.214 A 
ATOM      3  C   UNL     1      -7.650  -5.080  20.887  1.00  0.00     0.180 A 
ATOM      4  O   UNL     1      -7.889  -5.601  22.083  1.00  0.00    -0.452 OA
ATOM      5  C   UNL     1      -8.146  -7.224  19.881  1.00  0.00     0.239 A 
ATOM      6  C   UNL     1      -8.233  -6.868  22.271  1.00  0.00     0.146 A 
ATOM      7  O   UNL     1      -8.354  -7.911  18.849  1.00  0.00    -0.285 OA
ATOM      8  C   UNL     1      -8.354  -7.762  21.175  1.00  0.00     0.111 A 
ATOM      9  C   UNL     1      -8.479  -7.303  23.576  1.00  0.00     0.094 A 
ATOM     10  C   UNL     1      -8.700  -9.121  21.445  1.00  0.00     0.134 A 
ATOM     11  C   UNL     1      -8.860  -8.622  23.820  1.00  0.00     0.123 A 
ATOM     12  C   UNL     1      -8.974  -9.517  22.759  1.00  0.00     0.093 A 
BRANCH   3  13
ATOM     13  C   UNL     1      -7.240  -3.660  20.806  1.00  0.00     0.025 A 
ATOM     14  C   UNL     1      -7.106  -3.011  19.570  1.00  0.00     0.016 A 
ATOM     15  C   UNL     1      -6.691  -1.679  19.516  1.00  0.00     0.051 A 
ATOM     16  C   UNL     1      -6.408  -0.971  20.688  1.00  0.00     0.157 A 
ATOM     17  C   UNL     1      -6.992  -2.944  21.986  1.00  0.00     0.062 A 
ATOM     18  C   UNL     1      -6.574  -1.607  21.940  1.00  0.00     0.158 A 
BRANCH  16  19
ATOM     19  O   UNL     1      -5.966   0.348  20.565  1.00  0.00    -0.504 OA
ATOM     20  H   UNL     1      -6.259   1.101  21.171  1.00  0.00     0.293 HD
ENDBRANCH  16  19
BRANCH  18  21
ATOM     21  O   UNL     1      -6.343  -0.954  23.153  1.00  0.00    -0.504 OA
ATOM     22  H   UNL     1      -5.920  -1.394  23.956  1.00  0.00     0.293 HD
ENDBRANCH  18  21
ENDBRANCH   3  13
BRANCH  10  23
ATOM     23  O   UNL     1      -8.761 -10.125  20.470  1.00  0.00    -0.507 OA
ATOM     24  H   UNL     1      -9.352 -10.939  20.512  1.00  0.00     0.293 HD
ENDBRANCH  10  23
BRANCH  11  25
ATOM     25  O   UNL     1      -9.118  -9.057  25.118  1.00  0.00    -0.508 OA
ATOM     26  H   UNL     1     -10.065  -9.209  25.449  1.00  0.00     0.293 HD
ENDBRANCH  11  25
ENDBRANCH   1   2
BRANCH   1  27
ATOM     27  C   UNL     1      -7.372  -6.027  17.254  1.00  0.00     0.339 C 
ATOM     28  C   UNL     1      -6.756  -7.433  17.490  1.00  0.00     0.214 C 
ATOM     29  O   UNL     1      -6.650  -5.298  16.274  1.00  0.00    -0.332 OA
ATOM     30  C   UNL     1      -5.350  -7.552  16.869  1.00  0.00     0.180 C 
ATOM     31  C   UNL     1      -5.330  -4.989  16.706  1.00  0.00     0.179 C 
ATOM     32  C   UNL     1      -4.543  -6.268  17.162  1.00  0.00     0.177 C 
BRANCH  28  33
ATOM     33  O   UNL     1      -7.597  -8.445  16.992  1.00  0.00    -0.384 OA
ATOM     34  H   UNL     1      -8.457  -8.021  16.732  1.00  0.00     0.211 HD
ENDBRANCH  28  33
BRANCH  30  35
ATOM     35  O   UNL     1      -4.700  -8.674  17.409  1.00  0.00    -0.387 OA
ATOM     36  H   UNL     1      -5.240  -8.975  18.187  1.00  0.00     0.211 HD
ENDBRANCH  30  35
BRANCH  31  37
ATOM     37  C   UNL     1      -4.632  -4.211  15.577  1.00  0.00     0.191 C 
BRANCH  37  38
ATOM     38  O   UNL     1      -4.804  -4.870  14.352  1.00  0.00    -0.394 OA
ATOM     39  H   UNL     1      -5.782  -5.000  14.231  1.00  0.00     0.210 HD
ENDBRANCH  37  38
ENDBRANCH  31  37
BRANCH  32  40
ATOM     40  O   UNL     1      -3.246  -6.341  16.615  1.00  0.00    -0.387 OA
ATOM     41  H   UNL     1      -3.285  -6.924  15.811  1.00  0.00     0.211 HD
ENDBRANCH  32  40
ENDBRANCH   1  27
TORSDOF 12
ENDMDL
MODEL 2
REMARK VINA RESULT:    74.700     12.629     15.621
REMARK INTER + INTRA:         113.333
REMARK INTER:                 113.884
REMARK INTRA:                  -0.551
REMARK UNBOUND:                 3.698
REMARK SMILES O=c1c(O[C@H]2O[C@H](CO)[C@H](O)[C@@H](O)[C@@H]2O)c(-c2ccc(O)c(O)c2)oc2cc(O)cc(O)c12
REMARK SMILES IDX 4 1 3 2 16 3 25 4 2 5 26 6 1 7 33 8 27 9 31 10 28 11 30 12
REMARK SMILES IDX 17 13 18 14 19 15 20 16 24 17 22 18 21 19 23 21 32 23 29 25
REMARK SMILES IDX 5 27 14 28 6 29 12 30 7 31 10 32 15 33 13 35 8 37 9 38 11 40
REMARK H PARENT 21 20 23 22 32 24 29 26 15 34 13 36 9 39 11 41
REMARK Flexibility Score: inf
ROOT
ATOM      1  O   UNL     1       4.901  -6.460  11.386  1.00  0.00    -0.454 OA
ENDROOT
BRANCH   1   2
ATOM      2  C   UNL     1       4.213  -5.241  11.269  1.00  0.00     0.214 A 
ATOM      3  C   UNL     1       3.579  -4.941  10.053  1.00  0.00     0.180 A 
ATOM      4  O   UNL     1       2.973  -3.773   9.890  1.00  0.00    -0.452 OA
ATOM      5  C   UNL     1       4.152  -4.302  12.315  1.00  0.00     0.239 A 
ATOM      6  C   UNL     1       2.918  -2.842  10.834  1.00  0.00     0.146 A 
ATOM      7  O   UNL     1       4.611  -4.614  13.443  1.00  0.00    -0.285 OA
ATOM      8  C   UNL     1       3.533  -3.046  12.097  1.00  0.00     0.111 A 
ATOM      9  C   UNL     1       2.235  -1.655  10.557  1.00  0.00     0.094 A 
ATOM     10  C   UNL     1       3.464  -1.995  13.062  1.00  0.00     0.134 A 
ATOM     11  C   UNL     1       2.137  -0.655  11.524  1.00  0.00     0.123 A 
ATOM     12  C   UNL     1       2.743  -0.832  12.767  1.00  0.00     0.093 A 
BRANCH   3  13
ATOM     13  C   UNL     1       3.602  -5.887   8.915  1.00  0.00     0.025 A 
ATOM     14  C   UNL     1       2.825  -7.054   8.923  1.00  0.00     0.016 A 
ATOM     15  C   UNL     1       2.884  -7.946   7.850  1.00  0.00     0.051 A 
ATOM     16  C   UNL     1       3.712  -7.691   6.753  1.00  0.00     0.157 A 
ATOM     17  C   UNL     1       4.407  -5.608   7.801  1.00  0.00     0.062 A 
ATOM     18  C   UNL     1       4.474  -6.500   6.722  1.00  0.00     0.158 A 
BRANCH  16  19
ATOM     19  O   UNL     1       3.751  -8.639   5.728  1.00  0.00    -0.504 OA
ATOM     20  H   UNL     1       4.417  -9.396   5.685  1.00  0.00     0.293 HD
ENDBRANCH  16  19
BRANCH  18  21
ATOM     21  O   UNL     1       5.297  -6.160   5.645  1.00  0.00    -0.504 OA
ATOM     22  H   UNL     1       4.961  -6.014   4.706  1.00  0.00     0.293 HD
ENDBRANCH  18  21
ENDBRANCH   3  13
BRANCH  10  23
ATOM     23  O   UNL     1       4.104  -2.027  14.307  1.00  0.00    -0.507 OA
ATOM     24  H   UNL     1       4.565  -2.831  14.701  1.00  0.00     0.293 HD
ENDBRANCH  10  23
BRANCH  11  25
ATOM     25  O   UNL     1       1.447   0.525  11.257  1.00  0.00    -0.508 OA
ATOM     26  H   UNL     1       1.030   1.077  11.999  1.00  0.00     0.293 HD
ENDBRANCH  11  25
ENDBRANCH   1   2
BRANCH   1  27
ATOM     27  C   UNL     1       4.337  -7.682  11.872  1.00  0.00     0.339 C 
ATOM     28  C   UNL     1       3.960  -7.518  13.370  1.00  0.00     0.214 C 
ATOM     29  O   UNL     1       5.223  -8.772  11.673  1.00  0.00    -0.332 OA
ATOM     30  C   UNL     1       4.886  -8.342  14.285  1.00  0.00     0.180 C 
ATOM     31  C   UNL     1       6.487  -8.549  12.288  1.00  0.00     0.179 C 
ATOM     32  C   UNL     1       6.348  -8.196  13.811  1.00  0.00     0.177 C 
BRANCH  28  33
ATOM     33  O   UNL     1       2.615  -7.866  13.595  1.00  0.00    -0.384 OA
ATOM     34  H   UNL     1       2.173  -7.091  14.031  1.00  0.00     0.211 HD
ENDBRANCH  28  33
BRANCH  30  35
ATOM     35  O   UNL     1       4.752  -7.887  15.607  1.00  0.00    -0.387 OA
ATOM     36  H   UNL     1       4.372  -6.970  15.561  1.00  0.00     0.211 HD
ENDBRANCH  30  35
BRANCH  31  37
ATOM     37  C   UNL     1       7.366  -9.784  12.024  1.00  0.00     0.191 C 
BRANCH  37  38
ATOM     38  O   UNL     1       7.335 -10.124  10.665  1.00  0.00    -0.394 OA
ATOM     39  H   UNL     1       7.998  -9.542  10.207  1.00  0.00     0.210 HD
ENDBRANCH  37  38
ENDBRANCH  31  37
BRANCH  32  40
ATOM     40  O   UNL     1       7.230  -8.931  14.629  1.00  0.00    -0.387 OA
ATOM     41  H   UNL     1       7.381  -8.410  15.462  1.00  0.00     0.211 HD
ENDBRANCH  32  40
ENDBRANCH   1  27
TORSDOF 12
ENDMDL
MODEL 3
REMARK VINA RESULT:    74.911      1.758      6.911
REMARK INTER + INTRA:         113.644
REMARK INTER:                 112.783
REMARK INTRA:                   0.861
REMARK UNBOUND:                 3.698
REMARK SMILES O=c1c(O[C@H]2O[C@H](CO)[C@H](O)[C@@H](O)[C@@H]2O)c(-c2ccc(O)c(O)c2)oc2cc(O)cc(O)c12
REMARK SMILES IDX 4 1 3 2 16 3 25 4 2 5 26 6 1 7 33 8 27 9 31 10 28 11 30 12
REMARK SMILES IDX 17 13 18 14 19 15 20 16 24 17 22 18 21 19 23 21 32 23 29 25
REMARK SMILES IDX 5 27 14 28 6 29 12 30 7 31 10 32 15 33 13 35 8 37 9 38 11 40
REMARK H PARENT 21 20 23 22 32 24 29 26 15 34 13 36 9 39 11 41
REMARK Flexibility Score: inf
ROOT
ATOM      1  O   UNL     1      -6.850  -4.097  21.171  1.00  0.00    -0.454 OA
ENDROOT
BRANCH   1   2
ATOM      2  C   UNL     1      -6.911  -4.891  20.015  1.00  0.00     0.214 A 
ATOM      3  C   UNL     1      -7.358  -6.216  20.133  1.00  0.00     0.180 A 
ATOM      4  O   UNL     1      -7.370  -7.011  19.070  1.00  0.00    -0.452 OA
ATOM      5  C   UNL     1      -6.523  -4.417  18.748  1.00  0.00     0.239 A 
ATOM      6  C   UNL     1      -6.982  -6.621  17.863  1.00  0.00     0.146 A 
ATOM      7  O   UNL     1      -6.238  -3.200  18.613  1.00  0.00    -0.285 OA
ATOM      8  C   UNL     1      -6.507  -5.301  17.640  1.00  0.00     0.111 A 
ATOM      9  C   UNL     1      -7.055  -7.538  16.813  1.00  0.00     0.094 A 
ATOM     10  C   UNL     1      -6.076  -4.950  16.325  1.00  0.00     0.134 A 
ATOM     11  C   UNL     1      -6.674  -7.168  15.524  1.00  0.00     0.123 A 
ATOM     12  C   UNL     1      -6.195  -5.881  15.287  1.00  0.00     0.093 A 
BRANCH   3  13
ATOM     13  C   UNL     1      -7.785  -6.776  21.435  1.00  0.00     0.025 A 
ATOM     14  C   UNL     1      -8.277  -8.085  21.538  1.00  0.00     0.016 A 
ATOM     15  C   UNL     1      -8.700  -8.582  22.772  1.00  0.00     0.051 A 
ATOM     16  C   UNL     1      -8.637  -7.790  23.922  1.00  0.00     0.157 A 
ATOM     17  C   UNL     1      -7.686  -5.988  22.591  1.00  0.00     0.062 A 
ATOM     18  C   UNL     1      -8.110  -6.480  23.833  1.00  0.00     0.158 A 
BRANCH  16  19
ATOM     19  O   UNL     1      -9.106  -8.334  25.119  1.00  0.00    -0.504 OA
ATOM     20  H   UNL     1      -9.042  -7.870  26.014  1.00  0.00     0.293 HD
ENDBRANCH  16  19
BRANCH  18  21
ATOM     21  O   UNL     1      -7.985  -5.642  24.943  1.00  0.00    -0.504 OA
ATOM     22  H   UNL     1      -7.502  -4.756  24.926  1.00  0.00     0.293 HD
ENDBRANCH  18  21
ENDBRANCH   3  13
BRANCH  10  23
ATOM     23  O   UNL     1      -5.501  -3.718  15.989  1.00  0.00    -0.507 OA
ATOM     24  H   UNL     1      -5.582  -3.266  15.093  1.00  0.00     0.293 HD
ENDBRANCH  10  23
BRANCH  11  25
ATOM     25  O   UNL     1      -6.757  -8.076  14.471  1.00  0.00    -0.508 OA
ATOM     26  H   UNL     1      -6.559  -7.802  13.515  1.00  0.00     0.293 HD
ENDBRANCH  11  25
ENDBRANCH   1   2
BRANCH   1  27
ATOM     27  C   UNL     1      -5.824  -3.144  21.464  1.00  0.00     0.339 C 
ATOM     28  C   UNL     1      -5.710  -2.962  23.002  1.00  0.00     0.214 C 
ATOM     29  O   UNL     1      -6.067  -1.909  20.809  1.00  0.00    -0.332 OA
ATOM     30  C   UNL     1      -6.218  -1.579  23.454  1.00  0.00     0.180 C 
ATOM     31  C   UNL     1      -7.337  -1.366  21.152  1.00  0.00     0.179 C 
ATOM     32  C   UNL     1      -7.525  -1.237  22.705  1.00  0.00     0.177 C 
BRANCH  28  33
ATOM     33  O   UNL     1      -4.388  -3.164  23.440  1.00  0.00    -0.384 OA
ATOM     34  H   UNL     1      -3.968  -3.827  22.831  1.00  0.00     0.211 HD
ENDBRANCH  28  33
BRANCH  30  35
ATOM     35  O   UNL     1      -6.439  -1.598  24.841  1.00  0.00    -0.387 OA
ATOM     36  H   UNL     1      -5.881  -2.331  25.213  1.00  0.00     0.211 HD
ENDBRANCH  30  35
BRANCH  31  37
ATOM     37  C   UNL     1      -7.500  -0.032  20.403  1.00  0.00     0.191 C 
BRANCH  37  38
ATOM     38  O   UNL     1      -6.578   0.053  19.352  1.00  0.00    -0.394 OA
ATOM     39  H   UNL     1      -7.100   0.231  18.525  1.00  0.00     0.210 HD
ENDBRANCH  37  38
ENDBRANCH  31  37
BRANCH  32  40
ATOM     40  O   UNL     1      -8.026   0.021  23.096  1.00  0.00    -0.387 OA
ATOM     41  H   UNL     1      -8.746  -0.130  23.765  1.00  0.00     0.211 HD
ENDBRANCH  32  40
ENDBRANCH   1  27
TORSDOF 12
ENDMDL
MODEL 4
REMARK VINA RESULT:    76.083      1.978      6.851
REMARK INTER + INTRA:         115.364
REMARK INTER:                 111.182
REMARK INTRA:                   4.182
REMARK UNBOUND:                 3.698
REMARK SMILES O=c1c(O[C@H]2O[C@H](CO)[C@H](O)[C@@H](O)[C@@H]2O)c(-c2ccc(O)c(O)c2)oc2cc(O)cc(O)c12
REMARK SMILES IDX 4 1 3 2 16 3 25 4 2 5 26 6 1 7 33 8 27 9 31 10 28 11 30 12
REMARK SMILES IDX 17 13 18 14 19 15 20 16 24 17 22 18 21 19 23 21 32 23 29 25
REMARK SMILES IDX 5 27 14 28 6 29 12 30 7 31 10 32 15 33 13 35 8 37 9 38 11 40
REMARK H PARENT 21 20 23 22 32 24 29 26 15 34 13 36 9 39 11 41
REMARK Flexibility Score: inf
ROOT
ATOM      1  O   UNL     1      -6.029  -6.250  21.204  1.00  0.00    -0.454 OA
ENDROOT
BRANCH   1   2
ATOM      2  C   UNL     1      -6.377  -4.915  20.940  1.00  0.00     0.214 A 
ATOM      3  C   UNL     1      -6.762  -4.565  19.636  1.00  0.00     0.180 A 
ATOM      4  O   UNL     1      -7.038  -3.301  19.341  1.00  0.00    -0.452 OA
ATOM      5  C   UNL     1      -6.335  -3.912  21.927  1.00  0.00     0.239 A 
ATOM      6  C   UNL     1      -6.979  -2.316  20.227  1.00  0.00     0.146 A 
ATOM      7  O   UNL     1      -6.110  -4.239  23.119  1.00  0.00    -0.285 OA
ATOM      8  C   UNL     1      -6.595  -2.565  21.572  1.00  0.00     0.111 A 
ATOM      9  C   UNL     1      -7.310  -1.025  19.808  1.00  0.00     0.094 A 
ATOM     10  C   UNL     1      -6.522  -1.458  22.471  1.00  0.00     0.134 A 
ATOM     11  C   UNL     1      -7.278   0.039  20.709  1.00  0.00     0.123 A 
ATOM     12  C   UNL     1      -6.893  -0.183  22.030  1.00  0.00     0.093 A 
BRANCH   3  13
ATOM     13  C   UNL     1      -6.831  -5.572  18.554  1.00  0.00     0.025 A 
ATOM     14  C   UNL     1      -6.163  -5.377  17.335  1.00  0.00     0.016 A 
ATOM     15  C   UNL     1      -6.265  -6.327  16.318  1.00  0.00     0.051 A 
ATOM     16  C   UNL     1      -7.026  -7.486  16.495  1.00  0.00     0.157 A 
ATOM     17  C   UNL     1      -7.566  -6.749  18.751  1.00  0.00     0.062 A 
ATOM     18  C   UNL     1      -7.675  -7.707  17.733  1.00  0.00     0.158 A 
BRANCH  16  19
ATOM     19  O   UNL     1      -7.115  -8.381  15.427  1.00  0.00    -0.504 OA
ATOM     20  H   UNL     1      -7.131  -9.385  15.532  1.00  0.00     0.293 HD
ENDBRANCH  16  19
BRANCH  18  21
ATOM     21  O   UNL     1      -8.425  -8.856  17.996  1.00  0.00    -0.504 OA
ATOM     22  H   UNL     1      -9.010  -9.312  17.313  1.00  0.00     0.293 HD
ENDBRANCH  18  21
ENDBRANCH   3  13
BRANCH  10  23
ATOM     23  O   UNL     1      -6.069  -1.548  23.793  1.00  0.00    -0.507 OA
ATOM     24  H   UNL     1      -5.837  -2.404  24.269  1.00  0.00     0.293 HD
ENDBRANCH  10  23
BRANCH  11  25
ATOM     25  O   UNL     1      -7.619   1.326  20.298  1.00  0.00    -0.508 OA
ATOM     26  H   UNL     1      -7.995   1.507  19.374  1.00  0.00     0.293 HD
ENDBRANCH  11  25
ENDBRANCH   1   2
BRANCH   1  27
ATOM     27  C   UNL     1      -6.696  -7.396  20.667  1.00  0.00     0.339 C 
ATOM     28  C   UNL     1      -8.049  -7.600  21.403  1.00  0.00     0.214 C 
ATOM     29  O   UNL     1      -5.878  -8.552  20.751  1.00  0.00    -0.332 OA
ATOM     30  C   UNL     1      -8.025  -8.847  22.308  1.00  0.00     0.180 C 
ATOM     31  C   UNL     1      -5.467  -8.818  22.087  1.00  0.00     0.179 C 
ATOM     32  C   UNL     1      -6.685  -8.907  23.073  1.00  0.00     0.177 C 
BRANCH  28  33
ATOM     33  O   UNL     1      -9.116  -7.679  20.490  1.00  0.00    -0.384 OA
ATOM     34  H   UNL     1      -8.806  -7.287  19.631  1.00  0.00     0.211 HD
ENDBRANCH  28  33
BRANCH  30  35
ATOM     35  O   UNL     1      -9.101  -8.784  23.209  1.00  0.00    -0.387 OA
ATOM     36  H   UNL     1      -9.203  -7.831  23.472  1.00  0.00     0.211 HD
ENDBRANCH  30  35
BRANCH  31  37
ATOM     37  C   UNL     1      -4.598 -10.088  22.072  1.00  0.00     0.191 C 
BRANCH  37  38
ATOM     38  O   UNL     1      -3.372  -9.833  21.443  1.00  0.00    -0.394 OA
ATOM     39  H   UNL     1      -2.905 -10.706  21.358  1.00  0.00     0.210 HD
ENDBRANCH  37  38
ENDBRANCH  31  37
BRANCH  32  40
ATOM     40  O   UNL     1      -6.627 -10.033  23.919  1.00  0.00    -0.387 OA
ATOM     41  H   UNL     1      -7.516 -10.478  23.897  1.00  0.00     0.211 HD
ENDBRANCH  32  40
ENDBRANCH   1  27
TORSDOF 12
ENDMDL
