MODEL 1
REMARK VINA RESULT:    -2.223      0.000      0.000
REMARK INTER + INTRA:          -2.362
REMARK INTER:                  -2.483
REMARK INTRA:                   0.121
REMARK UNBOUND:                 0.121
REMARK SMILES CCCC(=O)[O-]
REMARK SMILES IDX 3 1 4 2 5 3 6 4 2 5 1 6
REMARK H PARENT
REMARK Flexibility Score: inf
ROOT
ATOM      1  C   UNL     1     -10.490   5.983 -16.073  1.00  0.00     0.052 C 
ENDROOT
BRANCH   1   2
ATOM      2  C   UNL     1     -10.943   6.440 -14.723  1.00  0.00     0.041 C 
ATOM      3  O   UNL     1     -10.108   6.887 -13.892  1.00  0.00    -0.550 OA
ATOM      4  O   UNL     1     -12.279   6.328 -14.362  1.00  0.00    -0.550 OA
ENDBRANCH   1   2
BRANCH   1   5
ATOM      5  C   UNL     1      -9.774   7.119 -16.811  1.00  0.00     0.003 C 
ATOM      6  C   UNL     1      -8.281   7.125 -16.496  1.00  0.00     0.004 C 
ENDBRANCH   1   5
TORSDOF 2
ENDMDL
MODEL 2
REMARK VINA RESULT:    -2.072     23.221     23.551
REMARK INTER + INTRA:          -2.194
REMARK INTER:                  -2.178
REMARK INTRA:                  -0.016
REMARK UNBOUND:                 0.121
REMARK SMILES CCCC(=O)[O-]
REMARK SMILES IDX 3 1 4 2 5 3 6 4 2 5 1 6
REMARK H PARENT
REMARK Flexibility Score: inf
ROOT
ATOM      1  C   UNL     1     -16.119 -10.073 -30.590  1.00  0.00     0.052 C 
ENDROOT
BRANCH   1   2
ATOM      2  C   UNL     1     -17.470 -10.626 -30.265  1.00  0.00     0.041 C 
ATOM      3  O   UNL     1     -18.508 -10.028 -30.653  1.00  0.00    -0.550 OA
ATOM      4  O   UNL     1     -17.585 -11.773 -29.490  1.00  0.00    -0.550 OA
ENDBRANCH   1   2
BRANCH   1   5
ATOM      5  C   UNL     1     -15.096 -10.503 -29.534  1.00  0.00     0.003 C 
ATOM      6  C   UNL     1     -13.695 -10.599 -30.131  1.00  0.00     0.004 C 
ENDBRANCH   1   5
TORSDOF 2
ENDMDL
MODEL 3
REMARK VINA RESULT:    -1.987     22.504     23.179
REMARK INTER + INTRA:          -2.099
REMARK INTER:                  -2.093
REMARK INTRA:                  -0.005
REMARK UNBOUND:                 0.121
REMARK SMILES CCCC(=O)[O-]
REMARK SMILES IDX 3 1 4 2 5 3 6 4 2 5 1 6
REMARK H PARENT
REMARK Flexibility Score: inf
ROOT
ATOM      1  C   UNL     1     -15.962 -10.768 -29.661  1.00  0.00     0.052 C 
ENDROOT
BRANCH   1   2
ATOM      2  C   UNL     1     -14.507 -10.423 -29.619  1.00  0.00     0.041 C 
ATOM      3  O   UNL     1     -14.029  -9.814 -28.626  1.00  0.00    -0.550 OA
ATOM      4  O   UNL     1     -13.688 -10.730 -30.698  1.00  0.00    -0.550 OA
ENDBRANCH   1   2
BRANCH   1   5
ATOM      5  C   UNL     1     -16.641 -10.085 -30.852  1.00  0.00     0.003 C 
ATOM      6  C   UNL     1     -18.160 -10.133 -30.722  1.00  0.00     0.004 C 
ENDBRANCH   1   5
TORSDOF 2
ENDMDL
MODEL 4
REMARK VINA RESULT:    -1.909      2.008      3.352
REMARK INTER + INTRA:          -2.011
REMARK INTER:                  -1.973
REMARK INTRA:                  -0.039
REMARK UNBOUND:                 0.121
REMARK SMILES CCCC(=O)[O-]
REMARK SMILES IDX 3 1 4 2 5 3 6 4 2 5 1 6
REMARK H PARENT
REMARK Flexibility Score: inf
ROOT
ATOM      1  C   UNL     1     -10.375   6.019 -15.036  1.00  0.00     0.052 C 
ENDROOT
BRANCH   1   2
ATOM      2  C   UNL     1      -9.984   6.769 -16.269  1.00  0.00     0.041 C 
ATOM      3  O   UNL     1     -10.847   7.042 -17.145  1.00  0.00    -0.550 OA
ATOM      4  O   UNL     1      -8.658   7.125 -16.476  1.00  0.00    -0.550 OA
ENDBRANCH   1   2
BRANCH   1   5
ATOM      5  C   UNL     1     -10.915   6.979 -13.973  1.00  0.00     0.003 C 
ATOM      6  C   UNL     1     -12.435   6.896 -13.876  1.00  0.00     0.004 C 
ENDBRANCH   1   5
TORSDOF 2
ENDMDL
MODEL 5
REMARK VINA RESULT:    -1.749      8.489      9.351
REMARK INTER + INTRA:          -1.832
REMARK INTER:                  -1.821
REMARK INTRA:                  -0.011
REMARK UNBOUND:                 0.121
REMARK SMILES CCCC(=O)[O-]
REMARK SMILES IDX 3 1 4 2 5 3 6 4 2 5 1 6
REMARK H PARENT
REMARK Flexibility Score: inf
ROOT
ATOM      1  C   UNL     1     -19.462   5.991 -16.945  1.00  0.00     0.052 C 
ENDROOT
BRANCH   1   2
ATOM      2  C   UNL     1     -19.904   4.587 -16.681  1.00  0.00     0.041 C 
ATOM      3  O   UNL     1     -20.123   3.801 -17.639  1.00  0.00    -0.550 OA
ATOM      4  O   UNL     1     -20.123   4.160 -15.377  1.00  0.00    -0.550 OA
ENDBRANCH   1   2
BRANCH   1   5
ATOM      5  C   UNL     1     -18.540   6.041 -18.167  1.00  0.00     0.003 C 
ATOM      6  C   UNL     1     -17.378   7.004 -17.940  1.00  0.00     0.004 C 
ENDBRANCH   1   5
TORSDOF 2
ENDMDL
MODEL 6
REMARK VINA RESULT:    -1.735      9.888     10.976
REMARK INTER + INTRA:          -1.818
REMARK INTER:                  -1.812
REMARK INTRA:                  -0.006
REMARK UNBOUND:                 0.121
REMARK SMILES CCCC(=O)[O-]
REMARK SMILES IDX 3 1 4 2 5 3 6 4 2 5 1 6
REMARK H PARENT
REMARK Flexibility Score: inf
ROOT
ATOM      1  C   UNL     1     -18.825  -0.397 -14.200  1.00  0.00     0.052 C 
ENDROOT
BRANCH   1   2
ATOM      2  C   UNL     1     -18.226   0.964 -14.041  1.00  0.00     0.041 C 
ATOM      3  O   UNL     1     -16.985   1.095 -13.875  1.00  0.00    -0.550 OA
ATOM      4  O   UNL     1     -19.044   2.087 -14.026  1.00  0.00    -0.550 OA
ENDBRANCH   1   2
BRANCH   1   5
ATOM      5  C   UNL     1     -19.846  -0.404 -15.341  1.00  0.00     0.003 C 
ATOM      6  C   UNL     1     -20.125  -1.824 -15.822  1.00  0.00     0.004 C 
ENDBRANCH   1   5
TORSDOF 2
ENDMDL
MODEL 7
REMARK VINA RESULT:    -1.699     10.860     11.636
REMARK INTER + INTRA:          -1.777
REMARK INTER:                  -1.769
REMARK INTRA:                  -0.008
REMARK UNBOUND:                 0.121
REMARK SMILES CCCC(=O)[O-]
REMARK SMILES IDX 3 1 4 2 5 3 6 4 2 5 1 6
REMARK H PARENT
REMARK Flexibility Score: inf
ROOT
ATOM      1  C   UNL     1     -20.121   0.764 -15.278  1.00  0.00     0.052 C 
ENDROOT
BRANCH   1   2
ATOM      2  C   UNL     1     -19.869  -0.700 -15.449  1.00  0.00     0.041 C 
ATOM      3  O   UNL     1     -20.067  -1.251 -16.564  1.00  0.00    -0.550 OA
ATOM      4  O   UNL     1     -19.462  -1.468 -14.365  1.00  0.00    -0.550 OA
ENDBRANCH   1   2
BRANCH   1   5
ATOM      5  C   UNL     1     -19.228   1.336 -14.174  1.00  0.00     0.003 C 
ATOM      6  C   UNL     1     -19.327   2.857 -14.117  1.00  0.00     0.004 C 
ENDBRANCH   1   5
TORSDOF 2
ENDMDL
MODEL 8
REMARK VINA RESULT:    -1.638      8.606      9.652
REMARK INTER + INTRA:          -1.708
REMARK INTER:                  -1.688
REMARK INTRA:                  -0.020
REMARK UNBOUND:                 0.121
REMARK SMILES CCCC(=O)[O-]
REMARK SMILES IDX 3 1 4 2 5 3 6 4 2 5 1 6
REMARK H PARENT
REMARK Flexibility Score: inf
ROOT
ATOM      1  C   UNL     1     -19.500   5.792 -16.623  1.00  0.00     0.052 C 
ENDROOT
BRANCH   1   2
ATOM      2  C   UNL     1     -18.610   6.021 -17.804  1.00  0.00     0.041 C 
ATOM      3  O   UNL     1     -18.590   5.191 -18.751  1.00  0.00    -0.550 OA
ATOM      4  O   UNL     1     -17.767   7.124 -17.837  1.00  0.00    -0.550 OA
ENDBRANCH   1   2
BRANCH   1   5
ATOM      5  C   UNL     1     -20.125   4.395 -16.686  1.00  0.00     0.003 C 
ATOM      6  C   UNL     1     -20.124   3.729 -15.314  1.00  0.00     0.004 C 
ENDBRANCH   1   5
TORSDOF 2
ENDMDL
MODEL 9
REMARK VINA RESULT:    -1.600      8.339      9.347
REMARK INTER + INTRA:          -1.667
REMARK INTER:                  -1.633
REMARK INTRA:                  -0.034
REMARK UNBOUND:                 0.121
REMARK SMILES CCCC(=O)[O-]
REMARK SMILES IDX 3 1 4 2 5 3 6 4 2 5 1 6
REMARK H PARENT
REMARK Flexibility Score: inf
ROOT
ATOM      1  C   UNL     1     -19.070   6.236 -16.493  1.00  0.00     0.052 C 
ENDROOT
BRANCH   1   2
ATOM      2  C   UNL     1     -18.308   6.196 -17.780  1.00  0.00     0.041 C 
ATOM      3  O   UNL     1     -17.447   7.079 -18.034  1.00  0.00    -0.550 OA
ATOM      4  O   UNL     1     -18.583   5.212 -18.722  1.00  0.00    -0.550 OA
ENDBRANCH   1   2
BRANCH   1   5
ATOM      5  C   UNL     1     -20.125   5.126 -16.461  1.00  0.00     0.003 C 
ATOM      6  C   UNL     1     -19.866   4.154 -15.314  1.00  0.00     0.004 C 
ENDBRANCH   1   5
TORSDOF 2
ENDMDL
