MODEL 1
REMARK VINA RESULT:    -4.541      0.000      0.000
REMARK INTER + INTRA:          -6.239
REMARK INTER:                  -6.133
REMARK INTRA:                  -0.105
REMARK UNBOUND:                -0.105
REMARK SMILES CCCCCCCC(=O)[O-]
REMARK SMILES IDX 5 1 6 2 7 3 8 4 9 5 10 6 4 7 3 8 2 9 1 10
REMARK H PARENT
REMARK Flexibility Score: inf
ROOT
ATOM      1  C   UNL     1       0.624   7.690  19.033  1.00  0.00     0.000 C 
ENDROOT
BRANCH   1   2
ATOM      2  C   UNL     1       0.852   7.458  20.537  1.00  0.00     0.006 C 
BRANCH   2   3
ATOM      3  C   UNL     1      -0.406   6.926  21.237  1.00  0.00     0.053 C 
BRANCH   3   4
ATOM      4  C   UNL     1      -0.193   6.767  22.711  1.00  0.00     0.041 C 
ATOM      5  O   UNL     1       0.966   6.594  23.169  1.00  0.00    -0.550 OA
ATOM      6  O   UNL     1      -1.272   6.846  23.582  1.00  0.00    -0.550 OA
ENDBRANCH   3   4
ENDBRANCH   2   3
ENDBRANCH   1   2
BRANCH   1   7
ATOM      7  C   UNL     1       1.442   8.871  18.480  1.00  0.00     0.000 C 
BRANCH   7   8
ATOM      8  C   UNL     1       1.757   8.797  16.971  1.00  0.00    -0.000 C 
BRANCH   8   9
ATOM      9  C   UNL     1       1.785  10.153  16.245  1.00  0.00    -0.003 C 
ATOM     10  C   UNL     1       0.529  10.410  15.415  1.00  0.00     0.004 C 
ENDBRANCH   8   9
ENDBRANCH   7   8
ENDBRANCH   1   7
TORSDOF 6
ENDMDL
MODEL 2
REMARK VINA RESULT:    -4.540      1.140      1.680
REMARK INTER + INTRA:          -6.237
REMARK INTER:                  -6.005
REMARK INTRA:                  -0.232
REMARK UNBOUND:                -0.105
REMARK SMILES CCCCCCCC(=O)[O-]
REMARK SMILES IDX 5 1 6 2 7 3 8 4 9 5 10 6 4 7 3 8 2 9 1 10
REMARK H PARENT
REMARK Flexibility Score: inf
ROOT
ATOM      1  C   UNL     1       1.127   8.418  17.611  1.00  0.00     0.000 C 
ENDROOT
BRANCH   1   2
ATOM      2  C   UNL     1       1.063   8.501  19.146  1.00  0.00     0.006 C 
BRANCH   2   3
ATOM      3  C   UNL     1       0.184   7.398  19.749  1.00  0.00     0.053 C 
BRANCH   3   4
ATOM      4  C   UNL     1       0.580   7.084  21.160  1.00  0.00     0.041 C 
ATOM      5  O   UNL     1       1.789   7.136  21.505  1.00  0.00    -0.550 OA
ATOM      6  O   UNL     1      -0.392   6.769  22.101  1.00  0.00    -0.550 OA
ENDBRANCH   3   4
ENDBRANCH   2   3
ENDBRANCH   1   2
BRANCH   1   7
ATOM      7  C   UNL     1       2.316   9.195  17.019  1.00  0.00     0.000 C 
BRANCH   7   8
ATOM      8  C   UNL     1       1.938  10.467  16.232  1.00  0.00    -0.000 C 
BRANCH   8   9
ATOM      9  C   UNL     1       0.457  10.561  15.822  1.00  0.00    -0.003 C 
ATOM     10  C   UNL     1       0.197  10.038  14.410  1.00  0.00     0.004 C 
ENDBRANCH   8   9
ENDBRANCH   7   8
ENDBRANCH   1   7
TORSDOF 6
ENDMDL
MODEL 3
REMARK VINA RESULT:    -4.452      3.898      6.327
REMARK INTER + INTRA:          -6.119
REMARK INTER:                  -5.964
REMARK INTRA:                  -0.155
REMARK UNBOUND:                -0.105
REMARK SMILES CCCCCCCC(=O)[O-]
REMARK SMILES IDX 5 1 6 2 7 3 8 4 9 5 10 6 4 7 3 8 2 9 1 10
REMARK H PARENT
REMARK Flexibility Score: inf
ROOT
ATOM      1  C   UNL     1       0.926   8.429  19.576  1.00  0.00     0.000 C 
ENDROOT
BRANCH   1   2
ATOM      2  C   UNL     1       0.960   8.317  18.043  1.00  0.00     0.006 C 
BRANCH   2   3
ATOM      3  C   UNL     1       2.124   9.108  17.431  1.00  0.00     0.053 C 
BRANCH   3   4
ATOM      4  C   UNL     1       1.674   9.952  16.277  1.00  0.00     0.041 C 
ATOM      5  O   UNL     1       2.161  11.099  16.103  1.00  0.00    -0.550 OA
ATOM      6  O   UNL     1       0.743   9.455  15.374  1.00  0.00    -0.550 OA
ENDBRANCH   3   4
ENDBRANCH   2   3
ENDBRANCH   1   2
BRANCH   1   7
ATOM      7  C   UNL     1       0.695   7.073  20.269  1.00  0.00     0.000 C 
BRANCH   7   8
ATOM      8  C   UNL     1      -0.482   7.042  21.266  1.00  0.00    -0.000 C 
BRANCH   8   9
ATOM      9  C   UNL     1      -0.096   6.711  22.718  1.00  0.00    -0.003 C 
ATOM     10  C   UNL     1       1.414   6.732  22.952  1.00  0.00     0.004 C 
ENDBRANCH   8   9
ENDBRANCH   7   8
ENDBRANCH   1   7
TORSDOF 6
ENDMDL
MODEL 4
REMARK VINA RESULT:    -4.115     16.197     16.640
REMARK INTER + INTRA:          -5.664
REMARK INTER:                  -5.377
REMARK INTRA:                  -0.287
REMARK UNBOUND:                -0.105
REMARK SMILES CCCCCCCC(=O)[O-]
REMARK SMILES IDX 5 1 6 2 7 3 8 4 9 5 10 6 4 7 3 8 2 9 1 10
REMARK H PARENT
REMARK Flexibility Score: inf
ROOT
ATOM      1  C   UNL     1      -4.307  -4.121  11.572  1.00  0.00     0.000 C 
ENDROOT
BRANCH   1   2
ATOM      2  C   UNL     1      -4.562  -4.607  10.135  1.00  0.00     0.006 C 
BRANCH   2   3
ATOM      3  C   UNL     1      -5.094  -6.046  10.097  1.00  0.00     0.053 C 
BRANCH   3   4
ATOM      4  C   UNL     1      -3.983  -7.043   9.975  1.00  0.00     0.041 C 
ATOM      5  O   UNL     1      -2.789  -6.655   9.894  1.00  0.00    -0.550 OA
ATOM      6  O   UNL     1      -4.265  -8.403   9.986  1.00  0.00    -0.550 OA
ENDBRANCH   3   4
ENDBRANCH   2   3
ENDBRANCH   1   2
BRANCH   1   7
ATOM      7  C   UNL     1      -4.817  -2.689  11.818  1.00  0.00     0.000 C 
BRANCH   7   8
ATOM      8  C   UNL     1      -5.450  -2.002  10.591  1.00  0.00    -0.000 C 
BRANCH   8   9
ATOM      9  C   UNL     1      -4.561  -0.951   9.902  1.00  0.00    -0.003 C 
ATOM     10  C   UNL     1      -3.210  -0.772  10.592  1.00  0.00     0.004 C 
ENDBRANCH   8   9
ENDBRANCH   7   8
ENDBRANCH   1   7
TORSDOF 6
ENDMDL
MODEL 5
REMARK VINA RESULT:    -3.884      4.622      6.028
REMARK INTER + INTRA:          -5.352
REMARK INTER:                  -5.164
REMARK INTRA:                  -0.188
REMARK UNBOUND:                -0.105
REMARK SMILES CCCCCCCC(=O)[O-]
REMARK SMILES IDX 5 1 6 2 7 3 8 4 9 5 10 6 4 7 3 8 2 9 1 10
REMARK H PARENT
REMARK Flexibility Score: inf
ROOT
ATOM      1  C   UNL     1      -0.329   5.928  18.469  1.00  0.00     0.000 C 
ENDROOT
BRANCH   1   2
ATOM      2  C   UNL     1      -0.314   5.383  17.030  1.00  0.00     0.006 C 
BRANCH   2   3
ATOM      3  C   UNL     1      -0.922   3.978  16.938  1.00  0.00     0.053 C 
BRANCH   3   4
ATOM      4  C   UNL     1      -2.172   3.969  16.112  1.00  0.00     0.041 C 
ATOM      5  O   UNL     1      -2.263   4.700  15.092  1.00  0.00    -0.550 OA
ATOM      6  O   UNL     1      -3.223   3.125  16.450  1.00  0.00    -0.550 OA
ENDBRANCH   3   4
ENDBRANCH   2   3
ENDBRANCH   1   2
BRANCH   1   7
ATOM      7  C   UNL     1       0.557   7.174  18.645  1.00  0.00     0.000 C 
BRANCH   7   8
ATOM      8  C   UNL     1       0.415   7.889  20.005  1.00  0.00    -0.000 C 
BRANCH   8   9
ATOM      9  C   UNL     1       0.766   7.029  21.232  1.00  0.00    -0.003 C 
ATOM     10  C   UNL     1      -0.420   6.821  22.172  1.00  0.00     0.004 C 
ENDBRANCH   8   9
ENDBRANCH   7   8
ENDBRANCH   1   7
TORSDOF 6
ENDMDL
MODEL 6
REMARK VINA RESULT:    -3.858      5.003      5.949
REMARK INTER + INTRA:          -5.317
REMARK INTER:                  -5.154
REMARK INTRA:                  -0.163
REMARK UNBOUND:                -0.105
REMARK SMILES CCCCCCCC(=O)[O-]
REMARK SMILES IDX 5 1 6 2 7 3 8 4 9 5 10 6 4 7 3 8 2 9 1 10
REMARK H PARENT
REMARK Flexibility Score: inf
ROOT
ATOM      1  C   UNL     1      -0.613   4.791  17.577  1.00  0.00     0.000 C 
ENDROOT
BRANCH   1   2
ATOM      2  C   UNL     1      -0.982   4.708  16.086  1.00  0.00     0.006 C 
BRANCH   2   3
ATOM      3  C   UNL     1      -1.992   3.588  15.803  1.00  0.00     0.053 C 
BRANCH   3   4
ATOM      4  C   UNL     1      -3.397   4.025  16.085  1.00  0.00     0.041 C 
ATOM      5  O   UNL     1      -4.298   3.170  16.288  1.00  0.00    -0.550 OA
ATOM      6  O   UNL     1      -3.703   5.378  16.159  1.00  0.00    -0.550 OA
ENDBRANCH   3   4
ENDBRANCH   2   3
ENDBRANCH   1   2
BRANCH   1   7
ATOM      7  C   UNL     1       0.104   6.104  17.943  1.00  0.00     0.000 C 
BRANCH   7   8
ATOM      8  C   UNL     1       0.022   6.499  19.432  1.00  0.00    -0.000 C 
BRANCH   8   9
ATOM      9  C   UNL     1       0.541   7.911  19.759  1.00  0.00    -0.003 C 
ATOM     10  C   UNL     1       1.127   8.626  18.543  1.00  0.00     0.004 C 
ENDBRANCH   8   9
ENDBRANCH   7   8
ENDBRANCH   1   7
TORSDOF 6
ENDMDL
MODEL 7
REMARK VINA RESULT:    -3.772      7.138      7.776
REMARK INTER + INTRA:          -5.201
REMARK INTER:                  -4.799
REMARK INTRA:                  -0.401
REMARK UNBOUND:                -0.105
REMARK SMILES CCCCCCCC(=O)[O-]
REMARK SMILES IDX 5 1 6 2 7 3 8 4 9 5 10 6 4 7 3 8 2 9 1 10
REMARK H PARENT
REMARK Flexibility Score: inf
ROOT
ATOM      1  C   UNL     1      -5.350   4.045  16.959  1.00  0.00     0.000 C 
ENDROOT
BRANCH   1   2
ATOM      2  C   UNL     1      -4.185   3.184  16.439  1.00  0.00     0.006 C 
BRANCH   2   3
ATOM      3  C   UNL     1      -3.141   4.019  15.686  1.00  0.00     0.053 C 
BRANCH   3   4
ATOM      4  C   UNL     1      -1.746   3.674  16.110  1.00  0.00     0.041 C 
ATOM      5  O   UNL     1      -0.776   4.381  15.733  1.00  0.00    -0.550 OA
ATOM      6  O   UNL     1      -1.523   2.593  16.952  1.00  0.00    -0.550 OA
ENDBRANCH   3   4
ENDBRANCH   2   3
ENDBRANCH   1   2
BRANCH   1   7
ATOM      7  C   UNL     1      -6.129   4.742  15.829  1.00  0.00     0.000 C 
BRANCH   7   8
ATOM      8  C   UNL     1      -6.718   6.120  16.196  1.00  0.00    -0.000 C 
BRANCH   8   9
ATOM      9  C   UNL     1      -5.699   7.272  16.240  1.00  0.00    -0.003 C 
ATOM     10  C   UNL     1      -4.788   7.307  15.014  1.00  0.00     0.004 C 
ENDBRANCH   8   9
ENDBRANCH   7   8
ENDBRANCH   1   7
TORSDOF 6
ENDMDL
MODEL 8
REMARK VINA RESULT:    -3.685      7.243      7.890
REMARK INTER + INTRA:          -5.083
REMARK INTER:                  -4.663
REMARK INTRA:                  -0.421
REMARK UNBOUND:                -0.105
REMARK SMILES CCCCCCCC(=O)[O-]
REMARK SMILES IDX 5 1 6 2 7 3 8 4 9 5 10 6 4 7 3 8 2 9 1 10
REMARK H PARENT
REMARK Flexibility Score: inf
ROOT
ATOM      1  C   UNL     1      -4.179   5.439  16.405  1.00  0.00     0.000 C 
ENDROOT
BRANCH   1   2
ATOM      2  C   UNL     1      -3.775   3.995  16.061  1.00  0.00     0.006 C 
BRANCH   2   3
ATOM      3  C   UNL     1      -2.361   3.916  15.471  1.00  0.00     0.053 C 
BRANCH   3   4
ATOM      4  C   UNL     1      -1.336   3.639  16.528  1.00  0.00     0.041 C 
ATOM      5  O   UNL     1      -1.229   2.485  17.020  1.00  0.00    -0.550 OA
ATOM      6  O   UNL     1      -0.475   4.646  16.944  1.00  0.00    -0.550 OA
ENDBRANCH   3   4
ENDBRANCH   2   3
ENDBRANCH   1   2
BRANCH   1   7
ATOM      7  C   UNL     1      -5.701   5.665  16.344  1.00  0.00     0.000 C 
BRANCH   7   8
ATOM      8  C   UNL     1      -6.452   4.777  15.330  1.00  0.00    -0.000 C 
BRANCH   8   9
ATOM      9  C   UNL     1      -6.480   5.317  13.889  1.00  0.00    -0.003 C 
ATOM     10  C   UNL     1      -5.676   4.457  12.916  1.00  0.00     0.004 C 
ENDBRANCH   8   9
ENDBRANCH   7   8
ENDBRANCH   1   7
TORSDOF 6
ENDMDL
MODEL 9
REMARK VINA RESULT:    -3.640      7.875      8.434
REMARK INTER + INTRA:          -5.022
REMARK INTER:                  -4.443
REMARK INTRA:                  -0.579
REMARK UNBOUND:                -0.105
REMARK SMILES CCCCCCCC(=O)[O-]
REMARK SMILES IDX 5 1 6 2 7 3 8 4 9 5 10 6 4 7 3 8 2 9 1 10
REMARK H PARENT
REMARK Flexibility Score: inf
ROOT
ATOM      1  C   UNL     1      -5.258   6.930  15.893  1.00  0.00     0.000 C 
ENDROOT
BRANCH   1   2
ATOM      2  C   UNL     1      -4.753   5.742  16.730  1.00  0.00     0.006 C 
BRANCH   2   3
ATOM      3  C   UNL     1      -3.457   5.146  16.165  1.00  0.00     0.053 C 
BRANCH   3   4
ATOM      4  C   UNL     1      -3.457   3.650  16.240  1.00  0.00     0.041 C 
ATOM      5  O   UNL     1      -2.371   3.015  16.229  1.00  0.00    -0.550 OA
ATOM      6  O   UNL     1      -4.657   2.959  16.357  1.00  0.00    -0.550 OA
ENDBRANCH   3   4
ENDBRANCH   2   3
ENDBRANCH   1   2
BRANCH   1   7
ATOM      7  C   UNL     1      -6.641   6.676  15.267  1.00  0.00     0.000 C 
BRANCH   7   8
ATOM      8  C   UNL     1      -7.021   5.189  15.107  1.00  0.00    -0.000 C 
BRANCH   8   9
ATOM      9  C   UNL     1      -6.998   4.665  13.660  1.00  0.00    -0.003 C 
ATOM     10  C   UNL     1      -5.582   4.449  13.128  1.00  0.00     0.004 C 
ENDBRANCH   8   9
ENDBRANCH   7   8
ENDBRANCH   1   7
TORSDOF 6
ENDMDL
