MODEL 1
REMARK VINA RESULT:    -5.158      0.000      0.000
REMARK INTER + INTRA:          -9.653
REMARK INTER:                  -9.079
REMARK INTRA:                  -0.574
REMARK UNBOUND:                -0.574
REMARK SMILES CCCCCCCCCCCCCCC(=O)[O-]
REMARK SMILES IDX 9 1 10 2 11 3 12 4 13 5 14 6 15 7 16 8 17 9 8 10 7 11 6 12
REMARK SMILES IDX 5 13 4 14 3 15 2 16 1 17
REMARK H PARENT
REMARK Flexibility Score: inf
ROOT
ATOM      1  C   UNL     1      22.056  12.911   6.429  1.00  0.00     0.000 C 
ENDROOT
BRANCH   1   2
ATOM      2  C   UNL     1      21.008  13.891   6.980  1.00  0.00     0.000 C 
BRANCH   2   3
ATOM      3  C   UNL     1      20.302  14.691   5.871  1.00  0.00     0.000 C 
BRANCH   3   4
ATOM      4  C   UNL     1      19.877  16.096   6.347  1.00  0.00     0.000 C 
BRANCH   4   5
ATOM      5  C   UNL     1      18.973  16.076   7.592  1.00  0.00     0.006 C 
BRANCH   5   6
ATOM      6  C   UNL     1      18.234  17.400   7.813  1.00  0.00     0.053 C 
BRANCH   6   7
ATOM      7  C   UNL     1      18.821  18.139   8.974  1.00  0.00     0.041 C 
ATOM      8  O   UNL     1      18.287  18.059  10.112  1.00  0.00    -0.550 OA
ATOM      9  O   UNL     1      19.987  18.877   8.811  1.00  0.00    -0.550 OA
ENDBRANCH   6   7
ENDBRANCH   5   6
ENDBRANCH   4   5
ENDBRANCH   3   4
ENDBRANCH   2   3
ENDBRANCH   1   2
BRANCH   1  10
ATOM     10  C   UNL     1      23.300  13.623   5.876  1.00  0.00     0.000 C 
BRANCH  10  11
ATOM     11  C   UNL     1      24.117  12.679   4.981  1.00  0.00    -0.000 C 
BRANCH  11  12
ATOM     12  C   UNL     1      23.669  11.211   5.093  1.00  0.00    -0.000 C 
BRANCH  12  13
ATOM     13  C   UNL     1      24.777  10.218   5.500  1.00  0.00    -0.000 C 
BRANCH  13  14
ATOM     14  C   UNL     1      24.404   8.732   5.363  1.00  0.00    -0.000 C 
BRANCH  14  15
ATOM     15  C   UNL     1      25.619   7.799   5.474  1.00  0.00    -0.000 C 
BRANCH  15  16
ATOM     16  C   UNL     1      25.889   7.422   6.936  1.00  0.00    -0.003 C 
ATOM     17  C   UNL     1      27.323   6.940   7.126  1.00  0.00     0.004 C 
ENDBRANCH  15  16
ENDBRANCH  14  15
ENDBRANCH  13  14
ENDBRANCH  12  13
ENDBRANCH  11  12
ENDBRANCH  10  11
ENDBRANCH   1  10
TORSDOF 13
ENDMDL
MODEL 2
REMARK VINA RESULT:    -4.932     14.165     15.448
REMARK INTER + INTRA:          -9.254
REMARK INTER:                  -7.093
REMARK INTRA:                  -2.161
REMARK UNBOUND:                -0.574
REMARK SMILES CCCCCCCCCCCCCCC(=O)[O-]
REMARK SMILES IDX 9 1 10 2 11 3 12 4 13 5 14 6 15 7 16 8 17 9 8 10 7 11 6 12
REMARK SMILES IDX 5 13 4 14 3 15 2 16 1 17
REMARK H PARENT
REMARK Flexibility Score: inf
ROOT
ATOM      1  C   UNL     1      15.723   2.700   1.404  1.00  0.00     0.000 C 
ENDROOT
BRANCH   1   2
ATOM      2  C   UNL     1      14.500   2.296   2.243  1.00  0.00     0.000 C 
BRANCH   2   3
ATOM      3  C   UNL     1      13.325   3.277   2.090  1.00  0.00     0.000 C 
BRANCH   3   4
ATOM      4  C   UNL     1      12.040   2.575   1.604  1.00  0.00     0.000 C 
BRANCH   4   5
ATOM      5  C   UNL     1      10.845   3.529   1.428  1.00  0.00     0.006 C 
BRANCH   5   6
ATOM      6  C   UNL     1      11.271   4.958   1.075  1.00  0.00     0.053 C 
BRANCH   6   7
ATOM      7  C   UNL     1      10.168   5.669   0.356  1.00  0.00     0.041 C 
ATOM      8  O   UNL     1      10.130   5.672  -0.903  1.00  0.00    -0.550 OA
ATOM      9  O   UNL     1       9.153   6.287   1.077  1.00  0.00    -0.550 OA
ENDBRANCH   6   7
ENDBRANCH   5   6
ENDBRANCH   4   5
ENDBRANCH   3   4
ENDBRANCH   2   3
ENDBRANCH   1   2
BRANCH   1  10
ATOM     10  C   UNL     1      15.452   3.921   0.512  1.00  0.00     0.000 C 
BRANCH  10  11
ATOM     11  C   UNL     1      16.133   3.761  -0.856  1.00  0.00    -0.000 C 
BRANCH  11  12
ATOM     12  C   UNL     1      15.130   3.749  -2.024  1.00  0.00    -0.000 C 
BRANCH  12  13
ATOM     13  C   UNL     1      13.761   3.115  -1.704  1.00  0.00    -0.000 C 
BRANCH  13  14
ATOM     14  C   UNL     1      13.578   1.669  -2.198  1.00  0.00    -0.000 C 
BRANCH  14  15
ATOM     15  C   UNL     1      13.886   0.626  -1.114  1.00  0.00    -0.000 C 
BRANCH  15  16
ATOM     16  C   UNL     1      15.302   0.062  -1.282  1.00  0.00    -0.003 C 
ATOM     17  C   UNL     1      15.704   0.009  -2.752  1.00  0.00     0.004 C 
ENDBRANCH  15  16
ENDBRANCH  14  15
ENDBRANCH  13  14
ENDBRANCH  12  13
ENDBRANCH  11  12
ENDBRANCH  10  11
ENDBRANCH   1  10
TORSDOF 13
ENDMDL
MODEL 3
REMARK VINA RESULT:    -4.903     10.088     13.027
REMARK INTER + INTRA:          -9.203
REMARK INTER:                  -7.951
REMARK INTRA:                  -1.251
REMARK UNBOUND:                -0.574
REMARK SMILES CCCCCCCCCCCCCCC(=O)[O-]
REMARK SMILES IDX 9 1 10 2 11 3 12 4 13 5 14 6 15 7 16 8 17 9 8 10 7 11 6 12
REMARK SMILES IDX 5 13 4 14 3 15 2 16 1 17
REMARK H PARENT
REMARK Flexibility Score: inf
ROOT
ATOM      1  C   UNL     1      15.829  16.927  -1.838  1.00  0.00     0.000 C 
ENDROOT
BRANCH   1   2
ATOM      2  C   UNL     1      15.613  16.074  -0.578  1.00  0.00     0.000 C 
BRANCH   2   3
ATOM      3  C   UNL     1      15.138  16.904   0.627  1.00  0.00     0.000 C 
BRANCH   3   4
ATOM      4  C   UNL     1      16.295  17.250   1.588  1.00  0.00     0.000 C 
BRANCH   4   5
ATOM      5  C   UNL     1      16.883  18.654   1.363  1.00  0.00     0.006 C 
BRANCH   5   6
ATOM      6  C   UNL     1      18.133  18.642   0.476  1.00  0.00     0.053 C 
BRANCH   6   7
ATOM      7  C   UNL     1      19.027  17.501   0.849  1.00  0.00     0.041 C 
ATOM      8  O   UNL     1      19.189  16.538   0.054  1.00  0.00    -0.550 OA
ATOM      9  O   UNL     1      19.720  17.526   2.053  1.00  0.00    -0.550 OA
ENDBRANCH   6   7
ENDBRANCH   5   6
ENDBRANCH   4   5
ENDBRANCH   3   4
ENDBRANCH   2   3
ENDBRANCH   1   2
BRANCH   1  10
ATOM     10  C   UNL     1      14.976  18.204  -1.843  1.00  0.00     0.000 C 
BRANCH  10  11
ATOM     11  C   UNL     1      14.955  18.843  -3.239  1.00  0.00    -0.000 C 
BRANCH  11  12
ATOM     12  C   UNL     1      13.788  18.343  -4.108  1.00  0.00    -0.000 C 
BRANCH  12  13
ATOM     13  C   UNL     1      14.132  17.175  -5.056  1.00  0.00    -0.000 C 
BRANCH  13  14
ATOM     14  C   UNL     1      12.999  16.156  -5.274  1.00  0.00    -0.000 C 
BRANCH  14  15
ATOM     15  C   UNL     1      12.690  15.329  -4.018  1.00  0.00    -0.000 C 
BRANCH  15  16
ATOM     16  C   UNL     1      11.763  14.154  -4.348  1.00  0.00    -0.003 C 
ATOM     17  C   UNL     1      12.370  13.257  -5.422  1.00  0.00     0.004 C 
ENDBRANCH  15  16
ENDBRANCH  14  15
ENDBRANCH  13  14
ENDBRANCH  12  13
ENDBRANCH  11  12
ENDBRANCH  10  11
ENDBRANCH   1  10
TORSDOF 13
ENDMDL
MODEL 4
REMARK VINA RESULT:    -4.885     14.267     15.614
REMARK INTER + INTRA:          -9.171
REMARK INTER:                  -7.205
REMARK INTRA:                  -1.966
REMARK UNBOUND:                -0.574
REMARK SMILES CCCCCCCCCCCCCCC(=O)[O-]
REMARK SMILES IDX 9 1 10 2 11 3 12 4 13 5 14 6 15 7 16 8 17 9 8 10 7 11 6 12
REMARK SMILES IDX 5 13 4 14 3 15 2 16 1 17
REMARK H PARENT
REMARK Flexibility Score: inf
ROOT
ATOM      1  C   UNL     1      15.390   4.123   0.618  1.00  0.00     0.000 C 
ENDROOT
BRANCH   1   2
ATOM      2  C   UNL     1      14.921   2.959   1.505  1.00  0.00     0.000 C 
BRANCH   2   3
ATOM      3  C   UNL     1      13.531   3.203   2.119  1.00  0.00     0.000 C 
BRANCH   3   4
ATOM      4  C   UNL     1      12.970   4.594   1.755  1.00  0.00     0.000 C 
BRANCH   4   5
ATOM      5  C   UNL     1      11.465   4.744   2.039  1.00  0.00     0.006 C 
BRANCH   5   6
ATOM      6  C   UNL     1      10.587   4.224   0.895  1.00  0.00     0.053 C 
BRANCH   6   7
ATOM      7  C   UNL     1       9.423   5.137   0.674  1.00  0.00     0.041 C 
ATOM      8  O   UNL     1       9.612   6.356   0.425  1.00  0.00    -0.550 OA
ATOM      9  O   UNL     1       8.129   4.630   0.692  1.00  0.00    -0.550 OA
ENDBRANCH   6   7
ENDBRANCH   5   6
ENDBRANCH   4   5
ENDBRANCH   3   4
ENDBRANCH   2   3
ENDBRANCH   1   2
BRANCH   1  10
ATOM     10  C   UNL     1      16.289   3.663  -0.538  1.00  0.00     0.000 C 
BRANCH  10  11
ATOM     11  C   UNL     1      16.524   2.146  -0.478  1.00  0.00    -0.000 C 
BRANCH  11  12
ATOM     12  C   UNL     1      16.788   1.526  -1.862  1.00  0.00    -0.000 C 
BRANCH  12  13
ATOM     13  C   UNL     1      15.773   0.451  -2.301  1.00  0.00    -0.000 C 
BRANCH  13  14
ATOM     14  C   UNL     1      14.612   0.210  -1.319  1.00  0.00    -0.000 C 
BRANCH  14  15
ATOM     15  C   UNL     1      13.235   0.449  -1.954  1.00  0.00    -0.000 C 
BRANCH  15  16
ATOM     16  C   UNL     1      12.483   1.570  -1.225  1.00  0.00    -0.003 C 
ATOM     17  C   UNL     1      12.934   2.943  -1.711  1.00  0.00     0.004 C 
ENDBRANCH  15  16
ENDBRANCH  14  15
ENDBRANCH  13  14
ENDBRANCH  12  13
ENDBRANCH  11  12
ENDBRANCH  10  11
ENDBRANCH   1  10
TORSDOF 13
ENDMDL
MODEL 5
REMARK VINA RESULT:    -4.856     14.484     15.681
REMARK INTER + INTRA:          -9.120
REMARK INTER:                  -7.383
REMARK INTRA:                  -1.737
REMARK UNBOUND:                -0.574
REMARK SMILES CCCCCCCCCCCCCCC(=O)[O-]
REMARK SMILES IDX 9 1 10 2 11 3 12 4 13 5 14 6 15 7 16 8 17 9 8 10 7 11 6 12
REMARK SMILES IDX 5 13 4 14 3 15 2 16 1 17
REMARK H PARENT
REMARK Flexibility Score: inf
ROOT
ATOM      1  C   UNL     1      15.125   2.738   2.028  1.00  0.00     0.000 C 
ENDROOT
BRANCH   1   2
ATOM      2  C   UNL     1      13.662   3.169   2.215  1.00  0.00     0.000 C 
BRANCH   2   3
ATOM      3  C   UNL     1      13.348   4.513   1.535  1.00  0.00     0.000 C 
BRANCH   3   4
ATOM      4  C   UNL     1      11.885   4.951   1.761  1.00  0.00     0.000 C 
BRANCH   4   5
ATOM      5  C   UNL     1      10.969   4.682   0.555  1.00  0.00     0.006 C 
BRANCH   5   6
ATOM      6  C   UNL     1      10.052   5.865   0.226  1.00  0.00     0.053 C 
BRANCH   6   7
ATOM      7  C   UNL     1       9.451   5.698  -1.134  1.00  0.00     0.041 C 
ATOM      8  O   UNL     1       8.203   5.771  -1.289  1.00  0.00    -0.550 OA
ATOM      9  O   UNL     1      10.272   5.510  -2.239  1.00  0.00    -0.550 OA
ENDBRANCH   6   7
ENDBRANCH   5   6
ENDBRANCH   4   5
ENDBRANCH   3   4
ENDBRANCH   2   3
ENDBRANCH   1   2
BRANCH   1  10
ATOM     10  C   UNL     1      15.782   3.386   0.800  1.00  0.00     0.000 C 
BRANCH  10  11
ATOM     11  C   UNL     1      16.388   2.319  -0.124  1.00  0.00    -0.000 C 
BRANCH  11  12
ATOM     12  C   UNL     1      16.102   2.585  -1.613  1.00  0.00    -0.000 C 
BRANCH  12  13
ATOM     13  C   UNL     1      15.073   3.699  -1.892  1.00  0.00    -0.000 C 
BRANCH  13  14
ATOM     14  C   UNL     1      13.661   3.207  -2.257  1.00  0.00    -0.000 C 
BRANCH  14  15
ATOM     15  C   UNL     1      13.616   1.705  -2.570  1.00  0.00    -0.000 C 
BRANCH  15  16
ATOM     16  C   UNL     1      12.371   1.054  -1.955  1.00  0.00    -0.003 C 
ATOM     17  C   UNL     1      12.394   1.148  -0.433  1.00  0.00     0.004 C 
ENDBRANCH  15  16
ENDBRANCH  14  15
ENDBRANCH  13  14
ENDBRANCH  12  13
ENDBRANCH  11  12
ENDBRANCH  10  11
ENDBRANCH   1  10
TORSDOF 13
ENDMDL
MODEL 6
REMARK VINA RESULT:    -4.849     14.064     15.400
REMARK INTER + INTRA:          -9.109
REMARK INTER:                  -6.918
REMARK INTRA:                  -2.191
REMARK UNBOUND:                -0.574
REMARK SMILES CCCCCCCCCCCCCCC(=O)[O-]
REMARK SMILES IDX 9 1 10 2 11 3 12 4 13 5 14 6 15 7 16 8 17 9 8 10 7 11 6 12
REMARK SMILES IDX 5 13 4 14 3 15 2 16 1 17
REMARK H PARENT
REMARK Flexibility Score: inf
ROOT
ATOM      1  C   UNL     1      12.965   0.781   0.663  1.00  0.00     0.000 C 
ENDROOT
BRANCH   1   2
ATOM      2  C   UNL     1      12.739   1.378  -0.736  1.00  0.00     0.000 C 
BRANCH   2   3
ATOM      3  C   UNL     1      12.143   2.796  -0.687  1.00  0.00     0.000 C 
BRANCH   3   4
ATOM      4  C   UNL     1      11.441   3.086   0.656  1.00  0.00     0.000 C 
BRANCH   4   5
ATOM      5  C   UNL     1      11.868   4.418   1.299  1.00  0.00     0.006 C 
BRANCH   5   6
ATOM      6  C   UNL     1      10.677   5.283   1.725  1.00  0.00     0.053 C 
BRANCH   6   7
ATOM      7  C   UNL     1       9.683   5.390   0.611  1.00  0.00     0.041 C 
ATOM      8  O   UNL     1       8.529   4.904   0.742  1.00  0.00    -0.550 OA
ATOM      9  O   UNL     1      10.016   6.072  -0.554  1.00  0.00    -0.550 OA
ENDBRANCH   6   7
ENDBRANCH   5   6
ENDBRANCH   4   5
ENDBRANCH   3   4
ENDBRANCH   2   3
ENDBRANCH   1   2
BRANCH   1  10
ATOM     10  C   UNL     1      14.433   0.849   1.106  1.00  0.00     0.000 C 
BRANCH  10  11
ATOM     11  C   UNL     1      14.621   1.891   2.220  1.00  0.00    -0.000 C 
BRANCH  11  12
ATOM     12  C   UNL     1      15.684   2.949   1.876  1.00  0.00    -0.000 C 
BRANCH  12  13
ATOM     13  C   UNL     1      15.344   3.849   0.670  1.00  0.00    -0.000 C 
BRANCH  13  14
ATOM     14  C   UNL     1      16.359   3.801  -0.486  1.00  0.00    -0.000 C 
BRANCH  14  15
ATOM     15  C   UNL     1      15.772   3.196  -1.769  1.00  0.00    -0.000 C 
BRANCH  15  16
ATOM     16  C   UNL     1      16.192   1.729  -1.926  1.00  0.00    -0.003 C 
ATOM     17  C   UNL     1      17.641   1.521  -1.499  1.00  0.00     0.004 C 
ENDBRANCH  15  16
ENDBRANCH  14  15
ENDBRANCH  13  14
ENDBRANCH  12  13
ENDBRANCH  11  12
ENDBRANCH  10  11
ENDBRANCH   1  10
TORSDOF 13
ENDMDL
MODEL 7
REMARK VINA RESULT:    -4.841     14.361     15.863
REMARK INTER + INTRA:          -9.094
REMARK INTER:                  -7.192
REMARK INTRA:                  -1.902
REMARK UNBOUND:                -0.574
REMARK SMILES CCCCCCCCCCCCCCC(=O)[O-]
REMARK SMILES IDX 9 1 10 2 11 3 12 4 13 5 14 6 15 7 16 8 17 9 8 10 7 11 6 12
REMARK SMILES IDX 5 13 4 14 3 15 2 16 1 17
REMARK H PARENT
REMARK Flexibility Score: inf
ROOT
ATOM      1  C   UNL     1      15.001   0.812  -2.037  1.00  0.00     0.000 C 
ENDROOT
BRANCH   1   2
ATOM      2  C   UNL     1      13.774   1.478  -2.679  1.00  0.00     0.000 C 
BRANCH   2   3
ATOM      3  C   UNL     1      12.449   1.022  -2.041  1.00  0.00     0.000 C 
BRANCH   3   4
ATOM      4  C   UNL     1      12.123   1.809  -0.754  1.00  0.00     0.000 C 
BRANCH   4   5
ATOM      5  C   UNL     1      11.853   3.304  -0.999  1.00  0.00     0.006 C 
BRANCH   5   6
ATOM      6  C   UNL     1      10.390   3.693  -0.758  1.00  0.00     0.053 C 
BRANCH   6   7
ATOM      7  C   UNL     1      10.165   5.128  -1.120  1.00  0.00     0.041 C 
ATOM      8  O   UNL     1      10.042   5.466  -2.327  1.00  0.00    -0.550 OA
ATOM      9  O   UNL     1      10.040   6.085  -0.120  1.00  0.00    -0.550 OA
ENDBRANCH   6   7
ENDBRANCH   5   6
ENDBRANCH   4   5
ENDBRANCH   3   4
ENDBRANCH   2   3
ENDBRANCH   1   2
BRANCH   1  10
ATOM     10  C   UNL     1      16.175   1.785  -1.855  1.00  0.00     0.000 C 
BRANCH  10  11
ATOM     11  C   UNL     1      15.671   3.225  -1.682  1.00  0.00    -0.000 C 
BRANCH  11  12
ATOM     12  C   UNL     1      16.147   3.872  -0.369  1.00  0.00    -0.000 C 
BRANCH  12  13
ATOM     13  C   UNL     1      15.021   4.320   0.585  1.00  0.00    -0.000 C 
BRANCH  13  14
ATOM     14  C   UNL     1      14.607   3.279   1.641  1.00  0.00    -0.000 C 
BRANCH  14  15
ATOM     15  C   UNL     1      15.810   2.614   2.325  1.00  0.00    -0.000 C 
BRANCH  15  16
ATOM     16  C   UNL     1      15.483   1.171   2.729  1.00  0.00    -0.003 C 
ATOM     17  C   UNL     1      15.479   0.246   1.516  1.00  0.00     0.004 C 
ENDBRANCH  15  16
ENDBRANCH  14  15
ENDBRANCH  13  14
ENDBRANCH  12  13
ENDBRANCH  11  12
ENDBRANCH  10  11
ENDBRANCH   1  10
TORSDOF 13
ENDMDL
MODEL 8
REMARK VINA RESULT:    -4.801     14.775     16.170
REMARK INTER + INTRA:          -9.023
REMARK INTER:                  -6.981
REMARK INTRA:                  -2.042
REMARK UNBOUND:                -0.574
REMARK SMILES CCCCCCCCCCCCCCC(=O)[O-]
REMARK SMILES IDX 9 1 10 2 11 3 12 4 13 5 14 6 15 7 16 8 17 9 8 10 7 11 6 12
REMARK SMILES IDX 5 13 4 14 3 15 2 16 1 17
REMARK H PARENT
REMARK Flexibility Score: inf
ROOT
ATOM      1  C   UNL     1      13.643   1.792  -2.486  1.00  0.00     0.000 C 
ENDROOT
BRANCH   1   2
ATOM      2  C   UNL     1      12.834   0.812  -1.623  1.00  0.00     0.000 C 
BRANCH   2   3
ATOM      3  C   UNL     1      11.363   1.238  -1.461  1.00  0.00     0.000 C 
BRANCH   3   4
ATOM      4  C   UNL     1      11.024   1.613  -0.003  1.00  0.00     0.000 C 
BRANCH   4   5
ATOM      5  C   UNL     1      10.114   2.848   0.119  1.00  0.00     0.006 C 
BRANCH   5   6
ATOM      6  C   UNL     1       9.804   3.496  -1.235  1.00  0.00     0.053 C 
BRANCH   6   7
ATOM      7  C   UNL     1      10.077   4.967  -1.185  1.00  0.00     0.041 C 
ATOM      8  O   UNL     1      10.270   5.538  -0.080  1.00  0.00    -0.550 OA
ATOM      9  O   UNL     1      10.167   5.697  -2.364  1.00  0.00    -0.550 OA
ENDBRANCH   6   7
ENDBRANCH   5   6
ENDBRANCH   4   5
ENDBRANCH   3   4
ENDBRANCH   2   3
ENDBRANCH   1   2
BRANCH   1  10
ATOM     10  C   UNL     1      13.781   3.178  -1.840  1.00  0.00     0.000 C 
BRANCH  10  11
ATOM     11  C   UNL     1      15.176   3.766  -2.098  1.00  0.00    -0.000 C 
BRANCH  11  12
ATOM     12  C   UNL     1      16.068   3.762  -0.843  1.00  0.00    -0.000 C 
BRANCH  12  13
ATOM     13  C   UNL     1      16.530   2.367  -0.374  1.00  0.00    -0.000 C 
BRANCH  13  14
ATOM     14  C   UNL     1      15.838   1.842   0.896  1.00  0.00    -0.000 C 
BRANCH  14  15
ATOM     15  C   UNL     1      15.376   2.969   1.832  1.00  0.00    -0.000 C 
BRANCH  15  16
ATOM     16  C   UNL     1      13.851   2.958   1.992  1.00  0.00    -0.003 C 
ATOM     17  C   UNL     1      13.255   4.329   1.690  1.00  0.00     0.004 C 
ENDBRANCH  15  16
ENDBRANCH  14  15
ENDBRANCH  13  14
ENDBRANCH  12  13
ENDBRANCH  11  12
ENDBRANCH  10  11
ENDBRANCH   1  10
TORSDOF 13
ENDMDL
MODEL 9
REMARK VINA RESULT:    -4.761     15.009     16.213
REMARK INTER + INTRA:          -8.954
REMARK INTER:                  -7.272
REMARK INTRA:                  -1.682
REMARK UNBOUND:                -0.574
REMARK SMILES CCCCCCCCCCCCCCC(=O)[O-]
REMARK SMILES IDX 9 1 10 2 11 3 12 4 13 5 14 6 15 7 16 8 17 9 8 10 7 11 6 12
REMARK SMILES IDX 5 13 4 14 3 15 2 16 1 17
REMARK H PARENT
REMARK Flexibility Score: inf
ROOT
ATOM      1  C   UNL     1      11.824   1.546  -0.510  1.00  0.00     0.000 C 
ENDROOT
BRANCH   1   2
ATOM      2  C   UNL     1      12.414   2.960  -0.387  1.00  0.00     0.000 C 
BRANCH   2   3
ATOM      3  C   UNL     1      12.592   3.404   1.076  1.00  0.00     0.000 C 
BRANCH   3   4
ATOM      4  C   UNL     1      11.997   4.805   1.335  1.00  0.00     0.000 C 
BRANCH   4   5
ATOM      5  C   UNL     1      10.478   4.880   1.103  1.00  0.00     0.006 C 
BRANCH   5   6
ATOM      6  C   UNL     1      10.082   5.959   0.089  1.00  0.00     0.053 C 
BRANCH   6   7
ATOM      7  C   UNL     1       9.761   5.339  -1.234  1.00  0.00     0.041 C 
ATOM      8  O   UNL     1       9.076   4.285  -1.291  1.00  0.00    -0.550 OA
ATOM      9  O   UNL     1      10.178   5.954  -2.409  1.00  0.00    -0.550 OA
ENDBRANCH   6   7
ENDBRANCH   5   6
ENDBRANCH   4   5
ENDBRANCH   3   4
ENDBRANCH   2   3
ENDBRANCH   1   2
BRANCH   1  10
ATOM     10  C   UNL     1      11.867   1.009  -1.947  1.00  0.00     0.000 C 
BRANCH  10  11
ATOM     11  C   UNL     1      13.271   1.169  -2.550  1.00  0.00    -0.000 C 
BRANCH  11  12
ATOM     12  C   UNL     1      14.279   0.145  -1.998  1.00  0.00    -0.000 C 
BRANCH  12  13
ATOM     13  C   UNL     1      15.706   0.257  -2.573  1.00  0.00    -0.000 C 
BRANCH  13  14
ATOM     14  C   UNL     1      16.671   1.135  -1.758  1.00  0.00    -0.000 C 
BRANCH  14  15
ATOM     15  C   UNL     1      16.182   1.386  -0.324  1.00  0.00    -0.000 C 
BRANCH  15  16
ATOM     16  C   UNL     1      16.142   2.887  -0.013  1.00  0.00    -0.003 C 
ATOM     17  C   UNL     1      15.850   3.703  -1.268  1.00  0.00     0.004 C 
ENDBRANCH  15  16
ENDBRANCH  14  15
ENDBRANCH  13  14
ENDBRANCH  12  13
ENDBRANCH  11  12
ENDBRANCH  10  11
ENDBRANCH   1  10
TORSDOF 13
ENDMDL
