MODEL 1
REMARK VINA RESULT:    -5.666      0.000      0.000
REMARK INTER + INTRA:         -12.723
REMARK INTER:                 -10.303
REMARK INTRA:                  -2.420
REMARK UNBOUND:                -2.420
REMARK SMILES CCCCCCCCCCCCCCCC(=O)[O-]
REMARK SMILES IDX 9 1 10 2 11 3 12 4 13 5 14 6 15 7 16 8 17 9 18 10 8 11 7 12
REMARK SMILES IDX 6 13 5 14 4 15 3 16 2 17 1 18
REMARK H PARENT
REMARK Flexibility Score: inf
ROOT
ATOM      1  C   UNL     1     -14.992   2.475 -15.343  1.00  0.00     0.000 C 
ENDROOT
BRANCH   1   2
ATOM      2  C   UNL     1     -15.484   1.036 -15.538  1.00  0.00     0.000 C 
BRANCH   2   3
ATOM      3  C   UNL     1     -16.982   1.009 -15.883  1.00  0.00     0.000 C 
BRANCH   3   4
ATOM      4  C   UNL     1     -17.272   1.503 -17.310  1.00  0.00     0.000 C 
BRANCH   4   5
ATOM      5  C   UNL     1     -18.116   0.504 -18.121  1.00  0.00     0.000 C 
BRANCH   5   6
ATOM      6  C   UNL     1     -17.291  -0.230 -19.191  1.00  0.00     0.006 C 
BRANCH   6   7
ATOM      7  C   UNL     1     -17.336  -1.755 -19.030  1.00  0.00     0.053 C 
BRANCH   7   8
ATOM      8  C   UNL     1     -16.878  -2.149 -17.662  1.00  0.00     0.041 C 
ATOM      9  O   UNL     1     -15.667  -2.023 -17.339  1.00  0.00    -0.550 OA
ATOM     10  O   UNL     1     -17.797  -2.606 -16.727  1.00  0.00    -0.550 OA
ENDBRANCH   7   8
ENDBRANCH   6   7
ENDBRANCH   5   6
ENDBRANCH   4   5
ENDBRANCH   3   4
ENDBRANCH   2   3
ENDBRANCH   1   2
BRANCH   1  11
ATOM     11  C   UNL     1     -13.475   2.571 -15.537  1.00  0.00     0.000 C 
BRANCH  11  12
ATOM     12  C   UNL     1     -13.113   3.714 -16.497  1.00  0.00    -0.000 C 
BRANCH  12  13
ATOM     13  C   UNL     1     -12.876   3.235 -17.941  1.00  0.00    -0.000 C 
BRANCH  13  14
ATOM     14  C   UNL     1     -14.118   3.258 -18.851  1.00  0.00    -0.000 C 
BRANCH  14  15
ATOM     15  C   UNL     1     -14.317   1.944 -19.627  1.00  0.00    -0.000 C 
BRANCH  15  16
ATOM     16  C   UNL     1     -13.869   0.712 -18.823  1.00  0.00    -0.000 C 
BRANCH  16  17
ATOM     17  C   UNL     1     -13.573  -0.502 -19.716  1.00  0.00    -0.003 C 
ATOM     18  C   UNL     1     -14.125  -0.295 -21.123  1.00  0.00     0.004 C 
ENDBRANCH  16  17
ENDBRANCH  15  16
ENDBRANCH  14  15
ENDBRANCH  13  14
ENDBRANCH  12  13
ENDBRANCH  11  12
ENDBRANCH   1  11
TORSDOF 14
ENDMDL
MODEL 2
REMARK VINA RESULT:    -5.556      2.719      5.111
REMARK INTER + INTRA:         -12.524
REMARK INTER:                 -10.438
REMARK INTRA:                  -2.085
REMARK UNBOUND:                -2.420
REMARK SMILES CCCCCCCCCCCCCCCC(=O)[O-]
REMARK SMILES IDX 9 1 10 2 11 3 12 4 13 5 14 6 15 7 16 8 17 9 18 10 8 11 7 12
REMARK SMILES IDX 6 13 5 14 4 15 3 16 2 17 1 18
REMARK H PARENT
REMARK Flexibility Score: inf
ROOT
ATOM      1  C   UNL     1     -18.103  -0.917 -16.910  1.00  0.00     0.000 C 
ENDROOT
BRANCH   1   2
ATOM      2  C   UNL     1     -17.672  -0.550 -15.485  1.00  0.00     0.000 C 
BRANCH   2   3
ATOM      3  C   UNL     1     -16.255   0.046 -15.475  1.00  0.00     0.000 C 
BRANCH   3   4
ATOM      4  C   UNL     1     -16.236   1.540 -15.836  1.00  0.00     0.000 C 
BRANCH   4   5
ATOM      5  C   UNL     1     -15.483   2.389 -14.796  1.00  0.00     0.000 C 
BRANCH   5   6
ATOM      6  C   UNL     1     -15.061   1.573 -13.564  1.00  0.00     0.006 C 
BRANCH   6   7
ATOM      7  C   UNL     1     -15.482   2.233 -12.244  1.00  0.00     0.053 C 
BRANCH   7   8
ATOM      8  C   UNL     1     -16.761   1.638 -11.748  1.00  0.00     0.041 C 
ATOM      9  O   UNL     1     -17.551   2.325 -11.049  1.00  0.00    -0.550 OA
ATOM     10  O   UNL     1     -17.107   0.340 -12.101  1.00  0.00    -0.550 OA
ENDBRANCH   7   8
ENDBRANCH   6   7
ENDBRANCH   5   6
ENDBRANCH   4   5
ENDBRANCH   3   4
ENDBRANCH   2   3
ENDBRANCH   1   2
BRANCH   1  11
ATOM     11  C   UNL     1     -17.162  -1.963 -17.519  1.00  0.00     0.000 C 
BRANCH  11  12
ATOM     12  C   UNL     1     -16.663  -1.517 -18.901  1.00  0.00    -0.000 C 
BRANCH  12  13
ATOM     13  C   UNL     1     -16.929  -0.027 -19.185  1.00  0.00    -0.000 C 
BRANCH  13  14
ATOM     14  C   UNL     1     -15.708   0.773 -19.677  1.00  0.00    -0.000 C 
BRANCH  14  15
ATOM     15  C   UNL     1     -14.378   0.247 -19.110  1.00  0.00    -0.000 C 
BRANCH  15  16
ATOM     16  C   UNL     1     -13.657   1.288 -18.239  1.00  0.00    -0.000 C 
BRANCH  16  17
ATOM     17  C   UNL     1     -14.016   2.732 -18.622  1.00  0.00    -0.003 C 
ATOM     18  C   UNL     1     -13.198   3.734 -17.811  1.00  0.00     0.004 C 
ENDBRANCH  16  17
ENDBRANCH  15  16
ENDBRANCH  14  15
ENDBRANCH  13  14
ENDBRANCH  12  13
ENDBRANCH  11  12
ENDBRANCH   1  11
TORSDOF 14
ENDMDL
MODEL 3
REMARK VINA RESULT:    -5.484      2.914      5.897
REMARK INTER + INTRA:         -12.393
REMARK INTER:                 -10.532
REMARK INTRA:                  -1.861
REMARK UNBOUND:                -2.420
REMARK SMILES CCCCCCCCCCCCCCCC(=O)[O-]
REMARK SMILES IDX 9 1 10 2 11 3 12 4 13 5 14 6 15 7 16 8 17 9 18 10 8 11 7 12
REMARK SMILES IDX 6 13 5 14 4 15 3 16 2 17 1 18
REMARK H PARENT
REMARK Flexibility Score: inf
ROOT
ATOM      1  C   UNL     1     -18.271   0.617 -16.726  1.00  0.00     0.000 C 
ENDROOT
BRANCH   1   2
ATOM      2  C   UNL     1     -18.111   0.558 -18.250  1.00  0.00     0.000 C 
BRANCH   2   3
ATOM      3  C   UNL     1     -17.482  -0.774 -18.686  1.00  0.00     0.000 C 
BRANCH   3   4
ATOM      4  C   UNL     1     -16.127  -0.590 -19.389  1.00  0.00     0.000 C 
BRANCH   4   5
ATOM      5  C   UNL     1     -15.578   0.841 -19.247  1.00  0.00     0.000 C 
BRANCH   5   6
ATOM      6  C   UNL     1     -14.060   0.867 -19.007  1.00  0.00     0.006 C 
BRANCH   6   7
ATOM      7  C   UNL     1     -13.683   1.533 -17.677  1.00  0.00     0.053 C 
BRANCH   7   8
ATOM      8  C   UNL     1     -13.772   3.021 -17.795  1.00  0.00     0.041 C 
ATOM      9  O   UNL     1     -12.879   3.663 -18.408  1.00  0.00    -0.550 OA
ATOM     10  O   UNL     1     -14.869   3.695 -17.274  1.00  0.00    -0.550 OA
ENDBRANCH   7   8
ENDBRANCH   6   7
ENDBRANCH   5   6
ENDBRANCH   4   5
ENDBRANCH   3   4
ENDBRANCH   2   3
ENDBRANCH   1   2
BRANCH   1  11
ATOM     11  C   UNL     1     -17.704  -0.644 -16.062  1.00  0.00     0.000 C 
BRANCH  11  12
ATOM     12  C   UNL     1     -16.501  -0.304 -15.171  1.00  0.00    -0.000 C 
BRANCH  12  13
ATOM     13  C   UNL     1     -16.195   1.204 -15.121  1.00  0.00    -0.000 C 
BRANCH  13  14
ATOM     14  C   UNL     1     -15.110   1.619 -14.110  1.00  0.00    -0.000 C 
BRANCH  14  15
ATOM     15  C   UNL     1     -15.607   2.658 -13.090  1.00  0.00    -0.000 C 
BRANCH  15  16
ATOM     16  C   UNL     1     -15.808   2.058 -11.689  1.00  0.00    -0.000 C 
BRANCH  16  17
ATOM     17  C   UNL     1     -17.287   1.991 -11.280  1.00  0.00    -0.003 C 
ATOM     18  C   UNL     1     -17.941   0.711 -11.792  1.00  0.00     0.004 C 
ENDBRANCH  16  17
ENDBRANCH  15  16
ENDBRANCH  14  15
ENDBRANCH  13  14
ENDBRANCH  12  13
ENDBRANCH  11  12
ENDBRANCH   1  11
TORSDOF 14
ENDMDL
MODEL 4
REMARK VINA RESULT:    -5.482      2.559      5.486
REMARK INTER + INTRA:         -12.388
REMARK INTER:                 -10.361
REMARK INTRA:                  -2.027
REMARK UNBOUND:                -2.420
REMARK SMILES CCCCCCCCCCCCCCCC(=O)[O-]
REMARK SMILES IDX 9 1 10 2 11 3 12 4 13 5 14 6 15 7 16 8 17 9 18 10 8 11 7 12
REMARK SMILES IDX 6 13 5 14 4 15 3 16 2 17 1 18
REMARK H PARENT
REMARK Flexibility Score: inf
ROOT
ATOM      1  C   UNL     1     -14.438   1.984 -19.582  1.00  0.00     0.000 C 
ENDROOT
BRANCH   1   2
ATOM      2  C   UNL     1     -14.357   3.214 -18.669  1.00  0.00     0.000 C 
BRANCH   2   3
ATOM      3  C   UNL     1     -12.986   3.297 -17.978  1.00  0.00     0.000 C 
BRANCH   3   4
ATOM      4  C   UNL     1     -13.097   3.393 -16.447  1.00  0.00     0.000 C 
BRANCH   4   5
ATOM      5  C   UNL     1     -14.363   2.708 -15.903  1.00  0.00     0.000 C 
BRANCH   5   6
ATOM      6  C   UNL     1     -14.222   2.298 -14.428  1.00  0.00     0.006 C 
BRANCH   6   7
ATOM      7  C   UNL     1     -15.348   2.856 -13.548  1.00  0.00     0.053 C 
BRANCH   7   8
ATOM      8  C   UNL     1     -15.563   1.979 -12.356  1.00  0.00     0.041 C 
ATOM      9  O   UNL     1     -14.871   0.937 -12.203  1.00  0.00    -0.550 OA
ATOM     10  O   UNL     1     -16.490   2.338 -11.387  1.00  0.00    -0.550 OA
ENDBRANCH   7   8
ENDBRANCH   6   7
ENDBRANCH   5   6
ENDBRANCH   4   5
ENDBRANCH   3   4
ENDBRANCH   2   3
ENDBRANCH   1   2
BRANCH   1  11
ATOM     11  C   UNL     1     -13.940   0.727 -18.859  1.00  0.00     0.000 C 
BRANCH  11  12
ATOM     12  C   UNL     1     -15.116  -0.114 -18.343  1.00  0.00    -0.000 C 
BRANCH  12  13
ATOM     13  C   UNL     1     -16.227  -0.303 -19.392  1.00  0.00    -0.000 C 
BRANCH  13  14
ATOM     14  C   UNL     1     -17.645   0.071 -18.920  1.00  0.00    -0.000 C 
BRANCH  14  15
ATOM     15  C   UNL     1     -17.642   1.068 -17.748  1.00  0.00    -0.000 C 
BRANCH  15  16
ATOM     16  C   UNL     1     -18.448   0.559 -16.541  1.00  0.00    -0.000 C 
BRANCH  16  17
ATOM     17  C   UNL     1     -17.597   0.438 -15.268  1.00  0.00    -0.003 C 
ATOM     18  C   UNL     1     -16.779  -0.850 -15.276  1.00  0.00     0.004 C 
ENDBRANCH  16  17
ENDBRANCH  15  16
ENDBRANCH  14  15
ENDBRANCH  13  14
ENDBRANCH  12  13
ENDBRANCH  11  12
ENDBRANCH   1  11
TORSDOF 14
ENDMDL
MODEL 5
REMARK VINA RESULT:    -5.477      2.474      5.171
REMARK INTER + INTRA:         -12.381
REMARK INTER:                 -10.740
REMARK INTRA:                  -1.641
REMARK UNBOUND:                -2.420
REMARK SMILES CCCCCCCCCCCCCCCC(=O)[O-]
REMARK SMILES IDX 9 1 10 2 11 3 12 4 13 5 14 6 15 7 16 8 17 9 18 10 8 11 7 12
REMARK SMILES IDX 6 13 5 14 4 15 3 16 2 17 1 18
REMARK H PARENT
REMARK Flexibility Score: inf
ROOT
ATOM      1  C   UNL     1     -15.087   2.589 -14.966  1.00  0.00     0.000 C 
ENDROOT
BRANCH   1   2
ATOM      2  C   UNL     1     -13.562   2.606 -15.126  1.00  0.00     0.000 C 
BRANCH   2   3
ATOM      3  C   UNL     1     -13.156   3.260 -16.456  1.00  0.00     0.000 C 
BRANCH   3   4
ATOM      4  C   UNL     1     -14.351   3.487 -17.396  1.00  0.00     0.000 C 
BRANCH   4   5
ATOM      5  C   UNL     1     -14.022   3.153 -18.862  1.00  0.00     0.000 C 
BRANCH   5   6
ATOM      6  C   UNL     1     -14.392   1.708 -19.234  1.00  0.00     0.006 C 
BRANCH   6   7
ATOM      7  C   UNL     1     -15.539   1.153 -18.378  1.00  0.00     0.053 C 
BRANCH   7   8
ATOM      8  C   UNL     1     -16.356   0.182 -19.169  1.00  0.00     0.041 C 
ATOM      9  O   UNL     1     -15.799  -0.777 -19.766  1.00  0.00    -0.550 OA
ATOM     10  O   UNL     1     -17.739   0.304 -19.204  1.00  0.00    -0.550 OA
ENDBRANCH   7   8
ENDBRANCH   6   7
ENDBRANCH   5   6
ENDBRANCH   4   5
ENDBRANCH   3   4
ENDBRANCH   2   3
ENDBRANCH   1   2
BRANCH   1  11
ATOM     11  C   UNL     1     -15.496   2.965 -13.537  1.00  0.00     0.000 C 
BRANCH  11  12
ATOM     12  C   UNL     1     -15.183   1.825 -12.557  1.00  0.00    -0.000 C 
BRANCH  12  13
ATOM     13  C   UNL     1     -16.103   1.822 -11.323  1.00  0.00    -0.000 C 
BRANCH  13  14
ATOM     14  C   UNL     1     -17.050   0.611 -11.216  1.00  0.00    -0.000 C 
BRANCH  14  15
ATOM     15  C   UNL     1     -18.021   0.502 -12.404  1.00  0.00    -0.000 C 
BRANCH  15  16
ATOM     16  C   UNL     1     -17.830  -0.797 -13.203  1.00  0.00    -0.000 C 
BRANCH  16  17
ATOM     17  C   UNL     1     -17.054  -0.579 -14.511  1.00  0.00    -0.003 C 
ATOM     18  C   UNL     1     -17.968  -0.041 -15.608  1.00  0.00     0.004 C 
ENDBRANCH  16  17
ENDBRANCH  15  16
ENDBRANCH  14  15
ENDBRANCH  13  14
ENDBRANCH  12  13
ENDBRANCH  11  12
ENDBRANCH   1  11
TORSDOF 14
ENDMDL
MODEL 6
REMARK VINA RESULT:    -5.463      2.603      5.397
REMARK INTER + INTRA:         -12.355
REMARK INTER:                 -10.679
REMARK INTRA:                  -1.676
REMARK UNBOUND:                -2.420
REMARK SMILES CCCCCCCCCCCCCCCC(=O)[O-]
REMARK SMILES IDX 9 1 10 2 11 3 12 4 13 5 14 6 15 7 16 8 17 9 18 10 8 11 7 12
REMARK SMILES IDX 6 13 5 14 4 15 3 16 2 17 1 18
REMARK H PARENT
REMARK Flexibility Score: inf
ROOT
ATOM      1  C   UNL     1     -17.815  -0.551 -15.103  1.00  0.00     0.000 C 
ENDROOT
BRANCH   1   2
ATOM      2  C   UNL     1     -16.716  -0.579 -16.172  1.00  0.00     0.000 C 
BRANCH   2   3
ATOM      3  C   UNL     1     -16.683  -1.936 -16.892  1.00  0.00     0.000 C 
BRANCH   3   4
ATOM      4  C   UNL     1     -17.295  -1.876 -18.302  1.00  0.00     0.000 C 
BRANCH   4   5
ATOM      5  C   UNL     1     -17.410  -0.437 -18.835  1.00  0.00     0.000 C 
BRANCH   5   6
ATOM      6  C   UNL     1     -16.184  -0.016 -19.661  1.00  0.00     0.006 C 
BRANCH   6   7
ATOM      7  C   UNL     1     -15.505   1.245 -19.111  1.00  0.00     0.053 C 
BRANCH   7   8
ATOM      8  C   UNL     1     -14.126   0.926 -18.630  1.00  0.00     0.041 C 
ATOM      9  O   UNL     1     -13.298   1.852 -18.419  1.00  0.00    -0.550 OA
ATOM     10  O   UNL     1     -13.769  -0.389 -18.363  1.00  0.00    -0.550 OA
ENDBRANCH   7   8
ENDBRANCH   6   7
ENDBRANCH   5   6
ENDBRANCH   4   5
ENDBRANCH   3   4
ENDBRANCH   2   3
ENDBRANCH   1   2
BRANCH   1  11
ATOM     11  C   UNL     1     -17.216  -0.602 -13.693  1.00  0.00     0.000 C 
BRANCH  11  12
ATOM     12  C   UNL     1     -18.144   0.076 -12.675  1.00  0.00    -0.000 C 
BRANCH  12  13
ATOM     13  C   UNL     1     -17.416   0.503 -11.388  1.00  0.00    -0.000 C 
BRANCH  13  14
ATOM     14  C   UNL     1     -17.043   1.996 -11.311  1.00  0.00    -0.000 C 
BRANCH  14  15
ATOM     15  C   UNL     1     -15.611   2.282 -11.795  1.00  0.00    -0.000 C 
BRANCH  15  16
ATOM     16  C   UNL     1     -15.582   2.991 -13.159  1.00  0.00    -0.000 C 
BRANCH  16  17
ATOM     17  C   UNL     1     -14.914   2.144 -14.252  1.00  0.00    -0.003 C 
ATOM     18  C   UNL     1     -15.116   2.769 -15.630  1.00  0.00     0.004 C 
ENDBRANCH  16  17
ENDBRANCH  15  16
ENDBRANCH  14  15
ENDBRANCH  13  14
ENDBRANCH  12  13
ENDBRANCH  11  12
ENDBRANCH   1  11
TORSDOF 14
ENDMDL
MODEL 7
REMARK VINA RESULT:    -5.441      2.907      4.432
REMARK INTER + INTRA:         -12.315
REMARK INTER:                 -10.145
REMARK INTRA:                  -2.170
REMARK UNBOUND:                -2.420
REMARK SMILES CCCCCCCCCCCCCCCC(=O)[O-]
REMARK SMILES IDX 9 1 10 2 11 3 12 4 13 5 14 6 15 7 16 8 17 9 18 10 8 11 7 12
REMARK SMILES IDX 6 13 5 14 4 15 3 16 2 17 1 18
REMARK H PARENT
REMARK Flexibility Score: inf
ROOT
ATOM      1  C   UNL     1     -16.759   1.469 -16.280  1.00  0.00     0.000 C 
ENDROOT
BRANCH   1   2
ATOM      2  C   UNL     1     -16.059   0.265 -15.637  1.00  0.00     0.000 C 
BRANCH   2   3
ATOM      3  C   UNL     1     -17.084  -0.778 -15.163  1.00  0.00     0.000 C 
BRANCH   3   4
ATOM      4  C   UNL     1     -18.132  -0.190 -14.204  1.00  0.00     0.000 C 
BRANCH   4   5
ATOM      5  C   UNL     1     -17.723  -0.326 -12.727  1.00  0.00     0.000 C 
BRANCH   5   6
ATOM      6  C   UNL     1     -17.727   1.022 -11.988  1.00  0.00     0.006 C 
BRANCH   6   7
ATOM      7  C   UNL     1     -16.361   1.367 -11.381  1.00  0.00     0.053 C 
BRANCH   7   8
ATOM      8  C   UNL     1     -15.415   1.818 -12.447  1.00  0.00     0.041 C 
ATOM      9  O   UNL     1     -15.495   2.985 -12.912  1.00  0.00    -0.550 OA
ATOM     10  O   UNL     1     -14.411   0.967 -12.891  1.00  0.00    -0.550 OA
ENDBRANCH   7   8
ENDBRANCH   6   7
ENDBRANCH   5   6
ENDBRANCH   4   5
ENDBRANCH   3   4
ENDBRANCH   2   3
ENDBRANCH   1   2
BRANCH   1  11
ATOM     11  C   UNL     1     -15.761   2.593 -16.578  1.00  0.00     0.000 C 
BRANCH  11  12
ATOM     12  C   UNL     1     -14.315   2.104 -16.416  1.00  0.00    -0.000 C 
BRANCH  12  13
ATOM     13  C   UNL     1     -13.550   2.030 -17.750  1.00  0.00    -0.000 C 
BRANCH  13  14
ATOM     14  C   UNL     1     -13.871   0.802 -18.621  1.00  0.00    -0.000 C 
BRANCH  14  15
ATOM     15  C   UNL     1     -14.790   1.134 -19.810  1.00  0.00    -0.000 C 
BRANCH  15  16
ATOM     16  C   UNL     1     -16.109   0.344 -19.773  1.00  0.00    -0.000 C 
BRANCH  16  17
ATOM     17  C   UNL     1     -15.954  -1.038 -19.122  1.00  0.00    -0.003 C 
ATOM     18  C   UNL     1     -17.315  -1.656 -18.816  1.00  0.00     0.004 C 
ENDBRANCH  16  17
ENDBRANCH  15  16
ENDBRANCH  14  15
ENDBRANCH  13  14
ENDBRANCH  12  13
ENDBRANCH  11  12
ENDBRANCH   1  11
TORSDOF 14
ENDMDL
MODEL 8
REMARK VINA RESULT:    -5.414      2.176      3.145
REMARK INTER + INTRA:         -12.264
REMARK INTER:                 -10.800
REMARK INTRA:                  -1.464
REMARK UNBOUND:                -2.420
REMARK SMILES CCCCCCCCCCCCCCCC(=O)[O-]
REMARK SMILES IDX 9 1 10 2 11 3 12 4 13 5 14 6 15 7 16 8 17 9 18 10 8 11 7 12
REMARK SMILES IDX 6 13 5 14 4 15 3 16 2 17 1 18
REMARK H PARENT
REMARK Flexibility Score: inf
ROOT
ATOM      1  C   UNL     1     -15.545   2.166 -11.981  1.00  0.00     0.000 C 
ENDROOT
BRANCH   1   2
ATOM      2  C   UNL     1     -16.998   1.953 -11.539  1.00  0.00     0.000 C 
BRANCH   2   3
ATOM      3  C   UNL     1     -17.356   0.458 -11.529  1.00  0.00     0.000 C 
BRANCH   3   4
ATOM      4  C   UNL     1     -18.041   0.001 -12.827  1.00  0.00     0.000 C 
BRANCH   4   5
ATOM      5  C   UNL     1     -17.040  -0.535 -13.866  1.00  0.00     0.000 C 
BRANCH   5   6
ATOM      6  C   UNL     1     -17.556  -0.395 -15.307  1.00  0.00     0.006 C 
BRANCH   6   7
ATOM      7  C   UNL     1     -16.445  -0.557 -16.353  1.00  0.00     0.053 C 
BRANCH   7   8
ATOM      8  C   UNL     1     -16.696  -1.766 -17.197  1.00  0.00     0.041 C 
ATOM      9  O   UNL     1     -17.516  -2.644 -16.819  1.00  0.00    -0.550 OA
ATOM     10  O   UNL     1     -16.063  -1.899 -18.426  1.00  0.00    -0.550 OA
ENDBRANCH   7   8
ENDBRANCH   6   7
ENDBRANCH   5   6
ENDBRANCH   4   5
ENDBRANCH   3   4
ENDBRANCH   2   3
ENDBRANCH   1   2
BRANCH   1  11
ATOM     11  C   UNL     1     -15.479   2.857 -13.347  1.00  0.00     0.000 C 
BRANCH  11  12
ATOM     12  C   UNL     1     -14.488   2.144 -14.279  1.00  0.00    -0.000 C 
BRANCH  12  13
ATOM     13  C   UNL     1     -14.591   2.614 -15.741  1.00  0.00    -0.000 C 
BRANCH  13  14
ATOM     14  C   UNL     1     -13.286   3.166 -16.345  1.00  0.00    -0.000 C 
BRANCH  14  15
ATOM     15  C   UNL     1     -13.291   3.163 -17.884  1.00  0.00    -0.000 C 
BRANCH  15  16
ATOM     16  C   UNL     1     -13.664   1.791 -18.469  1.00  0.00    -0.000 C 
BRANCH  16  17
ATOM     17  C   UNL     1     -14.749   1.885 -19.552  1.00  0.00    -0.003 C 
ATOM     18  C   UNL     1     -14.756   0.637 -20.431  1.00  0.00     0.004 C 
ENDBRANCH  16  17
ENDBRANCH  15  16
ENDBRANCH  14  15
ENDBRANCH  13  14
ENDBRANCH  12  13
ENDBRANCH  11  12
ENDBRANCH   1  11
TORSDOF 14
ENDMDL
MODEL 9
REMARK VINA RESULT:    -5.391      2.250      5.350
REMARK INTER + INTRA:         -12.224
REMARK INTER:                 -10.302
REMARK INTRA:                  -1.922
REMARK UNBOUND:                -2.420
REMARK SMILES CCCCCCCCCCCCCCCC(=O)[O-]
REMARK SMILES IDX 9 1 10 2 11 3 12 4 13 5 14 6 15 7 16 8 17 9 18 10 8 11 7 12
REMARK SMILES IDX 6 13 5 14 4 15 3 16 2 17 1 18
REMARK H PARENT
REMARK Flexibility Score: inf
ROOT
ATOM      1  C   UNL     1     -15.176   1.549 -16.097  1.00  0.00     0.000 C 
ENDROOT
BRANCH   1   2
ATOM      2  C   UNL     1     -15.311   2.977 -16.640  1.00  0.00     0.000 C 
BRANCH   2   3
ATOM      3  C   UNL     1     -14.441   3.174 -17.892  1.00  0.00     0.000 C 
BRANCH   3   4
ATOM      4  C   UNL     1     -13.995   1.844 -18.521  1.00  0.00     0.000 C 
BRANCH   4   5
ATOM      5  C   UNL     1     -14.760   1.515 -19.814  1.00  0.00     0.000 C 
BRANCH   5   6
ATOM      6  C   UNL     1     -15.133   0.027 -19.916  1.00  0.00     0.006 C 
BRANCH   6   7
ATOM      7  C   UNL     1     -16.503  -0.283 -19.301  1.00  0.00     0.053 C 
BRANCH   7   8
ATOM      8  C   UNL     1     -16.415  -1.478 -18.406  1.00  0.00     0.041 C 
ATOM      9  O   UNL     1     -15.305  -1.831 -17.928  1.00  0.00    -0.550 OA
ATOM     10  O   UNL     1     -17.566  -2.171 -18.056  1.00  0.00    -0.550 OA
ENDBRANCH   7   8
ENDBRANCH   6   7
ENDBRANCH   5   6
ENDBRANCH   4   5
ENDBRANCH   3   4
ENDBRANCH   2   3
ENDBRANCH   1   2
BRANCH   1  11
ATOM     11  C   UNL     1     -16.543   0.975 -15.708  1.00  0.00     0.000 C 
BRANCH  11  12
ATOM     12  C   UNL     1     -16.385  -0.293 -14.856  1.00  0.00    -0.000 C 
BRANCH  12  13
ATOM     13  C   UNL     1     -17.722  -0.811 -14.295  1.00  0.00    -0.000 C 
BRANCH  13  14
ATOM     14  C   UNL     1     -18.368   0.077 -13.215  1.00  0.00    -0.000 C 
BRANCH  14  15
ATOM     15  C   UNL     1     -17.527   0.165 -11.930  1.00  0.00    -0.000 C 
BRANCH  15  16
ATOM     16  C   UNL     1     -17.261   1.616 -11.499  1.00  0.00    -0.000 C 
BRANCH  16  17
ATOM     17  C   UNL     1     -15.768   1.975 -11.517  1.00  0.00    -0.003 C 
ATOM     18  C   UNL     1     -15.436   2.882 -12.699  1.00  0.00     0.004 C 
ENDBRANCH  16  17
ENDBRANCH  15  16
ENDBRANCH  14  15
ENDBRANCH  13  14
ENDBRANCH  12  13
ENDBRANCH  11  12
ENDBRANCH   1  11
TORSDOF 14
ENDMDL
