MODEL 1
REMARK VINA RESULT:    -4.561      0.000      0.000
REMARK INTER + INTRA:          -7.128
REMARK INTER:                  -6.960
REMARK INTRA:                  -0.168
REMARK UNBOUND:                -0.168
REMARK SMILES CC1=CCC[C@H](C)C(=O)C[C@@H](C(C)C)C(=O)C1
REMARK SMILES IDX 8 1 9 2 6 3 7 4 5 5 4 6 3 7 2 8 1 9 10 11 11 12 15 13 16 14
REMARK SMILES IDX 17 15 12 17 13 18 14 19
REMARK H PARENT
REMARK Flexibility Score: 70.00
ROOT
ATOM      1  C   UNL     1      -5.310  -2.434  -0.820  1.00  0.00     0.136 C 
ATOM      2  O   UNL     1      -6.453  -2.267  -1.220  1.00  0.00    -0.299 OA
ENDROOT
BRANCH   1   3
ATOM      3  C   UNL     1      -4.223  -2.844  -1.791  1.00  0.00     0.053 C 
ATOM      4  C   UNL     1      -4.712  -4.029  -2.630  1.00  0.00     0.016 C 
BRANCH   3   5
ATOM      5  C   UNL     1      -3.805  -1.674  -2.711  1.00  0.00     0.015 C 
BRANCH   5   6
ATOM      6  C   UNL     1      -2.651  -0.835  -2.140  1.00  0.00     0.028 C 
BRANCH   6   7
ATOM      7  C   UNL     1      -1.668  -1.699  -1.386  1.00  0.00    -0.028 C 
ATOM      8  C   UNL     1      -1.301  -1.532  -0.095  1.00  0.00    -0.070 CG0
ATOM      9  C   UNL     1      -0.300  -2.501   0.486  1.00  0.00     0.039 C 
ATOM     10  G   UNL     1      -1.870  -0.448   0.799  1.00  0.00     0.000 G0
ENDBRANCH   6   7
ENDBRANCH   5   6
ENDBRANCH   3   5
ENDBRANCH   1   3
BRANCH   1  11
ATOM     11  C   UNL     1      -5.014  -2.243   0.645  1.00  0.00     0.087 C 
BRANCH  11  12
ATOM     12  C   UNL     1      -4.462  -0.828   0.947  1.00  0.00     0.066 C 
BRANCH  12  13
ATOM     13  C   UNL     1      -3.074  -0.901   1.564  1.00  0.00     0.140 C 
ATOM     14  O   UNL     1      -2.937  -1.321   2.704  1.00  0.00    -0.299 OA
BRANCH  13  15
ATOM     15  C   UNL     1      -1.858  -0.425   0.813  1.00  0.00     0.106 CG0
ATOM     16  G   UNL     1      -1.309  -1.521  -0.080  1.00  0.00     0.000 G0
ENDBRANCH  13  15
ENDBRANCH  12  13
BRANCH  12  17
ATOM     17  C   UNL     1      -5.450   0.008   1.816  1.00  0.00    -0.006 C 
ATOM     18  C   UNL     1      -4.881   1.358   2.284  1.00  0.00     0.008 C 
ATOM     19  C   UNL     1      -6.791   0.221   1.096  1.00  0.00     0.008 C 
ENDBRANCH  12  17
ENDBRANCH  11  12
ENDBRANCH   1  11
TORSDOF 1
ENDMDL
MODEL 2
REMARK VINA RESULT:    -4.475      1.621      4.013
REMARK INTER + INTRA:          -6.998
REMARK INTER:                  -6.910
REMARK INTRA:                  -0.088
REMARK UNBOUND:                -0.168
REMARK SMILES CC1=CCC[C@H](C)C(=O)C[C@@H](C(C)C)C(=O)C1
REMARK SMILES IDX 8 1 9 2 6 3 7 4 5 5 4 6 3 7 2 8 1 9 10 11 11 12 15 13 16 14
REMARK SMILES IDX 17 15 12 17 13 18 14 19
REMARK H PARENT
REMARK Flexibility Score: 70.00
ROOT
ATOM      1  C   UNL     1      -5.204   0.137   0.701  1.00  0.00     0.136 C 
ATOM      2  O   UNL     1      -6.365   0.108   1.083  1.00  0.00    -0.299 OA
ENDROOT
BRANCH   1   3
ATOM      3  C   UNL     1      -4.090   0.398   1.694  1.00  0.00     0.053 C 
ATOM      4  C   UNL     1      -4.497   1.545   2.624  1.00  0.00     0.016 C 
BRANCH   3   5
ATOM      5  C   UNL     1      -3.749  -0.865   2.519  1.00  0.00     0.015 C 
BRANCH   5   6
ATOM      6  C   UNL     1      -2.568  -1.664   1.946  1.00  0.00     0.028 C 
BRANCH   6   7
ATOM      7  C   UNL     1      -1.599  -0.762   1.218  1.00  0.00    -0.028 C 
ATOM      8  C   UNL     1      -1.238  -0.877  -0.081  1.00  0.00    -0.070 CG0
ATOM      9  C   UNL     1      -0.253   0.123  -0.632  1.00  0.00     0.039 C 
ATOM     10  G   UNL     1      -1.801  -1.935  -1.010  1.00  0.00     0.000 G0
ENDBRANCH   6   7
ENDBRANCH   5   6
ENDBRANCH   3   5
ENDBRANCH   1   3
BRANCH   1  11
ATOM     11  C   UNL     1      -4.910  -0.072  -0.762  1.00  0.00     0.087 C 
BRANCH  11  12
ATOM     12  C   UNL     1      -4.400  -1.504  -1.053  1.00  0.00     0.066 C 
BRANCH  12  13
ATOM     13  C   UNL     1      -3.035  -1.474  -1.724  1.00  0.00     0.140 C 
ATOM     14  O   UNL     1      -2.933  -1.081  -2.877  1.00  0.00    -0.299 OA
BRANCH  13  15
ATOM     15  C   UNL     1      -1.801  -1.962  -1.010  1.00  0.00     0.106 CG0
ATOM     16  G   UNL     1      -1.250  -0.890  -0.089  1.00  0.00     0.000 G0
ENDBRANCH  13  15
ENDBRANCH  12  13
BRANCH  12  17
ATOM     17  C   UNL     1      -5.438  -2.337  -1.865  1.00  0.00    -0.006 C 
ATOM     18  C   UNL     1      -4.925  -3.721  -2.299  1.00  0.00     0.008 C 
ATOM     19  C   UNL     1      -6.764  -2.480  -1.103  1.00  0.00     0.008 C 
ENDBRANCH  12  17
ENDBRANCH  11  12
ENDBRANCH   1  11
TORSDOF 1
ENDMDL
MODEL 3
REMARK VINA RESULT:    -4.167      1.686      3.907
REMARK INTER + INTRA:          -6.527
REMARK INTER:                  -6.839
REMARK INTRA:                   0.312
REMARK UNBOUND:                -0.168
REMARK SMILES CC1=CCC[C@H](C)C(=O)C[C@@H](C(C)C)C(=O)C1
REMARK SMILES IDX 8 1 9 2 6 3 7 4 5 5 4 6 3 7 2 8 1 9 10 11 11 12 15 13 16 14
REMARK SMILES IDX 17 15 12 17 13 18 14 19
REMARK H PARENT
REMARK Flexibility Score: 70.00
ROOT
ATOM      1  C   UNL     1      -2.741  -0.551   2.284  1.00  0.00     0.136 C 
ATOM      2  O   UNL     1      -3.009  -1.483   3.029  1.00  0.00    -0.299 OA
ENDROOT
BRANCH   1   3
ATOM      3  C   UNL     1      -1.365   0.082   2.333  1.00  0.00     0.053 C 
ATOM      4  C   UNL     1      -0.506  -0.649   3.368  1.00  0.00     0.016 C 
BRANCH   3   5
ATOM      5  C   UNL     1      -0.674   0.056   0.950  1.00  0.00     0.015 C 
BRANCH   5   6
ATOM      6  C   UNL     1      -0.719  -1.323   0.273  1.00  0.00     0.028 C 
BRANCH   6   7
ATOM      7  C   UNL     1      -0.645  -1.198  -1.230  1.00  0.00    -0.028 C 
ATOM      8  C   UNL     1      -1.631  -1.519  -2.098  1.00  0.00    -0.070 CG0
ATOM      9  C   UNL     1      -1.368  -1.325  -3.571  1.00  0.00     0.039 C 
ATOM     10  G   UNL     1      -2.991  -2.029  -1.661  1.00  0.00     0.000 G0
ENDBRANCH   6   7
ENDBRANCH   5   6
ENDBRANCH   3   5
ENDBRANCH   1   3
BRANCH   1  11
ATOM     11  C   UNL     1      -3.800  -0.040   1.342  1.00  0.00     0.087 C 
BRANCH  11  12
ATOM     12  C   UNL     1      -4.334  -1.155   0.410  1.00  0.00     0.066 C 
BRANCH  12  13
ATOM     13  C   UNL     1      -3.818  -0.976  -1.010  1.00  0.00     0.140 C 
ATOM     14  O   UNL     1      -4.090   0.041  -1.632  1.00  0.00    -0.299 OA
BRANCH  13  15
ATOM     15  C   UNL     1      -3.008  -2.049  -1.689  1.00  0.00     0.106 CG0
ATOM     16  G   UNL     1      -1.645  -1.523  -2.096  1.00  0.00     0.000 G0
ENDBRANCH  13  15
ENDBRANCH  12  13
BRANCH  12  17
ATOM     17  C   UNL     1      -5.889  -1.261   0.463  1.00  0.00    -0.006 C 
ATOM     18  C   UNL     1      -6.604   0.098   0.560  1.00  0.00     0.008 C 
ATOM     19  C   UNL     1      -6.438  -2.064  -0.727  1.00  0.00     0.008 C 
ENDBRANCH  12  17
ENDBRANCH  11  12
ENDBRANCH   1  11
TORSDOF 1
ENDMDL
MODEL 4
REMARK VINA RESULT:    -3.999      1.732      2.559
REMARK INTER + INTRA:          -6.272
REMARK INTER:                  -6.307
REMARK INTRA:                   0.035
REMARK UNBOUND:                -0.168
REMARK SMILES CC1=CCC[C@H](C)C(=O)C[C@@H](C(C)C)C(=O)C1
REMARK SMILES IDX 8 1 9 2 6 3 7 4 5 5 4 6 3 7 2 8 1 9 10 11 11 12 15 13 16 14
REMARK SMILES IDX 17 15 12 17 13 18 14 19
REMARK H PARENT
REMARK Flexibility Score: 70.00
ROOT
ATOM      1  C   UNL     1      -2.902  -1.947  -1.894  1.00  0.00     0.136 C 
ATOM      2  O   UNL     1      -3.118  -1.491  -3.008  1.00  0.00    -0.299 OA
ENDROOT
BRANCH   1   3
ATOM      3  C   UNL     1      -1.478  -2.083  -1.397  1.00  0.00     0.053 C 
ATOM      4  C   UNL     1      -0.792  -3.239  -2.131  1.00  0.00     0.016 C 
BRANCH   3   5
ATOM      5  C   UNL     1      -0.675  -0.776  -1.592  1.00  0.00     0.015 C 
BRANCH   5   6
ATOM      6  C   UNL     1      -0.765   0.176  -0.388  1.00  0.00     0.028 C 
BRANCH   6   7
ATOM      7  C   UNL     1      -0.445  -0.541   0.902  1.00  0.00    -0.028 C 
ATOM      8  C   UNL     1      -1.317  -0.781   1.908  1.00  0.00    -0.070 CG0
ATOM      9  C   UNL     1      -0.809  -1.516   3.123  1.00  0.00     0.039 C 
ATOM     10  G   UNL     1      -2.778  -0.380   1.856  1.00  0.00     0.000 G0
ENDBRANCH   6   7
ENDBRANCH   5   6
ENDBRANCH   3   5
ENDBRANCH   1   3
BRANCH   1  11
ATOM     11  C   UNL     1      -4.068  -2.382  -1.044  1.00  0.00     0.087 C 
BRANCH  11  12
ATOM     12  C   UNL     1      -4.441  -1.318   0.018  1.00  0.00     0.066 C 
BRANCH  12  13
ATOM     13  C   UNL     1      -3.633  -1.509   1.292  1.00  0.00     0.140 C 
ATOM     14  O   UNL     1      -3.691  -2.572   1.895  1.00  0.00    -0.299 OA
BRANCH  13  15
ATOM     15  C   UNL     1      -2.790  -0.397   1.859  1.00  0.00     0.106 CG0
ATOM     16  G   UNL     1      -1.328  -0.798   1.908  1.00  0.00     0.000 G0
ENDBRANCH  13  15
ENDBRANCH  12  13
BRANCH  12  17
ATOM     17  C   UNL     1      -5.975  -1.283   0.292  1.00  0.00    -0.006 C 
ATOM     18  C   UNL     1      -6.551   0.136   0.436  1.00  0.00     0.008 C 
ATOM     19  C   UNL     1      -6.755  -2.064  -0.777  1.00  0.00     0.008 C 
ENDBRANCH  12  17
ENDBRANCH  11  12
ENDBRANCH   1  11
TORSDOF 1
ENDMDL
MODEL 5
REMARK VINA RESULT:    -3.957      1.551      2.094
REMARK INTER + INTRA:          -6.207
REMARK INTER:                  -5.926
REMARK INTRA:                  -0.281
REMARK UNBOUND:                -0.168
REMARK SMILES CC1=CCC[C@H](C)C(=O)C[C@@H](C(C)C)C(=O)C1
REMARK SMILES IDX 8 1 9 2 6 3 7 4 5 5 4 6 3 7 2 8 1 9 10 11 11 12 15 13 16 14
REMARK SMILES IDX 17 15 12 17 13 18 14 19
REMARK H PARENT
REMARK Flexibility Score: 70.00
ROOT
ATOM      1  C   UNL     1      -4.303  -1.755  -0.549  1.00  0.00     0.136 C 
ATOM      2  O   UNL     1      -5.362  -1.145  -0.582  1.00  0.00    -0.299 OA
ENDROOT
BRANCH   1   3
ATOM      3  C   UNL     1      -3.757  -2.388  -1.812  1.00  0.00     0.053 C 
ATOM      4  C   UNL     1      -4.810  -3.329  -2.405  1.00  0.00     0.016 C 
BRANCH   3   5
ATOM      5  C   UNL     1      -3.343  -1.323  -2.854  1.00  0.00     0.015 C 
BRANCH   5   6
ATOM      6  C   UNL     1      -1.824  -1.102  -2.926  1.00  0.00     0.028 C 
BRANCH   6   7
ATOM      7  C   UNL     1      -1.070  -2.355  -2.548  1.00  0.00    -0.028 C 
ATOM      8  C   UNL     1      -0.305  -2.512  -1.443  1.00  0.00    -0.070 CG0
ATOM      9  C   UNL     1       0.373  -3.843  -1.236  1.00  0.00     0.039 C 
ATOM     10  G   UNL     1      -0.128  -1.432  -0.394  1.00  0.00     0.000 G0
ENDBRANCH   6   7
ENDBRANCH   5   6
ENDBRANCH   3   5
ENDBRANCH   1   3
BRANCH   1  11
ATOM     11  C   UNL     1      -3.571  -1.878   0.763  1.00  0.00     0.087 C 
BRANCH  11  12
ATOM     12  C   UNL     1      -2.380  -0.892   0.858  1.00  0.00     0.066 C 
BRANCH  12  13
ATOM     13  C   UNL     1      -1.051  -1.628   0.790  1.00  0.00     0.140 C 
ATOM     14  O   UNL     1      -0.717  -2.365   1.707  1.00  0.00    -0.299 OA
BRANCH  13  15
ATOM     15  C   UNL     1      -0.109  -1.438  -0.370  1.00  0.00     0.106 CG0
ATOM     16  G   UNL     1      -0.325  -2.508  -1.423  1.00  0.00     0.000 G0
ENDBRANCH  13  15
ENDBRANCH  12  13
BRANCH  12  17
ATOM     17  C   UNL     1      -2.484   0.024   2.115  1.00  0.00    -0.006 C 
ATOM     18  C   UNL     1      -1.347   1.055   2.232  1.00  0.00     0.008 C 
ATOM     19  C   UNL     1      -3.846   0.730   2.187  1.00  0.00     0.008 C 
ENDBRANCH  12  17
ENDBRANCH  11  12
ENDBRANCH   1  11
TORSDOF 1
ENDMDL
MODEL 6
REMARK VINA RESULT:    -3.795      2.056      4.074
REMARK INTER + INTRA:          -5.959
REMARK INTER:                  -5.736
REMARK INTRA:                  -0.223
REMARK UNBOUND:                -0.168
REMARK SMILES CC1=CCC[C@H](C)C(=O)C[C@@H](C(C)C)C(=O)C1
REMARK SMILES IDX 8 1 9 2 6 3 7 4 5 5 4 6 3 7 2 8 1 9 10 11 11 12 15 13 16 14
REMARK SMILES IDX 17 15 12 17 13 18 14 19
REMARK H PARENT
REMARK Flexibility Score: 70.00
ROOT
ATOM      1  C   UNL     1      -1.379  -1.399  -1.154  1.00  0.00     0.136 C 
ATOM      2  O   UNL     1      -0.528  -2.277  -1.155  1.00  0.00    -0.299 OA
ENDROOT
BRANCH   1   3
ATOM      3  C   UNL     1      -2.394  -1.331  -2.276  1.00  0.00     0.053 C 
ATOM      4  C   UNL     1      -1.673  -1.051  -3.598  1.00  0.00     0.016 C 
BRANCH   3   5
ATOM      5  C   UNL     1      -3.219  -2.635  -2.382  1.00  0.00     0.015 C 
BRANCH   5   6
ATOM      6  C   UNL     1      -4.247  -2.797  -1.251  1.00  0.00     0.028 C 
BRANCH   6   7
ATOM      7  C   UNL     1      -5.091  -1.554  -1.097  1.00  0.00    -0.028 C 
ATOM      8  C   UNL     1      -5.268  -0.858   0.050  1.00  0.00    -0.070 CG0
ATOM      9  C   UNL     1      -6.152   0.363   0.006  1.00  0.00     0.039 C 
ATOM     10  G   UNL     1      -4.596  -1.226   1.358  1.00  0.00     0.000 G0
ENDBRANCH   6   7
ENDBRANCH   5   6
ENDBRANCH   3   5
ENDBRANCH   1   3
BRANCH   1  11
ATOM     11  C   UNL     1      -1.383  -0.386  -0.038  1.00  0.00     0.087 C 
BRANCH  11  12
ATOM     12  C   UNL     1      -1.955  -0.974   1.276  1.00  0.00     0.066 C 
BRANCH  12  13
ATOM     13  C   UNL     1      -3.332  -0.403   1.579  1.00  0.00     0.140 C 
ATOM     14  O   UNL     1      -3.434   0.726   2.039  1.00  0.00    -0.299 OA
BRANCH  13  15
ATOM     15  C   UNL     1      -4.582  -1.216   1.364  1.00  0.00     0.106 CG0
ATOM     16  G   UNL     1      -5.264  -0.827   0.067  1.00  0.00     0.000 G0
ENDBRANCH  13  15
ENDBRANCH  12  13
BRANCH  12  17
ATOM     17  C   UNL     1      -0.968  -0.797   2.470  1.00  0.00    -0.006 C 
ATOM     18  C   UNL     1      -1.497  -1.350   3.805  1.00  0.00     0.008 C 
ATOM     19  C   UNL     1       0.409  -1.404   2.156  1.00  0.00     0.008 C 
ENDBRANCH  12  17
ENDBRANCH  11  12
ENDBRANCH   1  11
TORSDOF 1
ENDMDL
MODEL 7
REMARK VINA RESULT:    -3.690      1.897      4.289
REMARK INTER + INTRA:          -5.799
REMARK INTER:                  -5.935
REMARK INTRA:                   0.135
REMARK UNBOUND:                -0.168
REMARK SMILES CC1=CCC[C@H](C)C(=O)C[C@@H](C(C)C)C(=O)C1
REMARK SMILES IDX 8 1 9 2 6 3 7 4 5 5 4 6 3 7 2 8 1 9 10 11 11 12 15 13 16 14
REMARK SMILES IDX 17 15 12 17 13 18 14 19
REMARK H PARENT
REMARK Flexibility Score: 70.00
ROOT
ATOM      1  C   UNL     1      -4.013  -0.161   0.477  1.00  0.00     0.136 C 
ATOM      2  O   UNL     1      -5.193  -0.404   0.269  1.00  0.00    -0.299 OA
ENDROOT
BRANCH   1   3
ATOM      3  C   UNL     1      -3.566   0.282   1.855  1.00  0.00     0.053 C 
ATOM      4  C   UNL     1      -4.697   1.063   2.529  1.00  0.00     0.016 C 
BRANCH   3   5
ATOM      5  C   UNL     1      -3.146  -0.918   2.735  1.00  0.00     0.015 C 
BRANCH   5   6
ATOM      6  C   UNL     1      -1.761  -0.744   3.379  1.00  0.00     0.028 C 
BRANCH   6   7
ATOM      7  C   UNL     1      -0.845  -1.891   3.024  1.00  0.00    -0.028 C 
ATOM      8  C   UNL     1      -0.249  -2.082   1.825  1.00  0.00    -0.070 CG0
ATOM      9  C   UNL     1       0.636  -3.292   1.660  1.00  0.00     0.039 C 
ATOM     10  G   UNL     1      -0.399  -1.124   0.658  1.00  0.00     0.000 G0
ENDBRANCH   6   7
ENDBRANCH   5   6
ENDBRANCH   3   5
ENDBRANCH   1   3
BRANCH   1  11
ATOM     11  C   UNL     1      -3.029  -0.292  -0.657  1.00  0.00     0.087 C 
BRANCH  11  12
ATOM     12  C   UNL     1      -2.500  -1.740  -0.802  1.00  0.00     0.066 C 
BRANCH  12  13
ATOM     13  C   UNL     1      -1.003  -1.806  -0.544  1.00  0.00     0.140 C 
ATOM     14  O   UNL     1      -0.286  -2.459  -1.290  1.00  0.00    -0.299 OA
BRANCH  13  15
ATOM     15  C   UNL     1      -0.381  -1.115   0.642  1.00  0.00     0.106 CG0
ATOM     16  G   UNL     1      -0.249  -2.068   1.815  1.00  0.00     0.000 G0
ENDBRANCH  13  15
ENDBRANCH  12  13
BRANCH  12  17
ATOM     17  C   UNL     1      -2.890  -2.365  -2.176  1.00  0.00    -0.006 C 
ATOM     18  C   UNL     1      -4.329  -2.907  -2.229  1.00  0.00     0.008 C 
ATOM     19  C   UNL     1      -2.654  -1.379  -3.330  1.00  0.00     0.008 C 
ENDBRANCH  12  17
ENDBRANCH  11  12
ENDBRANCH   1  11
TORSDOF 1
ENDMDL
MODEL 8
REMARK VINA RESULT:    -3.649      2.019      5.305
REMARK INTER + INTRA:          -5.738
REMARK INTER:                  -5.870
REMARK INTRA:                   0.132
REMARK UNBOUND:                -0.168
REMARK SMILES CC1=CCC[C@H](C)C(=O)C[C@@H](C(C)C)C(=O)C1
REMARK SMILES IDX 8 1 9 2 6 3 7 4 5 5 4 6 3 7 2 8 1 9 10 11 11 12 15 13 16 14
REMARK SMILES IDX 17 15 12 17 13 18 14 19
REMARK H PARENT
REMARK Flexibility Score: 70.00
ROOT
ATOM      1  C   UNL     1      -1.728  -1.043   1.203  1.00  0.00     0.136 C 
ATOM      2  O   UNL     1      -1.193   0.030   0.964  1.00  0.00    -0.299 OA
ENDROOT
BRANCH   1   3
ATOM      3  C   UNL     1      -2.430  -1.258   2.528  1.00  0.00     0.053 C 
ATOM      4  C   UNL     1      -1.448  -0.991   3.672  1.00  0.00     0.016 C 
BRANCH   3   5
ATOM      5  C   UNL     1      -3.676  -0.353   2.670  1.00  0.00     0.015 C 
BRANCH   5   6
ATOM      6  C   UNL     1      -4.243   0.114   1.320  1.00  0.00     0.028 C 
BRANCH   6   7
ATOM      7  C   UNL     1      -5.374  -0.778   0.863  1.00  0.00    -0.028 C 
ATOM      8  C   UNL     1      -5.549  -1.248  -0.393  1.00  0.00    -0.070 CG0
ATOM      9  C   UNL     1      -6.745  -2.129  -0.658  1.00  0.00     0.039 C 
ATOM     10  G   UNL     1      -4.589  -0.960  -1.531  1.00  0.00     0.000 G0
ENDBRANCH   6   7
ENDBRANCH   5   6
ENDBRANCH   3   5
ENDBRANCH   1   3
BRANCH   1  11
ATOM     11  C   UNL     1      -1.658  -2.141   0.172  1.00  0.00     0.087 C 
BRANCH  11  12
ATOM     12  C   UNL     1      -2.045  -1.636  -1.239  1.00  0.00     0.066 C 
BRANCH  12  13
ATOM     13  C   UNL     1      -3.481  -2.004  -1.579  1.00  0.00     0.140 C 
ATOM     14  O   UNL     1      -3.750  -3.146  -1.925  1.00  0.00    -0.299 OA
BRANCH  13  15
ATOM     15  C   UNL     1      -4.583  -0.978  -1.539  1.00  0.00     0.106 CG0
ATOM     16  G   UNL     1      -5.552  -1.268  -0.409  1.00  0.00     0.000 G0
ENDBRANCH  13  15
ENDBRANCH  12  13
BRANCH  12  17
ATOM     17  C   UNL     1      -1.039  -2.122  -2.327  1.00  0.00    -0.006 C 
ATOM     18  C   UNL     1      -1.080  -1.300  -3.627  1.00  0.00     0.008 C 
ATOM     19  C   UNL     1       0.396  -2.177  -1.781  1.00  0.00     0.008 C 
ENDBRANCH  12  17
ENDBRANCH  11  12
ENDBRANCH   1  11
TORSDOF 1
ENDMDL
MODEL 9
REMARK VINA RESULT:    -3.569      1.833      3.670
REMARK INTER + INTRA:          -5.615
REMARK INTER:                  -5.855
REMARK INTRA:                   0.241
REMARK UNBOUND:                -0.168
REMARK SMILES CC1=CCC[C@H](C)C(=O)C[C@@H](C(C)C)C(=O)C1
REMARK SMILES IDX 8 1 9 2 6 3 7 4 5 5 4 6 3 7 2 8 1 9 10 11 11 12 15 13 16 14
REMARK SMILES IDX 17 15 12 17 13 18 14 19
REMARK H PARENT
REMARK Flexibility Score: 70.00
ROOT
ATOM      1  C   UNL     1      -3.976  -0.854   1.572  1.00  0.00     0.136 C 
ATOM      2  O   UNL     1      -3.917   0.209   2.174  1.00  0.00    -0.299 OA
ENDROOT
BRANCH   1   3
ATOM      3  C   UNL     1      -5.221  -1.206   0.785  1.00  0.00     0.053 C 
ATOM      4  C   UNL     1      -5.660   0.006  -0.041  1.00  0.00     0.016 C 
BRANCH   3   5
ATOM      5  C   UNL     1      -4.990  -2.426  -0.137  1.00  0.00     0.015 C 
BRANCH   5   6
ATOM      6  C   UNL     1      -4.504  -2.041  -1.543  1.00  0.00     0.028 C 
BRANCH   6   7
ATOM      7  C   UNL     1      -3.248  -2.794  -1.913  1.00  0.00    -0.028 C 
ATOM      8  C   UNL     1      -1.982  -2.354  -1.729  1.00  0.00    -0.070 CG0
ATOM      9  C   UNL     1      -0.851  -3.252  -2.164  1.00  0.00     0.039 C 
ATOM     10  G   UNL     1      -1.649  -1.025  -1.079  1.00  0.00     0.000 G0
ENDBRANCH   6   7
ENDBRANCH   5   6
ENDBRANCH   3   5
ENDBRANCH   1   3
BRANCH   1  11
ATOM     11  C   UNL     1      -2.807  -1.803   1.646  1.00  0.00     0.087 C 
BRANCH  11  12
ATOM     12  C   UNL     1      -1.451  -1.061   1.553  1.00  0.00     0.066 C 
BRANCH  12  13
ATOM     13  C   UNL     1      -0.829  -1.227   0.176  1.00  0.00     0.140 C 
ATOM     14  O   UNL     1       0.361  -1.493   0.075  1.00  0.00    -0.299 OA
BRANCH  13  15
ATOM     15  C   UNL     1      -1.638  -1.028  -1.079  1.00  0.00     0.106 CG0
ATOM     16  G   UNL     1      -1.983  -2.360  -1.717  1.00  0.00     0.000 G0
ENDBRANCH  13  15
ENDBRANCH  12  13
BRANCH  12  17
ATOM     17  C   UNL     1      -0.478  -1.484   2.696  1.00  0.00    -0.006 C 
ATOM     18  C   UNL     1      -0.738  -0.768   4.033  1.00  0.00     0.008 C 
ATOM     19  C   UNL     1      -0.481  -3.006   2.901  1.00  0.00     0.008 C 
ENDBRANCH  12  17
ENDBRANCH  11  12
ENDBRANCH   1  11
TORSDOF 1
ENDMDL
