MODEL 1
REMARK VINA RESULT:    -5.192      0.000      0.000
REMARK INTER + INTRA:          -5.344
REMARK INTER:                  -5.344
REMARK INTRA:                   0.000
REMARK UNBOUND:                 0.000
REMARK SMILES Oc1ccc2[nH]ccc2c1
REMARK SMILES IDX 3 1 4 2 5 3 9 4 8 5 7 6 6 7 10 8 2 9 1 11
REMARK H PARENT 6 10 1 12
REMARK Flexibility Score: inf
ROOT
ATOM      1  C   UNL     1      17.834  40.923  40.836  1.00  0.00     0.048 A 
ATOM      2  C   UNL     1      17.060  40.098  39.999  1.00  0.00     0.030 A 
ATOM      3  C   UNL     1      16.763  40.566  38.720  1.00  0.00     0.046 A 
ATOM      4  C   UNL     1      17.204  41.784  38.278  1.00  0.00     0.003 A 
ATOM      5  C   UNL     1      16.746  41.946  36.989  1.00  0.00     0.028 A 
ATOM      6  C   UNL     1      16.033  40.785  36.709  1.00  0.00     0.083 A 
ATOM      7  N   UNL     1      16.045  39.945  37.770  1.00  0.00    -0.361 N 
ATOM      8  C   UNL     1      17.972  42.624  39.081  1.00  0.00     0.056 A 
ATOM      9  C   UNL     1      18.291  42.183  40.383  1.00  0.00     0.116 A 
ATOM     10  H   UNL     1      15.590  39.007  37.832  1.00  0.00     0.166 HD
ENDROOT
BRANCH   9  11
ATOM     11  O   UNL     1      19.056  42.979  41.231  1.00  0.00    -0.508 OA
ATOM     12  H   UNL     1      18.957  43.988  41.241  1.00  0.00     0.293 HD
ENDBRANCH   9  11
TORSDOF 1
ENDMDL
MODEL 2
REMARK VINA RESULT:    -5.067      2.596      3.477
REMARK INTER + INTRA:          -5.215
REMARK INTER:                  -5.215
REMARK INTRA:                   0.000
REMARK UNBOUND:                 0.000
REMARK SMILES Oc1ccc2[nH]ccc2c1
REMARK SMILES IDX 3 1 4 2 5 3 9 4 8 5 7 6 6 7 10 8 2 9 1 11
REMARK H PARENT 6 10 1 12
REMARK Flexibility Score: inf
ROOT
ATOM      1  C   UNL     1      16.544  39.852  39.867  1.00  0.00     0.048 A 
ATOM      2  C   UNL     1      17.465  40.549  40.671  1.00  0.00     0.030 A 
ATOM      3  C   UNL     1      18.010  41.728  40.163  1.00  0.00     0.046 A 
ATOM      4  C   UNL     1      17.670  42.203  38.925  1.00  0.00     0.003 A 
ATOM      5  C   UNL     1      18.375  43.370  38.724  1.00  0.00     0.028 A 
ATOM      6  C   UNL     1      19.124  43.546  39.883  1.00  0.00     0.083 A 
ATOM      7  N   UNL     1      18.899  42.540  40.759  1.00  0.00    -0.361 N 
ATOM      8  C   UNL     1      16.763  41.537  38.105  1.00  0.00     0.056 A 
ATOM      9  C   UNL     1      16.191  40.341  38.588  1.00  0.00     0.116 A 
ATOM     10  H   UNL     1      19.329  42.422  41.704  1.00  0.00     0.166 HD
ENDROOT
BRANCH   9  11
ATOM     11  O   UNL     1      15.277  39.632  37.813  1.00  0.00    -0.508 OA
ATOM     12  H   UNL     1      15.406  38.646  37.612  1.00  0.00     0.293 HD
ENDBRANCH   9  11
TORSDOF 1
ENDMDL
MODEL 3
REMARK VINA RESULT:    -5.009      1.527      2.205
REMARK INTER + INTRA:          -5.156
REMARK INTER:                  -5.156
REMARK INTRA:                   0.000
REMARK UNBOUND:                 0.000
REMARK SMILES Oc1ccc2[nH]ccc2c1
REMARK SMILES IDX 3 1 4 2 5 3 9 4 8 5 7 6 6 7 10 8 2 9 1 11
REMARK H PARENT 6 10 1 12
REMARK Flexibility Score: inf
ROOT
ATOM      1  C   UNL     1      16.733  40.220  39.787  1.00  0.00     0.048 A 
ATOM      2  C   UNL     1      16.367  40.759  38.539  1.00  0.00     0.030 A 
ATOM      3  C   UNL     1      16.958  41.960  38.151  1.00  0.00     0.046 A 
ATOM      4  C   UNL     1      17.867  42.606  38.947  1.00  0.00     0.003 A 
ATOM      5  C   UNL     1      18.256  43.749  38.284  1.00  0.00     0.028 A 
ATOM      6  C   UNL     1      17.545  43.736  37.089  1.00  0.00     0.083 A 
ATOM      7  N   UNL     1      16.753  42.642  37.012  1.00  0.00    -0.361 N 
ATOM      8  C   UNL     1      18.249  42.100  40.187  1.00  0.00     0.056 A 
ATOM      9  C   UNL     1      17.671  40.884  40.611  1.00  0.00     0.116 A 
ATOM     10  H   UNL     1      16.115  42.383  36.227  1.00  0.00     0.166 HD
ENDROOT
BRANCH   9  11
ATOM     11  O   UNL     1      18.015  40.329  41.841  1.00  0.00    -0.508 OA
ATOM     12  H   UNL     1      18.871  40.590  42.317  1.00  0.00     0.293 HD
ENDBRANCH   9  11
TORSDOF 1
ENDMDL
MODEL 4
REMARK VINA RESULT:    -4.952      2.737      4.167
REMARK INTER + INTRA:          -5.096
REMARK INTER:                  -5.096
REMARK INTRA:                   0.000
REMARK UNBOUND:                 0.000
REMARK SMILES Oc1ccc2[nH]ccc2c1
REMARK SMILES IDX 3 1 4 2 5 3 9 4 8 5 7 6 6 7 10 8 2 9 1 11
REMARK H PARENT 6 10 1 12
REMARK Flexibility Score: inf
ROOT
ATOM      1  C   UNL     1      16.313  40.277  36.750  1.00  0.00     0.048 A 
ATOM      2  C   UNL     1      16.846  41.443  37.331  1.00  0.00     0.030 A 
ATOM      3  C   UNL     1      17.260  41.377  38.660  1.00  0.00     0.046 A 
ATOM      4  C   UNL     1      17.158  40.223  39.390  1.00  0.00     0.003 A 
ATOM      5  C   UNL     1      17.646  40.487  40.650  1.00  0.00     0.028 A 
ATOM      6  C   UNL     1      18.031  41.824  40.618  1.00  0.00     0.083 A 
ATOM      7  N   UNL     1      17.792  42.363  39.400  1.00  0.00    -0.361 N 
ATOM      8  C   UNL     1      16.634  39.052  38.846  1.00  0.00     0.056 A 
ATOM      9  C   UNL     1      16.206  39.083  37.502  1.00  0.00     0.116 A 
ATOM     10  H   UNL     1      17.984  43.345  39.101  1.00  0.00     0.166 HD
ENDROOT
BRANCH   9  11
ATOM     11  O   UNL     1      15.674  37.943  36.903  1.00  0.00    -0.508 OA
ATOM     12  H   UNL     1      16.149  37.479  36.137  1.00  0.00     0.293 HD
ENDBRANCH   9  11
TORSDOF 1
ENDMDL
MODEL 5
REMARK VINA RESULT:    -4.927      0.923      2.080
REMARK INTER + INTRA:          -5.071
REMARK INTER:                  -5.071
REMARK INTRA:                   0.000
REMARK UNBOUND:                 0.000
REMARK SMILES Oc1ccc2[nH]ccc2c1
REMARK SMILES IDX 3 1 4 2 5 3 9 4 8 5 7 6 6 7 10 8 2 9 1 11
REMARK H PARENT 6 10 1 12
REMARK Flexibility Score: inf
ROOT
ATOM      1  C   UNL     1      18.268  43.149  38.981  1.00  0.00     0.048 A 
ATOM      2  C   UNL     1      17.583  42.485  37.947  1.00  0.00     0.030 A 
ATOM      3  C   UNL     1      17.089  41.208  38.208  1.00  0.00     0.046 A 
ATOM      4  C   UNL     1      17.258  40.607  39.427  1.00  0.00     0.003 A 
ATOM      5  C   UNL     1      16.662  39.366  39.360  1.00  0.00     0.028 A 
ATOM      6  C   UNL     1      16.149  39.279  38.070  1.00  0.00     0.083 A 
ATOM      7  N   UNL     1      16.413  40.406  37.370  1.00  0.00    -0.361 N 
ATOM      8  C   UNL     1      17.931  41.236  40.471  1.00  0.00     0.056 A 
ATOM      9  C   UNL     1      18.443  42.531  40.241  1.00  0.00     0.116 A 
ATOM     10  H   UNL     1      16.144  40.608  36.381  1.00  0.00     0.166 HD
ENDROOT
BRANCH   9  11
ATOM     11  O   UNL     1      19.125  43.210  41.248  1.00  0.00    -0.508 OA
ATOM     12  H   UNL     1      19.961  43.748  41.050  1.00  0.00     0.293 HD
ENDBRANCH   9  11
TORSDOF 1
ENDMDL
MODEL 6
REMARK VINA RESULT:    -4.865      2.905      3.469
REMARK INTER + INTRA:          -5.007
REMARK INTER:                  -5.007
REMARK INTRA:                   0.000
REMARK UNBOUND:                 0.000
REMARK SMILES Oc1ccc2[nH]ccc2c1
REMARK SMILES IDX 3 1 4 2 5 3 9 4 8 5 7 6 6 7 10 8 2 9 1 11
REMARK H PARENT 6 10 1 12
REMARK Flexibility Score: inf
ROOT
ATOM      1  C   UNL     1      15.978  40.005  39.165  1.00  0.00     0.048 A 
ATOM      2  C   UNL     1      16.968  39.164  38.624  1.00  0.00     0.030 A 
ATOM      3  C   UNL     1      16.986  38.987  37.241  1.00  0.00     0.046 A 
ATOM      4  C   UNL     1      16.077  39.605  36.424  1.00  0.00     0.003 A 
ATOM      5  C   UNL     1      16.363  39.228  35.130  1.00  0.00     0.028 A 
ATOM      6  C   UNL     1      17.461  38.379  35.234  1.00  0.00     0.083 A 
ATOM      7  N   UNL     1      17.837  38.234  36.525  1.00  0.00    -0.361 N 
ATOM      8  C   UNL     1      15.085  40.442  36.928  1.00  0.00     0.056 A 
ATOM      9  C   UNL     1      15.037  40.644  38.324  1.00  0.00     0.116 A 
ATOM     10  H   UNL     1      18.628  37.656  36.887  1.00  0.00     0.166 HD
ENDROOT
BRANCH   9  11
ATOM     11  O   UNL     1      14.068  41.472  38.885  1.00  0.00    -0.508 OA
ATOM     12  H   UNL     1      14.278  42.073  39.674  1.00  0.00     0.293 HD
ENDBRANCH   9  11
TORSDOF 1
ENDMDL
MODEL 7
REMARK VINA RESULT:    -4.756      2.560      3.931
REMARK INTER + INTRA:          -4.895
REMARK INTER:                  -4.895
REMARK INTRA:                   0.000
REMARK UNBOUND:                 0.000
REMARK SMILES Oc1ccc2[nH]ccc2c1
REMARK SMILES IDX 3 1 4 2 5 3 9 4 8 5 7 6 6 7 10 8 2 9 1 11
REMARK H PARENT 6 10 1 12
REMARK Flexibility Score: inf
ROOT
ATOM      1  C   UNL     1      17.377  43.060  36.916  1.00  0.00     0.048 A 
ATOM      2  C   UNL     1      17.797  43.200  38.252  1.00  0.00     0.030 A 
ATOM      3  C   UNL     1      17.637  42.106  39.101  1.00  0.00     0.046 A 
ATOM      4  C   UNL     1      17.092  40.928  38.664  1.00  0.00     0.003 A 
ATOM      5  C   UNL     1      17.074  40.060  39.734  1.00  0.00     0.028 A 
ATOM      6  C   UNL     1      17.625  40.776  40.792  1.00  0.00     0.083 A 
ATOM      7  N   UNL     1      17.966  42.025  40.401  1.00  0.00    -0.361 N 
ATOM      8  C   UNL     1      16.666  40.758  37.349  1.00  0.00     0.056 A 
ATOM      9  C   UNL     1      16.813  41.845  36.461  1.00  0.00     0.116 A 
ATOM     10  H   UNL     1      18.399  42.771  40.991  1.00  0.00     0.166 HD
ENDROOT
BRANCH   9  11
ATOM     11  O   UNL     1      16.407  41.734  35.134  1.00  0.00    -0.508 OA
ATOM     12  H   UNL     1      16.840  42.282  34.401  1.00  0.00     0.293 HD
ENDBRANCH   9  11
TORSDOF 1
ENDMDL
MODEL 8
REMARK VINA RESULT:    -4.745      2.936      3.979
REMARK INTER + INTRA:          -4.883
REMARK INTER:                  -4.883
REMARK INTRA:                   0.000
REMARK UNBOUND:                 0.000
REMARK SMILES Oc1ccc2[nH]ccc2c1
REMARK SMILES IDX 3 1 4 2 5 3 9 4 8 5 7 6 6 7 10 8 2 9 1 11
REMARK H PARENT 6 10 1 12
REMARK Flexibility Score: inf
ROOT
ATOM      1  C   UNL     1      15.153  42.086  36.175  1.00  0.00     0.048 A 
ATOM      2  C   UNL     1      14.612  41.647  37.397  1.00  0.00     0.030 A 
ATOM      3  C   UNL     1      15.389  40.798  38.184  1.00  0.00     0.046 A 
ATOM      4  C   UNL     1      16.639  40.398  37.794  1.00  0.00     0.003 A 
ATOM      5  C   UNL     1      17.135  39.574  38.781  1.00  0.00     0.028 A 
ATOM      6  C   UNL     1      16.133  39.518  39.744  1.00  0.00     0.083 A 
ATOM      7  N   UNL     1      15.068  40.266  39.375  1.00  0.00    -0.361 N 
ATOM      8  C   UNL     1      17.203  40.814  36.590  1.00  0.00     0.056 A 
ATOM      9  C   UNL     1      16.444  41.674  35.769  1.00  0.00     0.116 A 
ATOM     10  H   UNL     1      14.181  40.402  39.910  1.00  0.00     0.166 HD
ENDROOT
BRANCH   9  11
ATOM     11  O   UNL     1      16.955  42.124  34.554  1.00  0.00    -0.508 OA
ATOM     12  H   UNL     1      17.377  41.485  33.889  1.00  0.00     0.293 HD
ENDBRANCH   9  11
TORSDOF 1
ENDMDL
MODEL 9
REMARK VINA RESULT:    -4.703      3.353      4.542
REMARK INTER + INTRA:          -4.840
REMARK INTER:                  -4.840
REMARK INTRA:                   0.000
REMARK UNBOUND:                 0.000
REMARK SMILES Oc1ccc2[nH]ccc2c1
REMARK SMILES IDX 3 1 4 2 5 3 9 4 8 5 7 6 6 7 10 8 2 9 1 11
REMARK H PARENT 6 10 1 12
REMARK Flexibility Score: inf
ROOT
ATOM      1  C   UNL     1      16.039  39.583  35.263  1.00  0.00     0.048 A 
ATOM      2  C   UNL     1      15.210  40.120  36.265  1.00  0.00     0.030 A 
ATOM      3  C   UNL     1      15.619  39.982  37.590  1.00  0.00     0.046 A 
ATOM      4  C   UNL     1      16.786  39.348  37.922  1.00  0.00     0.003 A 
ATOM      5  C   UNL     1      16.897  39.380  39.294  1.00  0.00     0.028 A 
ATOM      6  C   UNL     1      15.761  40.051  39.735  1.00  0.00     0.083 A 
ATOM      7  N   UNL     1      14.983  40.416  38.691  1.00  0.00    -0.361 N 
ATOM      8  C   UNL     1      17.629  38.805  36.954  1.00  0.00     0.056 A 
ATOM      9  C   UNL     1      17.246  38.928  35.602  1.00  0.00     0.116 A 
ATOM     10  H   UNL     1      14.075  40.931  38.735  1.00  0.00     0.166 HD
ENDROOT
BRANCH   9  11
ATOM     11  O   UNL     1      18.049  38.405  34.591  1.00  0.00    -0.508 OA
ATOM     12  H   UNL     1      17.887  37.478  34.213  1.00  0.00     0.293 HD
ENDBRANCH   9  11
TORSDOF 1
ENDMDL
