MODEL 1
REMARK VINA RESULT:    -5.386      0.000      0.000
REMARK INTER + INTRA:          -6.219
REMARK INTER:                  -6.016
REMARK INTRA:                  -0.203
REMARK UNBOUND:                -0.203
REMARK SMILES O=C([O-])c1ccccc1C(=O)[O-]
REMARK SMILES IDX 4 1 9 2 5 3 8 4 6 5 7 6 2 7 1 8 3 9 10 10 11 11 12 12
REMARK H PARENT
REMARK Flexibility Score: inf
ROOT
ATOM      1  C   UNL     1      88.726  74.612  71.488  1.00  0.00     0.006 A 
ATOM      2  C   UNL     1      88.311  75.966  71.364  1.00  0.00     0.006 A 
ATOM      3  C   UNL     1      89.117  73.907  70.335  1.00  0.00     0.010 A 
ATOM      4  C   UNL     1      88.242  76.547  70.083  1.00  0.00     0.010 A 
ATOM      5  C   UNL     1      89.063  74.509  69.077  1.00  0.00     0.001 A 
ATOM      6  C   UNL     1      88.615  75.822  68.950  1.00  0.00     0.001 A 
ENDROOT
BRANCH   1   7
ATOM      7  C   UNL     1      88.692  73.881  72.776  1.00  0.00     0.072 C 
ATOM      8  O   UNL     1      89.766  73.540  73.339  1.00  0.00    -0.545 OA
ATOM      9  O   UNL     1      87.482  73.505  73.347  1.00  0.00    -0.545 OA
ENDBRANCH   1   7
BRANCH   2  10
ATOM     10  C   UNL     1      88.016  76.822  72.537  1.00  0.00     0.072 C 
ATOM     11  O   UNL     1      88.952  77.402  73.149  1.00  0.00    -0.545 OA
ATOM     12  O   UNL     1      86.718  76.946  73.015  1.00  0.00    -0.545 OA
ENDBRANCH   2  10
TORSDOF 2
ENDMDL
MODEL 2
REMARK VINA RESULT:    -5.353      0.124      2.861
REMARK INTER + INTRA:          -6.182
REMARK INTER:                  -5.979
REMARK INTRA:                  -0.203
REMARK UNBOUND:                -0.203
REMARK SMILES O=C([O-])c1ccccc1C(=O)[O-]
REMARK SMILES IDX 4 1 9 2 5 3 8 4 6 5 7 6 2 7 1 8 3 9 10 10 11 11 12 12
REMARK H PARENT
REMARK Flexibility Score: inf
ROOT
ATOM      1  C   UNL     1      88.290  76.018  71.339  1.00  0.00     0.006 A 
ATOM      2  C   UNL     1      88.702  74.659  71.399  1.00  0.00     0.006 A 
ATOM      3  C   UNL     1      88.221  76.660  70.088  1.00  0.00     0.010 A 
ATOM      4  C   UNL     1      89.092  74.009  70.212  1.00  0.00     0.010 A 
ATOM      5  C   UNL     1      88.591  75.989  68.921  1.00  0.00     0.001 A 
ATOM      6  C   UNL     1      89.036  74.670  68.984  1.00  0.00     0.001 A 
ENDROOT
BRANCH   1   7
ATOM      7  C   UNL     1      87.999  76.818  72.552  1.00  0.00     0.072 C 
ATOM      8  O   UNL     1      88.937  77.362  73.192  1.00  0.00    -0.545 OA
ATOM      9  O   UNL     1      86.701  76.924  73.036  1.00  0.00    -0.545 OA
ENDBRANCH   1   7
BRANCH   2  10
ATOM     10  C   UNL     1      88.670  73.868  72.651  1.00  0.00     0.072 C 
ATOM     11  O   UNL     1      89.745  73.500  73.196  1.00  0.00    -0.545 OA
ATOM     12  O   UNL     1      87.460  73.468  73.204  1.00  0.00    -0.545 OA
ENDBRANCH   2  10
TORSDOF 2
ENDMDL
MODEL 3
REMARK VINA RESULT:    -5.306      2.259      4.125
REMARK INTER + INTRA:          -6.129
REMARK INTER:                  -5.942
REMARK INTRA:                  -0.187
REMARK UNBOUND:                -0.203
REMARK SMILES O=C([O-])c1ccccc1C(=O)[O-]
REMARK SMILES IDX 4 1 9 2 5 3 8 4 6 5 7 6 2 7 1 8 3 9 10 10 11 11 12 12
REMARK H PARENT
REMARK Flexibility Score: inf
ROOT
ATOM      1  C   UNL     1      88.743  76.441  71.316  1.00  0.00     0.006 A 
ATOM      2  C   UNL     1      88.458  75.151  71.841  1.00  0.00     0.006 A 
ATOM      3  C   UNL     1      88.063  77.558  71.834  1.00  0.00     0.010 A 
ATOM      4  C   UNL     1      87.457  75.017  72.822  1.00  0.00     0.010 A 
ATOM      5  C   UNL     1      87.091  77.406  72.823  1.00  0.00     0.001 A 
ATOM      6  C   UNL     1      86.779  76.137  73.308  1.00  0.00     0.001 A 
ENDROOT
BRANCH   1   7
ATOM      7  C   UNL     1      89.678  76.653  70.185  1.00  0.00     0.072 C 
ATOM      8  O   UNL     1      90.840  77.088  70.398  1.00  0.00    -0.545 OA
ATOM      9  O   UNL     1      89.265  76.439  68.876  1.00  0.00    -0.545 OA
ENDBRANCH   1   7
BRANCH   2  10
ATOM     10  C   UNL     1      89.222  73.942  71.454  1.00  0.00     0.072 C 
ATOM     11  O   UNL     1      90.134  73.502  72.204  1.00  0.00    -0.545 OA
ATOM     12  O   UNL     1      88.990  73.318  70.235  1.00  0.00    -0.545 OA
ENDBRANCH   2  10
TORSDOF 2
ENDMDL
MODEL 4
REMARK VINA RESULT:    -5.288      2.242      3.144
REMARK INTER + INTRA:          -6.110
REMARK INTER:                  -5.917
REMARK INTRA:                  -0.193
REMARK UNBOUND:                -0.203
REMARK SMILES O=C([O-])c1ccccc1C(=O)[O-]
REMARK SMILES IDX 4 1 9 2 5 3 8 4 6 5 7 6 2 7 1 8 3 9 10 10 11 11 12 12
REMARK H PARENT
REMARK Flexibility Score: inf
ROOT
ATOM      1  C   UNL     1      88.459  75.083  71.883  1.00  0.00     0.006 A 
ATOM      2  C   UNL     1      88.704  76.366  71.322  1.00  0.00     0.006 A 
ATOM      3  C   UNL     1      87.480  74.948  72.884  1.00  0.00     0.010 A 
ATOM      4  C   UNL     1      88.006  77.479  71.827  1.00  0.00     0.010 A 
ATOM      5  C   UNL     1      86.782  76.062  73.354  1.00  0.00     0.001 A 
ATOM      6  C   UNL     1      87.053  77.326  72.835  1.00  0.00     0.001 A 
ENDROOT
BRANCH   1   7
ATOM      7  C   UNL     1      89.248  73.885  71.510  1.00  0.00     0.072 C 
ATOM      8  O   UNL     1      90.197  73.499  72.241  1.00  0.00    -0.545 OA
ATOM      9  O   UNL     1      88.995  73.212  70.321  1.00  0.00    -0.545 OA
ENDBRANCH   1   7
BRANCH   2  10
ATOM     10  C   UNL     1      89.614  76.575  70.171  1.00  0.00     0.072 C 
ATOM     11  O   UNL     1      90.766  77.051  70.352  1.00  0.00    -0.545 OA
ATOM     12  O   UNL     1      89.188  76.311  68.875  1.00  0.00    -0.545 OA
ENDBRANCH   2  10
TORSDOF 2
ENDMDL
MODEL 5
REMARK VINA RESULT:    -5.071      2.175      3.552
REMARK INTER + INTRA:          -5.867
REMARK INTER:                  -5.647
REMARK INTRA:                  -0.219
REMARK UNBOUND:                -0.203
REMARK SMILES O=C([O-])c1ccccc1C(=O)[O-]
REMARK SMILES IDX 4 1 9 2 5 3 8 4 6 5 7 6 2 7 1 8 3 9 10 10 11 11 12 12
REMARK H PARENT
REMARK Flexibility Score: inf
ROOT
ATOM      1  C   UNL     1      87.490  74.399  73.370  1.00  0.00     0.006 A 
ATOM      2  C   UNL     1      86.948  75.651  72.967  1.00  0.00     0.006 A 
ATOM      3  C   UNL     1      86.689  73.512  74.112  1.00  0.00     0.010 A 
ATOM      4  C   UNL     1      85.645  75.995  73.375  1.00  0.00     0.010 A 
ATOM      5  C   UNL     1      85.392  73.864  74.486  1.00  0.00     0.001 A 
ATOM      6  C   UNL     1      84.875  75.108  74.128  1.00  0.00     0.001 A 
ENDROOT
BRANCH   1   7
ATOM      7  C   UNL     1      88.898  74.017  73.106  1.00  0.00     0.072 C 
ATOM      8  O   UNL     1      89.785  74.230  73.974  1.00  0.00    -0.545 OA
ATOM      9  O   UNL     1      89.268  73.483  71.878  1.00  0.00    -0.545 OA
ENDBRANCH   1   7
BRANCH   2  10
ATOM     10  C   UNL     1      87.670  76.583  72.070  1.00  0.00     0.072 C 
ATOM     11  O   UNL     1      87.500  76.521  70.823  1.00  0.00    -0.545 OA
ATOM     12  O   UNL     1      88.587  77.491  72.583  1.00  0.00    -0.545 OA
ENDBRANCH   2  10
TORSDOF 2
ENDMDL
MODEL 6
REMARK VINA RESULT:    -5.058      2.373      3.498
REMARK INTER + INTRA:          -5.853
REMARK INTER:                  -5.666
REMARK INTRA:                  -0.187
REMARK UNBOUND:                -0.203
REMARK SMILES O=C([O-])c1ccccc1C(=O)[O-]
REMARK SMILES IDX 4 1 9 2 5 3 8 4 6 5 7 6 2 7 1 8 3 9 10 10 11 11 12 12
REMARK H PARENT
REMARK Flexibility Score: inf
ROOT
ATOM      1  C   UNL     1      88.344  74.986  72.506  1.00  0.00     0.006 A 
ATOM      2  C   UNL     1      87.192  74.915  73.338  1.00  0.00     0.006 A 
ATOM      3  C   UNL     1      88.708  76.223  71.944  1.00  0.00     0.010 A 
ATOM      4  C   UNL     1      86.411  76.071  73.525  1.00  0.00     0.010 A 
ATOM      5  C   UNL     1      87.931  77.362  72.161  1.00  0.00     0.001 A 
ATOM      6  C   UNL     1      86.779  77.284  72.940  1.00  0.00     0.001 A 
ENDROOT
BRANCH   1   7
ATOM      7  C   UNL     1      89.140  73.790  72.143  1.00  0.00     0.072 C 
ATOM      8  O   UNL     1      88.935  73.201  71.049  1.00  0.00    -0.545 OA
ATOM      9  O   UNL     1      90.074  73.265  73.029  1.00  0.00    -0.545 OA
ENDBRANCH   1   7
BRANCH   2  10
ATOM     10  C   UNL     1      86.816  73.690  74.081  1.00  0.00     0.072 C 
ATOM     11  O   UNL     1      85.811  73.017  73.727  1.00  0.00    -0.545 OA
ATOM     12  O   UNL     1      87.524  73.302  75.211  1.00  0.00    -0.545 OA
ENDBRANCH   2  10
TORSDOF 2
ENDMDL
MODEL 7
REMARK VINA RESULT:    -4.764      2.034      3.188
REMARK INTER + INTRA:          -5.525
REMARK INTER:                  -5.559
REMARK INTRA:                   0.035
REMARK UNBOUND:                -0.203
REMARK SMILES O=C([O-])c1ccccc1C(=O)[O-]
REMARK SMILES IDX 4 1 9 2 5 3 8 4 6 5 7 6 2 7 1 8 3 9 10 10 11 11 12 12
REMARK H PARENT
REMARK Flexibility Score: inf
ROOT
ATOM      1  C   UNL     1      88.858  75.293  71.427  1.00  0.00     0.006 A 
ATOM      2  C   UNL     1      88.359  75.839  72.642  1.00  0.00     0.006 A 
ATOM      3  C   UNL     1      89.585  74.088  71.465  1.00  0.00     0.010 A 
ATOM      4  C   UNL     1      88.659  75.194  73.857  1.00  0.00     0.010 A 
ATOM      5  C   UNL     1      89.851  73.453  72.679  1.00  0.00     0.001 A 
ATOM      6  C   UNL     1      89.400  74.011  73.873  1.00  0.00     0.001 A 
ENDROOT
BRANCH   1   7
ATOM      7  C   UNL     1      88.710  75.980  70.123  1.00  0.00     0.072 C 
ATOM      8  O   UNL     1      89.672  76.631  69.638  1.00  0.00    -0.545 OA
ATOM      9  O   UNL     1      87.493  75.972  69.452  1.00  0.00    -0.545 OA
ENDBRANCH   1   7
BRANCH   2  10
ATOM     10  C   UNL     1      87.470  77.023  72.680  1.00  0.00     0.072 C 
ATOM     11  O   UNL     1      87.861  78.125  72.211  1.00  0.00    -0.545 OA
ATOM     12  O   UNL     1      86.223  76.952  73.288  1.00  0.00    -0.545 OA
ENDBRANCH   2  10
TORSDOF 2
ENDMDL
MODEL 8
REMARK VINA RESULT:    -4.657     12.965     14.533
REMARK INTER + INTRA:          -5.405
REMARK INTER:                  -5.217
REMARK INTRA:                  -0.188
REMARK UNBOUND:                -0.203
REMARK SMILES O=C([O-])c1ccccc1C(=O)[O-]
REMARK SMILES IDX 4 1 9 2 5 3 8 4 6 5 7 6 2 7 1 8 3 9 10 10 11 11 12 12
REMARK H PARENT
REMARK Flexibility Score: inf
ROOT
ATOM      1  C   UNL     1      95.636  83.438  80.412  1.00  0.00     0.006 A 
ATOM      2  C   UNL     1      96.354  84.565  79.926  1.00  0.00     0.006 A 
ATOM      3  C   UNL     1      96.346  82.367  80.985  1.00  0.00     0.010 A 
ATOM      4  C   UNL     1      97.761  84.552  79.973  1.00  0.00     0.010 A 
ATOM      5  C   UNL     1      97.740  82.385  81.042  1.00  0.00     0.001 A 
ATOM      6  C   UNL     1      98.447  83.469  80.526  1.00  0.00     0.001 A 
ENDROOT
BRANCH   1   7
ATOM      7  C   UNL     1      94.166  83.308  80.273  1.00  0.00     0.072 C 
ATOM      8  O   UNL     1      93.663  82.960  79.173  1.00  0.00    -0.545 OA
ATOM      9  O   UNL     1      93.323  83.631  81.329  1.00  0.00    -0.545 OA
ENDBRANCH   1   7
BRANCH   2  10
ATOM     10  C   UNL     1      95.682  85.791  79.437  1.00  0.00     0.072 C 
ATOM     11  O   UNL     1      95.545  86.786  80.198  1.00  0.00    -0.545 OA
ATOM     12  O   UNL     1      95.140  85.839  78.159  1.00  0.00    -0.545 OA
ENDBRANCH   2  10
TORSDOF 2
ENDMDL
MODEL 9
REMARK VINA RESULT:    -4.644      1.652      3.189
REMARK INTER + INTRA:          -5.390
REMARK INTER:                  -5.250
REMARK INTRA:                  -0.141
REMARK UNBOUND:                -0.203
REMARK SMILES O=C([O-])c1ccccc1C(=O)[O-]
REMARK SMILES IDX 4 1 9 2 5 3 8 4 6 5 7 6 2 7 1 8 3 9 10 10 11 11 12 12
REMARK H PARENT
REMARK Flexibility Score: inf
ROOT
ATOM      1  C   UNL     1      88.817  75.340  70.939  1.00  0.00     0.006 A 
ATOM      2  C   UNL     1      88.903  74.593  72.146  1.00  0.00     0.006 A 
ATOM      3  C   UNL     1      89.737  75.083  69.906  1.00  0.00     0.010 A 
ATOM      4  C   UNL     1      89.947  73.661  72.300  1.00  0.00     0.010 A 
ATOM      5  C   UNL     1      90.750  74.138  70.072  1.00  0.00     0.001 A 
ATOM      6  C   UNL     1      90.862  73.437  71.270  1.00  0.00     0.001 A 
ENDROOT
BRANCH   1   7
ATOM      7  C   UNL     1      87.839  76.437  70.748  1.00  0.00     0.072 C 
ATOM      8  O   UNL     1      86.929  76.332  69.884  1.00  0.00    -0.545 OA
ATOM      9  O   UNL     1      87.952  77.620  71.469  1.00  0.00    -0.545 OA
ENDBRANCH   1   7
BRANCH   2  10
ATOM     10  C   UNL     1      87.895  74.699  73.226  1.00  0.00     0.072 C 
ATOM     11  O   UNL     1      87.987  75.610  74.092  1.00  0.00    -0.545 OA
ATOM     12  O   UNL     1      86.876  73.762  73.338  1.00  0.00    -0.545 OA
ENDBRANCH   2  10
TORSDOF 2
ENDMDL
