MODEL 1
REMARK VINA RESULT:    -4.816      0.000      0.000
REMARK INTER + INTRA:          -4.816
REMARK INTER:                  -4.816
REMARK INTRA:                   0.000
REMARK UNBOUND:                 0.000
REMARK SMILES CC1=CC(=O)[C@@H]2C[C@H]1C2(C)C
REMARK SMILES IDX 1 1 2 2 3 3 4 4 5 5 6 6 7 7 8 8 9 9 10 10 11 11
REMARK H PARENT
REMARK Flexibility Score: inf
ROOT
ATOM      1  C   UNL     1     -12.122  -0.548 -10.167  1.00  0.00     0.040 C 
ATOM      2  C   UNL     1     -12.615   0.057 -11.444  1.00  0.00    -0.066 C 
ATOM      3  C   UNL     1     -12.784  -0.697 -12.566  1.00  0.00     0.047 C 
ATOM      4  C   UNL     1     -13.313   0.020 -13.772  1.00  0.00     0.159 C 
ATOM      5  O   UNL     1     -13.547  -0.574 -14.856  1.00  0.00    -0.295 OA
ATOM      6  C   UNL     1     -13.546   1.520 -13.592  1.00  0.00     0.067 C 
ATOM      7  C   UNL     1     -12.271   2.018 -12.877  1.00  0.00     0.021 C 
ATOM      8  C   UNL     1     -12.937   1.561 -11.559  1.00  0.00     0.022 C 
ATOM      9  C   UNL     1     -14.315   1.744 -12.259  1.00  0.00    -0.019 C 
ATOM     10  C   UNL     1     -15.461   0.759 -11.892  1.00  0.00     0.012 C 
ATOM     11  C   UNL     1     -14.857   3.190 -12.127  1.00  0.00     0.012 C 
ENDROOT
TORSDOF 0
ENDMDL
MODEL 2
REMARK VINA RESULT:    -4.129     16.761     18.264
REMARK INTER + INTRA:          -4.129
REMARK INTER:                  -4.129
REMARK INTRA:                   0.000
REMARK UNBOUND:                 0.000
REMARK SMILES CC1=CC(=O)[C@@H]2C[C@H]1C2(C)C
REMARK SMILES IDX 1 1 2 2 3 3 4 4 5 5 6 6 7 7 8 8 9 9 10 10 11 11
REMARK H PARENT
REMARK Flexibility Score: inf
ROOT
ATOM      1  C   UNL     1     -13.327  16.712 -24.540  1.00  0.00     0.040 C 
ATOM      2  C   UNL     1     -12.436  16.232 -23.439  1.00  0.00    -0.066 C 
ATOM      3  C   UNL     1     -12.904  16.061 -22.172  1.00  0.00     0.047 C 
ATOM      4  C   UNL     1     -11.920  15.545 -21.166  1.00  0.00     0.159 C 
ATOM      5  O   UNL     1     -12.241  15.309 -19.972  1.00  0.00    -0.295 OA
ATOM      6  C   UNL     1     -10.501  15.327 -21.691  1.00  0.00     0.067 C 
ATOM      7  C   UNL     1     -10.198  16.603 -22.506  1.00  0.00     0.021 C 
ATOM      8  C   UNL     1     -10.942  15.926 -23.679  1.00  0.00     0.022 C 
ATOM      9  C   UNL     1     -10.586  14.553 -23.038  1.00  0.00    -0.019 C 
ATOM     10  C   UNL     1     -11.615  13.395 -23.161  1.00  0.00     0.012 C 
ATOM     11  C   UNL     1      -9.204  14.027 -23.502  1.00  0.00     0.012 C 
ENDROOT
TORSDOF 0
ENDMDL
MODEL 3
REMARK VINA RESULT:    -4.067     16.857     18.332
REMARK INTER + INTRA:          -4.067
REMARK INTER:                  -4.067
REMARK INTRA:                   0.000
REMARK UNBOUND:                 0.000
REMARK SMILES CC1=CC(=O)[C@@H]2C[C@H]1C2(C)C
REMARK SMILES IDX 1 1 2 2 3 3 4 4 5 5 6 6 7 7 8 8 9 9 10 10 11 11
REMARK H PARENT
REMARK Flexibility Score: inf
ROOT
ATOM      1  C   UNL     1     -10.721  18.007 -20.580  1.00  0.00     0.040 C 
ATOM      2  C   UNL     1     -11.407  16.892 -21.303  1.00  0.00    -0.066 C 
ATOM      3  C   UNL     1     -11.990  15.862 -20.629  1.00  0.00     0.047 C 
ATOM      4  C   UNL     1     -12.672  14.823 -21.467  1.00  0.00     0.159 C 
ATOM      5  O   UNL     1     -13.279  13.844 -20.960  1.00  0.00    -0.295 OA
ATOM      6  C   UNL     1     -12.579  15.036 -22.978  1.00  0.00     0.067 C 
ATOM      7  C   UNL     1     -11.096  15.393 -23.219  1.00  0.00     0.021 C 
ATOM      8  C   UNL     1     -11.473  16.844 -22.844  1.00  0.00     0.022 C 
ATOM      9  C   UNL     1     -12.929  16.519 -23.290  1.00  0.00    -0.019 C 
ATOM     10  C   UNL     1     -14.100  17.183 -22.512  1.00  0.00     0.012 C 
ATOM     11  C   UNL     1     -13.151  16.766 -24.804  1.00  0.00     0.012 C 
ENDROOT
TORSDOF 0
ENDMDL
MODEL 4
REMARK VINA RESULT:    -3.995     16.966     18.354
REMARK INTER + INTRA:          -3.995
REMARK INTER:                  -3.995
REMARK INTRA:                   0.000
REMARK UNBOUND:                 0.000
REMARK SMILES CC1=CC(=O)[C@@H]2C[C@H]1C2(C)C
REMARK SMILES IDX 1 1 2 2 3 3 4 4 5 5 6 6 7 7 8 8 9 9 10 10 11 11
REMARK H PARENT
REMARK Flexibility Score: inf
ROOT
ATOM      1  C   UNL     1     -11.811  12.890 -22.992  1.00  0.00     0.040 C 
ATOM      2  C   UNL     1     -11.646  14.342 -22.669  1.00  0.00    -0.066 C 
ATOM      3  C   UNL     1     -10.451  14.974 -22.837  1.00  0.00     0.047 C 
ATOM      4  C   UNL     1     -10.423  16.436 -22.508  1.00  0.00     0.159 C 
ATOM      5  O   UNL     1      -9.389  17.138 -22.657  1.00  0.00    -0.295 OA
ATOM      6  C   UNL     1     -11.736  17.013 -21.978  1.00  0.00     0.067 C 
ATOM      7  C   UNL     1     -12.209  15.980 -20.933  1.00  0.00     0.021 C 
ATOM      8  C   UNL     1     -12.811  15.188 -22.115  1.00  0.00     0.022 C 
ATOM      9  C   UNL     1     -12.894  16.531 -22.898  1.00  0.00    -0.019 C 
ATOM     10  C   UNL     1     -12.655  16.502 -24.434  1.00  0.00     0.012 C 
ATOM     11  C   UNL     1     -14.217  17.291 -22.626  1.00  0.00     0.012 C 
ENDROOT
TORSDOF 0
ENDMDL
MODEL 5
REMARK VINA RESULT:    -3.912     19.742     21.352
REMARK INTER + INTRA:          -3.912
REMARK INTER:                  -3.912
REMARK INTRA:                   0.000
REMARK UNBOUND:                 0.000
REMARK SMILES CC1=CC(=O)[C@@H]2C[C@H]1C2(C)C
REMARK SMILES IDX 1 1 2 2 3 3 4 4 5 5 6 6 7 7 8 8 9 9 10 10 11 11
REMARK H PARENT
REMARK Flexibility Score: inf
ROOT
ATOM      1  C   UNL     1       3.125  16.437 -20.252  1.00  0.00     0.040 C 
ATOM      2  C   UNL     1       1.984  15.730 -19.591  1.00  0.00    -0.066 C 
ATOM      3  C   UNL     1       0.752  16.303 -19.500  1.00  0.00     0.047 C 
ATOM      4  C   UNL     1      -0.315  15.481 -18.843  1.00  0.00     0.159 C 
ATOM      5  O   UNL     1      -1.502  15.885 -18.732  1.00  0.00    -0.295 OA
ATOM      6  C   UNL     1       0.139  14.119 -18.318  1.00  0.00     0.067 C 
ATOM      7  C   UNL     1       1.464  14.419 -17.585  1.00  0.00     0.021 C 
ATOM      8  C   UNL     1       2.149  14.328 -18.967  1.00  0.00     0.022 C 
ATOM      9  C   UNL     1       0.974  13.415 -19.425  1.00  0.00    -0.019 C 
ATOM     10  C   UNL     1       0.490  13.525 -20.899  1.00  0.00     0.012 C 
ATOM     11  C   UNL     1       1.231  11.920 -19.109  1.00  0.00     0.012 C 
ENDROOT
TORSDOF 0
ENDMDL
MODEL 6
REMARK VINA RESULT:    -3.858     17.488     18.894
REMARK INTER + INTRA:          -3.858
REMARK INTER:                  -3.858
REMARK INTRA:                   0.000
REMARK UNBOUND:                 0.000
REMARK SMILES CC1=CC(=O)[C@@H]2C[C@H]1C2(C)C
REMARK SMILES IDX 1 1 2 2 3 3 4 4 5 5 6 6 7 7 8 8 9 9 10 10 11 11
REMARK H PARENT
REMARK Flexibility Score: inf
ROOT
ATOM      1  C   UNL     1      -6.095   9.593 -25.493  1.00  0.00     0.040 C 
ATOM      2  C   UNL     1      -5.190  10.736 -25.159  1.00  0.00    -0.066 C 
ATOM      3  C   UNL     1      -5.657  12.013 -25.087  1.00  0.00     0.047 C 
ATOM      4  C   UNL     1      -4.657  13.065 -24.713  1.00  0.00     0.159 C 
ATOM      5  O   UNL     1      -4.974  14.275 -24.577  1.00  0.00    -0.295 OA
ATOM      6  C   UNL     1      -3.226  12.565 -24.510  1.00  0.00     0.067 C 
ATOM      7  C   UNL     1      -2.976  11.634 -25.716  1.00  0.00     0.021 C 
ATOM      8  C   UNL     1      -3.683  10.528 -24.899  1.00  0.00     0.022 C 
ATOM      9  C   UNL     1      -3.269  11.297 -23.610  1.00  0.00    -0.019 C 
ATOM     10  C   UNL     1      -4.246  11.282 -22.401  1.00  0.00     0.012 C 
ATOM     11  C   UNL     1      -1.863  10.886 -23.104  1.00  0.00     0.012 C 
ENDROOT
TORSDOF 0
ENDMDL
MODEL 7
REMARK VINA RESULT:    -3.835     11.746     13.147
REMARK INTER + INTRA:          -3.835
REMARK INTER:                  -3.835
REMARK INTRA:                   0.000
REMARK UNBOUND:                 0.000
REMARK SMILES CC1=CC(=O)[C@@H]2C[C@H]1C2(C)C
REMARK SMILES IDX 1 1 2 2 3 3 4 4 5 5 6 6 7 7 8 8 9 9 10 10 11 11
REMARK H PARENT
REMARK Flexibility Score: inf
ROOT
ATOM      1  C   UNL     1     -11.219  11.521 -11.743  1.00  0.00     0.040 C 
ATOM      2  C   UNL     1     -10.096  11.889 -10.825  1.00  0.00    -0.066 C 
ATOM      3  C   UNL     1      -9.104  11.005 -10.529  1.00  0.00     0.047 C 
ATOM      4  C   UNL     1      -8.020  11.504  -9.622  1.00  0.00     0.159 C 
ATOM      5  O   UNL     1      -7.030  10.795  -9.305  1.00  0.00    -0.295 OA
ATOM      6  C   UNL     1      -8.203  12.933  -9.109  1.00  0.00     0.067 C 
ATOM      7  C   UNL     1      -9.683  12.992  -8.674  1.00  0.00     0.021 C 
ATOM      8  C   UNL     1     -10.017  13.277 -10.156  1.00  0.00     0.022 C 
ATOM      9  C   UNL     1      -8.576  13.846 -10.311  1.00  0.00    -0.019 C 
ATOM     10  C   UNL     1      -7.842  13.625 -11.664  1.00  0.00     0.012 C 
ATOM     11  C   UNL     1      -8.495  15.352  -9.955  1.00  0.00     0.012 C 
ENDROOT
TORSDOF 0
ENDMDL
MODEL 8
REMARK VINA RESULT:    -3.792      8.738      9.787
REMARK INTER + INTRA:          -3.792
REMARK INTER:                  -3.792
REMARK INTRA:                   0.000
REMARK UNBOUND:                 0.000
REMARK SMILES CC1=CC(=O)[C@@H]2C[C@H]1C2(C)C
REMARK SMILES IDX 1 1 2 2 3 3 4 4 5 5 6 6 7 7 8 8 9 9 10 10 11 11
REMARK H PARENT
REMARK Flexibility Score: inf
ROOT
ATOM      1  C   UNL     1      -6.729   6.691 -11.194  1.00  0.00     0.040 C 
ATOM      2  C   UNL     1      -7.706   7.811 -11.017  1.00  0.00    -0.066 C 
ATOM      3  C   UNL     1      -7.317   9.019 -10.524  1.00  0.00     0.047 C 
ATOM      4  C   UNL     1      -8.383  10.068 -10.424  1.00  0.00     0.159 C 
ATOM      5  O   UNL     1      -8.141  11.235 -10.019  1.00  0.00    -0.295 OA
ATOM      6  C   UNL     1      -9.782   9.621 -10.847  1.00  0.00     0.067 C 
ATOM      7  C   UNL     1      -9.963   8.248 -10.165  1.00  0.00     0.021 C 
ATOM      8  C   UNL     1      -9.200   7.647 -11.367  1.00  0.00     0.022 C 
ATOM      9  C   UNL     1      -9.672   8.871 -12.205  1.00  0.00    -0.019 C 
ATOM     10  C   UNL     1      -8.709   9.437 -13.286  1.00  0.00     0.012 C 
ATOM     11  C   UNL     1     -11.056   8.637 -12.862  1.00  0.00     0.012 C 
ENDROOT
TORSDOF 0
ENDMDL
MODEL 9
REMARK VINA RESULT:    -3.747      2.008      3.110
REMARK INTER + INTRA:          -3.747
REMARK INTER:                  -3.747
REMARK INTRA:                   0.000
REMARK UNBOUND:                 0.000
REMARK SMILES CC1=CC(=O)[C@@H]2C[C@H]1C2(C)C
REMARK SMILES IDX 1 1 2 2 3 3 4 4 5 5 6 6 7 7 8 8 9 9 10 10 11 11
REMARK H PARENT
REMARK Flexibility Score: inf
ROOT
ATOM      1  C   UNL     1     -11.151  -0.470 -14.592  1.00  0.00     0.040 C 
ATOM      2  C   UNL     1     -11.951  -0.418 -13.329  1.00  0.00    -0.066 C 
ATOM      3  C   UNL     1     -11.386  -0.694 -12.121  1.00  0.00     0.047 C 
ATOM      4  C   UNL     1     -12.286  -0.578 -10.927  1.00  0.00     0.159 C 
ATOM      5  O   UNL     1     -11.873  -0.770  -9.754  1.00  0.00    -0.295 OA
ATOM      6  C   UNL     1     -13.737  -0.210 -11.235  1.00  0.00     0.067 C 
ATOM      7  C   UNL     1     -14.116  -1.124 -12.420  1.00  0.00     0.021 C 
ATOM      8  C   UNL     1     -13.454  -0.069 -13.335  1.00  0.00     0.022 C 
ATOM      9  C   UNL     1     -13.744   0.987 -12.229  1.00  0.00    -0.019 C 
ATOM     10  C   UNL     1     -12.711   2.130 -12.016  1.00  0.00     0.012 C 
ATOM     11  C   UNL     1     -15.149   1.623 -12.375  1.00  0.00     0.012 C 
ENDROOT
TORSDOF 0
ENDMDL
