MODEL 1
REMARK VINA RESULT:    -3.428      0.000      0.000
REMARK INTER + INTRA:          -5.054
REMARK INTER:                  -4.731
REMARK INTRA:                  -0.323
REMARK UNBOUND:                -0.323
REMARK SMILES CCCCCCCCO
REMARK SMILES IDX 5 1 4 2 3 3 2 4 1 5 6 6 7 7 8 8 9 9
REMARK H PARENT 9 10
REMARK Flexibility Score: inf
ROOT
ATOM      1  C   UNL     1     177.918 175.104 170.147  1.00  0.00     0.000 C 
ENDROOT
BRANCH   1   2
ATOM      2  C   UNL     1     177.727 176.624 170.346  1.00  0.00    -0.000 C 
BRANCH   2   3
ATOM      3  C   UNL     1     176.305 177.117 170.018  1.00  0.00    -0.000 C 
BRANCH   3   4
ATOM      4  C   UNL     1     175.679 178.031 171.084  1.00  0.00    -0.003 C 
ATOM      5  C   UNL     1     176.654 178.387 172.207  1.00  0.00     0.004 C 
ENDBRANCH   3   4
ENDBRANCH   2   3
ENDBRANCH   1   2
BRANCH   1   6
ATOM      6  C   UNL     1     176.580 174.362 170.008  1.00  0.00     0.002 C 
BRANCH   6   7
ATOM      7  C   UNL     1     176.504 173.608 168.673  1.00  0.00     0.028 C 
BRANCH   7   8
ATOM      8  C   UNL     1     175.418 174.179 167.760  1.00  0.00     0.156 C 
BRANCH   8   9
ATOM      9  O   UNL     1     174.399 173.237 167.576  1.00  0.00    -0.396 OA
ATOM     10  H   UNL     1     174.431 172.981 166.618  1.00  0.00     0.210 HD
ENDBRANCH   8   9
ENDBRANCH   7   8
ENDBRANCH   6   7
ENDBRANCH   1   6
TORSDOF 7
ENDMDL
MODEL 2
REMARK VINA RESULT:    -3.412     12.015     13.055
REMARK INTER + INTRA:          -5.033
REMARK INTER:                  -4.753
REMARK INTRA:                  -0.279
REMARK UNBOUND:                -0.323
REMARK SMILES CCCCCCCCO
REMARK SMILES IDX 5 1 4 2 3 3 2 4 1 5 6 6 7 7 8 8 9 9
REMARK H PARENT 9 10
REMARK Flexibility Score: inf
ROOT
ATOM      1  C   UNL     1     164.225 179.503 167.283  1.00  0.00     0.000 C 
ENDROOT
BRANCH   1   2
ATOM      2  C   UNL     1     162.964 179.015 168.030  1.00  0.00    -0.000 C 
BRANCH   2   3
ATOM      3  C   UNL     1     163.273 178.137 169.257  1.00  0.00    -0.000 C 
BRANCH   3   4
ATOM      4  C   UNL     1     162.035 177.660 170.035  1.00  0.00    -0.003 C 
ATOM      5  C   UNL     1     160.744 177.773 169.224  1.00  0.00     0.004 C 
ENDBRANCH   3   4
ENDBRANCH   2   3
ENDBRANCH   1   2
BRANCH   1   6
ATOM      6  C   UNL     1     165.430 178.576 167.507  1.00  0.00     0.002 C 
BRANCH   6   7
ATOM      7  C   UNL     1     165.613 177.616 166.324  1.00  0.00     0.028 C 
BRANCH   7   8
ATOM      8  C   UNL     1     165.203 176.188 166.684  1.00  0.00     0.156 C 
BRANCH   8   9
ATOM      9  O   UNL     1     166.323 175.348 166.677  1.00  0.00    -0.396 OA
ATOM     10  H   UNL     1     166.445 175.045 167.614  1.00  0.00     0.210 HD
ENDBRANCH   8   9
ENDBRANCH   7   8
ENDBRANCH   6   7
ENDBRANCH   1   6
TORSDOF 7
ENDMDL
MODEL 3
REMARK VINA RESULT:    -3.400      2.117      4.422
REMARK INTER + INTRA:          -5.015
REMARK INTER:                  -4.610
REMARK INTRA:                  -0.405
REMARK UNBOUND:                -0.323
REMARK SMILES CCCCCCCCO
REMARK SMILES IDX 5 1 4 2 3 3 2 4 1 5 6 6 7 7 8 8 9 9
REMARK H PARENT 9 10
REMARK Flexibility Score: inf
ROOT
ATOM      1  C   UNL     1     178.059 175.090 170.379  1.00  0.00     0.000 C 
ENDROOT
BRANCH   1   2
ATOM      2  C   UNL     1     177.085 173.960 169.979  1.00  0.00    -0.000 C 
BRANCH   2   3
ATOM      3  C   UNL     1     177.338 173.396 168.568  1.00  0.00    -0.000 C 
BRANCH   3   4
ATOM      4  C   UNL     1     176.467 174.013 167.462  1.00  0.00    -0.003 C 
ATOM      5  C   UNL     1     174.971 173.922 167.765  1.00  0.00     0.004 C 
ENDBRANCH   3   4
ENDBRANCH   2   3
ENDBRANCH   1   2
BRANCH   1   6
ATOM      6  C   UNL     1     177.479 176.485 170.100  1.00  0.00     0.002 C 
BRANCH   6   7
ATOM      7  C   UNL     1     176.022 176.580 170.573  1.00  0.00     0.028 C 
BRANCH   7   8
ATOM      8  C   UNL     1     175.669 177.992 171.042  1.00  0.00     0.156 C 
BRANCH   8   9
ATOM      9  O   UNL     1     174.829 178.614 170.109  1.00  0.00    -0.396 OA
ATOM     10  H   UNL     1     175.059 178.221 169.228  1.00  0.00     0.210 HD
ENDBRANCH   8   9
ENDBRANCH   7   8
ENDBRANCH   6   7
ENDBRANCH   1   6
TORSDOF 7
ENDMDL
MODEL 4
REMARK VINA RESULT:    -3.386      2.968      5.271
REMARK INTER + INTRA:          -4.996
REMARK INTER:                  -4.770
REMARK INTRA:                  -0.225
REMARK UNBOUND:                -0.323
REMARK SMILES CCCCCCCCO
REMARK SMILES IDX 5 1 4 2 3 3 2 4 1 5 6 6 7 7 8 8 9 9
REMARK H PARENT 9 10
REMARK Flexibility Score: inf
ROOT
ATOM      1  C   UNL     1     176.512 176.719 170.230  1.00  0.00     0.000 C 
ENDROOT
BRANCH   1   2
ATOM      2  C   UNL     1     175.894 175.304 170.235  1.00  0.00    -0.000 C 
BRANCH   2   3
ATOM      3  C   UNL     1     176.867 174.203 169.774  1.00  0.00    -0.000 C 
BRANCH   3   4
ATOM      4  C   UNL     1     176.488 173.524 168.447  1.00  0.00    -0.003 C 
ATOM      5  C   UNL     1     175.123 173.969 167.921  1.00  0.00     0.004 C 
ENDBRANCH   3   4
ENDBRANCH   2   3
ENDBRANCH   1   2
BRANCH   1   6
ATOM      6  C   UNL     1     175.593 177.759 170.889  1.00  0.00     0.002 C 
BRANCH   6   7
ATOM      7  C   UNL     1     176.297 178.448 172.067  1.00  0.00     0.028 C 
BRANCH   7   8
ATOM      8  C   UNL     1     177.803 178.187 172.058  1.00  0.00     0.156 C 
BRANCH   8   9
ATOM      9  O   UNL     1     178.503 179.400 172.050  1.00  0.00    -0.396 OA
ATOM     10  H   UNL     1     178.335 179.820 172.933  1.00  0.00     0.210 HD
ENDBRANCH   8   9
ENDBRANCH   7   8
ENDBRANCH   6   7
ENDBRANCH   1   6
TORSDOF 7
ENDMDL
MODEL 5
REMARK VINA RESULT:    -3.378     19.007     20.473
REMARK INTER + INTRA:          -4.986
REMARK INTER:                  -4.731
REMARK INTRA:                  -0.255
REMARK UNBOUND:                -0.323
REMARK SMILES CCCCCCCCO
REMARK SMILES IDX 5 1 4 2 3 3 2 4 1 5 6 6 7 7 8 8 9 9
REMARK H PARENT 9 10
REMARK Flexibility Score: inf
ROOT
ATOM      1  C   UNL     1     160.085 163.799 167.345  1.00  0.00     0.000 C 
ENDROOT
BRANCH   1   2
ATOM      2  C   UNL     1     160.761 162.535 166.771  1.00  0.00    -0.000 C 
BRANCH   2   3
ATOM      3  C   UNL     1     160.897 161.389 167.791  1.00  0.00    -0.000 C 
BRANCH   3   4
ATOM      4  C   UNL     1     161.026 161.842 169.255  1.00  0.00    -0.003 C 
ATOM      5  C   UNL     1     159.934 161.263 170.155  1.00  0.00     0.004 C 
ENDBRANCH   3   4
ENDBRANCH   2   3
ENDBRANCH   1   2
BRANCH   1   6
ATOM      6  C   UNL     1     160.712 165.092 166.803  1.00  0.00     0.002 C 
BRANCH   6   7
ATOM      7  C   UNL     1     160.203 166.317 167.576  1.00  0.00     0.028 C 
BRANCH   7   8
ATOM      8  C   UNL     1     159.173 165.929 168.638  1.00  0.00     0.156 C 
BRANCH   8   9
ATOM      9  O   UNL     1     159.634 166.287 169.910  1.00  0.00    -0.396 OA
ATOM     10  H   UNL     1     158.843 166.254 170.509  1.00  0.00     0.210 HD
ENDBRANCH   8   9
ENDBRANCH   7   8
ENDBRANCH   6   7
ENDBRANCH   1   6
TORSDOF 7
ENDMDL
MODEL 6
REMARK VINA RESULT:    -3.312     13.773     14.726
REMARK INTER + INTRA:          -4.894
REMARK INTER:                  -4.615
REMARK INTRA:                  -0.279
REMARK UNBOUND:                -0.323
REMARK SMILES CCCCCCCCO
REMARK SMILES IDX 5 1 4 2 3 3 2 4 1 5 6 6 7 7 8 8 9 9
REMARK H PARENT 9 10
REMARK Flexibility Score: inf
ROOT
ATOM      1  C   UNL     1     172.565 162.162 167.864  1.00  0.00     0.000 C 
ENDROOT
BRANCH   1   2
ATOM      2  C   UNL     1     172.018 162.520 166.465  1.00  0.00    -0.000 C 
BRANCH   2   3
ATOM      3  C   UNL     1     172.305 161.449 165.396  1.00  0.00    -0.000 C 
BRANCH   3   4
ATOM      4  C   UNL     1     173.130 161.943 164.196  1.00  0.00    -0.003 C 
ATOM      5  C   UNL     1     173.472 163.430 164.282  1.00  0.00     0.004 C 
ENDBRANCH   3   4
ENDBRANCH   2   3
ENDBRANCH   1   2
BRANCH   1   6
ATOM      6  C   UNL     1     174.099 162.216 167.921  1.00  0.00     0.002 C 
BRANCH   6   7
ATOM      7  C   UNL     1     174.593 162.315 169.371  1.00  0.00     0.028 C 
BRANCH   7   8
ATOM      8  C   UNL     1     175.925 161.590 169.568  1.00  0.00     0.156 C 
BRANCH   8   9
ATOM      9  O   UNL     1     176.044 161.152 170.892  1.00  0.00    -0.396 OA
ATOM     10  H   UNL     1     176.175 160.169 170.846  1.00  0.00     0.210 HD
ENDBRANCH   8   9
ENDBRANCH   7   8
ENDBRANCH   6   7
ENDBRANCH   1   6
TORSDOF 7
ENDMDL
MODEL 7
REMARK VINA RESULT:    -3.301     12.777     13.734
REMARK INTER + INTRA:          -4.879
REMARK INTER:                  -4.579
REMARK INTRA:                  -0.300
REMARK UNBOUND:                -0.323
REMARK SMILES CCCCCCCCO
REMARK SMILES IDX 5 1 4 2 3 3 2 4 1 5 6 6 7 7 8 8 9 9
REMARK H PARENT 9 10
REMARK Flexibility Score: inf
ROOT
ATOM      1  C   UNL     1     174.379 162.171 169.311  1.00  0.00     0.000 C 
ENDROOT
BRANCH   1   2
ATOM      2  C   UNL     1     175.799 161.756 169.756  1.00  0.00    -0.000 C 
BRANCH   2   3
ATOM      3  C   UNL     1     176.637 161.116 168.633  1.00  0.00    -0.000 C 
BRANCH   3   4
ATOM      4  C   UNL     1     178.099 161.587 168.575  1.00  0.00    -0.003 C 
ATOM      5  C   UNL     1     178.232 163.109 168.534  1.00  0.00     0.004 C 
ENDBRANCH   3   4
ENDBRANCH   2   3
ENDBRANCH   1   2
BRANCH   1   6
ATOM      6  C   UNL     1     174.270 162.330 167.787  1.00  0.00     0.002 C 
BRANCH   6   7
ATOM      7  C   UNL     1     172.801 162.360 167.341  1.00  0.00     0.028 C 
BRANCH   7   8
ATOM      8  C   UNL     1     172.432 163.698 166.698  1.00  0.00     0.156 C 
BRANCH   8   9
ATOM      9  O   UNL     1     173.518 164.200 165.971  1.00  0.00    -0.396 OA
ATOM     10  H   UNL     1     174.093 163.418 165.761  1.00  0.00     0.210 HD
ENDBRANCH   8   9
ENDBRANCH   7   8
ENDBRANCH   6   7
ENDBRANCH   1   6
TORSDOF 7
ENDMDL
MODEL 8
REMARK VINA RESULT:    -3.280     13.444     14.029
REMARK INTER + INTRA:          -4.850
REMARK INTER:                  -4.361
REMARK INTRA:                  -0.489
REMARK UNBOUND:                -0.323
REMARK SMILES CCCCCCCCO
REMARK SMILES IDX 5 1 4 2 3 3 2 4 1 5 6 6 7 7 8 8 9 9
REMARK H PARENT 9 10
REMARK Flexibility Score: inf
ROOT
ATOM      1  C   UNL     1     174.215 162.470 169.216  1.00  0.00     0.000 C 
ENDROOT
BRANCH   1   2
ATOM      2  C   UNL     1     172.988 161.587 168.901  1.00  0.00    -0.000 C 
BRANCH   2   3
ATOM      3  C   UNL     1     172.316 161.919 167.556  1.00  0.00    -0.000 C 
BRANCH   3   4
ATOM      4  C   UNL     1     172.593 163.337 167.031  1.00  0.00    -0.003 C 
ATOM      5  C   UNL     1     173.157 163.345 165.610  1.00  0.00     0.004 C 
ENDBRANCH   3   4
ENDBRANCH   2   3
ENDBRANCH   1   2
BRANCH   1   6
ATOM      6  C   UNL     1     175.528 161.674 169.188  1.00  0.00     0.002 C 
BRANCH   6   7
ATOM      7  C   UNL     1     176.654 162.491 168.538  1.00  0.00     0.028 C 
BRANCH   7   8
ATOM      8  C   UNL     1     176.512 162.541 167.016  1.00  0.00     0.156 C 
BRANCH   8   9
ATOM      9  O   UNL     1     176.050 161.310 166.534  1.00  0.00    -0.396 OA
ATOM     10  H   UNL     1     176.859 160.791 166.288  1.00  0.00     0.210 HD
ENDBRANCH   8   9
ENDBRANCH   7   8
ENDBRANCH   6   7
ENDBRANCH   1   6
TORSDOF 7
ENDMDL
MODEL 9
REMARK VINA RESULT:    -3.215     11.028     11.915
REMARK INTER + INTRA:          -4.760
REMARK INTER:                  -4.426
REMARK INTRA:                  -0.334
REMARK UNBOUND:                -0.323
REMARK SMILES CCCCCCCCO
REMARK SMILES IDX 5 1 4 2 3 3 2 4 1 5 6 6 7 7 8 8 9 9
REMARK H PARENT 9 10
REMARK Flexibility Score: inf
ROOT
ATOM      1  C   UNL     1     165.554 178.952 165.918  1.00  0.00     0.000 C 
ENDROOT
BRANCH   1   2
ATOM      2  C   UNL     1     165.717 178.698 167.433  1.00  0.00    -0.000 C 
BRANCH   2   3
ATOM      3  C   UNL     1     164.675 177.723 168.012  1.00  0.00    -0.000 C 
BRANCH   3   4
ATOM      4  C   UNL     1     163.410 178.391 168.573  1.00  0.00    -0.003 C 
ATOM      5  C   UNL     1     163.103 177.971 170.010  1.00  0.00     0.004 C 
ENDBRANCH   3   4
ENDBRANCH   2   3
ENDBRANCH   1   2
BRANCH   1   6
ATOM      6  C   UNL     1     165.155 177.681 165.154  1.00  0.00     0.002 C 
BRANCH   6   7
ATOM      7  C   UNL     1     166.393 176.942 164.630  1.00  0.00     0.028 C 
BRANCH   7   8
ATOM      8  C   UNL     1     166.409 175.478 165.071  1.00  0.00     0.156 C 
BRANCH   8   9
ATOM      9  O   UNL     1     166.720 175.389 166.434  1.00  0.00    -0.396 OA
ATOM     10  H   UNL     1     165.936 174.961 166.867  1.00  0.00     0.210 HD
ENDBRANCH   8   9
ENDBRANCH   7   8
ENDBRANCH   6   7
ENDBRANCH   1   6
TORSDOF 7
ENDMDL
