MODEL 1
REMARK VINA RESULT:    -4.994      0.000      0.000
REMARK INTER + INTRA:          -9.020
REMARK INTER:                  -8.498
REMARK INTRA:                  -0.522
REMARK UNBOUND:                -0.522
REMARK SMILES CCCCCCCCCCCCCC(=O)[O-]
REMARK SMILES IDX 8 1 9 2 10 3 11 4 12 5 13 6 14 7 15 8 16 9 7 10 6 11 5 12
REMARK SMILES IDX 4 13 3 14 2 15 1 16
REMARK H PARENT
REMARK Flexibility Score: inf
ROOT
ATOM      1  C   UNL     1      -4.265   7.821   4.960  1.00  0.00     0.000 C 
ENDROOT
BRANCH   1   2
ATOM      2  C   UNL     1      -4.206   7.773   6.492  1.00  0.00     0.000 C 
BRANCH   2   3
ATOM      3  C   UNL     1      -5.402   6.999   7.068  1.00  0.00     0.000 C 
BRANCH   3   4
ATOM      4  C   UNL     1      -5.785   7.485   8.481  1.00  0.00     0.000 C 
BRANCH   4   5
ATOM      5  C   UNL     1      -7.205   7.076   8.909  1.00  0.00     0.006 C 
BRANCH   5   6
ATOM      6  C   UNL     1      -7.793   5.960   8.038  1.00  0.00     0.053 C 
BRANCH   6   7
ATOM      7  C   UNL     1      -7.899   4.689   8.819  1.00  0.00     0.041 C 
ATOM      8  O   UNL     1      -6.886   4.215   9.399  1.00  0.00    -0.550 OA
ATOM      9  O   UNL     1      -9.104   4.001   8.868  1.00  0.00    -0.550 OA
ENDBRANCH   6   7
ENDBRANCH   5   6
ENDBRANCH   4   5
ENDBRANCH   3   4
ENDBRANCH   2   3
ENDBRANCH   1   2
BRANCH   1  10
ATOM     10  C   UNL     1      -3.305   6.796   4.341  1.00  0.00     0.000 C 
BRANCH  10  11
ATOM     11  C   UNL     1      -3.472   5.390   4.937  1.00  0.00    -0.000 C 
BRANCH  11  12
ATOM     12  C   UNL     1      -2.130   4.656   5.111  1.00  0.00    -0.000 C 
BRANCH  12  13
ATOM     13  C   UNL     1      -2.304   3.273   5.776  1.00  0.00    -0.000 C 
BRANCH  13  14
ATOM     14  C   UNL     1      -2.176   3.304   7.311  1.00  0.00    -0.000 C 
BRANCH  14  15
ATOM     15  C   UNL     1      -1.056   2.417   7.878  1.00  0.00    -0.003 C 
ATOM     16  C   UNL     1      -1.009   2.423   9.406  1.00  0.00     0.004 C 
ENDBRANCH  14  15
ENDBRANCH  13  14
ENDBRANCH  12  13
ENDBRANCH  11  12
ENDBRANCH  10  11
ENDBRANCH   1  10
TORSDOF 12
ENDMDL
MODEL 2
REMARK VINA RESULT:    -4.745      1.238      2.625
REMARK INTER + INTRA:          -8.596
REMARK INTER:                  -7.834
REMARK INTRA:                  -0.762
REMARK UNBOUND:                -0.522
REMARK SMILES CCCCCCCCCCCCCC(=O)[O-]
REMARK SMILES IDX 8 1 9 2 10 3 11 4 12 5 13 6 14 7 15 8 16 9 7 10 6 11 5 12
REMARK SMILES IDX 4 13 3 14 2 15 1 16
REMARK H PARENT
REMARK Flexibility Score: inf
ROOT
ATOM      1  C   UNL     1      -5.061   6.963   6.948  1.00  0.00     0.000 C 
ENDROOT
BRANCH   1   2
ATOM      2  C   UNL     1      -5.829   7.362   8.214  1.00  0.00     0.000 C 
BRANCH   2   3
ATOM      3  C   UNL     1      -6.655   6.184   8.754  1.00  0.00     0.000 C 
BRANCH   3   4
ATOM      4  C   UNL     1      -8.082   6.154   8.167  1.00  0.00     0.000 C 
BRANCH   4   5
ATOM      5  C   UNL     1      -8.994   5.101   8.817  1.00  0.00     0.006 C 
BRANCH   5   6
ATOM      6  C   UNL     1      -9.045   3.787   8.029  1.00  0.00     0.053 C 
BRANCH   6   7
ATOM      7  C   UNL     1      -8.452   2.673   8.832  1.00  0.00     0.041 C 
ATOM      8  O   UNL     1      -7.323   2.812   9.372  1.00  0.00    -0.550 OA
ATOM      9  O   UNL     1      -9.124   1.463   8.945  1.00  0.00    -0.550 OA
ENDBRANCH   6   7
ENDBRANCH   5   6
ENDBRANCH   4   5
ENDBRANCH   3   4
ENDBRANCH   2   3
ENDBRANCH   1   2
BRANCH   1  10
ATOM     10  C   UNL     1      -4.323   8.169   6.350  1.00  0.00     0.000 C 
BRANCH  10  11
ATOM     11  C   UNL     1      -4.176   8.078   4.824  1.00  0.00    -0.000 C 
BRANCH  11  12
ATOM     12  C   UNL     1      -2.917   7.304   4.393  1.00  0.00    -0.000 C 
BRANCH  12  13
ATOM     13  C   UNL     1      -3.228   5.830   4.052  1.00  0.00    -0.000 C 
BRANCH  13  14
ATOM     14  C   UNL     1      -2.363   4.820   4.830  1.00  0.00    -0.000 C 
BRANCH  14  15
ATOM     15  C   UNL     1      -3.023   4.257   6.099  1.00  0.00    -0.003 C 
ATOM     16  C   UNL     1      -2.110   3.304   6.871  1.00  0.00     0.004 C 
ENDBRANCH  14  15
ENDBRANCH  13  14
ENDBRANCH  12  13
ENDBRANCH  11  12
ENDBRANCH  10  11
ENDBRANCH   1  10
TORSDOF 12
ENDMDL
MODEL 3
REMARK VINA RESULT:    -4.555     15.957     17.662
REMARK INTER + INTRA:          -8.271
REMARK INTER:                  -6.770
REMARK INTRA:                  -1.501
REMARK UNBOUND:                -0.522
REMARK SMILES CCCCCCCCCCCCCC(=O)[O-]
REMARK SMILES IDX 8 1 9 2 10 3 11 4 12 5 13 6 14 7 15 8 16 9 7 10 6 11 5 12
REMARK SMILES IDX 4 13 3 14 2 15 1 16
REMARK H PARENT
REMARK Flexibility Score: inf
ROOT
ATOM      1  C   UNL     1      -0.874  -2.483  -7.498  1.00  0.00     0.000 C 
ENDROOT
BRANCH   1   2
ATOM      2  C   UNL     1      -1.926  -3.508  -7.056  1.00  0.00     0.000 C 
BRANCH   2   3
ATOM      3  C   UNL     1      -2.401  -4.360  -8.243  1.00  0.00     0.000 C 
BRANCH   3   4
ATOM      4  C   UNL     1      -3.940  -4.448  -8.318  1.00  0.00     0.000 C 
BRANCH   4   5
ATOM      5  C   UNL     1      -4.633  -4.308  -6.952  1.00  0.00     0.006 C 
BRANCH   5   6
ATOM      6  C   UNL     1      -5.869  -3.403  -7.000  1.00  0.00     0.053 C 
BRANCH   6   7
ATOM      7  C   UNL     1      -6.588  -3.431  -5.689  1.00  0.00     0.041 C 
ATOM      8  O   UNL     1      -6.980  -4.525  -5.204  1.00  0.00    -0.550 OA
ATOM      9  O   UNL     1      -6.870  -2.244  -5.024  1.00  0.00    -0.550 OA
ENDBRANCH   6   7
ENDBRANCH   5   6
ENDBRANCH   4   5
ENDBRANCH   3   4
ENDBRANCH   2   3
ENDBRANCH   1   2
BRANCH   1  10
ATOM     10  C   UNL     1      -0.427  -2.743  -8.944  1.00  0.00     0.000 C 
BRANCH  10  11
ATOM     11  C   UNL     1       1.060  -3.114  -9.048  1.00  0.00    -0.000 C 
BRANCH  11  12
ATOM     12  C   UNL     1       1.286  -4.475  -9.732  1.00  0.00    -0.000 C 
BRANCH  12  13
ATOM     13  C   UNL     1       1.778  -5.551  -8.739  1.00  0.00    -0.000 C 
BRANCH  13  14
ATOM     14  C   UNL     1       2.100  -4.999  -7.338  1.00  0.00    -0.000 C 
BRANCH  14  15
ATOM     15  C   UNL     1       1.083  -5.382  -6.250  1.00  0.00    -0.003 C 
ATOM     16  C   UNL     1       0.215  -6.578  -6.643  1.00  0.00     0.004 C 
ENDBRANCH  14  15
ENDBRANCH  13  14
ENDBRANCH  12  13
ENDBRANCH  11  12
ENDBRANCH  10  11
ENDBRANCH   1  10
TORSDOF 12
ENDMDL
MODEL 4
REMARK VINA RESULT:    -4.535     13.857     16.116
REMARK INTER + INTRA:          -8.239
REMARK INTER:                  -6.982
REMARK INTRA:                  -1.257
REMARK UNBOUND:                -0.522
REMARK SMILES CCCCCCCCCCCCCC(=O)[O-]
REMARK SMILES IDX 8 1 9 2 10 3 11 4 12 5 13 6 14 7 15 8 16 9 7 10 6 11 5 12
REMARK SMILES IDX 4 13 3 14 2 15 1 16
REMARK H PARENT
REMARK Flexibility Score: inf
ROOT
ATOM      1  C   UNL     1       9.002   5.934  -0.376  1.00  0.00     0.000 C 
ENDROOT
BRANCH   1   2
ATOM      2  C   UNL     1       9.349   7.292  -0.997  1.00  0.00     0.000 C 
BRANCH   2   3
ATOM      3  C   UNL     1       8.342   8.370  -0.568  1.00  0.00     0.000 C 
BRANCH   3   4
ATOM      4  C   UNL     1       7.837   9.206  -1.763  1.00  0.00     0.000 C 
BRANCH   4   5
ATOM      5  C   UNL     1       6.314   9.130  -1.968  1.00  0.00     0.006 C 
BRANCH   5   6
ATOM      6  C   UNL     1       5.652  10.510  -2.033  1.00  0.00     0.053 C 
BRANCH   6   7
ATOM      7  C   UNL     1       4.164  10.380  -1.956  1.00  0.00     0.041 C 
ATOM      8  O   UNL     1       3.611  10.057  -0.871  1.00  0.00    -0.550 OA
ATOM      9  O   UNL     1       3.388  10.566  -3.093  1.00  0.00    -0.550 OA
ENDBRANCH   6   7
ENDBRANCH   5   6
ENDBRANCH   4   5
ENDBRANCH   3   4
ENDBRANCH   2   3
ENDBRANCH   1   2
BRANCH   1  10
ATOM     10  C   UNL     1       7.720   5.358  -0.993  1.00  0.00     0.000 C 
BRANCH  10  11
ATOM     11  C   UNL     1       7.897   4.962  -2.467  1.00  0.00    -0.000 C 
BRANCH  11  12
ATOM     12  C   UNL     1       6.978   5.760  -3.410  1.00  0.00    -0.000 C 
BRANCH  12  13
ATOM     13  C   UNL     1       7.748   6.350  -4.612  1.00  0.00    -0.000 C 
BRANCH  13  14
ATOM     14  C   UNL     1       8.613   5.319  -5.360  1.00  0.00    -0.000 C 
BRANCH  14  15
ATOM     15  C   UNL     1       8.248   5.132  -6.842  1.00  0.00    -0.003 C 
ATOM     16  C   UNL     1       7.402   6.279  -7.394  1.00  0.00     0.004 C 
ENDBRANCH  14  15
ENDBRANCH  13  14
ENDBRANCH  12  13
ENDBRANCH  11  12
ENDBRANCH  10  11
ENDBRANCH   1  10
TORSDOF 12
ENDMDL
MODEL 5
REMARK VINA RESULT:    -4.477     14.301     15.471
REMARK INTER + INTRA:          -8.139
REMARK INTER:                  -6.832
REMARK INTRA:                  -1.308
REMARK UNBOUND:                -0.522
REMARK SMILES CCCCCCCCCCCCCC(=O)[O-]
REMARK SMILES IDX 8 1 9 2 10 3 11 4 12 5 13 6 14 7 15 8 16 9 7 10 6 11 5 12
REMARK SMILES IDX 4 13 3 14 2 15 1 16
REMARK H PARENT
REMARK Flexibility Score: inf
ROOT
ATOM      1  C   UNL     1       7.564   4.824  -1.545  1.00  0.00     0.000 C 
ENDROOT
BRANCH   1   2
ATOM      2  C   UNL     1       7.390   5.168  -3.029  1.00  0.00     0.000 C 
BRANCH   2   3
ATOM      3  C   UNL     1       7.401   6.689  -3.249  1.00  0.00     0.000 C 
BRANCH   3   4
ATOM      4  C   UNL     1       6.731   7.451  -2.086  1.00  0.00     0.000 C 
BRANCH   4   5
ATOM      5  C   UNL     1       7.193   8.913  -1.962  1.00  0.00     0.006 C 
BRANCH   5   6
ATOM      6  C   UNL     1       6.207   9.785  -1.176  1.00  0.00     0.053 C 
BRANCH   6   7
ATOM      7  C   UNL     1       5.063  10.196  -2.048  1.00  0.00     0.041 C 
ATOM      8  O   UNL     1       5.247  11.005  -2.996  1.00  0.00    -0.550 OA
ATOM      9  O   UNL     1       3.783   9.724  -1.786  1.00  0.00    -0.550 OA
ENDBRANCH   6   7
ENDBRANCH   5   6
ENDBRANCH   4   5
ENDBRANCH   3   4
ENDBRANCH   2   3
ENDBRANCH   1   2
BRANCH   1  10
ATOM     10  C   UNL     1       9.044   4.603  -1.201  1.00  0.00     0.000 C 
BRANCH  10  11
ATOM     11  C   UNL     1       9.454   5.276   0.118  1.00  0.00    -0.000 C 
BRANCH  11  12
ATOM     12  C   UNL     1       9.863   6.749  -0.069  1.00  0.00    -0.000 C 
BRANCH  12  13
ATOM     13  C   UNL     1       9.135   7.685   0.920  1.00  0.00    -0.000 C 
BRANCH  13  14
ATOM     14  C   UNL     1       9.514   7.443   2.394  1.00  0.00    -0.000 C 
BRANCH  14  15
ATOM     15  C   UNL     1       9.114   8.577   3.352  1.00  0.00    -0.003 C 
ATOM     16  C   UNL     1       8.932   9.918   2.641  1.00  0.00     0.004 C 
ENDBRANCH  14  15
ENDBRANCH  13  14
ENDBRANCH  12  13
ENDBRANCH  11  12
ENDBRANCH  10  11
ENDBRANCH   1  10
TORSDOF 12
ENDMDL
MODEL 6
REMARK VINA RESULT:    -4.462     13.768     15.492
REMARK INTER + INTRA:          -8.114
REMARK INTER:                  -6.753
REMARK INTRA:                  -1.362
REMARK UNBOUND:                -0.522
REMARK SMILES CCCCCCCCCCCCCC(=O)[O-]
REMARK SMILES IDX 8 1 9 2 10 3 11 4 12 5 13 6 14 7 15 8 16 9 7 10 6 11 5 12
REMARK SMILES IDX 4 13 3 14 2 15 1 16
REMARK H PARENT
REMARK Flexibility Score: inf
ROOT
ATOM      1  C   UNL     1       9.245   7.563   1.629  1.00  0.00     0.000 C 
ENDROOT
BRANCH   1   2
ATOM      2  C   UNL     1       9.548   8.187   0.261  1.00  0.00     0.000 C 
BRANCH   2   3
ATOM      3  C   UNL     1       8.366   9.032  -0.236  1.00  0.00     0.000 C 
BRANCH   3   4
ATOM      4  C   UNL     1       8.046   8.771  -1.722  1.00  0.00     0.000 C 
BRANCH   4   5
ATOM      5  C   UNL     1       6.569   9.002  -2.084  1.00  0.00     0.006 C 
BRANCH   5   6
ATOM      6  C   UNL     1       5.942  10.171  -1.316  1.00  0.00     0.053 C 
BRANCH   6   7
ATOM      7  C   UNL     1       4.484  10.281  -1.630  1.00  0.00     0.041 C 
ATOM      8  O   UNL     1       3.625  10.081  -0.730  1.00  0.00    -0.550 OA
ATOM      9  O   UNL     1       4.070  10.556  -2.927  1.00  0.00    -0.550 OA
ENDBRANCH   6   7
ENDBRANCH   5   6
ENDBRANCH   4   5
ENDBRANCH   3   4
ENDBRANCH   2   3
ENDBRANCH   1   2
BRANCH   1  10
ATOM     10  C   UNL     1       9.294   6.030   1.557  1.00  0.00     0.000 C 
BRANCH  10  11
ATOM     11  C   UNL     1       9.311   5.504   0.114  1.00  0.00    -0.000 C 
BRANCH  11  12
ATOM     12  C   UNL     1       7.912   5.106  -0.389  1.00  0.00    -0.000 C 
BRANCH  12  13
ATOM     13  C   UNL     1       7.955   4.497  -1.808  1.00  0.00    -0.000 C 
BRANCH  13  14
ATOM     14  C   UNL     1       7.034   5.210  -2.816  1.00  0.00    -0.000 C 
BRANCH  14  15
ATOM     15  C   UNL     1       7.660   5.445  -4.200  1.00  0.00    -0.003 C 
ATOM     16  C   UNL     1       9.020   6.140  -4.127  1.00  0.00     0.004 C 
ENDBRANCH  14  15
ENDBRANCH  13  14
ENDBRANCH  12  13
ENDBRANCH  11  12
ENDBRANCH  10  11
ENDBRANCH   1  10
TORSDOF 12
ENDMDL
MODEL 7
REMARK VINA RESULT:    -4.318     15.991     17.725
REMARK INTER + INTRA:          -7.868
REMARK INTER:                  -6.597
REMARK INTRA:                  -1.271
REMARK UNBOUND:                -0.522
REMARK SMILES CCCCCCCCCCCCCC(=O)[O-]
REMARK SMILES IDX 8 1 9 2 10 3 11 4 12 5 13 6 14 7 15 8 16 9 7 10 6 11 5 12
REMARK SMILES IDX 4 13 3 14 2 15 1 16
REMARK H PARENT
REMARK Flexibility Score: inf
ROOT
ATOM      1  C   UNL     1       7.021   6.773  -2.022  1.00  0.00     0.000 C 
ENDROOT
BRANCH   1   2
ATOM      2  C   UNL     1       7.922   7.691  -2.857  1.00  0.00     0.000 C 
BRANCH   2   3
ATOM      3  C   UNL     1       8.827   6.876  -3.793  1.00  0.00     0.000 C 
BRANCH   3   4
ATOM      4  C   UNL     1       8.554   7.182  -5.281  1.00  0.00     0.000 C 
BRANCH   4   5
ATOM      5  C   UNL     1       7.736   6.091  -5.993  1.00  0.00     0.006 C 
BRANCH   5   6
ATOM      6  C   UNL     1       7.529   6.380  -7.484  1.00  0.00     0.053 C 
BRANCH   6   7
ATOM      7  C   UNL     1       8.296   5.402  -8.317  1.00  0.00     0.041 C 
ATOM      8  O   UNL     1       8.924   5.793  -9.336  1.00  0.00    -0.550 OA
ATOM      9  O   UNL     1       8.278   4.050  -7.997  1.00  0.00    -0.550 OA
ENDBRANCH   6   7
ENDBRANCH   5   6
ENDBRANCH   4   5
ENDBRANCH   3   4
ENDBRANCH   2   3
ENDBRANCH   1   2
BRANCH   1  10
ATOM     10  C   UNL     1       7.264   5.298  -2.372  1.00  0.00     0.000 C 
BRANCH  10  11
ATOM     11  C   UNL     1       7.787   4.484  -1.179  1.00  0.00    -0.000 C 
BRANCH  11  12
ATOM     12  C   UNL     1       9.301   4.214  -1.263  1.00  0.00    -0.000 C 
BRANCH  12  13
ATOM     13  C   UNL     1      10.094   5.012  -0.205  1.00  0.00    -0.000 C 
BRANCH  13  14
ATOM     14  C   UNL     1       9.202   5.723   0.831  1.00  0.00    -0.000 C 
BRANCH  14  15
ATOM     15  C   UNL     1       9.328   7.255   0.838  1.00  0.00    -0.003 C 
ATOM     16  C   UNL     1       9.176   7.857   2.235  1.00  0.00     0.004 C 
ENDBRANCH  14  15
ENDBRANCH  13  14
ENDBRANCH  12  13
ENDBRANCH  11  12
ENDBRANCH  10  11
ENDBRANCH   1  10
TORSDOF 12
ENDMDL
MODEL 8
REMARK VINA RESULT:    -4.302     15.002     17.876
REMARK INTER + INTRA:          -7.841
REMARK INTER:                  -6.976
REMARK INTRA:                  -0.865
REMARK UNBOUND:                -0.522
REMARK SMILES CCCCCCCCCCCCCC(=O)[O-]
REMARK SMILES IDX 8 1 9 2 10 3 11 4 12 5 13 6 14 7 15 8 16 9 7 10 6 11 5 12
REMARK SMILES IDX 4 13 3 14 2 15 1 16
REMARK H PARENT
REMARK Flexibility Score: inf
ROOT
ATOM      1  C   UNL     1       7.730   5.869  -1.559  1.00  0.00     0.000 C 
ENDROOT
BRANCH   1   2
ATOM      2  C   UNL     1       8.110   5.140  -2.853  1.00  0.00     0.000 C 
BRANCH   2   3
ATOM      3  C   UNL     1       7.142   5.493  -3.993  1.00  0.00     0.000 C 
BRANCH   3   4
ATOM      4  C   UNL     1       7.858   6.175  -5.177  1.00  0.00     0.000 C 
BRANCH   4   5
ATOM      5  C   UNL     1       8.403   5.186  -6.220  1.00  0.00     0.006 C 
BRANCH   5   6
ATOM      6  C   UNL     1       7.598   5.191  -7.525  1.00  0.00     0.053 C 
BRANCH   6   7
ATOM      7  C   UNL     1       8.215   6.126  -8.516  1.00  0.00     0.041 C 
ATOM      8  O   UNL     1       9.051   5.698  -9.356  1.00  0.00    -0.550 OA
ATOM      9  O   UNL     1       7.906   7.480  -8.482  1.00  0.00    -0.550 OA
ENDBRANCH   6   7
ENDBRANCH   5   6
ENDBRANCH   4   5
ENDBRANCH   3   4
ENDBRANCH   2   3
ENDBRANCH   1   2
BRANCH   1  10
ATOM     10  C   UNL     1       6.955   7.159  -1.862  1.00  0.00     0.000 C 
BRANCH  10  11
ATOM     11  C   UNL     1       7.697   8.420  -1.395  1.00  0.00    -0.000 C 
BRANCH  11  12
ATOM     12  C   UNL     1       7.798   9.492  -2.495  1.00  0.00    -0.000 C 
BRANCH  12  13
ATOM     13  C   UNL     1       6.521  10.357  -2.584  1.00  0.00    -0.000 C 
BRANCH  13  14
ATOM     14  C   UNL     1       5.778  10.502  -1.242  1.00  0.00    -0.000 C 
BRANCH  14  15
ATOM     15  C   UNL     1       4.266  10.234  -1.316  1.00  0.00    -0.003 C 
ATOM     16  C   UNL     1       3.675  10.544  -2.692  1.00  0.00     0.004 C 
ENDBRANCH  14  15
ENDBRANCH  13  14
ENDBRANCH  12  13
ENDBRANCH  11  12
ENDBRANCH  10  11
ENDBRANCH   1  10
TORSDOF 12
ENDMDL
MODEL 9
REMARK VINA RESULT:    -4.286     17.189     19.046
REMARK INTER + INTRA:          -7.814
REMARK INTER:                  -6.134
REMARK INTRA:                  -1.680
REMARK UNBOUND:                -0.522
REMARK SMILES CCCCCCCCCCCCCC(=O)[O-]
REMARK SMILES IDX 8 1 9 2 10 3 11 4 12 5 13 6 14 7 15 8 16 9 7 10 6 11 5 12
REMARK SMILES IDX 4 13 3 14 2 15 1 16
REMARK H PARENT
REMARK Flexibility Score: inf
ROOT
ATOM      1  C   UNL     1      -0.046  -6.044  -6.359  1.00  0.00     0.000 C 
ENDROOT
BRANCH   1   2
ATOM      2  C   UNL     1       0.023  -7.038  -7.525  1.00  0.00     0.000 C 
BRANCH   2   3
ATOM      3  C   UNL     1      -1.314  -7.098  -8.280  1.00  0.00     0.000 C 
BRANCH   3   4
ATOM      4  C   UNL     1      -1.322  -6.188  -9.526  1.00  0.00     0.000 C 
BRANCH   4   5
ATOM      5  C   UNL     1      -2.168  -4.915  -9.353  1.00  0.00     0.006 C 
BRANCH   5   6
ATOM      6  C   UNL     1      -3.506  -5.178  -8.654  1.00  0.00     0.053 C 
BRANCH   6   7
ATOM      7  C   UNL     1      -3.666  -4.273  -7.473  1.00  0.00     0.041 C 
ATOM      8  O   UNL     1      -2.651  -3.824  -6.878  1.00  0.00    -0.550 OA
ATOM      9  O   UNL     1      -4.934  -3.965  -6.999  1.00  0.00    -0.550 OA
ENDBRANCH   6   7
ENDBRANCH   5   6
ENDBRANCH   4   5
ENDBRANCH   3   4
ENDBRANCH   2   3
ENDBRANCH   1   2
BRANCH   1  10
ATOM     10  C   UNL     1       0.979  -4.915  -6.538  1.00  0.00     0.000 C 
BRANCH  10  11
ATOM     11  C   UNL     1       1.974  -5.191  -7.675  1.00  0.00    -0.000 C 
BRANCH  11  12
ATOM     12  C   UNL     1       1.760  -4.269  -8.889  1.00  0.00    -0.000 C 
BRANCH  12  13
ATOM     13  C   UNL     1       0.793  -3.107  -8.575  1.00  0.00    -0.000 C 
BRANCH  13  14
ATOM     14  C   UNL     1       0.730  -2.038  -9.682  1.00  0.00    -0.000 C 
BRANCH  14  15
ATOM     15  C   UNL     1      -0.442  -1.051  -9.553  1.00  0.00    -0.003 C 
ATOM     16  C   UNL     1      -1.006  -0.982  -8.134  1.00  0.00     0.004 C 
ENDBRANCH  14  15
ENDBRANCH  13  14
ENDBRANCH  12  13
ENDBRANCH  11  12
ENDBRANCH  10  11
ENDBRANCH   1  10
TORSDOF 12
ENDMDL
