MODEL 1
REMARK VINA RESULT:    -4.273      0.000      0.000
REMARK INTER + INTRA:          -7.307
REMARK INTER:                  -6.521
REMARK INTRA:                  -0.785
REMARK UNBOUND:                -0.785
REMARK SMILES CCCCCCCCCCC(=O)[O-]
REMARK SMILES IDX 7 1 8 2 9 3 10 4 11 5 12 6 13 7 6 8 5 9 4 10 3 11 2 12 1 13
REMARK H PARENT
REMARK Flexibility Score: inf
ROOT
ATOM      1  C   UNL     1      18.918  36.609  17.935  1.00  0.00     0.000 C 
ENDROOT
BRANCH   1   2
ATOM      2  C   UNL     1      19.545  35.722  19.031  1.00  0.00     0.000 C 
BRANCH   2   3
ATOM      3  C   UNL     1      19.602  36.357  20.435  1.00  0.00     0.006 C 
BRANCH   3   4
ATOM      4  C   UNL     1      18.781  35.613  21.500  1.00  0.00     0.053 C 
BRANCH   4   5
ATOM      5  C   UNL     1      19.250  35.929  22.887  1.00  0.00     0.041 C 
ATOM      6  O   UNL     1      19.316  35.021  23.757  1.00  0.00    -0.550 OA
ATOM      7  O   UNL     1      19.645  37.221  23.210  1.00  0.00    -0.550 OA
ENDBRANCH   4   5
ENDBRANCH   3   4
ENDBRANCH   2   3
ENDBRANCH   1   2
BRANCH   1   8
ATOM      8  C   UNL     1      17.970  37.711  18.442  1.00  0.00     0.000 C 
BRANCH   8   9
ATOM      9  C   UNL     1      16.630  37.741  17.689  1.00  0.00    -0.000 C 
BRANCH   9  10
ATOM     10  C   UNL     1      15.625  38.741  18.290  1.00  0.00    -0.000 C 
BRANCH  10  11
ATOM     11  C   UNL     1      16.137  39.533  19.507  1.00  0.00    -0.000 C 
BRANCH  11  12
ATOM     12  C   UNL     1      15.425  39.155  20.813  1.00  0.00    -0.003 C 
ATOM     13  C   UNL     1      16.380  38.461  21.780  1.00  0.00     0.004 C 
ENDBRANCH  11  12
ENDBRANCH  10  11
ENDBRANCH   9  10
ENDBRANCH   8   9
ENDBRANCH   1   8
TORSDOF 9
ENDMDL
MODEL 2
REMARK VINA RESULT:    -4.086      9.959     11.694
REMARK INTER + INTRA:          -7.021
REMARK INTER:                  -6.236
REMARK INTRA:                  -0.785
REMARK UNBOUND:                -0.785
REMARK SMILES CCCCCCCCCCC(=O)[O-]
REMARK SMILES IDX 7 1 8 2 9 3 10 4 11 5 12 6 13 7 6 8 5 9 4 10 3 11 2 12 1 13
REMARK H PARENT
REMARK Flexibility Score: inf
ROOT
ATOM      1  C   UNL     1      11.829  30.902  26.720  1.00  0.00     0.000 C 
ENDROOT
BRANCH   1   2
ATOM      2  C   UNL     1      10.607  30.793  25.786  1.00  0.00     0.000 C 
BRANCH   2   3
ATOM      3  C   UNL     1      10.733  31.550  24.448  1.00  0.00     0.006 C 
BRANCH   3   4
ATOM      4  C   UNL     1      10.096  32.948  24.449  1.00  0.00     0.053 C 
BRANCH   4   5
ATOM      5  C   UNL     1      11.129  34.033  24.427  1.00  0.00     0.041 C 
ATOM      6  O   UNL     1      11.827  34.223  23.396  1.00  0.00    -0.550 OA
ATOM      7  O   UNL     1      11.297  34.856  25.533  1.00  0.00    -0.550 OA
ENDBRANCH   4   5
ENDBRANCH   3   4
ENDBRANCH   2   3
ENDBRANCH   1   2
BRANCH   1   8
ATOM      8  C   UNL     1      11.847  32.138  27.638  1.00  0.00     0.000 C 
BRANCH   8   9
ATOM      9  C   UNL     1      10.460  32.485  28.202  1.00  0.00    -0.000 C 
BRANCH   9  10
ATOM     10  C   UNL     1      10.127  31.718  29.495  1.00  0.00    -0.000 C 
BRANCH  10  11
ATOM     11  C   UNL     1      10.882  32.192  30.750  1.00  0.00    -0.000 C 
BRANCH  11  12
ATOM     12  C   UNL     1      12.162  31.389  31.019  1.00  0.00    -0.003 C 
ATOM     13  C   UNL     1      13.393  32.290  30.992  1.00  0.00     0.004 C 
ENDBRANCH  11  12
ENDBRANCH  10  11
ENDBRANCH   9  10
ENDBRANCH   8   9
ENDBRANCH   1   8
TORSDOF 9
ENDMDL
MODEL 3
REMARK VINA RESULT:    -4.056     10.558     12.592
REMARK INTER + INTRA:          -6.976
REMARK INTER:                  -5.802
REMARK INTRA:                  -1.174
REMARK UNBOUND:                -0.785
REMARK SMILES CCCCCCCCCCC(=O)[O-]
REMARK SMILES IDX 7 1 8 2 9 3 10 4 11 5 12 6 13 7 6 8 5 9 4 10 3 11 2 12 1 13
REMARK H PARENT
REMARK Flexibility Score: inf
ROOT
ATOM      1  C   UNL     1       9.977  32.049  28.330  1.00  0.00     0.000 C 
ENDROOT
BRANCH   1   2
ATOM      2  C   UNL     1      10.021  30.507  28.348  1.00  0.00     0.000 C 
BRANCH   2   3
ATOM      3  C   UNL     1      10.390  29.845  27.006  1.00  0.00     0.006 C 
BRANCH   3   4
ATOM      4  C   UNL     1       9.868  30.591  25.767  1.00  0.00     0.053 C 
BRANCH   4   5
ATOM      5  C   UNL     1      10.986  31.122  24.923  1.00  0.00     0.041 C 
ATOM      6  O   UNL     1      11.071  32.355  24.686  1.00  0.00    -0.550 OA
ATOM      7  O   UNL     1      11.953  30.257  24.426  1.00  0.00    -0.550 OA
ENDBRANCH   4   5
ENDBRANCH   3   4
ENDBRANCH   2   3
ENDBRANCH   1   2
BRANCH   1   8
ATOM      8  C   UNL     1      10.596  32.740  29.558  1.00  0.00     0.000 C 
BRANCH   8   9
ATOM      9  C   UNL     1      10.828  31.777  30.733  1.00  0.00    -0.000 C 
BRANCH   9  10
ATOM     10  C   UNL     1      12.311  31.662  31.133  1.00  0.00    -0.000 C 
BRANCH  10  11
ATOM     11  C   UNL     1      13.317  32.099  30.052  1.00  0.00    -0.000 C 
BRANCH  11  12
ATOM     12  C   UNL     1      13.725  30.955  29.114  1.00  0.00    -0.003 C 
ATOM     13  C   UNL     1      13.619  31.379  27.652  1.00  0.00     0.004 C 
ENDBRANCH  11  12
ENDBRANCH  10  11
ENDBRANCH   9  10
ENDBRANCH   8   9
ENDBRANCH   1   8
TORSDOF 9
ENDMDL
MODEL 4
REMARK VINA RESULT:    -4.056     10.163     12.162
REMARK INTER + INTRA:          -6.975
REMARK INTER:                  -6.206
REMARK INTRA:                  -0.769
REMARK UNBOUND:                -0.785
REMARK SMILES CCCCCCCCCCC(=O)[O-]
REMARK SMILES IDX 7 1 8 2 9 3 10 4 11 5 12 6 13 7 6 8 5 9 4 10 3 11 2 12 1 13
REMARK H PARENT
REMARK Flexibility Score: inf
ROOT
ATOM      1  C   UNL     1       9.710  31.411  28.314  1.00  0.00     0.000 C 
ENDROOT
BRANCH   1   2
ATOM      2  C   UNL     1      10.272  32.369  27.243  1.00  0.00     0.000 C 
BRANCH   2   3
ATOM      3  C   UNL     1      10.239  31.830  25.798  1.00  0.00     0.006 C 
BRANCH   3   4
ATOM      4  C   UNL     1       9.751  32.847  24.754  1.00  0.00     0.053 C 
BRANCH   4   5
ATOM      5  C   UNL     1      10.874  33.679  24.217  1.00  0.00     0.041 C 
ATOM      6  O   UNL     1      11.452  33.352  23.148  1.00  0.00    -0.550 OA
ATOM      7  O   UNL     1      11.260  34.837  24.882  1.00  0.00    -0.550 OA
ENDBRANCH   4   5
ENDBRANCH   3   4
ENDBRANCH   2   3
ENDBRANCH   1   2
BRANCH   1   8
ATOM      8  C   UNL     1       9.791  29.914  27.965  1.00  0.00     0.000 C 
BRANCH   8   9
ATOM      9  C   UNL     1      11.200  29.330  28.157  1.00  0.00    -0.000 C 
BRANCH   9  10
ATOM     10  C   UNL     1      11.988  30.021  29.286  1.00  0.00    -0.000 C 
BRANCH  10  11
ATOM     11  C   UNL     1      13.245  30.786  28.834  1.00  0.00    -0.000 C 
BRANCH  11  12
ATOM     12  C   UNL     1      13.726  31.814  29.866  1.00  0.00    -0.003 C 
ATOM     13  C   UNL     1      12.567  32.321  30.720  1.00  0.00     0.004 C 
ENDBRANCH  11  12
ENDBRANCH  10  11
ENDBRANCH   9  10
ENDBRANCH   8   9
ENDBRANCH   1   8
TORSDOF 9
ENDMDL
MODEL 5
REMARK VINA RESULT:    -4.050     13.265     14.388
REMARK INTER + INTRA:          -6.966
REMARK INTER:                  -6.352
REMARK INTRA:                  -0.614
REMARK UNBOUND:                -0.785
REMARK SMILES CCCCCCCCCCC(=O)[O-]
REMARK SMILES IDX 7 1 8 2 9 3 10 4 11 5 12 6 13 7 6 8 5 9 4 10 3 11 2 12 1 13
REMARK H PARENT
REMARK Flexibility Score: inf
ROOT
ATOM      1  C   UNL     1       3.625  30.828  18.359  1.00  0.00     0.000 C 
ENDROOT
BRANCH   1   2
ATOM      2  C   UNL     1       4.343  29.821  17.437  1.00  0.00     0.000 C 
BRANCH   2   3
ATOM      3  C   UNL     1       5.843  30.096  17.207  1.00  0.00     0.006 C 
BRANCH   3   4
ATOM      4  C   UNL     1       6.664  30.246  18.497  1.00  0.00     0.053 C 
BRANCH   4   5
ATOM      5  C   UNL     1       7.376  28.979  18.856  1.00  0.00     0.041 C 
ATOM      6  O   UNL     1       7.919  28.279  17.961  1.00  0.00    -0.550 OA
ATOM      7  O   UNL     1       7.470  28.587  20.186  1.00  0.00    -0.550 OA
ENDBRANCH   4   5
ENDBRANCH   3   4
ENDBRANCH   2   3
ENDBRANCH   1   2
BRANCH   1   8
ATOM      8  C   UNL     1       2.558  31.701  17.674  1.00  0.00     0.000 C 
BRANCH   8   9
ATOM      9  C   UNL     1       3.025  33.148  17.446  1.00  0.00    -0.000 C 
BRANCH   9  10
ATOM     10  C   UNL     1       2.772  34.061  18.660  1.00  0.00    -0.000 C 
BRANCH  10  11
ATOM     11  C   UNL     1       3.954  34.964  19.058  1.00  0.00    -0.000 C 
BRANCH  11  12
ATOM     12  C   UNL     1       5.112  34.189  19.700  1.00  0.00    -0.003 C 
ATOM     13  C   UNL     1       6.334  35.084  19.892  1.00  0.00     0.004 C 
ENDBRANCH  11  12
ENDBRANCH  10  11
ENDBRANCH   9  10
ENDBRANCH   8   9
ENDBRANCH   1   8
TORSDOF 9
ENDMDL
MODEL 6
REMARK VINA RESULT:    -4.031     10.992     12.707
REMARK INTER + INTRA:          -6.937
REMARK INTER:                  -5.577
REMARK INTRA:                  -1.360
REMARK UNBOUND:                -0.785
REMARK SMILES CCCCCCCCCCC(=O)[O-]
REMARK SMILES IDX 7 1 8 2 9 3 10 4 11 5 12 6 13 7 6 8 5 9 4 10 3 11 2 12 1 13
REMARK H PARENT
REMARK Flexibility Score: inf
ROOT
ATOM      1  C   UNL     1      12.570  30.278  28.885  1.00  0.00     0.000 C 
ENDROOT
BRANCH   1   2
ATOM      2  C   UNL     1      12.830  31.436  27.899  1.00  0.00     0.000 C 
BRANCH   2   3
ATOM      3  C   UNL     1      11.926  31.450  26.650  1.00  0.00     0.006 C 
BRANCH   3   4
ATOM      4  C   UNL     1      11.119  32.745  26.467  1.00  0.00     0.053 C 
BRANCH   4   5
ATOM      5  C   UNL     1      10.304  32.722  25.210  1.00  0.00     0.041 C 
ATOM      6  O   UNL     1       9.072  32.469  25.257  1.00  0.00    -0.550 OA
ATOM      7  O   UNL     1      10.901  33.013  23.990  1.00  0.00    -0.550 OA
ENDBRANCH   4   5
ENDBRANCH   3   4
ENDBRANCH   2   3
ENDBRANCH   1   2
BRANCH   1   8
ATOM      8  C   UNL     1      11.870  30.676  30.197  1.00  0.00     0.000 C 
BRANCH   8   9
ATOM      9  C   UNL     1      11.270  32.091  30.151  1.00  0.00    -0.000 C 
BRANCH   9  10
ATOM     10  C   UNL     1       9.733  32.090  30.048  1.00  0.00    -0.000 C 
BRANCH  10  11
ATOM     11  C   UNL     1       9.097  30.717  29.762  1.00  0.00    -0.000 C 
BRANCH  11  12
ATOM     12  C   UNL     1       8.693  30.538  28.293  1.00  0.00    -0.003 C 
ATOM     13  C   UNL     1       9.179  29.198  27.748  1.00  0.00     0.004 C 
ENDBRANCH  11  12
ENDBRANCH  10  11
ENDBRANCH   9  10
ENDBRANCH   8   9
ENDBRANCH   1   8
TORSDOF 9
ENDMDL
MODEL 7
REMARK VINA RESULT:    -3.982     14.477     15.767
REMARK INTER + INTRA:          -6.863
REMARK INTER:                  -5.832
REMARK INTRA:                  -1.031
REMARK UNBOUND:                -0.785
REMARK SMILES CCCCCCCCCCC(=O)[O-]
REMARK SMILES IDX 7 1 8 2 9 3 10 4 11 5 12 6 13 7 6 8 5 9 4 10 3 11 2 12 1 13
REMARK H PARENT
REMARK Flexibility Score: inf
ROOT
ATOM      1  C   UNL     1       4.179  29.945  20.637  1.00  0.00     0.000 C 
ENDROOT
BRANCH   1   2
ATOM      2  C   UNL     1       4.017  30.404  19.173  1.00  0.00     0.000 C 
BRANCH   2   3
ATOM      3  C   UNL     1       4.602  31.794  18.853  1.00  0.00     0.006 C 
BRANCH   3   4
ATOM      4  C   UNL     1       4.009  32.457  17.599  1.00  0.00     0.053 C 
BRANCH   4   5
ATOM      5  C   UNL     1       2.684  33.097  17.879  1.00  0.00     0.041 C 
ATOM      6  O   UNL     1       2.602  34.061  18.685  1.00  0.00    -0.550 OA
ATOM      7  O   UNL     1       1.543  32.649  17.224  1.00  0.00    -0.550 OA
ENDBRANCH   4   5
ENDBRANCH   3   4
ENDBRANCH   2   3
ENDBRANCH   1   2
BRANCH   1   8
ATOM      8  C   UNL     1       4.706  28.510  20.822  1.00  0.00     0.000 C 
BRANCH   8   9
ATOM      9  C   UNL     1       6.227  28.456  21.041  1.00  0.00    -0.000 C 
BRANCH   9  10
ATOM     10  C   UNL     1       6.992  27.924  19.815  1.00  0.00    -0.000 C 
BRANCH  10  11
ATOM     11  C   UNL     1       8.112  28.842  19.293  1.00  0.00    -0.000 C 
BRANCH  11  12
ATOM     12  C   UNL     1       7.656  29.753  18.145  1.00  0.00    -0.003 C 
ATOM     13  C   UNL     1       6.793  28.988  17.145  1.00  0.00     0.004 C 
ENDBRANCH  11  12
ENDBRANCH  10  11
ENDBRANCH   9  10
ENDBRANCH   8   9
ENDBRANCH   1   8
TORSDOF 9
ENDMDL
MODEL 8
REMARK VINA RESULT:    -3.972     13.720     14.926
REMARK INTER + INTRA:          -6.847
REMARK INTER:                  -5.968
REMARK INTRA:                  -0.879
REMARK UNBOUND:                -0.785
REMARK SMILES CCCCCCCCCCC(=O)[O-]
REMARK SMILES IDX 7 1 8 2 9 3 10 4 11 5 12 6 13 7 6 8 5 9 4 10 3 11 2 12 1 13
REMARK H PARENT
REMARK Flexibility Score: inf
ROOT
ATOM      1  C   UNL     1       4.713  29.416  19.317  1.00  0.00     0.000 C 
ENDROOT
BRANCH   1   2
ATOM      2  C   UNL     1       4.036  30.623  20.000  1.00  0.00     0.000 C 
BRANCH   2   3
ATOM      3  C   UNL     1       3.715  31.809  19.069  1.00  0.00     0.006 C 
BRANCH   3   4
ATOM      4  C   UNL     1       4.740  32.953  19.126  1.00  0.00     0.053 C 
BRANCH   4   5
ATOM      5  C   UNL     1       4.088  34.294  18.984  1.00  0.00     0.041 C 
ATOM      6  O   UNL     1       4.777  35.346  19.055  1.00  0.00    -0.550 OA
ATOM      7  O   UNL     1       2.723  34.381  18.738  1.00  0.00    -0.550 OA
ENDBRANCH   4   5
ENDBRANCH   3   4
ENDBRANCH   2   3
ENDBRANCH   1   2
BRANCH   1   8
ATOM      8  C   UNL     1       4.735  29.459  17.779  1.00  0.00     0.000 C 
BRANCH   8   9
ATOM      9  C   UNL     1       6.129  29.770  17.209  1.00  0.00    -0.000 C 
BRANCH   9  10
ATOM     10  C   UNL     1       7.173  30.065  18.301  1.00  0.00    -0.000 C 
BRANCH  10  11
ATOM     11  C   UNL     1       8.452  29.209  18.234  1.00  0.00    -0.000 C 
BRANCH  11  12
ATOM     12  C   UNL     1       8.316  27.868  18.967  1.00  0.00    -0.003 C 
ATOM     13  C   UNL     1       8.001  28.079  20.446  1.00  0.00     0.004 C 
ENDBRANCH  11  12
ENDBRANCH  10  11
ENDBRANCH   9  10
ENDBRANCH   8   9
ENDBRANCH   1   8
TORSDOF 9
ENDMDL
MODEL 9
REMARK VINA RESULT:    -3.971     14.327     15.422
REMARK INTER + INTRA:          -6.846
REMARK INTER:                  -6.078
REMARK INTRA:                  -0.768
REMARK UNBOUND:                -0.785
REMARK SMILES CCCCCCCCCCC(=O)[O-]
REMARK SMILES IDX 7 1 8 2 9 3 10 4 11 5 12 6 13 7 6 8 5 9 4 10 3 11 2 12 1 13
REMARK H PARENT
REMARK Flexibility Score: inf
ROOT
ATOM      1  C   UNL     1       2.127  29.622  18.113  1.00  0.00     0.000 C 
ENDROOT
BRANCH   1   2
ATOM      2  C   UNL     1       3.355  28.827  18.604  1.00  0.00     0.000 C 
BRANCH   2   3
ATOM      3  C   UNL     1       4.429  29.661  19.331  1.00  0.00     0.006 C 
BRANCH   3   4
ATOM      4  C   UNL     1       5.832  29.034  19.319  1.00  0.00     0.053 C 
BRANCH   4   5
ATOM      5  C   UNL     1       6.649  29.516  18.160  1.00  0.00     0.041 C 
ATOM      6  O   UNL     1       7.613  30.304  18.347  1.00  0.00    -0.550 OA
ATOM      7  O   UNL     1       6.366  29.068  16.876  1.00  0.00    -0.550 OA
ENDBRANCH   4   5
ENDBRANCH   3   4
ENDBRANCH   2   3
ENDBRANCH   1   2
BRANCH   1   8
ATOM      8  C   UNL     1       2.429  30.729  17.087  1.00  0.00     0.000 C 
BRANCH   8   9
ATOM      9  C   UNL     1       1.556  31.979  17.282  1.00  0.00    -0.000 C 
BRANCH   9  10
ATOM     10  C   UNL     1       2.374  33.236  17.633  1.00  0.00    -0.000 C 
BRANCH  10  11
ATOM     11  C   UNL     1       3.899  33.027  17.699  1.00  0.00    -0.000 C 
BRANCH  11  12
ATOM     12  C   UNL     1       4.486  33.331  19.084  1.00  0.00    -0.003 C 
ATOM     13  C   UNL     1       4.765  34.823  19.248  1.00  0.00     0.004 C 
ENDBRANCH  11  12
ENDBRANCH  10  11
ENDBRANCH   9  10
ENDBRANCH   8   9
ENDBRANCH   1   8
TORSDOF 9
ENDMDL
