MODEL 1
REMARK VINA RESULT:    -5.424      0.000      0.000
REMARK INTER + INTRA:          -9.453
REMARK INTER:                  -8.277
REMARK INTRA:                  -1.176
REMARK UNBOUND:                -1.176
REMARK SMILES CC(=O)CCC=C(C)CCC=C(C)CCC=C(C)C
REMARK SMILES IDX 10 1 11 2 12 3 13 4 14 5 15 6 16 7 18 8 17 9 19 10 9 11 7 12
REMARK SMILES IDX 6 13 8 14 5 15 4 16 2 17 3 18 1 19
REMARK H PARENT
REMARK Flexibility Score: inf
ROOT
ATOM      1  C   UNL     1      -2.105  28.942  56.149  1.00  0.00     0.032 C 
ENDROOT
BRANCH   1   2
ATOM      2  C   UNL     1      -2.321  28.157  54.876  1.00  0.00    -0.028 C 
ATOM      3  C   UNL     1      -1.328  27.629  54.126  1.00  0.00    -0.077 C 
ATOM      4  C   UNL     1       0.125  27.792  54.501  1.00  0.00     0.039 C 
BRANCH   3   5
ATOM      5  C   UNL     1      -1.669  26.875  52.857  1.00  0.00     0.034 C 
BRANCH   5   6
ATOM      6  C   UNL     1      -1.368  27.697  51.595  1.00  0.00     0.032 C 
BRANCH   6   7
ATOM      7  C   UNL     1      -2.447  28.713  51.301  1.00  0.00    -0.028 C 
ATOM      8  C   UNL     1      -0.933  30.608  51.893  1.00  0.00     0.039 C 
ATOM      9  C   UNL     1      -2.256  30.042  51.434  1.00  0.00    -0.080 C 
ATOM     10  C   UNL     1      -3.400  30.978  51.135  1.00  0.00     0.039 C 
ENDBRANCH   6   7
ENDBRANCH   5   6
ENDBRANCH   3   5
ENDBRANCH   1   2
BRANCH   1  11
ATOM     11  C   UNL     1      -3.399  29.610  56.636  1.00  0.00     0.034 C 
BRANCH  11  12
ATOM     12  C   UNL     1      -3.172  30.447  57.877  1.00  0.00    -0.077 C 
ATOM     13  C   UNL     1      -2.210  30.084  58.753  1.00  0.00    -0.028 C 
ATOM     14  C   UNL     1      -4.042  31.654  58.123  1.00  0.00     0.039 C 
BRANCH  13  15
ATOM     15  C   UNL     1      -1.919  30.846  60.026  1.00  0.00     0.035 C 
BRANCH  15  16
ATOM     16  C   UNL     1      -0.614  31.648  59.927  1.00  0.00     0.079 C 
BRANCH  16  17
ATOM     17  C   UNL     1      -0.633  32.843  60.845  1.00  0.00     0.130 C 
ATOM     18  O   UNL     1      -0.933  33.938  60.397  1.00  0.00    -0.300 OA
ATOM     19  C   UNL     1      -0.302  32.717  62.301  1.00  0.00     0.087 C 
ENDBRANCH  16  17
ENDBRANCH  15  16
ENDBRANCH  13  15
ENDBRANCH  11  12
ENDBRANCH   1  11
TORSDOF 9
ENDMDL
MODEL 2
REMARK VINA RESULT:    -5.363      2.958      8.212
REMARK INTER + INTRA:          -9.361
REMARK INTER:                  -8.517
REMARK INTRA:                  -0.844
REMARK UNBOUND:                -1.176
REMARK SMILES CC(=O)CCC=C(C)CCC=C(C)CCC=C(C)C
REMARK SMILES IDX 10 1 11 2 12 3 13 4 14 5 15 6 16 7 18 8 17 9 19 10 9 11 7 12
REMARK SMILES IDX 6 13 8 14 5 15 4 16 2 17 3 18 1 19
REMARK H PARENT
REMARK Flexibility Score: inf
ROOT
ATOM      1  C   UNL     1      -2.587  28.959  57.035  1.00  0.00     0.032 C 
ENDROOT
BRANCH   1   2
ATOM      2  C   UNL     1      -2.599  30.245  57.829  1.00  0.00    -0.028 C 
ATOM      3  C   UNL     1      -2.097  30.376  59.078  1.00  0.00    -0.077 C 
ATOM      4  C   UNL     1      -1.475  29.213  59.813  1.00  0.00     0.039 C 
BRANCH   3   5
ATOM      5  C   UNL     1      -2.183  31.714  59.783  1.00  0.00     0.034 C 
BRANCH   5   6
ATOM      6  C   UNL     1      -0.804  32.229  60.221  1.00  0.00     0.032 C 
BRANCH   6   7
ATOM      7  C   UNL     1      -0.696  32.379  61.721  1.00  0.00    -0.028 C 
ATOM      8  C   UNL     1       0.263  34.673  61.501  1.00  0.00     0.039 C 
ATOM      9  C   UNL     1      -0.210  33.490  62.312  1.00  0.00    -0.080 C 
ATOM     10  C   UNL     1      -0.123  33.538  63.817  1.00  0.00     0.039 C 
ENDBRANCH   6   7
ENDBRANCH   5   6
ENDBRANCH   3   5
ENDBRANCH   1   2
BRANCH   1  11
ATOM     11  C   UNL     1      -3.186  29.148  55.634  1.00  0.00     0.034 C 
BRANCH  11  12
ATOM     12  C   UNL     1      -2.160  28.916  54.544  1.00  0.00    -0.077 C 
ATOM     13  C   UNL     1      -0.956  28.396  54.869  1.00  0.00    -0.028 C 
ATOM     14  C   UNL     1      -2.494  29.294  53.123  1.00  0.00     0.039 C 
BRANCH  13  15
ATOM     15  C   UNL     1       0.136  28.143  53.855  1.00  0.00     0.035 C 
BRANCH  15  16
ATOM     16  C   UNL     1       0.432  26.645  53.694  1.00  0.00     0.079 C 
BRANCH  16  17
ATOM     17  C   UNL     1       1.765  26.281  54.294  1.00  0.00     0.130 C 
ATOM     18  O   UNL     1       2.711  26.051  53.558  1.00  0.00    -0.300 OA
ATOM     19  C   UNL     1       1.961  26.206  55.778  1.00  0.00     0.087 C 
ENDBRANCH  16  17
ENDBRANCH  15  16
ENDBRANCH  13  15
ENDBRANCH  11  12
ENDBRANCH   1  11
TORSDOF 9
ENDMDL
MODEL 3
REMARK VINA RESULT:    -5.197      1.398      1.739
REMARK INTER + INTRA:          -9.106
REMARK INTER:                  -8.258
REMARK INTRA:                  -0.849
REMARK UNBOUND:                -1.176
REMARK SMILES CC(=O)CCC=C(C)CCC=C(C)CCC=C(C)C
REMARK SMILES IDX 10 1 11 2 12 3 13 4 14 5 15 6 16 7 18 8 17 9 19 10 9 11 7 12
REMARK SMILES IDX 6 13 8 14 5 15 4 16 2 17 3 18 1 19
REMARK H PARENT
REMARK Flexibility Score: inf
ROOT
ATOM      1  C   UNL     1      -2.548  28.926  56.416  1.00  0.00     0.032 C 
ENDROOT
BRANCH   1   2
ATOM      2  C   UNL     1      -2.638  28.860  54.909  1.00  0.00    -0.028 C 
ATOM      3  C   UNL     1      -1.634  28.453  54.100  1.00  0.00    -0.077 C 
ATOM      4  C   UNL     1      -0.293  28.030  54.648  1.00  0.00     0.039 C 
BRANCH   3   5
ATOM      5  C   UNL     1      -1.838  28.447  52.599  1.00  0.00     0.034 C 
BRANCH   5   6
ATOM      6  C   UNL     1      -1.663  29.842  51.983  1.00  0.00     0.032 C 
BRANCH   6   7
ATOM      7  C   UNL     1      -0.592  29.871  50.917  1.00  0.00    -0.028 C 
ATOM      8  C   UNL     1      -2.136  30.958  49.284  1.00  0.00     0.039 C 
ATOM      9  C   UNL     1      -0.800  30.378  49.685  1.00  0.00    -0.080 C 
ATOM     10  C   UNL     1       0.326  30.345  48.682  1.00  0.00     0.039 C 
ENDBRANCH   6   7
ENDBRANCH   5   6
ENDBRANCH   3   5
ENDBRANCH   1   2
BRANCH   1  11
ATOM     11  C   UNL     1      -3.477  30.002  56.997  1.00  0.00     0.034 C 
BRANCH  11  12
ATOM     12  C   UNL     1      -3.010  30.478  58.357  1.00  0.00    -0.077 C 
ATOM     13  C   UNL     1      -1.971  29.855  58.955  1.00  0.00    -0.028 C 
ATOM     14  C   UNL     1      -3.731  31.620  59.027  1.00  0.00     0.039 C 
BRANCH  13  15
ATOM     15  C   UNL     1      -1.444  30.248  60.316  1.00  0.00     0.035 C 
BRANCH  15  16
ATOM     16  C   UNL     1      -0.430  31.397  60.227  1.00  0.00     0.079 C 
BRANCH  16  17
ATOM     17  C   UNL     1      -0.585  32.357  61.378  1.00  0.00     0.130 C 
ATOM     18  O   UNL     1       0.323  33.129  61.641  1.00  0.00    -0.300 OA
ATOM     19  C   UNL     1      -1.836  32.394  62.203  1.00  0.00     0.087 C 
ENDBRANCH  16  17
ENDBRANCH  15  16
ENDBRANCH  13  15
ENDBRANCH  11  12
ENDBRANCH   1  11
TORSDOF 9
ENDMDL
MODEL 4
REMARK VINA RESULT:    -5.172      1.444      2.905
REMARK INTER + INTRA:          -9.069
REMARK INTER:                  -7.852
REMARK INTRA:                  -1.217
REMARK UNBOUND:                -1.176
REMARK SMILES CC(=O)CCC=C(C)CCC=C(C)CCC=C(C)C
REMARK SMILES IDX 10 1 11 2 12 3 13 4 14 5 15 6 16 7 18 8 17 9 19 10 9 11 7 12
REMARK SMILES IDX 6 13 8 14 5 15 4 16 2 17 3 18 1 19
REMARK H PARENT
REMARK Flexibility Score: inf
ROOT
ATOM      1  C   UNL     1      -2.963  29.269  56.035  1.00  0.00     0.032 C 
ENDROOT
BRANCH   1   2
ATOM      2  C   UNL     1      -2.839  28.188  54.986  1.00  0.00    -0.028 C 
ATOM      3  C   UNL     1      -2.145  28.317  53.833  1.00  0.00    -0.077 C 
ATOM      4  C   UNL     1      -1.424  29.595  53.477  1.00  0.00     0.039 C 
BRANCH   3   5
ATOM      5  C   UNL     1      -2.107  27.166  52.848  1.00  0.00     0.034 C 
BRANCH   5   6
ATOM      6  C   UNL     1      -0.676  26.680  52.578  1.00  0.00     0.032 C 
BRANCH   6   7
ATOM      7  C   UNL     1       0.020  26.215  53.836  1.00  0.00    -0.028 C 
ATOM      8  C   UNL     1       1.945  27.753  53.433  1.00  0.00     0.039 C 
ATOM      9  C   UNL     1       1.216  26.699  54.232  1.00  0.00    -0.080 C 
ATOM     10  C   UNL     1       1.842  26.157  55.492  1.00  0.00     0.039 C 
ENDBRANCH   6   7
ENDBRANCH   5   6
ENDBRANCH   3   5
ENDBRANCH   1   2
BRANCH   1  11
ATOM     11  C   UNL     1      -2.162  28.932  57.300  1.00  0.00     0.034 C 
BRANCH  11  12
ATOM     12  C   UNL     1      -2.408  29.934  58.409  1.00  0.00    -0.077 C 
ATOM     13  C   UNL     1      -1.735  29.811  59.574  1.00  0.00    -0.028 C 
ATOM     14  C   UNL     1      -3.420  31.033  58.200  1.00  0.00     0.039 C 
BRANCH  13  15
ATOM     15  C   UNL     1      -1.924  30.751  60.742  1.00  0.00     0.035 C 
BRANCH  15  16
ATOM     16  C   UNL     1      -0.663  31.583  61.017  1.00  0.00     0.079 C 
BRANCH  16  17
ATOM     17  C   UNL     1      -0.954  33.060  60.953  1.00  0.00     0.130 C 
ATOM     18  O   UNL     1      -1.817  33.468  60.192  1.00  0.00    -0.300 OA
ATOM     19  C   UNL     1      -0.216  34.041  61.812  1.00  0.00     0.087 C 
ENDBRANCH  16  17
ENDBRANCH  15  16
ENDBRANCH  13  15
ENDBRANCH  11  12
ENDBRANCH   1  11
TORSDOF 9
ENDMDL
MODEL 5
REMARK VINA RESULT:    -5.039      2.770      8.297
REMARK INTER + INTRA:          -8.865
REMARK INTER:                  -7.765
REMARK INTRA:                  -1.100
REMARK UNBOUND:                -1.176
REMARK SMILES CC(=O)CCC=C(C)CCC=C(C)CCC=C(C)C
REMARK SMILES IDX 10 1 11 2 12 3 13 4 14 5 15 6 16 7 18 8 17 9 19 10 9 11 7 12
REMARK SMILES IDX 6 13 8 14 5 15 4 16 2 17 3 18 1 19
REMARK H PARENT
REMARK Flexibility Score: inf
ROOT
ATOM      1  C   UNL     1      -2.672  30.748  58.567  1.00  0.00     0.032 C 
ENDROOT
BRANCH   1   2
ATOM      2  C   UNL     1      -1.619  31.291  59.506  1.00  0.00    -0.028 C 
ATOM      3  C   UNL     1      -1.728  31.298  60.854  1.00  0.00    -0.077 C 
ATOM      4  C   UNL     1      -2.951  30.761  61.557  1.00  0.00     0.039 C 
BRANCH   3   5
ATOM      5  C   UNL     1      -0.611  31.887  61.692  1.00  0.00     0.034 C 
BRANCH   5   6
ATOM      6  C   UNL     1      -0.268  33.324  61.274  1.00  0.00     0.032 C 
BRANCH   6   7
ATOM      7  C   UNL     1      -1.107  34.350  61.999  1.00  0.00    -0.028 C 
ATOM      8  C   UNL     1      -1.977  35.273  59.848  1.00  0.00     0.039 C 
ATOM      9  C   UNL     1      -1.889  35.242  61.356  1.00  0.00    -0.080 C 
ATOM     10  C   UNL     1      -2.676  36.242  62.166  1.00  0.00     0.039 C 
ENDBRANCH   6   7
ENDBRANCH   5   6
ENDBRANCH   3   5
ENDBRANCH   1   2
BRANCH   1  11
ATOM     11  C   UNL     1      -2.264  29.393  57.974  1.00  0.00     0.034 C 
BRANCH  11  12
ATOM     12  C   UNL     1      -2.730  29.239  56.541  1.00  0.00    -0.077 C 
ATOM     13  C   UNL     1      -1.888  28.714  55.624  1.00  0.00    -0.028 C 
ATOM     14  C   UNL     1      -4.114  29.702  56.161  1.00  0.00     0.039 C 
BRANCH  13  15
ATOM     15  C   UNL     1      -2.257  28.535  54.169  1.00  0.00     0.035 C 
BRANCH  15  16
ATOM     16  C   UNL     1      -1.551  27.325  53.543  1.00  0.00     0.079 C 
BRANCH  16  17
ATOM     17  C   UNL     1      -0.053  27.485  53.576  1.00  0.00     0.130 C 
ATOM     18  O   UNL     1       0.453  28.487  53.098  1.00  0.00    -0.300 OA
ATOM     19  C   UNL     1       0.832  26.444  54.192  1.00  0.00     0.087 C 
ENDBRANCH  16  17
ENDBRANCH  15  16
ENDBRANCH  13  15
ENDBRANCH  11  12
ENDBRANCH   1  11
TORSDOF 9
ENDMDL
MODEL 6
REMARK VINA RESULT:    -5.002      2.945      8.476
REMARK INTER + INTRA:          -8.810
REMARK INTER:                  -7.935
REMARK INTRA:                  -0.875
REMARK UNBOUND:                -1.176
REMARK SMILES CC(=O)CCC=C(C)CCC=C(C)CCC=C(C)C
REMARK SMILES IDX 10 1 11 2 12 3 13 4 14 5 15 6 16 7 18 8 17 9 19 10 9 11 7 12
REMARK SMILES IDX 6 13 8 14 5 15 4 16 2 17 3 18 1 19
REMARK H PARENT
REMARK Flexibility Score: inf
ROOT
ATOM      1  C   UNL     1      -2.846  28.898  55.375  1.00  0.00     0.032 C 
ENDROOT
BRANCH   1   2
ATOM      2  C   UNL     1      -2.238  28.877  56.759  1.00  0.00    -0.028 C 
ATOM      3  C   UNL     1      -2.611  29.694  57.770  1.00  0.00    -0.077 C 
ATOM      4  C   UNL     1      -3.688  30.737  57.595  1.00  0.00     0.039 C 
BRANCH   3   5
ATOM      5  C   UNL     1      -1.914  29.591  59.111  1.00  0.00     0.034 C 
BRANCH   5   6
ATOM      6  C   UNL     1      -2.534  30.525  60.160  1.00  0.00     0.032 C 
BRANCH   6   7
ATOM      7  C   UNL     1      -1.514  31.030  61.156  1.00  0.00    -0.028 C 
ATOM      8  C   UNL     1      -1.733  33.369  60.313  1.00  0.00     0.039 C 
ATOM      9  C   UNL     1      -1.144  32.325  61.231  1.00  0.00    -0.080 C 
ATOM     10  C   UNL     1      -0.103  32.729  62.245  1.00  0.00     0.039 C 
ENDBRANCH   6   7
ENDBRANCH   5   6
ENDBRANCH   3   5
ENDBRANCH   1   2
BRANCH   1  11
ATOM     11  C   UNL     1      -2.077  27.997  54.400  1.00  0.00     0.034 C 
BRANCH  11  12
ATOM     12  C   UNL     1      -2.140  28.517  52.979  1.00  0.00    -0.077 C 
ATOM     13  C   UNL     1      -2.620  29.759  52.750  1.00  0.00    -0.028 C 
ATOM     14  C   UNL     1      -1.691  27.629  51.846  1.00  0.00     0.039 C 
BRANCH  13  15
ATOM     15  C   UNL     1      -2.736  30.359  51.368  1.00  0.00     0.035 C 
BRANCH  15  16
ATOM     16  C   UNL     1      -1.483  31.158  50.983  1.00  0.00     0.079 C 
BRANCH  16  17
ATOM     17  C   UNL     1      -1.008  30.803  49.598  1.00  0.00     0.130 C 
ATOM     18  O   UNL     1       0.035  30.186  49.461  1.00  0.00    -0.300 OA
ATOM     19  C   UNL     1      -1.796  31.182  48.380  1.00  0.00     0.087 C 
ENDBRANCH  16  17
ENDBRANCH  15  16
ENDBRANCH  13  15
ENDBRANCH  11  12
ENDBRANCH   1  11
TORSDOF 9
ENDMDL
MODEL 7
REMARK VINA RESULT:    -4.809      2.837      8.613
REMARK INTER + INTRA:          -8.515
REMARK INTER:                  -7.187
REMARK INTRA:                  -1.328
REMARK UNBOUND:                -1.176
REMARK SMILES CC(=O)CCC=C(C)CCC=C(C)CCC=C(C)C
REMARK SMILES IDX 10 1 11 2 12 3 13 4 14 5 15 6 16 7 18 8 17 9 19 10 9 11 7 12
REMARK SMILES IDX 6 13 8 14 5 15 4 16 2 17 3 18 1 19
REMARK H PARENT
REMARK Flexibility Score: inf
ROOT
ATOM      1  C   UNL     1      -3.093  31.436  58.619  1.00  0.00     0.032 C 
ENDROOT
BRANCH   1   2
ATOM      2  C   UNL     1      -3.713  31.449  59.996  1.00  0.00    -0.028 C 
ATOM      3  C   UNL     1      -3.181  30.840  61.080  1.00  0.00    -0.077 C 
ATOM      4  C   UNL     1      -1.890  30.062  61.002  1.00  0.00     0.039 C 
BRANCH   3   5
ATOM      5  C   UNL     1      -3.906  30.908  62.409  1.00  0.00     0.034 C 
BRANCH   5   6
ATOM      6  C   UNL     1      -3.812  32.300  63.050  1.00  0.00     0.032 C 
BRANCH   6   7
ATOM      7  C   UNL     1      -2.442  32.578  63.624  1.00  0.00    -0.028 C 
ATOM      8  C   UNL     1      -1.941  34.239  61.830  1.00  0.00     0.039 C 
ATOM      9  C   UNL     1      -1.583  33.461  63.073  1.00  0.00    -0.080 C 
ATOM     10  C   UNL     1      -0.229  33.656  63.708  1.00  0.00     0.039 C 
ENDBRANCH   6   7
ENDBRANCH   5   6
ENDBRANCH   3   5
ENDBRANCH   1   2
BRANCH   1  11
ATOM     11  C   UNL     1      -3.955  30.662  57.611  1.00  0.00     0.034 C 
BRANCH  11  12
ATOM     12  C   UNL     1      -3.162  29.586  56.898  1.00  0.00    -0.077 C 
ATOM     13  C   UNL     1      -3.360  29.386  55.576  1.00  0.00    -0.028 C 
ATOM     14  C   UNL     1      -2.189  28.743  57.682  1.00  0.00     0.039 C 
BRANCH  13  15
ATOM     15  C   UNL     1      -2.629  28.328  54.782  1.00  0.00     0.035 C 
BRANCH  15  16
ATOM     16  C   UNL     1      -1.270  28.831  54.274  1.00  0.00     0.079 C 
BRANCH  16  17
ATOM     17  C   UNL     1      -0.301  27.693  54.080  1.00  0.00     0.130 C 
ATOM     18  O   UNL     1       0.820  27.774  54.554  1.00  0.00    -0.300 OA
ATOM     19  C   UNL     1      -0.687  26.457  53.326  1.00  0.00     0.087 C 
ENDBRANCH  16  17
ENDBRANCH  15  16
ENDBRANCH  13  15
ENDBRANCH  11  12
ENDBRANCH   1  11
TORSDOF 9
ENDMDL
MODEL 8
REMARK VINA RESULT:    -4.800      3.473      8.633
REMARK INTER + INTRA:          -8.500
REMARK INTER:                  -7.731
REMARK INTRA:                  -0.770
REMARK UNBOUND:                -1.176
REMARK SMILES CC(=O)CCC=C(C)CCC=C(C)CCC=C(C)C
REMARK SMILES IDX 10 1 11 2 12 3 13 4 14 5 15 6 16 7 18 8 17 9 19 10 9 11 7 12
REMARK SMILES IDX 6 13 8 14 5 15 4 16 2 17 3 18 1 19
REMARK H PARENT
REMARK Flexibility Score: inf
ROOT
ATOM      1  C   UNL     1      -2.578  28.283  54.850  1.00  0.00     0.032 C 
ENDROOT
BRANCH   1   2
ATOM      2  C   UNL     1      -3.356  29.355  55.578  1.00  0.00    -0.028 C 
ATOM      3  C   UNL     1      -3.208  29.650  56.889  1.00  0.00    -0.077 C 
ATOM      4  C   UNL     1      -2.233  28.904  57.767  1.00  0.00     0.039 C 
BRANCH   3   5
ATOM      5  C   UNL     1      -4.059  30.738  57.513  1.00  0.00     0.034 C 
BRANCH   5   6
ATOM      6  C   UNL     1      -3.317  31.486  58.630  1.00  0.00     0.032 C 
BRANCH   6   7
ATOM      7  C   UNL     1      -3.958  31.282  59.983  1.00  0.00    -0.028 C 
ATOM      8  C   UNL     1      -1.780  30.610  61.000  1.00  0.00     0.039 C 
ATOM      9  C   UNL     1      -3.264  30.883  61.068  1.00  0.00    -0.080 C 
ATOM     10  C   UNL     1      -3.996  30.688  62.372  1.00  0.00     0.039 C 
ENDBRANCH   6   7
ENDBRANCH   5   6
ENDBRANCH   3   5
ENDBRANCH   1   2
BRANCH   1  11
ATOM     11  C   UNL     1      -1.303  28.842  54.204  1.00  0.00     0.034 C 
BRANCH  11  12
ATOM     12  C   UNL     1      -1.416  28.908  52.695  1.00  0.00    -0.077 C 
ATOM     13  C   UNL     1      -1.504  30.113  52.091  1.00  0.00    -0.028 C 
ATOM     14  C   UNL     1      -1.457  27.627  51.900  1.00  0.00     0.039 C 
BRANCH  13  15
ATOM     15  C   UNL     1      -1.635  30.280  50.594  1.00  0.00     0.035 C 
BRANCH  15  16
ATOM     16  C   UNL     1      -0.296  30.066  49.874  1.00  0.00     0.079 C 
BRANCH  16  17
ATOM     17  C   UNL     1      -0.290  30.723  48.518  1.00  0.00     0.130 C 
ATOM     18  O   UNL     1       0.746  30.759  47.875  1.00  0.00    -0.300 OA
ATOM     19  C   UNL     1      -1.532  31.324  47.934  1.00  0.00     0.087 C 
ENDBRANCH  16  17
ENDBRANCH  15  16
ENDBRANCH  13  15
ENDBRANCH  11  12
ENDBRANCH   1  11
TORSDOF 9
ENDMDL
MODEL 9
REMARK VINA RESULT:    -4.785      2.428      8.435
REMARK INTER + INTRA:          -8.478
REMARK INTER:                  -7.579
REMARK INTRA:                  -0.900
REMARK UNBOUND:                -1.176
REMARK SMILES CC(=O)CCC=C(C)CCC=C(C)CCC=C(C)C
REMARK SMILES IDX 10 1 11 2 12 3 13 4 14 5 15 6 16 7 18 8 17 9 19 10 9 11 7 12
REMARK SMILES IDX 6 13 8 14 5 15 4 16 2 17 3 18 1 19
REMARK H PARENT
REMARK Flexibility Score: inf
ROOT
ATOM      1  C   UNL     1      -2.265  28.884  57.179  1.00  0.00     0.032 C 
ENDROOT
BRANCH   1   2
ATOM      2  C   UNL     1      -2.610  30.104  58.001  1.00  0.00    -0.028 C 
ATOM      3  C   UNL     1      -2.094  30.375  59.221  1.00  0.00    -0.077 C 
ATOM      4  C   UNL     1      -1.109  29.450  59.892  1.00  0.00     0.039 C 
BRANCH   3   5
ATOM      5  C   UNL     1      -2.532  31.625  59.958  1.00  0.00     0.034 C 
BRANCH   5   6
ATOM      6  C   UNL     1      -1.340  32.492  60.387  1.00  0.00     0.032 C 
BRANCH   6   7
ATOM      7  C   UNL     1      -1.219  32.601  61.890  1.00  0.00    -0.028 C 
ATOM      8  C   UNL     1       0.374  34.514  61.701  1.00  0.00     0.039 C 
ATOM      9  C   UNL     1      -0.439  33.520  62.496  1.00  0.00    -0.080 C 
ATOM     10  C   UNL     1      -0.368  33.538  64.002  1.00  0.00     0.039 C 
ENDBRANCH   6   7
ENDBRANCH   5   6
ENDBRANCH   3   5
ENDBRANCH   1   2
BRANCH   1  11
ATOM     11  C   UNL     1      -3.000  28.875  55.832  1.00  0.00     0.034 C 
BRANCH  11  12
ATOM     12  C   UNL     1      -2.099  28.432  54.698  1.00  0.00    -0.077 C 
ATOM     13  C   UNL     1      -2.623  28.261  53.465  1.00  0.00    -0.028 C 
ATOM     14  C   UNL     1      -0.641  28.164  54.975  1.00  0.00     0.039 C 
BRANCH  13  15
ATOM     15  C   UNL     1      -1.808  27.808  52.275  1.00  0.00     0.035 C 
BRANCH  15  16
ATOM     16  C   UNL     1      -1.896  28.801  51.108  1.00  0.00     0.079 C 
BRANCH  16  17
ATOM     17  C   UNL     1      -1.399  30.166  51.509  1.00  0.00     0.130 C 
ATOM     18  O   UNL     1      -2.154  31.122  51.440  1.00  0.00    -0.300 OA
ATOM     19  C   UNL     1       0.000  30.375  52.002  1.00  0.00     0.087 C 
ENDBRANCH  16  17
ENDBRANCH  15  16
ENDBRANCH  13  15
ENDBRANCH  11  12
ENDBRANCH   1  11
TORSDOF 9
ENDMDL
