MODEL 1
REMARK VINA RESULT:    -3.862      0.000      0.000
REMARK INTER + INTRA:          -5.707
REMARK INTER:                  -5.443
REMARK INTRA:                  -0.264
REMARK UNBOUND:                -0.264
REMARK SMILES CCCCCCCCC(=O)[O-]
REMARK SMILES IDX 6 1 7 2 8 3 9 4 10 5 11 6 5 7 4 8 3 9 2 10 1 11
REMARK H PARENT
REMARK Flexibility Score: inf
ROOT
ATOM      1  C   UNL     1      19.797  -6.464  47.697  1.00  0.00     0.000 C 
ENDROOT
BRANCH   1   2
ATOM      2  C   UNL     1      19.950  -6.778  46.199  1.00  0.00     0.006 C 
BRANCH   2   3
ATOM      3  C   UNL     1      18.598  -7.020  45.516  1.00  0.00     0.053 C 
BRANCH   3   4
ATOM      4  C   UNL     1      18.654  -6.712  44.051  1.00  0.00     0.041 C 
ATOM      5  O   UNL     1      17.647  -6.239  43.463  1.00  0.00    -0.550 OA
ATOM      6  O   UNL     1      19.810  -6.980  43.329  1.00  0.00    -0.550 OA
ENDBRANCH   3   4
ENDBRANCH   2   3
ENDBRANCH   1   2
BRANCH   1   7
ATOM      7  C   UNL     1      20.669  -7.368  48.584  1.00  0.00     0.000 C 
BRANCH   7   8
ATOM      8  C   UNL     1      20.245  -7.334  50.059  1.00  0.00    -0.000 C 
BRANCH   8   9
ATOM      9  C   UNL     1      21.467  -7.245  50.980  1.00  0.00    -0.000 C 
BRANCH   9  10
ATOM     10  C   UNL     1      22.569  -6.385  50.351  1.00  0.00    -0.003 C 
ATOM     11  C   UNL     1      22.880  -5.167  51.216  1.00  0.00     0.004 C 
ENDBRANCH   9  10
ENDBRANCH   8   9
ENDBRANCH   7   8
ENDBRANCH   1   7
TORSDOF 7
ENDMDL
MODEL 2
REMARK VINA RESULT:    -3.769      2.103      3.472
REMARK INTER + INTRA:          -5.574
REMARK INTER:                  -5.081
REMARK INTRA:                  -0.493
REMARK UNBOUND:                -0.264
REMARK SMILES CCCCCCCCC(=O)[O-]
REMARK SMILES IDX 6 1 7 2 8 3 9 4 10 5 11 6 5 7 4 8 3 9 2 10 1 11
REMARK H PARENT
REMARK Flexibility Score: inf
ROOT
ATOM      1  C   UNL     1      20.512  -7.467  43.981  1.00  0.00     0.000 C 
ENDROOT
BRANCH   1   2
ATOM      2  C   UNL     1      20.972  -6.034  43.662  1.00  0.00     0.006 C 
BRANCH   2   3
ATOM      3  C   UNL     1      19.960  -5.282  42.788  1.00  0.00     0.053 C 
BRANCH   3   4
ATOM      4  C   UNL     1      19.274  -4.190  43.550  1.00  0.00     0.041 C 
ATOM      5  O   UNL     1      19.785  -3.737  44.607  1.00  0.00    -0.550 OA
ATOM      6  O   UNL     1      18.053  -3.697  43.109  1.00  0.00    -0.550 OA
ENDBRANCH   3   4
ENDBRANCH   2   3
ENDBRANCH   1   2
BRANCH   1   7
ATOM      7  C   UNL     1      20.418  -7.737  45.491  1.00  0.00     0.000 C 
BRANCH   7   8
ATOM      8  C   UNL     1      19.378  -6.846  46.186  1.00  0.00    -0.000 C 
BRANCH   8   9
ATOM      9  C   UNL     1      19.957  -6.216  47.458  1.00  0.00    -0.000 C 
BRANCH   9  10
ATOM     10  C   UNL     1      20.683  -7.262  48.310  1.00  0.00    -0.003 C 
ATOM     11  C   UNL     1      20.169  -7.256  49.747  1.00  0.00     0.004 C 
ENDBRANCH   9  10
ENDBRANCH   8   9
ENDBRANCH   7   8
ENDBRANCH   1   7
TORSDOF 7
ENDMDL
MODEL 3
REMARK VINA RESULT:    -3.766      0.764      1.374
REMARK INTER + INTRA:          -5.571
REMARK INTER:                  -5.342
REMARK INTRA:                  -0.229
REMARK UNBOUND:                -0.264
REMARK SMILES CCCCCCCCC(=O)[O-]
REMARK SMILES IDX 6 1 7 2 8 3 9 4 10 5 11 6 5 7 4 8 3 9 2 10 1 11
REMARK H PARENT
REMARK Flexibility Score: inf
ROOT
ATOM      1  C   UNL     1      20.062  -6.800  46.362  1.00  0.00     0.000 C 
ENDROOT
BRANCH   1   2
ATOM      2  C   UNL     1      18.767  -6.952  45.545  1.00  0.00     0.006 C 
BRANCH   2   3
ATOM      3  C   UNL     1      19.044  -7.347  44.089  1.00  0.00     0.053 C 
BRANCH   3   4
ATOM      4  C   UNL     1      19.356  -6.152  43.241  1.00  0.00     0.041 C 
ATOM      5  O   UNL     1      18.481  -5.268  43.044  1.00  0.00    -0.550 OA
ATOM      6  O   UNL     1      20.602  -6.032  42.640  1.00  0.00    -0.550 OA
ENDBRANCH   3   4
ENDBRANCH   2   3
ENDBRANCH   1   2
BRANCH   1   7
ATOM      7  C   UNL     1      19.794  -6.560  47.857  1.00  0.00     0.000 C 
BRANCH   7   8
ATOM      8  C   UNL     1      20.560  -7.539  48.759  1.00  0.00    -0.000 C 
BRANCH   8   9
ATOM      9  C   UNL     1      20.283  -7.253  50.239  1.00  0.00    -0.000 C 
BRANCH   9  10
ATOM     10  C   UNL     1      21.570  -7.330  51.066  1.00  0.00    -0.003 C 
ATOM     11  C   UNL     1      22.445  -6.100  50.840  1.00  0.00     0.004 C 
ENDBRANCH   9  10
ENDBRANCH   8   9
ENDBRANCH   7   8
ENDBRANCH   1   7
TORSDOF 7
ENDMDL
MODEL 4
REMARK VINA RESULT:    -3.727      4.086      5.926
REMARK INTER + INTRA:          -5.516
REMARK INTER:                  -4.869
REMARK INTRA:                  -0.648
REMARK UNBOUND:                -0.264
REMARK SMILES CCCCCCCCC(=O)[O-]
REMARK SMILES IDX 6 1 7 2 8 3 9 4 10 5 11 6 5 7 4 8 3 9 2 10 1 11
REMARK H PARENT
REMARK Flexibility Score: inf
ROOT
ATOM      1  C   UNL     1      19.674  -4.106  43.212  1.00  0.00     0.000 C 
ENDROOT
BRANCH   1   2
ATOM      2  C   UNL     1      20.111  -3.663  44.619  1.00  0.00     0.006 C 
BRANCH   2   3
ATOM      3  C   UNL     1      21.631  -3.488  44.725  1.00  0.00     0.053 C 
BRANCH   3   4
ATOM      4  C   UNL     1      22.022  -2.041  44.739  1.00  0.00     0.041 C 
ATOM      5  O   UNL     1      22.431  -1.484  43.687  1.00  0.00    -0.550 OA
ATOM      6  O   UNL     1      21.965  -1.318  45.923  1.00  0.00    -0.550 OA
ENDBRANCH   3   4
ENDBRANCH   2   3
ENDBRANCH   1   2
BRANCH   1   7
ATOM      7  C   UNL     1      19.012  -5.493  43.207  1.00  0.00     0.000 C 
BRANCH   7   8
ATOM      8  C   UNL     1      20.035  -6.637  43.268  1.00  0.00    -0.000 C 
BRANCH   8   9
ATOM      9  C   UNL     1      19.646  -7.664  44.337  1.00  0.00    -0.000 C 
BRANCH   9  10
ATOM     10  C   UNL     1      18.738  -7.037  45.400  1.00  0.00    -0.003 C 
ATOM     11  C   UNL     1      19.502  -6.773  46.694  1.00  0.00     0.004 C 
ENDBRANCH   9  10
ENDBRANCH   8   9
ENDBRANCH   7   8
ENDBRANCH   1   7
TORSDOF 7
ENDMDL
MODEL 5
REMARK VINA RESULT:    -3.726      1.343      2.563
REMARK INTER + INTRA:          -5.514
REMARK INTER:                  -4.935
REMARK INTRA:                  -0.579
REMARK UNBOUND:                -0.264
REMARK SMILES CCCCCCCCC(=O)[O-]
REMARK SMILES IDX 6 1 7 2 8 3 9 4 10 5 11 6 5 7 4 8 3 9 2 10 1 11
REMARK H PARENT
REMARK Flexibility Score: inf
ROOT
ATOM      1  C   UNL     1      20.155  -7.165  49.893  1.00  0.00     0.000 C 
ENDROOT
BRANCH   1   2
ATOM      2  C   UNL     1      20.555  -7.321  48.415  1.00  0.00     0.006 C 
BRANCH   2   3
ATOM      3  C   UNL     1      19.898  -6.261  47.522  1.00  0.00     0.053 C 
BRANCH   3   4
ATOM      4  C   UNL     1      19.464  -6.836  46.209  1.00  0.00     0.041 C 
ATOM      5  O   UNL     1      20.298  -6.995  45.279  1.00  0.00    -0.550 OA
ATOM      6  O   UNL     1      18.130  -7.164  46.001  1.00  0.00    -0.550 OA
ENDBRANCH   3   4
ENDBRANCH   2   3
ENDBRANCH   1   2
BRANCH   1   7
ATOM      7  C   UNL     1      21.344  -7.349  50.850  1.00  0.00     0.000 C 
BRANCH   7   8
ATOM      8  C   UNL     1      22.591  -6.575  50.400  1.00  0.00    -0.000 C 
BRANCH   8   9
ATOM      9  C   UNL     1      22.803  -5.326  51.263  1.00  0.00    -0.000 C 
BRANCH   9  10
ATOM     10  C   UNL     1      23.197  -4.121  50.402  1.00  0.00    -0.003 C 
ATOM     11  C   UNL     1      23.058  -4.437  48.915  1.00  0.00     0.004 C 
ENDBRANCH   9  10
ENDBRANCH   8   9
ENDBRANCH   7   8
ENDBRANCH   1   7
TORSDOF 7
ENDMDL
MODEL 6
REMARK VINA RESULT:    -3.706      5.323      6.817
REMARK INTER + INTRA:          -5.486
REMARK INTER:                  -4.950
REMARK INTRA:                  -0.537
REMARK UNBOUND:                -0.264
REMARK SMILES CCCCCCCCC(=O)[O-]
REMARK SMILES IDX 6 1 7 2 8 3 9 4 10 5 11 6 5 7 4 8 3 9 2 10 1 11
REMARK H PARENT
REMARK Flexibility Score: inf
ROOT
ATOM      1  C   UNL     1      20.131  -3.796  44.808  1.00  0.00     0.000 C 
ENDROOT
BRANCH   1   2
ATOM      2  C   UNL     1      21.484  -3.332  45.375  1.00  0.00     0.006 C 
BRANCH   2   3
ATOM      3  C   UNL     1      22.325  -2.588  44.330  1.00  0.00     0.053 C 
BRANCH   3   4
ATOM      4  C   UNL     1      22.723  -1.225  44.809  1.00  0.00     0.041 C 
ATOM      5  O   UNL     1      22.480  -0.209  44.106  1.00  0.00    -0.550 OA
ATOM      6  O   UNL     1      23.393  -1.081  46.017  1.00  0.00    -0.550 OA
ENDBRANCH   3   4
ENDBRANCH   2   3
ENDBRANCH   1   2
BRANCH   1   7
ATOM      7  C   UNL     1      20.107  -3.812  43.271  1.00  0.00     0.000 C 
BRANCH   7   8
ATOM      8  C   UNL     1      19.775  -5.198  42.700  1.00  0.00    -0.000 C 
BRANCH   8   9
ATOM      9  C   UNL     1      20.738  -6.261  43.240  1.00  0.00    -0.000 C 
BRANCH   9  10
ATOM     10  C   UNL     1      19.987  -7.538  43.630  1.00  0.00    -0.003 C 
ATOM     11  C   UNL     1      18.686  -7.213  44.359  1.00  0.00     0.004 C 
ENDBRANCH   9  10
ENDBRANCH   8   9
ENDBRANCH   7   8
ENDBRANCH   1   7
TORSDOF 7
ENDMDL
MODEL 7
REMARK VINA RESULT:    -3.688      4.055      6.078
REMARK INTER + INTRA:          -5.461
REMARK INTER:                  -5.104
REMARK INTRA:                  -0.357
REMARK UNBOUND:                -0.264
REMARK SMILES CCCCCCCCC(=O)[O-]
REMARK SMILES IDX 6 1 7 2 8 3 9 4 10 5 11 6 5 7 4 8 3 9 2 10 1 11
REMARK H PARENT
REMARK Flexibility Score: inf
ROOT
ATOM      1  C   UNL     1      24.090  -4.647  50.035  1.00  0.00     0.000 C 
ENDROOT
BRANCH   1   2
ATOM      2  C   UNL     1      23.268  -3.575  50.770  1.00  0.00     0.006 C 
BRANCH   2   3
ATOM      3  C   UNL     1      23.635  -2.154  50.321  1.00  0.00     0.053 C 
BRANCH   3   4
ATOM      4  C   UNL     1      22.527  -1.518  49.539  1.00  0.00     0.041 C 
ATOM      5  O   UNL     1      21.687  -0.779  50.116  1.00  0.00    -0.550 OA
ATOM      6  O   UNL     1      22.404  -1.768  48.179  1.00  0.00    -0.550 OA
ENDBRANCH   3   4
ENDBRANCH   2   3
ENDBRANCH   1   2
BRANCH   1   7
ATOM      7  C   UNL     1      23.775  -6.071  50.519  1.00  0.00     0.000 C 
BRANCH   7   8
ATOM      8  C   UNL     1      22.379  -6.185  51.149  1.00  0.00    -0.000 C 
BRANCH   8   9
ATOM      9  C   UNL     1      21.709  -7.510  50.763  1.00  0.00    -0.000 C 
BRANCH   9  10
ATOM     10  C   UNL     1      20.289  -7.277  50.237  1.00  0.00    -0.003 C 
ATOM     11  C   UNL     1      20.285  -7.096  48.721  1.00  0.00     0.004 C 
ENDBRANCH   9  10
ENDBRANCH   8   9
ENDBRANCH   7   8
ENDBRANCH   1   7
TORSDOF 7
ENDMDL
MODEL 8
REMARK VINA RESULT:    -3.673      1.638      2.196
REMARK INTER + INTRA:          -5.439
REMARK INTER:                  -4.884
REMARK INTRA:                  -0.555
REMARK UNBOUND:                -0.264
REMARK SMILES CCCCCCCCC(=O)[O-]
REMARK SMILES IDX 6 1 7 2 8 3 9 4 10 5 11 6 5 7 4 8 3 9 2 10 1 11
REMARK H PARENT
REMARK Flexibility Score: inf
ROOT
ATOM      1  C   UNL     1      20.593  -7.371  48.397  1.00  0.00     0.000 C 
ENDROOT
BRANCH   1   2
ATOM      2  C   UNL     1      19.846  -6.360  47.510  1.00  0.00     0.006 C 
BRANCH   2   3
ATOM      3  C   UNL     1      20.786  -5.301  46.920  1.00  0.00     0.053 C 
BRANCH   3   4
ATOM      4  C   UNL     1      20.417  -4.957  45.510  1.00  0.00     0.041 C 
ATOM      5  O   UNL     1      20.405  -5.849  44.622  1.00  0.00    -0.550 OA
ATOM      6  O   UNL     1      20.120  -3.643  45.170  1.00  0.00    -0.550 OA
ENDBRANCH   3   4
ENDBRANCH   2   3
ENDBRANCH   1   2
BRANCH   1   7
ATOM      7  C   UNL     1      20.183  -7.279  49.875  1.00  0.00     0.000 C 
BRANCH   7   8
ATOM      8  C   UNL     1      21.389  -7.137  50.815  1.00  0.00    -0.000 C 
BRANCH   8   9
ATOM      9  C   UNL     1      22.703  -7.134  50.026  1.00  0.00    -0.000 C 
BRANCH   9  10
ATOM     10  C   UNL     1      23.450  -5.808  50.204  1.00  0.00    -0.003 C 
ATOM     11  C   UNL     1      22.818  -4.962  51.307  1.00  0.00     0.004 C 
ENDBRANCH   9  10
ENDBRANCH   8   9
ENDBRANCH   7   8
ENDBRANCH   1   7
TORSDOF 7
ENDMDL
MODEL 9
REMARK VINA RESULT:    -3.665      2.584      4.334
REMARK INTER + INTRA:          -5.429
REMARK INTER:                  -4.658
REMARK INTRA:                  -0.771
REMARK UNBOUND:                -0.264
REMARK SMILES CCCCCCCCC(=O)[O-]
REMARK SMILES IDX 6 1 7 2 8 3 9 4 10 5 11 6 5 7 4 8 3 9 2 10 1 11
REMARK H PARENT
REMARK Flexibility Score: inf
ROOT
ATOM      1  C   UNL     1      17.995  -6.389  43.607  1.00  0.00     0.000 C 
ENDROOT
BRANCH   1   2
ATOM      2  C   UNL     1      19.197  -5.608  43.049  1.00  0.00     0.006 C 
BRANCH   2   3
ATOM      3  C   UNL     1      19.308  -4.204  43.658  1.00  0.00     0.053 C 
BRANCH   3   4
ATOM      4  C   UNL     1      20.649  -3.977  44.286  1.00  0.00     0.041 C 
ATOM      5  O   UNL     1      21.601  -4.768  44.054  1.00  0.00    -0.550 OA
ATOM      6  O   UNL     1      20.839  -2.910  45.155  1.00  0.00    -0.550 OA
ENDBRANCH   3   4
ENDBRANCH   2   3
ENDBRANCH   1   2
BRANCH   1   7
ATOM      7  C   UNL     1      18.362  -7.249  44.828  1.00  0.00     0.000 C 
BRANCH   7   8
ATOM      8  C   UNL     1      19.794  -7.799  44.753  1.00  0.00    -0.000 C 
BRANCH   8   9
ATOM      9  C   UNL     1      20.567  -7.494  46.041  1.00  0.00    -0.000 C 
BRANCH   9  10
ATOM     10  C   UNL     1      19.826  -6.462  46.898  1.00  0.00    -0.003 C 
ATOM     11  C   UNL     1      19.912  -6.811  48.381  1.00  0.00     0.004 C 
ENDBRANCH   9  10
ENDBRANCH   8   9
ENDBRANCH   7   8
ENDBRANCH   1   7
TORSDOF 7
ENDMDL
