MODEL 1
REMARK VINA RESULT:     7.360      0.000      0.000
REMARK INTER + INTRA:          12.237
REMARK INTER:                  12.093
REMARK INTRA:                   0.144
REMARK UNBOUND:                 0.144
REMARK SMILES C[C@@H]1O[C@H](OC[C@@H]2O[C@@H](Oc3c(-c4ccc(O)c(O)c4)oc4cc(O)cc(O)c4c3=O)[C@@H](O)[C@H](O)[C@@H]2O)[C@@H](O)[C@H](O)[C@H]1O
REMARK SMILES IDX 7 1 36 2 34 3 32 4 9 5 8 6 6 7 5 8 4 9 1 10 2 11 42 12 3 13
REMARK SMILES IDX 40 14 38 15 43 16 41 18 39 20 37 22 35 24 10 26 11 27 12 28
REMARK SMILES IDX 30 29 21 30 29 31 31 32 22 33 27 34 23 35 26 36 24 37 13 38
REMARK SMILES IDX 20 39 14 40 18 41 15 42 16 43 19 44 17 46 28 48 25 50 33 52
REMARK H PARENT 43 17 41 19 39 21 37 23 35 25 19 45 17 47 28 49 25 51 33 53
REMARK Flexibility Score: inf
ROOT
ATOM      1  C   UNL     1     117.109 114.787 122.170  1.00  0.00     0.180 C 
ATOM      2  C   UNL     1     115.891 113.854 121.943  1.00  0.00     0.177 C 
ATOM      3  C   UNL     1     114.857 114.532 121.028  1.00  0.00     0.180 C 
ATOM      4  C   UNL     1     114.567 115.966 121.512  1.00  0.00     0.214 C 
ATOM      5  C   UNL     1     115.884 116.739 121.735  1.00  0.00     0.339 C 
ATOM      6  O   UNL     1     116.702 116.052 122.672  1.00  0.00    -0.332 OA
ENDROOT
BRANCH   1   7
ATOM      7  C   UNL     1     118.123 114.163 123.139  1.00  0.00     0.198 C 
BRANCH   7   8
ATOM      8  O   UNL     1     117.923 112.763 123.173  1.00  0.00    -0.347 OA
BRANCH   8   9
ATOM      9  C   UNL     1     119.147 112.058 123.061  1.00  0.00     0.281 C 
ATOM     10  C   UNL     1     117.574 111.810 120.471  1.00  0.00     0.041 C 
ATOM     11  C   UNL     1     118.868 111.094 120.889  1.00  0.00     0.150 C 
ATOM     12  C   UNL     1     120.141 111.773 120.305  1.00  0.00     0.174 C 
ATOM     13  O   UNL     1     118.937 110.876 122.294  1.00  0.00    -0.344 OA
ATOM     14  C   UNL     1     121.097 112.213 121.419  1.00  0.00     0.179 C 
ATOM     15  C   UNL     1     120.294 112.955 122.497  1.00  0.00     0.202 C 
BRANCH  12  16
ATOM     16  O   UNL     1     120.801 110.877 119.445  1.00  0.00    -0.388 OA
ATOM     17  H   UNL     1     121.766 111.112 119.468  1.00  0.00     0.211 HD
ENDBRANCH  12  16
BRANCH  14  18
ATOM     18  O   UNL     1     122.083 113.061 120.881  1.00  0.00    -0.387 OA
ATOM     19  H   UNL     1     121.681 113.966 120.821  1.00  0.00     0.211 HD
ENDBRANCH  14  18
BRANCH  15  20
ATOM     20  O   UNL     1     121.133 113.405 123.534  1.00  0.00    -0.385 OA
ATOM     21  H   UNL     1     121.863 113.931 123.115  1.00  0.00     0.211 HD
ENDBRANCH  15  20
ENDBRANCH   8   9
ENDBRANCH   7   8
ENDBRANCH   1   7
BRANCH   2  22
ATOM     22  O   UNL     1     115.299 113.449 123.158  1.00  0.00    -0.387 OA
ATOM     23  H   UNL     1     115.920 113.672 123.897  1.00  0.00     0.211 HD
ENDBRANCH   2  22
BRANCH   3  24
ATOM     24  O   UNL     1     113.675 113.774 121.010  1.00  0.00    -0.387 OA
ATOM     25  H   UNL     1     112.926 114.407 120.853  1.00  0.00     0.211 HD
ENDBRANCH   3  24
BRANCH   5  26
ATOM     26  O   UNL     1     116.577 116.924 120.491  1.00  0.00    -0.454 OA
BRANCH  26  27
ATOM     27  C   UNL     1     117.030 118.160 120.007  1.00  0.00     0.214 A 
ATOM     28  C   UNL     1     118.373 118.573 120.106  1.00  0.00     0.180 A 
ATOM     29  C   UNL     1     116.107 119.024 119.401  1.00  0.00     0.239 A 
ATOM     30  O   UNL     1     118.714 119.803 119.746  1.00  0.00    -0.452 OA
ATOM     31  C   UNL     1     116.521 120.296 118.943  1.00  0.00     0.111 A 
ATOM     32  O   UNL     1     114.904 118.660 119.331  1.00  0.00    -0.285 OA
ATOM     33  C   UNL     1     117.864 120.669 119.202  1.00  0.00     0.146 A 
ATOM     34  C   UNL     1     115.667 121.232 118.288  1.00  0.00     0.134 A 
ATOM     35  C   UNL     1     118.320 121.952 118.874  1.00  0.00     0.094 A 
ATOM     36  C   UNL     1     116.135 122.522 118.009  1.00  0.00     0.093 A 
ATOM     37  C   UNL     1     117.452 122.882 118.291  1.00  0.00     0.123 A 
BRANCH  28  38
ATOM     38  C   UNL     1     119.443 117.667 120.558  1.00  0.00     0.025 A 
ATOM     39  C   UNL     1     120.233 116.987 119.619  1.00  0.00     0.062 A 
ATOM     40  C   UNL     1     119.630 117.421 121.925  1.00  0.00     0.016 A 
ATOM     41  C   UNL     1     121.219 116.086 120.042  1.00  0.00     0.158 A 
ATOM     42  C   UNL     1     120.601 116.509 122.350  1.00  0.00     0.051 A 
ATOM     43  C   UNL     1     121.398 115.837 121.413  1.00  0.00     0.157 A 
BRANCH  41  44
ATOM     44  O   UNL     1     122.014 115.454 119.087  1.00  0.00    -0.504 OA
ATOM     45  H   UNL     1     121.877 115.593 118.095  1.00  0.00     0.293 HD
ENDBRANCH  41  44
BRANCH  43  46
ATOM     46  O   UNL     1     122.356 114.919 121.841  1.00  0.00    -0.504 OA
ATOM     47  H   UNL     1     122.126 114.178 122.495  1.00  0.00     0.293 HD
ENDBRANCH  43  46
ENDBRANCH  28  38
BRANCH  34  48
ATOM     48  O   UNL     1     114.367 120.928 117.875  1.00  0.00    -0.507 OA
ATOM     49  H   UNL     1     113.715 121.615 117.525  1.00  0.00     0.293 HD
ENDBRANCH  34  48
BRANCH  37  50
ATOM     50  O   UNL     1     117.892 124.167 117.978  1.00  0.00    -0.508 OA
ATOM     51  H   UNL     1     117.755 124.946 118.612  1.00  0.00     0.293 HD
ENDBRANCH  37  50
ENDBRANCH  26  27
ENDBRANCH   5  26
BRANCH   4  52
ATOM     52  O   UNL     1     113.717 116.646 120.619  1.00  0.00    -0.384 OA
ATOM     53  H   UNL     1     112.779 116.502 120.916  1.00  0.00     0.211 HD
ENDBRANCH   4  52
TORSDOF 16
ENDMDL
MODEL 2
REMARK VINA RESULT:     7.462      1.427      4.488
REMARK INTER + INTRA:          12.404
REMARK INTER:                   8.277
REMARK INTRA:                   4.128
REMARK UNBOUND:                 0.144
REMARK SMILES C[C@@H]1O[C@H](OC[C@@H]2O[C@@H](Oc3c(-c4ccc(O)c(O)c4)oc4cc(O)cc(O)c4c3=O)[C@@H](O)[C@H](O)[C@@H]2O)[C@@H](O)[C@H](O)[C@H]1O
REMARK SMILES IDX 7 1 36 2 34 3 32 4 9 5 8 6 6 7 5 8 4 9 1 10 2 11 42 12 3 13
REMARK SMILES IDX 40 14 38 15 43 16 41 18 39 20 37 22 35 24 10 26 11 27 12 28
REMARK SMILES IDX 30 29 21 30 29 31 31 32 22 33 27 34 23 35 26 36 24 37 13 38
REMARK SMILES IDX 20 39 14 40 18 41 15 42 16 43 19 44 17 46 28 48 25 50 33 52
REMARK H PARENT 43 17 41 19 39 21 37 23 35 25 19 45 17 47 28 49 25 51 33 53
REMARK Flexibility Score: inf
ROOT
ATOM      1  C   UNL     1     120.173 115.527 119.896  1.00  0.00     0.180 C 
ATOM      2  C   UNL     1     120.237 115.504 121.445  1.00  0.00     0.177 C 
ATOM      3  C   UNL     1     119.468 116.700 122.033  1.00  0.00     0.180 C 
ATOM      4  C   UNL     1     119.883 118.006 121.329  1.00  0.00     0.214 C 
ATOM      5  C   UNL     1     119.811 117.842 119.796  1.00  0.00     0.339 C 
ATOM      6  O   UNL     1     120.639 116.765 119.380  1.00  0.00    -0.332 OA
ENDROOT
BRANCH   1   7
ATOM      7  C   UNL     1     120.994 114.384 119.282  1.00  0.00     0.198 C 
BRANCH   7   8
ATOM      8  O   UNL     1     121.770 113.779 120.299  1.00  0.00    -0.347 OA
BRANCH   8   9
ATOM      9  C   UNL     1     121.464 112.403 120.439  1.00  0.00     0.281 C 
ATOM     10  C   UNL     1     120.845 113.866 123.032  1.00  0.00     0.041 C 
ATOM     11  C   UNL     1     120.836 112.355 122.747  1.00  0.00     0.150 C 
ATOM     12  C   UNL     1     119.406 111.811 122.459  1.00  0.00     0.174 C 
ATOM     13  O   UNL     1     121.792 111.984 121.760  1.00  0.00    -0.344 OA
ATOM     14  C   UNL     1     119.330 111.153 121.077  1.00  0.00     0.179 C 
ATOM     15  C   UNL     1     119.987 112.085 120.047  1.00  0.00     0.202 C 
BRANCH  12  16
ATOM     16  O   UNL     1     119.050 110.875 123.447  1.00  0.00    -0.388 OA
ATOM     17  H   UNL     1     118.061 110.786 123.416  1.00  0.00     0.211 HD
ENDBRANCH  12  16
BRANCH  14  18
ATOM     18  O   UNL     1     117.982 110.932 120.738  1.00  0.00    -0.387 OA
ATOM     19  H   UNL     1     117.493 111.769 120.947  1.00  0.00     0.211 HD
ENDBRANCH  14  18
BRANCH  15  20
ATOM     20  O   UNL     1     119.920 111.536 118.753  1.00  0.00    -0.385 OA
ATOM     21  H   UNL     1     119.128 111.933 118.305  1.00  0.00     0.211 HD
ENDBRANCH  15  20
ENDBRANCH   8   9
ENDBRANCH   7   8
ENDBRANCH   1   7
BRANCH   2  22
ATOM     22  O   UNL     1     121.564 115.476 121.922  1.00  0.00    -0.387 OA
ATOM     23  H   UNL     1     122.126 116.019 121.313  1.00  0.00     0.211 HD
ENDBRANCH   2  22
BRANCH   3  24
ATOM     24  O   UNL     1     119.717 116.788 123.412  1.00  0.00    -0.387 OA
ATOM     25  H   UNL     1     120.491 117.398 123.529  1.00  0.00     0.211 HD
ENDBRANCH   3  24
BRANCH   5  26
ATOM     26  O   UNL     1     118.453 117.634 119.375  1.00  0.00    -0.454 OA
BRANCH  26  27
ATOM     27  C   UNL     1     117.428 118.585 119.493  1.00  0.00     0.214 A 
ATOM     28  C   UNL     1     116.182 118.294 120.082  1.00  0.00     0.180 A 
ATOM     29  C   UNL     1     117.651 119.878 119.000  1.00  0.00     0.239 A 
ATOM     30  O   UNL     1     115.210 119.196 120.049  1.00  0.00    -0.452 OA
ATOM     31  C   UNL     1     116.623 120.847 119.062  1.00  0.00     0.111 A 
ATOM     32  O   UNL     1     118.758 120.129 118.457  1.00  0.00    -0.285 OA
ATOM     33  C   UNL     1     115.365 120.422 119.558  1.00  0.00     0.146 A 
ATOM     34  C   UNL     1     116.760 122.195 118.617  1.00  0.00     0.134 A 
ATOM     35  C   UNL     1     114.268 121.293 119.552  1.00  0.00     0.094 A 
ATOM     36  C   UNL     1     115.639 123.032 118.582  1.00  0.00     0.093 A 
ATOM     37  C   UNL     1     114.401 122.593 119.051  1.00  0.00     0.123 A 
BRANCH  28  38
ATOM     38  C   UNL     1     115.922 117.028 120.787  1.00  0.00     0.025 A 
ATOM     39  C   UNL     1     114.953 116.137 120.300  1.00  0.00     0.062 A 
ATOM     40  C   UNL     1     116.585 116.736 121.988  1.00  0.00     0.016 A 
ATOM     41  C   UNL     1     114.665 114.954 120.993  1.00  0.00     0.158 A 
ATOM     42  C   UNL     1     116.287 115.566 122.690  1.00  0.00     0.051 A 
ATOM     43  C   UNL     1     115.328 114.670 122.200  1.00  0.00     0.157 A 
BRANCH  41  44
ATOM     44  O   UNL     1     113.725 114.071 120.465  1.00  0.00    -0.504 OA
ATOM     45  H   UNL     1     113.919 113.085 120.346  1.00  0.00     0.293 HD
ENDBRANCH  41  44
BRANCH  43  46
ATOM     46  O   UNL     1     115.024 113.511 122.912  1.00  0.00    -0.504 OA
ATOM     47  H   UNL     1     115.230 112.589 122.540  1.00  0.00     0.293 HD
ENDBRANCH  43  46
ENDBRANCH  28  38
BRANCH  34  48
ATOM     48  O   UNL     1     117.980 122.754 118.225  1.00  0.00    -0.507 OA
ATOM     49  H   UNL     1     118.842 122.232 118.163  1.00  0.00     0.293 HD
ENDBRANCH  34  48
BRANCH  37  50
ATOM     50  O   UNL     1     113.312 123.461 119.024  1.00  0.00    -0.508 OA
ATOM     51  H   UNL     1     113.267 124.277 119.624  1.00  0.00     0.293 HD
ENDBRANCH  37  50
ENDBRANCH  26  27
ENDBRANCH   5  26
BRANCH   4  52
ATOM     52  O   UNL     1     119.103 119.094 121.767  1.00  0.00    -0.384 OA
ATOM     53  H   UNL     1     118.150 118.811 121.762  1.00  0.00     0.211 HD
ENDBRANCH   4  52
TORSDOF 16
ENDMDL
MODEL 3
REMARK VINA RESULT:     8.277      3.605      7.016
REMARK INTER + INTRA:          13.743
REMARK INTER:                  10.130
REMARK INTRA:                   3.613
REMARK UNBOUND:                 0.144
REMARK SMILES C[C@@H]1O[C@H](OC[C@@H]2O[C@@H](Oc3c(-c4ccc(O)c(O)c4)oc4cc(O)cc(O)c4c3=O)[C@@H](O)[C@H](O)[C@@H]2O)[C@@H](O)[C@H](O)[C@H]1O
REMARK SMILES IDX 7 1 36 2 34 3 32 4 9 5 8 6 6 7 5 8 4 9 1 10 2 11 42 12 3 13
REMARK SMILES IDX 40 14 38 15 43 16 41 18 39 20 37 22 35 24 10 26 11 27 12 28
REMARK SMILES IDX 30 29 21 30 29 31 31 32 22 33 27 34 23 35 26 36 24 37 13 38
REMARK SMILES IDX 20 39 14 40 18 41 15 42 16 43 19 44 17 46 28 48 25 50 33 52
REMARK H PARENT 43 17 41 19 39 21 37 23 35 25 19 45 17 47 28 49 25 51 33 53
REMARK Flexibility Score: inf
ROOT
ATOM      1  C   UNL     1     123.006 116.356 119.693  1.00  0.00     0.180 C 
ATOM      2  C   UNL     1     123.218 115.135 118.761  1.00  0.00     0.177 C 
ATOM      3  C   UNL     1     121.889 114.394 118.534  1.00  0.00     0.180 C 
ATOM      4  C   UNL     1     121.177 114.141 119.877  1.00  0.00     0.214 C 
ATOM      5  C   UNL     1     121.094 115.445 120.699  1.00  0.00     0.339 C 
ATOM      6  O   UNL     1     122.396 115.971 120.916  1.00  0.00    -0.332 OA
ENDROOT
BRANCH   1   7
ATOM      7  C   UNL     1     124.330 117.071 119.994  1.00  0.00     0.198 C 
BRANCH   7   8
ATOM      8  O   UNL     1     124.857 117.589 118.787  1.00  0.00    -0.347 OA
BRANCH   8   9
ATOM      9  C   UNL     1     126.271 117.498 118.753  1.00  0.00     0.281 C 
ATOM     10  C   UNL     1     125.428 120.417 118.878  1.00  0.00     0.041 C 
ATOM     11  C   UNL     1     126.829 119.822 118.663  1.00  0.00     0.150 C 
ATOM     12  C   UNL     1     127.668 119.783 119.973  1.00  0.00     0.174 C 
ATOM     13  O   UNL     1     126.789 118.575 117.979  1.00  0.00    -0.344 OA
ATOM     14  C   UNL     1     128.105 118.353 120.311  1.00  0.00     0.179 C 
ATOM     15  C   UNL     1     126.890 117.421 120.184  1.00  0.00     0.202 C 
BRANCH  12  16
ATOM     16  O   UNL     1     128.804 120.601 119.831  1.00  0.00    -0.388 OA
ATOM     17  H   UNL     1     128.610 121.449 120.310  1.00  0.00     0.211 HD
ENDBRANCH  12  16
BRANCH  14  18
ATOM     18  O   UNL     1     128.607 118.316 121.625  1.00  0.00    -0.387 OA
ATOM     19  H   UNL     1     127.847 118.076 122.216  1.00  0.00     0.211 HD
ENDBRANCH  14  18
BRANCH  15  20
ATOM     20  O   UNL     1     127.233 116.096 120.510  1.00  0.00    -0.385 OA
ATOM     21  H   UNL     1     126.386 115.598 120.650  1.00  0.00     0.211 HD
ENDBRANCH  15  20
ENDBRANCH   8   9
ENDBRANCH   7   8
ENDBRANCH   1   7
BRANCH   2  22
ATOM     22  O   UNL     1     124.207 114.257 119.253  1.00  0.00    -0.387 OA
ATOM     23  H   UNL     1     124.713 113.895 118.483  1.00  0.00     0.211 HD
ENDBRANCH   2  22
BRANCH   3  24
ATOM     24  O   UNL     1     122.135 113.178 117.875  1.00  0.00    -0.387 OA
ATOM     25  H   UNL     1     123.039 113.245 117.470  1.00  0.00     0.211 HD
ENDBRANCH   3  24
BRANCH   5  26
ATOM     26  O   UNL     1     120.258 116.406 120.035  1.00  0.00    -0.454 OA
BRANCH  26  27
ATOM     27  C   UNL     1     119.046 116.895 120.545  1.00  0.00     0.214 A 
ATOM     28  C   UNL     1     118.229 116.151 121.418  1.00  0.00     0.180 A 
ATOM     29  C   UNL     1     118.627 118.178 120.167  1.00  0.00     0.239 A 
ATOM     30  O   UNL     1     117.036 116.616 121.763  1.00  0.00    -0.452 OA
ATOM     31  C   UNL     1     117.389 118.684 120.625  1.00  0.00     0.111 A 
ATOM     32  O   UNL     1     119.350 118.833 119.371  1.00  0.00    -0.285 OA
ATOM     33  C   UNL     1     116.582 117.811 121.398  1.00  0.00     0.146 A 
ATOM     34  C   UNL     1     116.890 119.985 120.322  1.00  0.00     0.134 A 
ATOM     35  C   UNL     1     115.298 118.200 121.799  1.00  0.00     0.094 A 
ATOM     36  C   UNL     1     115.588 120.335 120.700  1.00  0.00     0.093 A 
ATOM     37  C   UNL     1     114.796 119.456 121.438  1.00  0.00     0.123 A 
BRANCH  28  38
ATOM     38  C   UNL     1     118.669 114.877 122.012  1.00  0.00     0.025 A 
ATOM     39  C   UNL     1     119.977 114.742 122.501  1.00  0.00     0.062 A 
ATOM     40  C   UNL     1     117.810 113.769 122.025  1.00  0.00     0.016 A 
ATOM     41  C   UNL     1     120.417 113.518 123.021  1.00  0.00     0.158 A 
ATOM     42  C   UNL     1     118.251 112.541 122.527  1.00  0.00     0.051 A 
ATOM     43  C   UNL     1     119.554 112.408 123.026  1.00  0.00     0.157 A 
BRANCH  41  44
ATOM     44  O   UNL     1     121.709 113.425 123.535  1.00  0.00    -0.504 OA
ATOM     45  H   UNL     1     121.913 112.928 124.393  1.00  0.00     0.293 HD
ENDBRANCH  41  44
BRANCH  43  46
ATOM     46  O   UNL     1     119.994 111.179 123.513  1.00  0.00    -0.504 OA
ATOM     47  H   UNL     1     120.440 111.095 124.420  1.00  0.00     0.293 HD
ENDBRANCH  43  46
ENDBRANCH  28  38
BRANCH  34  48
ATOM     48  O   UNL     1     117.646 120.967 119.677  1.00  0.00    -0.507 OA
ATOM     49  H   UNL     1     118.499 121.355 120.053  1.00  0.00     0.293 HD
ENDBRANCH  34  48
BRANCH  37  50
ATOM     50  O   UNL     1     113.513 119.846 121.818  1.00  0.00    -0.508 OA
ATOM     51  H   UNL     1     113.327 120.766 122.202  1.00  0.00     0.293 HD
ENDBRANCH  37  50
ENDBRANCH  26  27
ENDBRANCH   5  26
BRANCH   4  52
ATOM     52  O   UNL     1     119.903 113.574 119.682  1.00  0.00    -0.384 OA
ATOM     53  H   UNL     1     119.903 113.113 118.801  1.00  0.00     0.211 HD
ENDBRANCH   4  52
TORSDOF 16
ENDMDL
MODEL 4
REMARK VINA RESULT:     8.954      1.676      4.081
REMARK INTER + INTRA:          14.856
REMARK INTER:                   6.305
REMARK INTRA:                   8.550
REMARK UNBOUND:                 0.144
REMARK SMILES C[C@@H]1O[C@H](OC[C@@H]2O[C@@H](Oc3c(-c4ccc(O)c(O)c4)oc4cc(O)cc(O)c4c3=O)[C@@H](O)[C@H](O)[C@@H]2O)[C@@H](O)[C@H](O)[C@H]1O
REMARK SMILES IDX 7 1 36 2 34 3 32 4 9 5 8 6 6 7 5 8 4 9 1 10 2 11 42 12 3 13
REMARK SMILES IDX 40 14 38 15 43 16 41 18 39 20 37 22 35 24 10 26 11 27 12 28
REMARK SMILES IDX 30 29 21 30 29 31 31 32 22 33 27 34 23 35 26 36 24 37 13 38
REMARK SMILES IDX 20 39 14 40 18 41 15 42 16 43 19 44 17 46 28 48 25 50 33 52
REMARK H PARENT 43 17 41 19 39 21 37 23 35 25 19 45 17 47 28 49 25 51 33 53
REMARK Flexibility Score: inf
ROOT
ATOM      1  C   UNL     1     119.048 114.860 121.403  1.00  0.00     0.180 C 
ATOM      2  C   UNL     1     119.376 115.823 122.573  1.00  0.00     0.177 C 
ATOM      3  C   UNL     1     119.177 117.286 122.138  1.00  0.00     0.180 C 
ATOM      4  C   UNL     1     119.879 117.547 120.790  1.00  0.00     0.214 C 
ATOM      5  C   UNL     1     119.482 116.472 119.756  1.00  0.00     0.339 C 
ATOM      6  O   UNL     1     119.807 115.178 120.245  1.00  0.00    -0.332 OA
ENDROOT
BRANCH   1   7
ATOM      7  C   UNL     1     119.307 113.397 121.789  1.00  0.00     0.198 C 
BRANCH   7   8
ATOM      8  O   UNL     1     120.556 113.312 122.449  1.00  0.00    -0.347 OA
BRANCH   8   9
ATOM      9  C   UNL     1     121.609 113.038 121.540  1.00  0.00     0.281 C 
ATOM     10  C   UNL     1     119.174 111.360 120.832  1.00  0.00     0.041 C 
ATOM     11  C   UNL     1     120.594 111.298 120.250  1.00  0.00     0.150 C 
ATOM     12  C   UNL     1     120.723 112.071 118.905  1.00  0.00     0.174 C 
ATOM     13  O   UNL     1     121.588 111.654 121.205  1.00  0.00    -0.344 OA
ATOM     14  C   UNL     1     121.786 113.171 118.995  1.00  0.00     0.179 C 
ATOM     15  C   UNL     1     121.563 113.970 120.288  1.00  0.00     0.202 C 
BRANCH  12  16
ATOM     16  O   UNL     1     121.060 111.174 117.875  1.00  0.00    -0.388 OA
ATOM     17  H   UNL     1     120.788 110.269 118.181  1.00  0.00     0.211 HD
ENDBRANCH  12  16
BRANCH  14  18
ATOM     18  O   UNL     1     121.677 114.019 117.878  1.00  0.00    -0.387 OA
ATOM     19  H   UNL     1     121.012 113.607 117.269  1.00  0.00     0.211 HD
ENDBRANCH  14  18
BRANCH  15  20
ATOM     20  O   UNL     1     122.501 115.013 120.407  1.00  0.00    -0.385 OA
ATOM     21  H   UNL     1     122.076 115.732 120.944  1.00  0.00     0.211 HD
ENDBRANCH  15  20
ENDBRANCH   8   9
ENDBRANCH   7   8
ENDBRANCH   1   7
BRANCH   2  22
ATOM     22  O   UNL     1     120.677 115.620 123.078  1.00  0.00    -0.387 OA
ATOM     23  H   UNL     1     120.883 114.652 123.030  1.00  0.00     0.211 HD
ENDBRANCH   2  22
BRANCH   3  24
ATOM     24  O   UNL     1     119.684 118.144 123.126  1.00  0.00    -0.387 OA
ATOM     25  H   UNL     1     119.117 118.959 123.123  1.00  0.00     0.211 HD
ENDBRANCH   3  24
BRANCH   5  26
ATOM     26  O   UNL     1     118.083 116.565 119.445  1.00  0.00    -0.454 OA
BRANCH  26  27
ATOM     27  C   UNL     1     117.260 117.648 119.788  1.00  0.00     0.214 A 
ATOM     28  C   UNL     1     116.266 117.567 120.782  1.00  0.00     0.180 A 
ATOM     29  C   UNL     1     117.431 118.862 119.109  1.00  0.00     0.239 A 
ATOM     30  O   UNL     1     115.436 118.585 120.971  1.00  0.00    -0.452 OA
ATOM     31  C   UNL     1     116.589 119.961 119.398  1.00  0.00     0.111 A 
ATOM     32  O   UNL     1     118.308 118.926 118.208  1.00  0.00    -0.285 OA
ATOM     33  C   UNL     1     115.538 119.742 120.324  1.00  0.00     0.146 A 
ATOM     34  C   UNL     1     116.702 121.244 118.786  1.00  0.00     0.134 A 
ATOM     35  C   UNL     1     114.599 120.747 120.582  1.00  0.00     0.094 A 
ATOM     36  C   UNL     1     115.726 122.218 119.030  1.00  0.00     0.093 A 
ATOM     37  C   UNL     1     114.684 121.980 119.925  1.00  0.00     0.123 A 
BRANCH  28  38
ATOM     38  C   UNL     1     116.134 116.398 121.668  1.00  0.00     0.025 A 
ATOM     39  C   UNL     1     115.476 115.244 121.218  1.00  0.00     0.062 A 
ATOM     40  C   UNL     1     116.597 116.457 122.991  1.00  0.00     0.016 A 
ATOM     41  C   UNL     1     115.303 114.147 122.073  1.00  0.00     0.158 A 
ATOM     42  C   UNL     1     116.410 115.372 123.851  1.00  0.00     0.051 A 
ATOM     43  C   UNL     1     115.763 114.214 123.400  1.00  0.00     0.157 A 
BRANCH  41  44
ATOM     44  O   UNL     1     114.680 113.000 121.586  1.00  0.00    -0.504 OA
ATOM     45  H   UNL     1     114.114 112.403 122.176  1.00  0.00     0.293 HD
ENDBRANCH  41  44
BRANCH  43  46
ATOM     46  O   UNL     1     115.567 113.140 124.266  1.00  0.00    -0.504 OA
ATOM     47  H   UNL     1     115.023 112.328 123.992  1.00  0.00     0.293 HD
ENDBRANCH  43  46
ENDBRANCH  28  38
BRANCH  34  48
ATOM     48  O   UNL     1     117.766 121.608 117.956  1.00  0.00    -0.507 OA
ATOM     49  H   UNL     1     118.517 122.220 118.243  1.00  0.00     0.293 HD
ENDBRANCH  34  48
BRANCH  37  50
ATOM     50  O   UNL     1     113.744 122.981 120.162  1.00  0.00    -0.508 OA
ATOM     51  H   UNL     1     112.912 123.076 119.591  1.00  0.00     0.293 HD
ENDBRANCH  37  50
ENDBRANCH  26  27
ENDBRANCH   5  26
BRANCH   4  52
ATOM     52  O   UNL     1     119.607 118.843 120.314  1.00  0.00    -0.384 OA
ATOM     53  H   UNL     1     120.144 119.487 120.850  1.00  0.00     0.211 HD
ENDBRANCH   4  52
TORSDOF 16
ENDMDL
MODEL 5
REMARK VINA RESULT:     9.117      1.292      2.167
REMARK INTER + INTRA:          15.124
REMARK INTER:                  10.297
REMARK INTRA:                   4.826
REMARK UNBOUND:                 0.144
REMARK SMILES C[C@@H]1O[C@H](OC[C@@H]2O[C@@H](Oc3c(-c4ccc(O)c(O)c4)oc4cc(O)cc(O)c4c3=O)[C@@H](O)[C@H](O)[C@@H]2O)[C@@H](O)[C@H](O)[C@H]1O
REMARK SMILES IDX 7 1 36 2 34 3 32 4 9 5 8 6 6 7 5 8 4 9 1 10 2 11 42 12 3 13
REMARK SMILES IDX 40 14 38 15 43 16 41 18 39 20 37 22 35 24 10 26 11 27 12 28
REMARK SMILES IDX 30 29 21 30 29 31 31 32 22 33 27 34 23 35 26 36 24 37 13 38
REMARK SMILES IDX 20 39 14 40 18 41 15 42 16 43 19 44 17 46 28 48 25 50 33 52
REMARK H PARENT 43 17 41 19 39 21 37 23 35 25 19 45 17 47 28 49 25 51 33 53
REMARK Flexibility Score: inf
ROOT
ATOM      1  C   UNL     1     116.568 113.993 122.584  1.00  0.00     0.180 C 
ATOM      2  C   UNL     1     115.472 113.475 121.618  1.00  0.00     0.177 C 
ATOM      3  C   UNL     1     114.941 114.623 120.741  1.00  0.00     0.180 C 
ATOM      4  C   UNL     1     114.594 115.848 121.610  1.00  0.00     0.214 C 
ATOM      5  C   UNL     1     115.771 116.199 122.545  1.00  0.00     0.339 C 
ATOM      6  O   UNL     1     116.095 115.083 123.363  1.00  0.00    -0.332 OA
ENDROOT
BRANCH   1   7
ATOM      7  C   UNL     1     117.063 112.883 123.521  1.00  0.00     0.198 C 
BRANCH   7   8
ATOM      8  O   UNL     1     117.723 111.895 122.751  1.00  0.00    -0.347 OA
BRANCH   8   9
ATOM      9  C   UNL     1     118.252 112.434 121.552  1.00  0.00     0.281 C 
ATOM     10  C   UNL     1     120.328 112.609 123.766  1.00  0.00     0.041 C 
ATOM     11  C   UNL     1     120.372 113.203 122.349  1.00  0.00     0.150 C 
ATOM     12  C   UNL     1     121.187 112.322 121.358  1.00  0.00     0.174 C 
ATOM     13  O   UNL     1     119.078 113.550 121.867  1.00  0.00    -0.344 OA
ATOM     14  C   UNL     1     120.326 111.884 120.167  1.00  0.00     0.179 C 
ATOM     15  C   UNL     1     118.984 111.354 120.694  1.00  0.00     0.202 C 
BRANCH  12  16
ATOM     16  O   UNL     1     122.301 113.043 120.893  1.00  0.00    -0.388 OA
ATOM     17  H   UNL     1     121.965 113.692 120.221  1.00  0.00     0.211 HD
ENDBRANCH  12  16
BRANCH  14  18
ATOM     18  O   UNL     1     120.997 110.875 119.452  1.00  0.00    -0.387 OA
ATOM     19  H   UNL     1     120.595 110.012 119.729  1.00  0.00     0.211 HD
ENDBRANCH  14  18
BRANCH  15  20
ATOM     20  O   UNL     1     118.164 110.913 119.639  1.00  0.00    -0.385 OA
ATOM     21  H   UNL     1     118.686 110.247 119.119  1.00  0.00     0.211 HD
ENDBRANCH  15  20
ENDBRANCH   8   9
ENDBRANCH   7   8
ENDBRANCH   1   7
BRANCH   2  22
ATOM     22  O   UNL     1     114.417 112.837 122.304  1.00  0.00    -0.387 OA
ATOM     23  H   UNL     1     114.528 111.858 122.203  1.00  0.00     0.211 HD
ENDBRANCH   2  22
BRANCH   3  24
ATOM     24  O   UNL     1     113.808 114.190 120.034  1.00  0.00    -0.387 OA
ATOM     25  H   UNL     1     114.128 113.824 119.169  1.00  0.00     0.211 HD
ENDBRANCH   3  24
BRANCH   5  26
ATOM     26  O   UNL     1     116.912 116.622 121.783  1.00  0.00    -0.454 OA
BRANCH  26  27
ATOM     27  C   UNL     1     116.954 117.774 120.983  1.00  0.00     0.214 A 
ATOM     28  C   UNL     1     118.030 118.067 120.122  1.00  0.00     0.180 A 
ATOM     29  C   UNL     1     115.881 118.674 121.045  1.00  0.00     0.239 A 
ATOM     30  O   UNL     1     118.070 119.232 119.489  1.00  0.00    -0.452 OA
ATOM     31  C   UNL     1     115.912 119.867 120.286  1.00  0.00     0.111 A 
ATOM     32  O   UNL     1     114.930 118.419 121.829  1.00  0.00    -0.285 OA
ATOM     33  C   UNL     1     117.093 120.132 119.548  1.00  0.00     0.146 A 
ATOM     34  C   UNL     1     114.859 120.829 120.257  1.00  0.00     0.134 A 
ATOM     35  C   UNL     1     117.242 121.341 118.858  1.00  0.00     0.094 A 
ATOM     36  C   UNL     1     115.050 122.047 119.593  1.00  0.00     0.093 A 
ATOM     37  C   UNL     1     116.227 122.303 118.891  1.00  0.00     0.123 A 
BRANCH  28  38
ATOM     38  C   UNL     1     119.108 117.101 119.854  1.00  0.00     0.025 A 
ATOM     39  C   UNL     1     120.106 116.875 120.814  1.00  0.00     0.062 A 
ATOM     40  C   UNL     1     119.187 116.456 118.612  1.00  0.00     0.016 A 
ATOM     41  C   UNL     1     121.162 115.995 120.545  1.00  0.00     0.158 A 
ATOM     42  C   UNL     1     120.250 115.591 118.334  1.00  0.00     0.051 A 
ATOM     43  C   UNL     1     121.241 115.356 119.296  1.00  0.00     0.157 A 
BRANCH  41  44
ATOM     44  O   UNL     1     122.119 115.761 121.533  1.00  0.00    -0.504 OA
ATOM     45  H   UNL     1     122.005 116.093 122.482  1.00  0.00     0.293 HD
ENDBRANCH  41  44
BRANCH  43  46
ATOM     46  O   UNL     1     122.306 114.503 119.009  1.00  0.00    -0.504 OA
ATOM     47  H   UNL     1     122.385 114.035 118.112  1.00  0.00     0.293 HD
ENDBRANCH  43  46
ENDBRANCH  28  38
BRANCH  34  48
ATOM     48  O   UNL     1     113.609 120.618 120.844  1.00  0.00    -0.507 OA
ATOM     49  H   UNL     1     112.843 120.152 120.379  1.00  0.00     0.293 HD
ENDBRANCH  34  48
BRANCH  37  50
ATOM     50  O   UNL     1     116.374 123.517 118.222  1.00  0.00    -0.508 OA
ATOM     51  H   UNL     1     117.267 123.813 117.844  1.00  0.00     0.293 HD
ENDBRANCH  37  50
ENDBRANCH  26  27
ENDBRANCH   5  26
BRANCH   4  52
ATOM     52  O   UNL     1     114.223 116.950 120.815  1.00  0.00    -0.384 OA
ATOM     53  H   UNL     1     113.323 116.768 120.436  1.00  0.00     0.211 HD
ENDBRANCH   4  52
TORSDOF 16
ENDMDL
MODEL 6
REMARK VINA RESULT:     9.156      3.531      8.437
REMARK INTER + INTRA:          15.188
REMARK INTER:                   9.271
REMARK INTRA:                   5.917
REMARK UNBOUND:                 0.144
REMARK SMILES C[C@@H]1O[C@H](OC[C@@H]2O[C@@H](Oc3c(-c4ccc(O)c(O)c4)oc4cc(O)cc(O)c4c3=O)[C@@H](O)[C@H](O)[C@@H]2O)[C@@H](O)[C@H](O)[C@H]1O
REMARK SMILES IDX 7 1 36 2 34 3 32 4 9 5 8 6 6 7 5 8 4 9 1 10 2 11 42 12 3 13
REMARK SMILES IDX 40 14 38 15 43 16 41 18 39 20 37 22 35 24 10 26 11 27 12 28
REMARK SMILES IDX 30 29 21 30 29 31 31 32 22 33 27 34 23 35 26 36 24 37 13 38
REMARK SMILES IDX 20 39 14 40 18 41 15 42 16 43 19 44 17 46 28 48 25 50 33 52
REMARK H PARENT 43 17 41 19 39 21 37 23 35 25 19 45 17 47 28 49 25 51 33 53
REMARK Flexibility Score: inf
ROOT
ATOM      1  C   UNL     1     122.652 116.222 119.434  1.00  0.00     0.180 C 
ATOM      2  C   UNL     1     122.678 115.090 118.375  1.00  0.00     0.177 C 
ATOM      3  C   UNL     1     121.632 114.012 118.711  1.00  0.00     0.180 C 
ATOM      4  C   UNL     1     121.744 113.597 120.191  1.00  0.00     0.214 C 
ATOM      5  C   UNL     1     121.753 114.841 121.103  1.00  0.00     0.339 C 
ATOM      6  O   UNL     1     122.824 115.703 120.745  1.00  0.00    -0.332 OA
ENDROOT
BRANCH   1   7
ATOM      7  C   UNL     1     123.736 117.273 119.161  1.00  0.00     0.198 C 
BRANCH   7   8
ATOM      8  O   UNL     1     124.811 117.065 120.057  1.00  0.00    -0.347 OA
BRANCH   8   9
ATOM      9  C   UNL     1     126.057 117.049 119.383  1.00  0.00     0.281 C 
ATOM     10  C   UNL     1     125.526 119.826 120.502  1.00  0.00     0.041 C 
ATOM     11  C   UNL     1     126.652 119.359 119.566  1.00  0.00     0.150 C 
ATOM     12  C   UNL     1     127.979 119.070 120.326  1.00  0.00     0.174 C 
ATOM     13  O   UNL     1     126.243 118.293 118.715  1.00  0.00    -0.344 OA
ATOM     14  C   UNL     1     128.436 117.622 120.115  1.00  0.00     0.179 C 
ATOM     15  C   UNL     1     127.239 116.687 120.337  1.00  0.00     0.202 C 
BRANCH  12  16
ATOM     16  O   UNL     1     128.981 119.950 119.879  1.00  0.00    -0.388 OA
ATOM     17  H   UNL     1     129.752 119.846 120.496  1.00  0.00     0.211 HD
ENDBRANCH  12  16
BRANCH  14  18
ATOM     18  O   UNL     1     129.463 117.319 121.028  1.00  0.00    -0.387 OA
ATOM     19  H   UNL     1     129.051 116.786 121.756  1.00  0.00     0.211 HD
ENDBRANCH  14  18
BRANCH  15  20
ATOM     20  O   UNL     1     127.613 115.339 120.180  1.00  0.00    -0.385 OA
ATOM     21  H   UNL     1     126.781 114.817 120.038  1.00  0.00     0.211 HD
ENDBRANCH  15  20
ENDBRANCH   8   9
ENDBRANCH   7   8
ENDBRANCH   1   7
BRANCH   2  22
ATOM     22  O   UNL     1     123.961 114.520 118.238  1.00  0.00    -0.387 OA
ATOM     23  H   UNL     1     124.606 115.081 118.739  1.00  0.00     0.211 HD
ENDBRANCH   2  22
BRANCH   3  24
ATOM     24  O   UNL     1     121.816 112.899 117.875  1.00  0.00    -0.387 OA
ATOM     25  H   UNL     1     122.386 112.255 118.371  1.00  0.00     0.211 HD
ENDBRANCH   3  24
BRANCH   5  26
ATOM     26  O   UNL     1     120.495 115.530 121.028  1.00  0.00    -0.454 OA
BRANCH  26  27
ATOM     27  C   UNL     1     119.292 115.055 121.571  1.00  0.00     0.214 A 
ATOM     28  C   UNL     1     118.138 115.855 121.687  1.00  0.00     0.180 A 
ATOM     29  C   UNL     1     119.235 113.729 122.020  1.00  0.00     0.239 A 
ATOM     30  O   UNL     1     117.072 115.388 122.324  1.00  0.00    -0.452 OA
ATOM     31  C   UNL     1     118.052 113.231 122.614  1.00  0.00     0.111 A 
ATOM     32  O   UNL     1     120.273 113.022 121.932  1.00  0.00    -0.285 OA
ATOM     33  C   UNL     1     116.988 114.149 122.799  1.00  0.00     0.146 A 
ATOM     34  C   UNL     1     117.885 111.891 123.073  1.00  0.00     0.134 A 
ATOM     35  C   UNL     1     115.825 113.760 123.475  1.00  0.00     0.094 A 
ATOM     36  C   UNL     1     116.730 111.539 123.781  1.00  0.00     0.093 A 
ATOM     37  C   UNL     1     115.701 112.460 123.978  1.00  0.00     0.123 A 
BRANCH  28  38
ATOM     38  C   UNL     1     118.045 117.194 121.082  1.00  0.00     0.025 A 
ATOM     39  C   UNL     1     116.809 117.854 121.018  1.00  0.00     0.062 A 
ATOM     40  C   UNL     1     119.175 117.787 120.499  1.00  0.00     0.016 A 
ATOM     41  C   UNL     1     116.705 119.106 120.398  1.00  0.00     0.158 A 
ATOM     42  C   UNL     1     119.070 119.028 119.865  1.00  0.00     0.051 A 
ATOM     43  C   UNL     1     117.838 119.693 119.809  1.00  0.00     0.157 A 
BRANCH  41  44
ATOM     44  O   UNL     1     115.471 119.755 120.383  1.00  0.00    -0.504 OA
ATOM     45  H   UNL     1     115.322 120.639 120.851  1.00  0.00     0.293 HD
ENDBRANCH  41  44
BRANCH  43  46
ATOM     46  O   UNL     1     117.737 120.924 119.164  1.00  0.00    -0.504 OA
ATOM     47  H   UNL     1     118.086 121.060 118.221  1.00  0.00     0.293 HD
ENDBRANCH  43  46
ENDBRANCH  28  38
BRANCH  34  48
ATOM     48  O   UNL     1     118.815 110.875 122.834  1.00  0.00    -0.507 OA
ATOM     49  H   UNL     1     119.492 110.900 122.086  1.00  0.00     0.293 HD
ENDBRANCH  34  48
BRANCH  37  50
ATOM     50  O   UNL     1     114.555 112.068 124.667  1.00  0.00    -0.508 OA
ATOM     51  H   UNL     1     114.589 111.785 125.640  1.00  0.00     0.293 HD
ENDBRANCH  37  50
ENDBRANCH  26  27
ENDBRANCH   5  26
BRANCH   4  52
ATOM     52  O   UNL     1     120.717 112.703 120.550  1.00  0.00    -0.384 OA
ATOM     53  H   UNL     1     120.514 112.134 119.761  1.00  0.00     0.211 HD
ENDBRANCH   4  52
TORSDOF 16
ENDMDL
MODEL 7
REMARK VINA RESULT:     9.412      3.051      6.478
REMARK INTER + INTRA:          15.608
REMARK INTER:                  16.650
REMARK INTRA:                  -1.041
REMARK UNBOUND:                 0.144
REMARK SMILES C[C@@H]1O[C@H](OC[C@@H]2O[C@@H](Oc3c(-c4ccc(O)c(O)c4)oc4cc(O)cc(O)c4c3=O)[C@@H](O)[C@H](O)[C@@H]2O)[C@@H](O)[C@H](O)[C@H]1O
REMARK SMILES IDX 7 1 36 2 34 3 32 4 9 5 8 6 6 7 5 8 4 9 1 10 2 11 42 12 3 13
REMARK SMILES IDX 40 14 38 15 43 16 41 18 39 20 37 22 35 24 10 26 11 27 12 28
REMARK SMILES IDX 30 29 21 30 29 31 31 32 22 33 27 34 23 35 26 36 24 37 13 38
REMARK SMILES IDX 20 39 14 40 18 41 15 42 16 43 19 44 17 46 28 48 25 50 33 52
REMARK H PARENT 43 17 41 19 39 21 37 23 35 25 19 45 17 47 28 49 25 51 33 53
REMARK Flexibility Score: inf
ROOT
ATOM      1  C   UNL     1     121.730 115.961 119.627  1.00  0.00     0.180 C 
ATOM      2  C   UNL     1     122.188 114.484 119.747  1.00  0.00     0.177 C 
ATOM      3  C   UNL     1     121.099 113.637 120.429  1.00  0.00     0.180 C 
ATOM      4  C   UNL     1     120.604 114.329 121.714  1.00  0.00     0.214 C 
ATOM      5  C   UNL     1     120.237 115.801 121.429  1.00  0.00     0.339 C 
ATOM      6  O   UNL     1     121.359 116.490 120.892  1.00  0.00    -0.332 OA
ENDROOT
BRANCH   1   7
ATOM      7  C   UNL     1     122.828 116.842 119.016  1.00  0.00     0.198 C 
BRANCH   7   8
ATOM      8  O   UNL     1     123.951 116.839 119.877  1.00  0.00    -0.347 OA
BRANCH   8   9
ATOM      9  C   UNL     1     125.166 116.797 119.149  1.00  0.00     0.281 C 
ATOM     10  C   UNL     1     125.149 119.218 120.989  1.00  0.00     0.041 C 
ATOM     11  C   UNL     1     126.163 118.838 119.898  1.00  0.00     0.150 C 
ATOM     12  C   UNL     1     127.427 118.137 120.476  1.00  0.00     0.174 C 
ATOM     13  O   UNL     1     125.562 118.125 118.823  1.00  0.00    -0.344 OA
ATOM     14  C   UNL     1     127.618 116.744 119.865  1.00  0.00     0.179 C 
ATOM     15  C   UNL     1     126.276 115.998 119.903  1.00  0.00     0.202 C 
BRANCH  12  16
ATOM     16  O   UNL     1     128.563 118.924 120.218  1.00  0.00    -0.388 OA
ATOM     17  H   UNL     1     128.967 118.581 119.379  1.00  0.00     0.211 HD
ENDBRANCH  12  16
BRANCH  14  18
ATOM     18  O   UNL     1     128.586 116.039 120.604  1.00  0.00    -0.387 OA
ATOM     19  H   UNL     1     128.321 116.103 121.558  1.00  0.00     0.211 HD
ENDBRANCH  14  18
BRANCH  15  20
ATOM     20  O   UNL     1     126.404 114.699 119.375  1.00  0.00    -0.385 OA
ATOM     21  H   UNL     1     127.373 114.526 119.249  1.00  0.00     0.211 HD
ENDBRANCH  15  20
ENDBRANCH   8   9
ENDBRANCH   7   8
ENDBRANCH   1   7
BRANCH   2  22
ATOM     22  O   UNL     1     123.418 114.363 120.426  1.00  0.00    -0.387 OA
ATOM     23  H   UNL     1     123.927 115.204 120.301  1.00  0.00     0.211 HD
ENDBRANCH   2  22
BRANCH   3  24
ATOM     24  O   UNL     1     121.611 112.363 120.727  1.00  0.00    -0.387 OA
ATOM     25  H   UNL     1     122.466 112.500 121.211  1.00  0.00     0.211 HD
ENDBRANCH   3  24
BRANCH   5  26
ATOM     26  O   UNL     1     119.115 115.877 120.536  1.00  0.00    -0.454 OA
BRANCH  26  27
ATOM     27  C   UNL     1     118.122 116.867 120.586  1.00  0.00     0.214 A 
ATOM     28  C   UNL     1     116.838 116.634 121.115  1.00  0.00     0.180 A 
ATOM     29  C   UNL     1     118.419 118.142 120.084  1.00  0.00     0.239 A 
ATOM     30  O   UNL     1     115.904 117.571 121.018  1.00  0.00    -0.452 OA
ATOM     31  C   UNL     1     117.427 119.150 120.078  1.00  0.00     0.111 A 
ATOM     32  O   UNL     1     119.561 118.341 119.594  1.00  0.00    -0.285 OA
ATOM     33  C   UNL     1     116.130 118.781 120.516  1.00  0.00     0.146 A 
ATOM     34  C   UNL     1     117.639 120.483 119.618  1.00  0.00     0.134 A 
ATOM     35  C   UNL     1     115.070 119.692 120.439  1.00  0.00     0.094 A 
ATOM     36  C   UNL     1     116.553 121.362 119.513  1.00  0.00     0.093 A 
ATOM     37  C   UNL     1     115.278 120.977 119.925  1.00  0.00     0.123 A 
BRANCH  28  38
ATOM     38  C   UNL     1     116.494 115.391 121.825  1.00  0.00     0.025 A 
ATOM     39  C   UNL     1     115.533 114.519 121.293  1.00  0.00     0.062 A 
ATOM     40  C   UNL     1     117.068 115.107 123.073  1.00  0.00     0.016 A 
ATOM     41  C   UNL     1     115.165 113.359 121.989  1.00  0.00     0.158 A 
ATOM     42  C   UNL     1     116.690 113.961 123.778  1.00  0.00     0.051 A 
ATOM     43  C   UNL     1     115.738 113.083 123.242  1.00  0.00     0.157 A 
BRANCH  41  44
ATOM     44  O   UNL     1     114.235 112.492 121.417  1.00  0.00    -0.504 OA
ATOM     45  H   UNL     1     113.340 112.813 121.072  1.00  0.00     0.293 HD
ENDBRANCH  41  44
BRANCH  43  46
ATOM     46  O   UNL     1     115.354 111.948 123.955  1.00  0.00    -0.504 OA
ATOM     47  H   UNL     1     114.428 111.545 123.854  1.00  0.00     0.293 HD
ENDBRANCH  43  46
ENDBRANCH  28  38
BRANCH  34  48
ATOM     48  O   UNL     1     118.897 120.989 119.281  1.00  0.00    -0.507 OA
ATOM     49  H   UNL     1     119.144 121.306 118.355  1.00  0.00     0.293 HD
ENDBRANCH  34  48
BRANCH  37  50
ATOM     50  O   UNL     1     114.226 121.885 119.829  1.00  0.00    -0.508 OA
ATOM     51  H   UNL     1     114.354 122.872 120.023  1.00  0.00     0.293 HD
ENDBRANCH  37  50
ENDBRANCH  26  27
ENDBRANCH   5  26
BRANCH   4  52
ATOM     52  O   UNL     1     119.523 113.632 122.287  1.00  0.00    -0.384 OA
ATOM     53  H   UNL     1     119.709 113.518 123.257  1.00  0.00     0.211 HD
ENDBRANCH   4  52
TORSDOF 16
ENDMDL
MODEL 8
REMARK VINA RESULT:     9.711      1.665      2.986
REMARK INTER + INTRA:          16.100
REMARK INTER:                  17.244
REMARK INTRA:                  -1.144
REMARK UNBOUND:                 0.144
REMARK SMILES C[C@@H]1O[C@H](OC[C@@H]2O[C@@H](Oc3c(-c4ccc(O)c(O)c4)oc4cc(O)cc(O)c4c3=O)[C@@H](O)[C@H](O)[C@@H]2O)[C@@H](O)[C@H](O)[C@H]1O
REMARK SMILES IDX 7 1 36 2 34 3 32 4 9 5 8 6 6 7 5 8 4 9 1 10 2 11 42 12 3 13
REMARK SMILES IDX 40 14 38 15 43 16 41 18 39 20 37 22 35 24 10 26 11 27 12 28
REMARK SMILES IDX 30 29 21 30 29 31 31 32 22 33 27 34 23 35 26 36 24 37 13 38
REMARK SMILES IDX 20 39 14 40 18 41 15 42 16 43 19 44 17 46 28 48 25 50 33 52
REMARK H PARENT 43 17 41 19 39 21 37 23 35 25 19 45 17 47 28 49 25 51 33 53
REMARK Flexibility Score: inf
ROOT
ATOM      1  C   UNL     1     114.641 116.242 120.722  1.00  0.00     0.180 C 
ATOM      2  C   UNL     1     113.181 116.457 121.197  1.00  0.00     0.177 C 
ATOM      3  C   UNL     1     112.838 117.957 121.221  1.00  0.00     0.180 C 
ATOM      4  C   UNL     1     113.941 118.750 121.949  1.00  0.00     0.214 C 
ATOM      5  C   UNL     1     115.332 118.382 121.389  1.00  0.00     0.339 C 
ATOM      6  O   UNL     1     115.556 116.985 121.516  1.00  0.00    -0.332 OA
ENDROOT
BRANCH   1   7
ATOM      7  C   UNL     1     115.032 114.758 120.758  1.00  0.00     0.198 C 
BRANCH   7   8
ATOM      8  O   UNL     1     114.720 114.233 122.035  1.00  0.00    -0.347 OA
BRANCH   8   9
ATOM      9  C   UNL     1     115.863 114.180 122.871  1.00  0.00     0.281 C 
ATOM     10  C   UNL     1     115.065 111.368 122.036  1.00  0.00     0.041 C 
ATOM     11  C   UNL     1     116.125 111.810 123.057  1.00  0.00     0.150 C 
ATOM     12  C   UNL     1     117.563 111.812 122.462  1.00  0.00     0.174 C 
ATOM     13  O   UNL     1     115.778 113.029 123.705  1.00  0.00    -0.344 OA
ATOM     14  C   UNL     1     118.201 113.202 122.557  1.00  0.00     0.179 C 
ATOM     15  C   UNL     1     117.193 114.247 122.056  1.00  0.00     0.202 C 
BRANCH  12  16
ATOM     16  O   UNL     1     118.360 110.880 123.150  1.00  0.00    -0.388 OA
ATOM     17  H   UNL     1     117.790 110.481 123.859  1.00  0.00     0.211 HD
ENDBRANCH  12  16
BRANCH  14  18
ATOM     18  O   UNL     1     119.366 113.237 121.768  1.00  0.00    -0.387 OA
ATOM     19  H   UNL     1     119.769 114.135 121.891  1.00  0.00     0.211 HD
ENDBRANCH  14  18
BRANCH  15  20
ATOM     20  O   UNL     1     117.742 115.542 122.098  1.00  0.00    -0.385 OA
ATOM     21  H   UNL     1     118.189 115.644 122.979  1.00  0.00     0.211 HD
ENDBRANCH  15  20
ENDBRANCH   8   9
ENDBRANCH   7   8
ENDBRANCH   1   7
BRANCH   2  22
ATOM     22  O   UNL     1     112.940 115.866 122.455  1.00  0.00    -0.387 OA
ATOM     23  H   UNL     1     112.209 116.366 122.899  1.00  0.00     0.211 HD
ENDBRANCH   2  22
BRANCH   3  24
ATOM     24  O   UNL     1     111.601 118.147 121.857  1.00  0.00    -0.387 OA
ATOM     25  H   UNL     1     111.114 117.283 121.810  1.00  0.00     0.211 HD
ENDBRANCH   3  24
BRANCH   5  26
ATOM     26  O   UNL     1     115.449 118.796 120.019  1.00  0.00    -0.454 OA
BRANCH  26  27
ATOM     27  C   UNL     1     116.219 119.883 119.578  1.00  0.00     0.214 A 
ATOM     28  C   UNL     1     117.627 119.874 119.584  1.00  0.00     0.180 A 
ATOM     29  C   UNL     1     115.559 121.029 119.114  1.00  0.00     0.239 A 
ATOM     30  O   UNL     1     118.297 120.976 119.276  1.00  0.00    -0.452 OA
ATOM     31  C   UNL     1     116.304 122.160 118.705  1.00  0.00     0.111 A 
ATOM     32  O   UNL     1     114.300 121.042 119.128  1.00  0.00    -0.285 OA
ATOM     33  C   UNL     1     117.711 122.098 118.867  1.00  0.00     0.146 A 
ATOM     34  C   UNL     1     115.728 123.359 118.190  1.00  0.00     0.134 A 
ATOM     35  C   UNL     1     118.507 123.214 118.584  1.00  0.00     0.094 A 
ATOM     36  C   UNL     1     116.542 124.474 117.955  1.00  0.00     0.093 A 
ATOM     37  C   UNL     1     117.922 124.406 118.142  1.00  0.00     0.123 A 
BRANCH  28  38
ATOM     38  C   UNL     1     118.404 118.658 119.880  1.00  0.00     0.025 A 
ATOM     39  C   UNL     1     118.818 118.388 121.193  1.00  0.00     0.062 A 
ATOM     40  C   UNL     1     118.799 117.801 118.842  1.00  0.00     0.016 A 
ATOM     41  C   UNL     1     119.600 117.260 121.472  1.00  0.00     0.158 A 
ATOM     42  C   UNL     1     119.593 116.684 119.115  1.00  0.00     0.051 A 
ATOM     43  C   UNL     1     119.999 116.408 120.428  1.00  0.00     0.157 A 
BRANCH  41  44
ATOM     44  O   UNL     1     119.965 116.997 122.792  1.00  0.00    -0.504 OA
ATOM     45  H   UNL     1     119.360 116.495 123.428  1.00  0.00     0.293 HD
ENDBRANCH  41  44
BRANCH  43  46
ATOM     46  O   UNL     1     120.803 115.300 120.693  1.00  0.00    -0.504 OA
ATOM     47  H   UNL     1     121.634 115.104 120.146  1.00  0.00     0.293 HD
ENDBRANCH  43  46
ENDBRANCH  28  38
BRANCH  34  48
ATOM     48  O   UNL     1     114.373 123.487 117.875  1.00  0.00    -0.507 OA
ATOM     49  H   UNL     1     113.751 124.138 118.331  1.00  0.00     0.293 HD
ENDBRANCH  34  48
BRANCH  37  50
ATOM     50  O   UNL     1     118.704 125.528 117.875  1.00  0.00    -0.508 OA
ATOM     51  H   UNL     1     118.524 126.125 117.076  1.00  0.00     0.293 HD
ENDBRANCH  37  50
ENDBRANCH  26  27
ENDBRANCH   5  26
BRANCH   4  52
ATOM     52  O   UNL     1     113.708 120.137 121.875  1.00  0.00    -0.384 OA
ATOM     53  H   UNL     1     114.456 120.548 121.365  1.00  0.00     0.211 HD
ENDBRANCH   4  52
TORSDOF 16
ENDMDL
