MODEL 1
REMARK VINA RESULT:    -4.550      0.000      0.000
REMARK INTER + INTRA:          -4.550
REMARK INTER:                  -4.550
REMARK INTRA:                   0.000
REMARK UNBOUND:                 0.000
REMARK SMILES C=C1CC[C@H]2C[C@@H]1C2(C)C
REMARK SMILES IDX 9 1 8 2 5 3 4 4 3 5 2 6 1 7 7 8 6 9 10 10
REMARK H PARENT
REMARK Flexibility Score: inf
ROOT
ATOM      1  C   UNL     1      33.123  11.864  30.763  1.00  0.00     0.012 C 
ATOM      2  C   UNL     1      32.169  10.987  31.613  1.00  0.00    -0.026 C 
ATOM      3  C   UNL     1      31.730  11.703  32.915  1.00  0.00    -0.004 C 
ATOM      4  C   UNL     1      30.484  11.005  33.547  1.00  0.00     0.008 C 
ATOM      5  C   UNL     1      30.682   9.450  33.717  1.00  0.00     0.031 C 
ATOM      6  C   UNL     1      31.984   8.954  33.068  1.00  0.00    -0.074 C 
ATOM      7  C   UNL     1      32.266   7.650  32.983  1.00  0.00     0.008 C 
ATOM      8  C   UNL     1      32.942  10.014  32.534  1.00  0.00     0.021 C 
ATOM      9  C   UNL     1      32.965  11.110  33.613  1.00  0.00     0.012 C 
ATOM     10  C   UNL     1      31.075  10.404  30.677  1.00  0.00     0.012 C 
ENDROOT
TORSDOF 0
ENDMDL
MODEL 2
REMARK VINA RESULT:    -4.210      1.095      2.252
REMARK INTER + INTRA:          -4.210
REMARK INTER:                  -4.210
REMARK INTRA:                   0.000
REMARK UNBOUND:                 0.000
REMARK SMILES C=C1CC[C@H]2C[C@@H]1C2(C)C
REMARK SMILES IDX 9 1 8 2 5 3 4 4 3 5 2 6 1 7 7 8 6 9 10 10
REMARK H PARENT
REMARK Flexibility Score: inf
ROOT
ATOM      1  C   UNL     1      32.374  10.860  30.205  1.00  0.00     0.012 C 
ATOM      2  C   UNL     1      32.012  11.080  31.695  1.00  0.00    -0.026 C 
ATOM      3  C   UNL     1      33.125  10.565  32.643  1.00  0.00    -0.004 C 
ATOM      4  C   UNL     1      32.948  11.143  34.084  1.00  0.00     0.008 C 
ATOM      5  C   UNL     1      31.490  10.931  34.646  1.00  0.00     0.031 C 
ATOM      6  C   UNL     1      30.535  10.359  33.588  1.00  0.00    -0.074 C 
ATOM      7  C   UNL     1      29.225  10.237  33.826  1.00  0.00     0.008 C 
ATOM      8  C   UNL     1      31.147   9.929  32.258  1.00  0.00     0.021 C 
ATOM      9  C   UNL     1      32.440   9.188  32.637  1.00  0.00     0.012 C 
ATOM     10  C   UNL     1      31.503  12.537  31.867  1.00  0.00     0.012 C 
ENDROOT
TORSDOF 0
ENDMDL
MODEL 3
REMARK VINA RESULT:    -4.143      1.139      3.083
REMARK INTER + INTRA:          -4.143
REMARK INTER:                  -4.143
REMARK INTRA:                   0.000
REMARK UNBOUND:                 0.000
REMARK SMILES C=C1CC[C@H]2C[C@@H]1C2(C)C
REMARK SMILES IDX 9 1 8 2 5 3 4 4 3 5 2 6 1 7 7 8 6 9 10 10
REMARK H PARENT
REMARK Flexibility Score: inf
ROOT
ATOM      1  C   UNL     1      32.122   8.018  32.999  1.00  0.00     0.012 C 
ATOM      2  C   UNL     1      31.942   9.397  32.317  1.00  0.00    -0.026 C 
ATOM      3  C   UNL     1      33.094  10.372  32.668  1.00  0.00    -0.004 C 
ATOM      4  C   UNL     1      33.125  11.583  31.682  1.00  0.00     0.008 C 
ATOM      5  C   UNL     1      31.721  12.287  31.545  1.00  0.00     0.031 C 
ATOM      6  C   UNL     1      30.610  11.520  32.277  1.00  0.00    -0.074 C 
ATOM      7  C   UNL     1      29.327  11.879  32.165  1.00  0.00     0.008 C 
ATOM      8  C   UNL     1      31.035  10.339  33.143  1.00  0.00     0.021 C 
ATOM      9  C   UNL     1      32.285  10.826  33.894  1.00  0.00     0.012 C 
ATOM     10  C   UNL     1      31.594   9.163  30.822  1.00  0.00     0.012 C 
ENDROOT
TORSDOF 0
ENDMDL
MODEL 4
REMARK VINA RESULT:    -4.073      0.929      3.259
REMARK INTER + INTRA:          -4.073
REMARK INTER:                  -4.073
REMARK INTRA:                   0.000
REMARK UNBOUND:                 0.000
REMARK SMILES C=C1CC[C@H]2C[C@@H]1C2(C)C
REMARK SMILES IDX 9 1 8 2 5 3 4 4 3 5 2 6 1 7 7 8 6 9 10 10
REMARK H PARENT
REMARK Flexibility Score: inf
ROOT
ATOM      1  C   UNL     1      31.237   9.783  34.941  1.00  0.00     0.012 C 
ATOM      2  C   UNL     1      31.211  10.058  33.416  1.00  0.00    -0.026 C 
ATOM      3  C   UNL     1      31.273   8.748  32.591  1.00  0.00    -0.004 C 
ATOM      4  C   UNL     1      30.844   8.997  31.109  1.00  0.00     0.008 C 
ATOM      5  C   UNL     1      31.622  10.198  30.448  1.00  0.00     0.031 C 
ATOM      6  C   UNL     1      32.496  10.954  31.460  1.00  0.00    -0.074 C 
ATOM      7  C   UNL     1      33.125  12.086  31.127  1.00  0.00     0.008 C 
ATOM      8  C   UNL     1      32.622  10.353  32.856  1.00  0.00     0.021 C 
ATOM      9  C   UNL     1      32.807   8.844  32.624  1.00  0.00     0.012 C 
ATOM     10  C   UNL     1      30.072  11.072  33.120  1.00  0.00     0.012 C 
ENDROOT
TORSDOF 0
ENDMDL
MODEL 5
REMARK VINA RESULT:    -4.021      1.548      3.204
REMARK INTER + INTRA:          -4.021
REMARK INTER:                  -4.021
REMARK INTRA:                   0.000
REMARK UNBOUND:                 0.000
REMARK SMILES C=C1CC[C@H]2C[C@@H]1C2(C)C
REMARK SMILES IDX 9 1 8 2 5 3 4 4 3 5 2 6 1 7 7 8 6 9 10 10
REMARK H PARENT
REMARK Flexibility Score: inf
ROOT
ATOM      1  C   UNL     1      29.547  11.650  29.034  1.00  0.00     0.012 C 
ATOM      2  C   UNL     1      30.647  11.669  30.125  1.00  0.00    -0.026 C 
ATOM      3  C   UNL     1      31.985  12.235  29.588  1.00  0.00    -0.004 C 
ATOM      4  C   UNL     1      32.941  12.625  30.760  1.00  0.00     0.008 C 
ATOM      5  C   UNL     1      33.122  11.460  31.807  1.00  0.00     0.031 C 
ATOM      6  C   UNL     1      32.188  10.273  31.525  1.00  0.00    -0.074 C 
ATOM      7  C   UNL     1      32.090   9.247  32.377  1.00  0.00     0.008 C 
ATOM      8  C   UNL     1      31.384  10.314  30.229  1.00  0.00     0.021 C 
ATOM      9  C   UNL     1      32.374  10.810  29.163  1.00  0.00     0.012 C 
ATOM     10  C   UNL     1      30.044  12.283  31.418  1.00  0.00     0.012 C 
ENDROOT
TORSDOF 0
ENDMDL
MODEL 6
REMARK VINA RESULT:    -3.957      2.040      4.344
REMARK INTER + INTRA:          -3.957
REMARK INTER:                  -3.957
REMARK INTRA:                   0.000
REMARK UNBOUND:                 0.000
REMARK SMILES C=C1CC[C@H]2C[C@@H]1C2(C)C
REMARK SMILES IDX 9 1 8 2 5 3 4 4 3 5 2 6 1 7 7 8 6 9 10 10
REMARK H PARENT
REMARK Flexibility Score: inf
ROOT
ATOM      1  C   UNL     1      31.399   6.666  36.409  1.00  0.00     0.012 C 
ATOM      2  C   UNL     1      31.056   7.842  35.461  1.00  0.00    -0.026 C 
ATOM      3  C   UNL     1      29.657   7.676  34.815  1.00  0.00    -0.004 C 
ATOM      4  C   UNL     1      29.159   9.023  34.200  1.00  0.00     0.008 C 
ATOM      5  C   UNL     1      30.223   9.681  33.242  1.00  0.00     0.031 C 
ATOM      6  C   UNL     1      31.567   8.936  33.264  1.00  0.00    -0.074 C 
ATOM      7  C   UNL     1      32.640   9.418  32.627  1.00  0.00     0.008 C 
ATOM      8  C   UNL     1      31.621   7.623  34.038  1.00  0.00     0.021 C 
ATOM      9  C   UNL     1      30.319   6.891  33.671  1.00  0.00     0.012 C 
ATOM     10  C   UNL     1      31.387   9.172  36.190  1.00  0.00     0.012 C 
ENDROOT
TORSDOF 0
ENDMDL
MODEL 7
REMARK VINA RESULT:    -3.951      0.960      3.258
REMARK INTER + INTRA:          -3.951
REMARK INTER:                  -3.951
REMARK INTRA:                   0.000
REMARK UNBOUND:                 0.000
REMARK SMILES C=C1CC[C@H]2C[C@@H]1C2(C)C
REMARK SMILES IDX 9 1 8 2 5 3 4 4 3 5 2 6 1 7 7 8 6 9 10 10
REMARK H PARENT
REMARK Flexibility Score: inf
ROOT
ATOM      1  C   UNL     1      30.209   8.335  34.222  1.00  0.00     0.012 C 
ATOM      2  C   UNL     1      31.290   9.091  33.410  1.00  0.00    -0.026 C 
ATOM      3  C   UNL     1      31.708  10.417  34.094  1.00  0.00    -0.004 C 
ATOM      4  C   UNL     1      33.050  10.955  33.504  1.00  0.00     0.008 C 
ATOM      5  C   UNL     1      33.029  11.036  31.930  1.00  0.00     0.031 C 
ATOM      6  C   UNL     1      31.761  10.409  31.330  1.00  0.00    -0.074 C 
ATOM      7  C   UNL     1      31.619  10.254  30.010  1.00  0.00     0.008 C 
ATOM      8  C   UNL     1      30.670   9.980  32.306  1.00  0.00     0.021 C 
ATOM      9  C   UNL     1      30.578  11.125  33.328  1.00  0.00     0.012 C 
ATOM     10  C   UNL     1      32.397   8.079  33.007  1.00  0.00     0.012 C 
ENDROOT
TORSDOF 0
ENDMDL
MODEL 8
REMARK VINA RESULT:    -3.950      1.308      3.688
REMARK INTER + INTRA:          -3.950
REMARK INTER:                  -3.950
REMARK INTRA:                   0.000
REMARK UNBOUND:                 0.000
REMARK SMILES C=C1CC[C@H]2C[C@@H]1C2(C)C
REMARK SMILES IDX 9 1 8 2 5 3 4 4 3 5 2 6 1 7 7 8 6 9 10 10
REMARK H PARENT
REMARK Flexibility Score: inf
ROOT
ATOM      1  C   UNL     1      30.036   7.882  34.983  1.00  0.00     0.012 C 
ATOM      2  C   UNL     1      30.439   8.613  33.678  1.00  0.00    -0.026 C 
ATOM      3  C   UNL     1      30.542   7.639  32.477  1.00  0.00    -0.004 C 
ATOM      4  C   UNL     1      30.545   8.416  31.122  1.00  0.00     0.008 C 
ATOM      5  C   UNL     1      31.615   9.573  31.091  1.00  0.00     0.031 C 
ATOM      6  C   UNL     1      32.290   9.780  32.455  1.00  0.00    -0.074 C 
ATOM      7  C   UNL     1      33.125  10.802  32.671  1.00  0.00     0.008 C 
ATOM      8  C   UNL     1      31.973   8.765  33.549  1.00  0.00     0.021 C 
ATOM      9  C   UNL     1      32.015   7.398  32.846  1.00  0.00     0.012 C 
ATOM     10  C   UNL     1      29.557   9.882  33.534  1.00  0.00     0.012 C 
ENDROOT
TORSDOF 0
ENDMDL
