MODEL 1
REMARK VINA RESULT:    -7.756      0.000      0.000
REMARK INTER + INTRA:          -9.387
REMARK INTER:                  -9.116
REMARK INTRA:                  -0.270
REMARK UNBOUND:                -0.270
REMARK SMILES O=c1cc(-c2ccc(O)c(O)c2)oc2cc(O)cc(O)c12
REMARK SMILES IDX 4 1 3 2 2 3 1 4 21 5 19 6 18 7 16 8 15 9 14 10 13 11 5 12
REMARK SMILES IDX 6 13 7 14 8 15 12 16 10 17 9 18 11 20 20 22 17 24
REMARK H PARENT 9 19 11 21 20 23 17 25
REMARK Flexibility Score: inf
ROOT
ATOM      1  C   UNL     1      -2.738  67.238 -21.154  1.00  0.00     0.138 A 
ATOM      2  C   UNL     1      -3.094  66.019 -20.561  1.00  0.00     0.100 A 
ATOM      3  C   UNL     1      -4.401  65.546 -20.686  1.00  0.00     0.197 A 
ATOM      4  O   UNL     1      -4.707  64.481 -20.090  1.00  0.00    -0.289 OA
ATOM      5  C   UNL     1      -5.348  66.286 -21.435  1.00  0.00     0.107 A 
ATOM      6  C   UNL     1      -6.697  65.882 -21.664  1.00  0.00     0.134 A 
ATOM      7  C   UNL     1      -7.575  66.751 -22.324  1.00  0.00     0.093 A 
ATOM      8  C   UNL     1      -7.136  67.983 -22.815  1.00  0.00     0.123 A 
ATOM      9  C   UNL     1      -5.807  68.362 -22.644  1.00  0.00     0.094 A 
ATOM     10  C   UNL     1      -4.916  67.533 -21.961  1.00  0.00     0.146 A 
ATOM     11  O   UNL     1      -3.659  67.939 -21.806  1.00  0.00    -0.456 OA
ENDROOT
BRANCH   1  12
ATOM     12  C   UNL     1      -1.361  67.786 -21.054  1.00  0.00     0.021 A 
ATOM     13  C   UNL     1      -1.115  69.085 -20.570  1.00  0.00     0.016 A 
ATOM     14  C   UNL     1       0.193  69.570 -20.479  1.00  0.00     0.051 A 
ATOM     15  C   UNL     1       1.274  68.768 -20.860  1.00  0.00     0.157 A 
ATOM     16  C   UNL     1      -0.268  66.981 -21.422  1.00  0.00     0.062 A 
ATOM     17  C   UNL     1       1.041  67.466 -21.333  1.00  0.00     0.158 A 
BRANCH  15  18
ATOM     18  O   UNL     1       2.576  69.256 -20.768  1.00  0.00    -0.504 OA
ATOM     19  H   UNL     1       2.966  69.565 -19.884  1.00  0.00     0.293 HD
ENDBRANCH  15  18
BRANCH  17  20
ATOM     20  O   UNL     1       2.097  66.640 -21.717  1.00  0.00    -0.504 OA
ATOM     21  H   UNL     1       3.059  66.847 -21.475  1.00  0.00     0.293 HD
ENDBRANCH  17  20
ENDBRANCH   1  12
BRANCH   6  22
ATOM     22  O   UNL     1      -7.214  64.638 -21.289  1.00  0.00    -0.507 OA
ATOM     23  H   UNL     1      -7.330  64.323 -20.339  1.00  0.00     0.293 HD
ENDBRANCH   6  22
BRANCH   8  24
ATOM     24  O   UNL     1      -8.014  68.834 -23.484  1.00  0.00    -0.508 OA
ATOM     25  H   UNL     1      -8.502  68.540 -24.321  1.00  0.00     0.293 HD
ENDBRANCH   8  24
TORSDOF 5
ENDMDL
MODEL 2
REMARK VINA RESULT:    -7.642      1.736      6.778
REMARK INTER + INTRA:          -9.253
REMARK INTER:                  -8.971
REMARK INTRA:                  -0.282
REMARK UNBOUND:                -0.270
REMARK SMILES O=c1cc(-c2ccc(O)c(O)c2)oc2cc(O)cc(O)c12
REMARK SMILES IDX 4 1 3 2 2 3 1 4 21 5 19 6 18 7 16 8 15 9 14 10 13 11 5 12
REMARK SMILES IDX 6 13 7 14 8 15 12 16 10 17 9 18 11 20 20 22 17 24
REMARK H PARENT 9 19 11 21 20 23 17 25
REMARK Flexibility Score: inf
ROOT
ATOM      1  C   UNL     1      -4.995  66.984 -21.445  1.00  0.00     0.138 A 
ATOM      2  C   UNL     1      -4.959  65.638 -21.054  1.00  0.00     0.100 A 
ATOM      3  C   UNL     1      -3.729  65.017 -20.831  1.00  0.00     0.197 A 
ATOM      4  O   UNL     1      -3.726  63.793 -20.543  1.00  0.00    -0.289 OA
ATOM      5  C   UNL     1      -2.532  65.759 -20.971  1.00  0.00     0.107 A 
ATOM      6  C   UNL     1      -1.223  65.242 -20.731  1.00  0.00     0.134 A 
ATOM      7  C   UNL     1      -0.105  66.036 -21.014  1.00  0.00     0.093 A 
ATOM      8  C   UNL     1      -0.249  67.348 -21.472  1.00  0.00     0.123 A 
ATOM      9  C   UNL     1      -1.523  67.879 -21.658  1.00  0.00     0.094 A 
ATOM     10  C   UNL     1      -2.658  67.102 -21.417  1.00  0.00     0.146 A 
ATOM     11  O   UNL     1      -3.855  67.642 -21.622  1.00  0.00    -0.456 OA
ENDROOT
BRANCH   1  12
ATOM     12  C   UNL     1      -6.277  67.694 -21.693  1.00  0.00     0.021 A 
ATOM     13  C   UNL     1      -7.232  67.201 -22.601  1.00  0.00     0.016 A 
ATOM     14  C   UNL     1      -8.433  67.885 -22.807  1.00  0.00     0.051 A 
ATOM     15  C   UNL     1      -8.703  69.066 -22.107  1.00  0.00     0.157 A 
ATOM     16  C   UNL     1      -6.562  68.874 -20.982  1.00  0.00     0.062 A 
ATOM     17  C   UNL     1      -7.763  69.561 -21.188  1.00  0.00     0.158 A 
BRANCH  15  18
ATOM     18  O   UNL     1      -9.902  69.746 -22.315  1.00  0.00    -0.504 OA
ATOM     19  H   UNL     1     -10.608  69.814 -21.590  1.00  0.00     0.293 HD
ENDBRANCH  15  18
BRANCH  17  20
ATOM     20  O   UNL     1      -8.005  70.732 -20.471  1.00  0.00    -0.504 OA
ATOM     21  H   UNL     1      -8.710  70.784 -19.745  1.00  0.00     0.293 HD
ENDBRANCH  17  20
ENDBRANCH   1  12
BRANCH   6  22
ATOM     22  O   UNL     1      -0.970  63.975 -20.195  1.00  0.00    -0.507 OA
ATOM     23  H   UNL     1      -0.245  63.351 -20.509  1.00  0.00     0.293 HD
ENDBRANCH   6  22
BRANCH   8  24
ATOM     24  O   UNL     1       0.869  68.135 -21.736  1.00  0.00    -0.508 OA
ATOM     25  H   UNL     1       1.079  68.959 -21.186  1.00  0.00     0.293 HD
ENDBRANCH   8  24
TORSDOF 5
ENDMDL
MODEL 3
REMARK VINA RESULT:    -7.639      3.586      5.770
REMARK INTER + INTRA:          -9.249
REMARK INTER:                  -8.980
REMARK INTRA:                  -0.270
REMARK UNBOUND:                -0.270
REMARK SMILES O=c1cc(-c2ccc(O)c(O)c2)oc2cc(O)cc(O)c12
REMARK SMILES IDX 4 1 3 2 2 3 1 4 21 5 19 6 18 7 16 8 15 9 14 10 13 11 5 12
REMARK SMILES IDX 6 13 7 14 8 15 12 16 10 17 9 18 11 20 20 22 17 24
REMARK H PARENT 9 19 11 21 20 23 17 25
REMARK Flexibility Score: inf
ROOT
ATOM      1  C   UNL     1      -3.120  64.843 -19.609  1.00  0.00     0.138 A 
ATOM      2  C   UNL     1      -4.095  64.116 -20.308  1.00  0.00     0.100 A 
ATOM      3  C   UNL     1      -4.639  62.966 -19.735  1.00  0.00     0.197 A 
ATOM      4  O   UNL     1      -5.465  62.300 -20.411  1.00  0.00    -0.289 OA
ATOM      5  C   UNL     1      -4.227  62.561 -18.443  1.00  0.00     0.107 A 
ATOM      6  C   UNL     1      -4.743  61.429 -17.743  1.00  0.00     0.134 A 
ATOM      7  C   UNL     1      -4.176  61.058 -16.517  1.00  0.00     0.093 A 
ATOM      8  C   UNL     1      -3.153  61.813 -15.939  1.00  0.00     0.123 A 
ATOM      9  C   UNL     1      -2.680  62.951 -16.588  1.00  0.00     0.094 A 
ATOM     10  C   UNL     1      -3.201  63.327 -17.828  1.00  0.00     0.146 A 
ATOM     11  O   UNL     1      -2.711  64.411 -18.421  1.00  0.00    -0.456 OA
ENDROOT
BRANCH   1  12
ATOM     12  C   UNL     1      -2.508  66.075 -20.171  1.00  0.00     0.021 A 
ATOM     13  C   UNL     1      -1.593  66.025 -21.239  1.00  0.00     0.016 A 
ATOM     14  C   UNL     1      -1.041  67.202 -21.753  1.00  0.00     0.051 A 
ATOM     15  C   UNL     1      -1.398  68.444 -21.218  1.00  0.00     0.157 A 
ATOM     16  C   UNL     1      -2.873  67.328 -19.648  1.00  0.00     0.062 A 
ATOM     17  C   UNL     1      -2.320  68.507 -20.160  1.00  0.00     0.158 A 
BRANCH  15  18
ATOM     18  O   UNL     1      -0.845  69.615 -21.733  1.00  0.00    -0.504 OA
ATOM     19  H   UNL     1      -0.037  70.054 -21.305  1.00  0.00     0.293 HD
ENDBRANCH  15  18
BRANCH  17  20
ATOM     20  O   UNL     1      -2.700  69.729 -19.607  1.00  0.00    -0.504 OA
ATOM     21  H   UNL     1      -2.045  70.493 -19.487  1.00  0.00     0.293 HD
ENDBRANCH  17  20
ENDBRANCH   1  12
BRANCH   6  22
ATOM     22  O   UNL     1      -5.819  60.657 -18.192  1.00  0.00    -0.507 OA
ATOM     23  H   UNL     1      -5.918  59.665 -18.047  1.00  0.00     0.293 HD
ENDBRANCH   6  22
BRANCH   8  24
ATOM     24  O   UNL     1      -2.606  61.444 -14.711  1.00  0.00    -0.508 OA
ATOM     25  H   UNL     1      -1.939  60.686 -14.634  1.00  0.00     0.293 HD
ENDBRANCH   8  24
TORSDOF 5
ENDMDL
MODEL 4
REMARK VINA RESULT:    -7.612      3.459      5.495
REMARK INTER + INTRA:          -9.218
REMARK INTER:                  -8.933
REMARK INTRA:                  -0.285
REMARK UNBOUND:                -0.270
REMARK SMILES O=c1cc(-c2ccc(O)c(O)c2)oc2cc(O)cc(O)c12
REMARK SMILES IDX 4 1 3 2 2 3 1 4 21 5 19 6 18 7 16 8 15 9 14 10 13 11 5 12
REMARK SMILES IDX 6 13 7 14 8 15 12 16 10 17 9 18 11 20 20 22 17 24
REMARK H PARENT 9 19 11 21 20 23 17 25
REMARK Flexibility Score: inf
ROOT
ATOM      1  C   UNL     1      -5.056  65.671 -21.377  1.00  0.00     0.138 A 
ATOM      2  C   UNL     1      -6.424  65.941 -21.521  1.00  0.00     0.100 A 
ATOM      3  C   UNL     1      -6.842  66.918 -22.426  1.00  0.00     0.197 A 
ATOM      4  O   UNL     1      -8.071  67.182 -22.489  1.00  0.00    -0.289 OA
ATOM      5  C   UNL     1      -5.886  67.604 -23.212  1.00  0.00     0.107 A 
ATOM      6  C   UNL     1      -6.199  68.591 -24.195  1.00  0.00     0.134 A 
ATOM      7  C   UNL     1      -5.162  69.286 -24.829  1.00  0.00     0.093 A 
ATOM      8  C   UNL     1      -3.824  68.990 -24.559  1.00  0.00     0.123 A 
ATOM      9  C   UNL     1      -3.509  67.991 -23.641  1.00  0.00     0.094 A 
ATOM     10  C   UNL     1      -4.520  67.303 -22.967  1.00  0.00     0.146 A 
ATOM     11  O   UNL     1      -4.176  66.368 -22.087  1.00  0.00    -0.456 OA
ENDROOT
BRANCH   1  12
ATOM     12  C   UNL     1      -4.556  64.641 -20.430  1.00  0.00     0.021 A 
ATOM     13  C   UNL     1      -3.317  64.777 -19.776  1.00  0.00     0.016 A 
ATOM     14  C   UNL     1      -2.877  63.796 -18.883  1.00  0.00     0.051 A 
ATOM     15  C   UNL     1      -3.666  62.669 -18.624  1.00  0.00     0.157 A 
ATOM     16  C   UNL     1      -5.349  63.513 -20.154  1.00  0.00     0.062 A 
ATOM     17  C   UNL     1      -4.909  62.529 -19.261  1.00  0.00     0.158 A 
BRANCH  15  18
ATOM     18  O   UNL     1      -3.223  61.693 -17.733  1.00  0.00    -0.504 OA
ATOM     19  H   UNL     1      -3.262  60.706 -17.964  1.00  0.00     0.293 HD
ENDBRANCH  15  18
BRANCH  17  20
ATOM     20  O   UNL     1      -5.721  61.421 -19.021  1.00  0.00    -0.504 OA
ATOM     21  H   UNL     1      -5.668  60.891 -18.159  1.00  0.00     0.293 HD
ENDBRANCH  17  20
ENDBRANCH   1  12
BRANCH   6  22
ATOM     22  O   UNL     1      -7.501  68.903 -24.601  1.00  0.00    -0.507 OA
ATOM     23  H   UNL     1      -7.985  68.469 -25.370  1.00  0.00     0.293 HD
ENDBRANCH   6  22
BRANCH   8  24
ATOM     24  O   UNL     1      -2.800  69.677 -25.207  1.00  0.00    -0.508 OA
ATOM     25  H   UNL     1      -2.597  69.525 -26.187  1.00  0.00     0.293 HD
ENDBRANCH   8  24
TORSDOF 5
ENDMDL
MODEL 5
REMARK VINA RESULT:    -7.586      1.768      3.034
REMARK INTER + INTRA:          -9.187
REMARK INTER:                  -8.928
REMARK INTRA:                  -0.259
REMARK UNBOUND:                -0.270
REMARK SMILES O=c1cc(-c2ccc(O)c(O)c2)oc2cc(O)cc(O)c12
REMARK SMILES IDX 4 1 3 2 2 3 1 4 21 5 19 6 18 7 16 8 15 9 14 10 13 11 5 12
REMARK SMILES IDX 6 13 7 14 8 15 12 16 10 17 9 18 11 20 20 22 17 24
REMARK H PARENT 9 19 11 21 20 23 17 25
REMARK Flexibility Score: inf
ROOT
ATOM      1  C   UNL     1      -3.026  67.876 -21.616  1.00  0.00     0.138 A 
ATOM      2  C   UNL     1      -3.556  68.242 -22.861  1.00  0.00     0.100 A 
ATOM      3  C   UNL     1      -4.931  68.442 -22.994  1.00  0.00     0.197 A 
ATOM      4  O   UNL     1      -5.385  68.708 -24.136  1.00  0.00    -0.289 OA
ATOM      5  C   UNL     1      -5.773  68.306 -21.864  1.00  0.00     0.107 A 
ATOM      6  C   UNL     1      -7.184  68.525 -21.872  1.00  0.00     0.134 A 
ATOM      7  C   UNL     1      -7.931  68.246 -20.720  1.00  0.00     0.093 A 
ATOM      8  C   UNL     1      -7.311  67.814 -19.546  1.00  0.00     0.123 A 
ATOM      9  C   UNL     1      -5.929  67.649 -19.513  1.00  0.00     0.094 A 
ATOM     10  C   UNL     1      -5.160  67.886 -20.654  1.00  0.00     0.146 A 
ATOM     11  O   UNL     1      -3.845  67.702 -20.585  1.00  0.00    -0.456 OA
ENDROOT
BRANCH   1  12
ATOM     12  C   UNL     1      -1.570  67.653 -21.419  1.00  0.00     0.021 A 
ATOM     13  C   UNL     1      -1.023  66.358 -21.353  1.00  0.00     0.016 A 
ATOM     14  C   UNL     1       0.352  66.178 -21.176  1.00  0.00     0.051 A 
ATOM     15  C   UNL     1       1.202  67.285 -21.070  1.00  0.00     0.157 A 
ATOM     16  C   UNL     1      -0.707  68.759 -21.325  1.00  0.00     0.062 A 
ATOM     17  C   UNL     1       0.669  68.582 -21.147  1.00  0.00     0.158 A 
BRANCH  15  18
ATOM     18  O   UNL     1       2.573  67.101 -20.894  1.00  0.00    -0.504 OA
ATOM     19  H   UNL     1       3.083  66.388 -21.403  1.00  0.00     0.293 HD
ENDBRANCH  15  18
BRANCH  17  20
ATOM     20  O   UNL     1       1.490  69.705 -21.049  1.00  0.00    -0.504 OA
ATOM     21  H   UNL     1       1.536  70.404 -21.781  1.00  0.00     0.293 HD
ENDBRANCH  17  20
ENDBRANCH   1  12
BRANCH   6  22
ATOM     22  O   UNL     1      -7.889  69.035 -22.966  1.00  0.00    -0.507 OA
ATOM     23  H   UNL     1      -7.541  69.736 -23.600  1.00  0.00     0.293 HD
ENDBRANCH   6  22
BRANCH   8  24
ATOM     24  O   UNL     1      -8.062  67.554 -18.401  1.00  0.00    -0.508 OA
ATOM     25  H   UNL     1      -7.625  67.455 -17.492  1.00  0.00     0.293 HD
ENDBRANCH   8  24
TORSDOF 5
ENDMDL
MODEL 6
REMARK VINA RESULT:    -7.539      2.733      5.540
REMARK INTER + INTRA:          -9.131
REMARK INTER:                  -8.828
REMARK INTRA:                  -0.303
REMARK UNBOUND:                -0.270
REMARK SMILES O=c1cc(-c2ccc(O)c(O)c2)oc2cc(O)cc(O)c12
REMARK SMILES IDX 4 1 3 2 2 3 1 4 21 5 19 6 18 7 16 8 15 9 14 10 13 11 5 12
REMARK SMILES IDX 6 13 7 14 8 15 12 16 10 17 9 18 11 20 20 22 17 24
REMARK H PARENT 9 19 11 21 20 23 17 25
REMARK Flexibility Score: inf
ROOT
ATOM      1  C   UNL     1      -3.868  65.380 -21.162  1.00  0.00     0.138 A 
ATOM      2  C   UNL     1      -2.677  65.887 -21.700  1.00  0.00     0.100 A 
ATOM      3  C   UNL     1      -2.727  66.935 -22.620  1.00  0.00     0.197 A 
ATOM      4  O   UNL     1      -1.647  67.326 -23.133  1.00  0.00    -0.289 OA
ATOM      5  C   UNL     1      -3.975  67.497 -22.978  1.00  0.00     0.107 A 
ATOM      6  C   UNL     1      -4.145  68.594 -23.875  1.00  0.00     0.134 A 
ATOM      7  C   UNL     1      -5.437  68.990 -24.244  1.00  0.00     0.093 A 
ATOM      8  C   UNL     1      -6.564  68.368 -23.703  1.00  0.00     0.123 A 
ATOM      9  C   UNL     1      -6.409  67.332 -22.785  1.00  0.00     0.094 A 
ATOM     10  C   UNL     1      -5.134  66.891 -22.423  1.00  0.00     0.146 A 
ATOM     11  O   UNL     1      -5.030  65.889 -21.556  1.00  0.00    -0.456 OA
ENDROOT
BRANCH   1  12
ATOM     12  C   UNL     1      -3.873  64.267 -20.177  1.00  0.00     0.021 A 
ATOM     13  C   UNL     1      -2.861  64.134 -19.208  1.00  0.00     0.016 A 
ATOM     14  C   UNL     1      -2.896  63.082 -18.288  1.00  0.00     0.051 A 
ATOM     15  C   UNL     1      -3.942  62.153 -18.315  1.00  0.00     0.157 A 
ATOM     16  C   UNL     1      -4.928  63.337 -20.189  1.00  0.00     0.062 A 
ATOM     17  C   UNL     1      -4.964  62.283 -19.270  1.00  0.00     0.158 A 
BRANCH  15  18
ATOM     18  O   UNL     1      -3.973  61.105 -17.396  1.00  0.00    -0.504 OA
ATOM     19  H   UNL     1      -4.843  60.655 -17.133  1.00  0.00     0.293 HD
ENDBRANCH  15  18
BRANCH  17  20
ATOM     20  O   UNL     1      -6.022  61.376 -19.321  1.00  0.00    -0.504 OA
ATOM     21  H   UNL     1      -6.987  61.669 -19.225  1.00  0.00     0.293 HD
ENDBRANCH  17  20
ENDBRANCH   1  12
BRANCH   6  22
ATOM     22  O   UNL     1      -3.087  69.339 -24.407  1.00  0.00    -0.507 OA
ATOM     23  H   UNL     1      -2.596  69.117 -25.258  1.00  0.00     0.293 HD
ENDBRANCH   6  22
BRANCH   8  24
ATOM     24  O   UNL     1      -7.845  68.780 -24.065  1.00  0.00    -0.508 OA
ATOM     25  H   UNL     1      -8.060  69.075 -25.010  1.00  0.00     0.293 HD
ENDBRANCH   8  24
TORSDOF 5
ENDMDL
MODEL 7
REMARK VINA RESULT:    -7.538      1.948      3.757
REMARK INTER + INTRA:          -9.131
REMARK INTER:                  -8.847
REMARK INTRA:                  -0.283
REMARK UNBOUND:                -0.270
REMARK SMILES O=c1cc(-c2ccc(O)c(O)c2)oc2cc(O)cc(O)c12
REMARK SMILES IDX 4 1 3 2 2 3 1 4 21 5 19 6 18 7 16 8 15 9 14 10 13 11 5 12
REMARK SMILES IDX 6 13 7 14 8 15 12 16 10 17 9 18 11 20 20 22 17 24
REMARK H PARENT 9 19 11 21 20 23 17 25
REMARK Flexibility Score: inf
ROOT
ATOM      1  C   UNL     1      -2.371  66.226 -20.908  1.00  0.00     0.138 A 
ATOM      2  C   UNL     1      -3.547  66.489 -21.625  1.00  0.00     0.100 A 
ATOM      3  C   UNL     1      -4.613  65.591 -21.555  1.00  0.00     0.197 A 
ATOM      4  O   UNL     1      -5.630  65.821 -22.259  1.00  0.00    -0.289 OA
ATOM      5  C   UNL     1      -4.511  64.440 -20.737  1.00  0.00     0.107 A 
ATOM      6  C   UNL     1      -5.548  63.477 -20.557  1.00  0.00     0.134 A 
ATOM      7  C   UNL     1      -5.292  62.317 -19.814  1.00  0.00     0.093 A 
ATOM      8  C   UNL     1      -4.056  62.115 -19.197  1.00  0.00     0.123 A 
ATOM      9  C   UNL     1      -3.055  63.076 -19.321  1.00  0.00     0.094 A 
ATOM     10  C   UNL     1      -3.268  64.227 -20.084  1.00  0.00     0.146 A 
ATOM     11  O   UNL     1      -2.281  65.111 -20.190  1.00  0.00    -0.456 OA
ENDROOT
BRANCH   1  12
ATOM     12  C   UNL     1      -1.208  67.148 -20.945  1.00  0.00     0.021 A 
ATOM     13  C   UNL     1      -1.327  68.504 -20.587  1.00  0.00     0.016 A 
ATOM     14  C   UNL     1      -0.213  69.347 -20.622  1.00  0.00     0.051 A 
ATOM     15  C   UNL     1       1.038  68.850 -21.006  1.00  0.00     0.157 A 
ATOM     16  C   UNL     1       0.056  66.654 -21.316  1.00  0.00     0.062 A 
ATOM     17  C   UNL     1       1.172  67.496 -21.353  1.00  0.00     0.158 A 
BRANCH  15  18
ATOM     18  O   UNL     1       2.147  69.694 -21.041  1.00  0.00    -0.504 OA
ATOM     19  H   UNL     1       2.154  70.583 -20.552  1.00  0.00     0.293 HD
ENDBRANCH  15  18
BRANCH  17  20
ATOM     20  O   UNL     1       2.405  66.969 -21.736  1.00  0.00    -0.504 OA
ATOM     21  H   UNL     1       2.495  66.042 -22.135  1.00  0.00     0.293 HD
ENDBRANCH  17  20
ENDBRANCH   1  12
BRANCH   6  22
ATOM     22  O   UNL     1      -6.845  63.622 -21.060  1.00  0.00    -0.507 OA
ATOM     23  H   UNL     1      -7.173  63.233 -21.930  1.00  0.00     0.293 HD
ENDBRANCH   6  22
BRANCH   8  24
ATOM     24  O   UNL     1      -3.815  60.966 -18.447  1.00  0.00    -0.508 OA
ATOM     25  H   UNL     1      -2.881  60.713 -18.149  1.00  0.00     0.293 HD
ENDBRANCH   8  24
TORSDOF 5
ENDMDL
MODEL 8
REMARK VINA RESULT:    -7.520      1.718      2.199
REMARK INTER + INTRA:          -9.109
REMARK INTER:                  -8.846
REMARK INTRA:                  -0.264
REMARK UNBOUND:                -0.270
REMARK SMILES O=c1cc(-c2ccc(O)c(O)c2)oc2cc(O)cc(O)c12
REMARK SMILES IDX 4 1 3 2 2 3 1 4 21 5 19 6 18 7 16 8 15 9 14 10 13 11 5 12
REMARK SMILES IDX 6 13 7 14 8 15 12 16 10 17 9 18 11 20 20 22 17 24
REMARK H PARENT 9 19 11 21 20 23 17 25
REMARK Flexibility Score: inf
ROOT
ATOM      1  C   UNL     1      -2.925  67.768 -21.249  1.00  0.00     0.138 A 
ATOM      2  C   UNL     1      -3.706  67.768 -20.085  1.00  0.00     0.100 A 
ATOM      3  C   UNL     1      -5.088  67.941 -20.181  1.00  0.00     0.197 A 
ATOM      4  O   UNL     1      -5.754  68.000 -19.116  1.00  0.00    -0.289 OA
ATOM      5  C   UNL     1      -5.692  68.081 -21.454  1.00  0.00     0.107 A 
ATOM      6  C   UNL     1      -7.095  68.222 -21.676  1.00  0.00     0.134 A 
ATOM      7  C   UNL     1      -7.566  68.470 -22.971  1.00  0.00     0.093 A 
ATOM      8  C   UNL     1      -6.693  68.523 -24.059  1.00  0.00     0.123 A 
ATOM      9  C   UNL     1      -5.327  68.332 -23.859  1.00  0.00     0.094 A 
ATOM     10  C   UNL     1      -4.822  68.117 -22.576  1.00  0.00     0.146 A 
ATOM     11  O   UNL     1      -3.511  67.955 -22.427  1.00  0.00    -0.456 OA
ENDROOT
BRANCH   1  12
ATOM     12  C   UNL     1      -1.451  67.587 -21.205  1.00  0.00     0.021 A 
ATOM     13  C   UNL     1      -0.861  66.309 -21.254  1.00  0.00     0.016 A 
ATOM     14  C   UNL     1       0.529  66.170 -21.220  1.00  0.00     0.051 A 
ATOM     15  C   UNL     1       1.352  67.299 -21.143  1.00  0.00     0.157 A 
ATOM     16  C   UNL     1      -0.617  68.717 -21.142  1.00  0.00     0.062 A 
ATOM     17  C   UNL     1       0.775  68.579 -21.106  1.00  0.00     0.158 A 
BRANCH  15  18
ATOM     18  O   UNL     1       2.738  67.156 -21.109  1.00  0.00    -0.504 OA
ATOM     19  H   UNL     1       3.353  67.829 -21.553  1.00  0.00     0.293 HD
ENDBRANCH  15  18
BRANCH  17  20
ATOM     20  O   UNL     1       1.567  69.724 -21.034  1.00  0.00    -0.504 OA
ATOM     21  H   UNL     1       2.126  69.943 -20.217  1.00  0.00     0.293 HD
ENDBRANCH  17  20
ENDBRANCH   1  12
BRANCH   6  22
ATOM     22  O   UNL     1      -8.060  68.101 -20.671  1.00  0.00    -0.507 OA
ATOM     23  H   UNL     1      -8.038  67.421 -19.928  1.00  0.00     0.293 HD
ENDBRANCH   6  22
BRANCH   8  24
ATOM     24  O   UNL     1      -7.174  68.754 -25.346  1.00  0.00    -0.508 OA
ATOM     25  H   UNL     1      -7.798  68.102 -25.804  1.00  0.00     0.293 HD
ENDBRANCH   8  24
TORSDOF 5
ENDMDL
MODEL 9
REMARK VINA RESULT:    -7.381      2.711      6.912
REMARK INTER + INTRA:          -8.946
REMARK INTER:                  -8.681
REMARK INTRA:                  -0.265
REMARK UNBOUND:                -0.270
REMARK SMILES O=c1cc(-c2ccc(O)c(O)c2)oc2cc(O)cc(O)c12
REMARK SMILES IDX 4 1 3 2 2 3 1 4 21 5 19 6 18 7 16 8 15 9 14 10 13 11 5 12
REMARK SMILES IDX 6 13 7 14 8 15 12 16 10 17 9 18 11 20 20 22 17 24
REMARK H PARENT 9 19 11 21 20 23 17 25
REMARK Flexibility Score: inf
ROOT
ATOM      1  C   UNL     1      -5.016  66.435 -20.805  1.00  0.00     0.138 A 
ATOM      2  C   UNL     1      -3.702  66.764 -21.167  1.00  0.00     0.100 A 
ATOM      3  C   UNL     1      -2.656  65.907 -20.822  1.00  0.00     0.197 A 
ATOM      4  O   UNL     1      -1.482  66.259 -21.104  1.00  0.00    -0.289 OA
ATOM      5  C   UNL     1      -2.934  64.699 -20.139  1.00  0.00     0.107 A 
ATOM      6  C   UNL     1      -1.953  63.729 -19.772  1.00  0.00     0.134 A 
ATOM      7  C   UNL     1      -2.330  62.626 -18.995  1.00  0.00     0.093 A 
ATOM      8  C   UNL     1      -3.661  62.427 -18.624  1.00  0.00     0.123 A 
ATOM      9  C   UNL     1      -4.635  63.339 -19.024  1.00  0.00     0.094 A 
ATOM     10  C   UNL     1      -4.286  64.468 -19.769  1.00  0.00     0.146 A 
ATOM     11  O   UNL     1      -5.243  65.322 -20.117  1.00  0.00    -0.456 OA
ENDROOT
BRANCH   1  12
ATOM     12  C   UNL     1      -6.166  67.310 -21.149  1.00  0.00     0.021 A 
ATOM     13  C   UNL     1      -6.488  68.445 -20.380  1.00  0.00     0.016 A 
ATOM     14  C   UNL     1      -7.571  69.255 -20.733  1.00  0.00     0.051 A 
ATOM     15  C   UNL     1      -8.343  68.953 -21.860  1.00  0.00     0.157 A 
ATOM     16  C   UNL     1      -6.939  67.021 -22.288  1.00  0.00     0.062 A 
ATOM     17  C   UNL     1      -8.024  67.830 -22.642  1.00  0.00     0.158 A 
BRANCH  15  18
ATOM     18  O   UNL     1      -9.423  69.763 -22.208  1.00  0.00    -0.504 OA
ATOM     19  H   UNL     1      -9.288  70.672 -22.637  1.00  0.00     0.293 HD
ENDBRANCH  15  18
BRANCH  17  20
ATOM     20  O   UNL     1      -8.772  67.504 -23.773  1.00  0.00    -0.504 OA
ATOM     21  H   UNL     1      -9.259  66.620 -23.860  1.00  0.00     0.293 HD
ENDBRANCH  17  20
ENDBRANCH   1  12
BRANCH   6  22
ATOM     22  O   UNL     1      -0.611  63.789 -20.163  1.00  0.00    -0.507 OA
ATOM     23  H   UNL     1      -0.292  63.918 -21.109  1.00  0.00     0.293 HD
ENDBRANCH   6  22
BRANCH   8  24
ATOM     24  O   UNL     1      -4.029  61.318 -17.865  1.00  0.00    -0.508 OA
ATOM     25  H   UNL     1      -5.001  61.092 -17.693  1.00  0.00     0.293 HD
ENDBRANCH   8  24
TORSDOF 5
ENDMDL
