MODEL 1
REMARK VINA RESULT:    -6.807      0.000      0.000
REMARK INTER + INTRA:          -8.518
REMARK INTER:                  -8.200
REMARK INTRA:                  -0.318
REMARK UNBOUND:                -0.318
REMARK SMILES O=c1c(O)c(-c2ccc(O)c(O)c2)oc2cc(O)cc(O)c12
REMARK SMILES IDX 5 1 3 2 2 3 1 4 22 5 20 6 19 7 17 8 16 9 15 10 14 11 6 12
REMARK SMILES IDX 7 13 8 14 9 15 13 16 11 17 10 18 12 20 4 22 21 24 18 26
REMARK H PARENT 10 19 12 21 4 23 21 25 18 27
REMARK Flexibility Score: inf
ROOT
ATOM      1  C   UNL     1     165.579 157.722 198.952  1.00  0.00     0.180 A 
ATOM      2  C   UNL     1     166.009 156.527 199.555  1.00  0.00     0.208 A 
ATOM      3  C   UNL     1     165.052 155.664 200.113  1.00  0.00     0.238 A 
ATOM      4  O   UNL     1     165.447 154.622 200.700  1.00  0.00    -0.285 OA
ATOM      5  C   UNL     1     163.678 155.997 200.046  1.00  0.00     0.111 A 
ATOM      6  C   UNL     1     162.620 155.177 200.543  1.00  0.00     0.134 A 
ATOM      7  C   UNL     1     161.308 155.666 200.541  1.00  0.00     0.093 A 
ATOM      8  C   UNL     1     161.007 156.919 200.000  1.00  0.00     0.123 A 
ATOM      9  C   UNL     1     162.025 157.701 199.460  1.00  0.00     0.094 A 
ATOM     10  C   UNL     1     163.350 157.256 199.481  1.00  0.00     0.146 A 
ATOM     11  O   UNL     1     164.290 158.038 198.964  1.00  0.00    -0.452 OA
ENDROOT
BRANCH   1  12
ATOM     12  C   UNL     1     166.526 158.670 198.321  1.00  0.00     0.025 A 
ATOM     13  C   UNL     1     166.912 159.824 199.016  1.00  0.00     0.016 A 
ATOM     14  C   UNL     1     167.787 160.741 198.433  1.00  0.00     0.051 A 
ATOM     15  C   UNL     1     168.281 160.534 197.139  1.00  0.00     0.157 A 
ATOM     16  C   UNL     1     167.001 158.469 197.014  1.00  0.00     0.062 A 
ATOM     17  C   UNL     1     167.878 159.386 196.418  1.00  0.00     0.158 A 
BRANCH  15  18
ATOM     18  O   UNL     1     169.159 161.485 196.616  1.00  0.00    -0.504 OA
ATOM     19  H   UNL     1     168.890 162.429 196.375  1.00  0.00     0.293 HD
ENDBRANCH  15  18
BRANCH  17  20
ATOM     20  O   UNL     1     168.312 159.121 195.118  1.00  0.00    -0.504 OA
ATOM     21  H   UNL     1     168.811 158.286 194.849  1.00  0.00     0.293 HD
ENDBRANCH  17  20
ENDBRANCH   1  12
BRANCH   2  22
ATOM     22  O   UNL     1     167.372 156.228 199.629  1.00  0.00    -0.502 OA
ATOM     23  H   UNL     1     168.030 156.503 198.909  1.00  0.00     0.293 HD
ENDBRANCH   2  22
BRANCH   6  24
ATOM     24  O   UNL     1     162.800 153.875 201.019  1.00  0.00    -0.507 OA
ATOM     25  H   UNL     1     163.598 153.563 201.552  1.00  0.00     0.293 HD
ENDBRANCH   6  24
BRANCH   8  26
ATOM     26  O   UNL     1     159.697 157.392 199.988  1.00  0.00    -0.508 OA
ATOM     27  H   UNL     1     159.467 158.326 200.307  1.00  0.00     0.293 HD
ENDBRANCH   8  26
TORSDOF 6
ENDMDL
MODEL 2
REMARK VINA RESULT:    -6.696      1.013      1.043
REMARK INTER + INTRA:          -8.384
REMARK INTER:                  -8.096
REMARK INTRA:                  -0.288
REMARK UNBOUND:                -0.318
REMARK SMILES O=c1c(O)c(-c2ccc(O)c(O)c2)oc2cc(O)cc(O)c12
REMARK SMILES IDX 5 1 3 2 2 3 1 4 22 5 20 6 19 7 17 8 16 9 15 10 14 11 6 12
REMARK SMILES IDX 7 13 8 14 9 15 13 16 11 17 10 18 12 20 4 22 21 24 18 26
REMARK H PARENT 10 19 12 21 4 23 21 25 18 27
REMARK Flexibility Score: inf
ROOT
ATOM      1  C   UNL     1     166.054 158.275 198.638  1.00  0.00     0.180 A 
ATOM      2  C   UNL     1     166.440 156.981 199.026  1.00  0.00     0.208 A 
ATOM      3  C   UNL     1     165.534 156.189 199.750  1.00  0.00     0.238 A 
ATOM      4  O   UNL     1     165.904 155.052 200.143  1.00  0.00    -0.285 OA
ATOM      5  C   UNL     1     164.249 156.694 200.062  1.00  0.00     0.111 A 
ATOM      6  C   UNL     1     163.238 155.964 200.756  1.00  0.00     0.134 A 
ATOM      7  C   UNL     1     162.050 156.609 201.125  1.00  0.00     0.093 A 
ATOM      8  C   UNL     1     161.812 157.939 200.768  1.00  0.00     0.123 A 
ATOM      9  C   UNL     1     162.769 158.641 200.039  1.00  0.00     0.094 A 
ATOM     10  C   UNL     1     163.979 158.036 199.688  1.00  0.00     0.146 A 
ATOM     11  O   UNL     1     164.867 158.745 199.003  1.00  0.00    -0.452 OA
ENDROOT
BRANCH   1  12
ATOM     12  C   UNL     1     166.945 159.160 197.852  1.00  0.00     0.025 A 
ATOM     13  C   UNL     1     167.564 160.249 198.479  1.00  0.00     0.016 A 
ATOM     14  C   UNL     1     168.391 161.107 197.753  1.00  0.00     0.051 A 
ATOM     15  C   UNL     1     168.604 160.905 196.385  1.00  0.00     0.157 A 
ATOM     16  C   UNL     1     167.137 158.966 196.473  1.00  0.00     0.062 A 
ATOM     17  C   UNL     1     167.963 159.824 195.734  1.00  0.00     0.158 A 
BRANCH  15  18
ATOM     18  O   UNL     1     169.449 161.795 195.717  1.00  0.00    -0.504 OA
ATOM     19  H   UNL     1     170.425 161.922 195.943  1.00  0.00     0.293 HD
ENDBRANCH  15  18
BRANCH  17  20
ATOM     20  O   UNL     1     168.111 159.571 194.369  1.00  0.00    -0.504 OA
ATOM     21  H   UNL     1     168.800 160.019 193.784  1.00  0.00     0.293 HD
ENDBRANCH  17  20
ENDBRANCH   1  12
BRANCH   2  22
ATOM     22  O   UNL     1     167.722 156.509 198.727  1.00  0.00    -0.502 OA
ATOM     23  H   UNL     1     168.561 156.978 199.046  1.00  0.00     0.293 HD
ENDBRANCH   2  22
BRANCH   6  24
ATOM     24  O   UNL     1     163.336 154.608 201.079  1.00  0.00    -0.507 OA
ATOM     25  H   UNL     1     163.933 154.232 201.801  1.00  0.00     0.293 HD
ENDBRANCH   6  24
BRANCH   8  26
ATOM     26  O   UNL     1     160.622 158.568 201.125  1.00  0.00    -0.508 OA
ATOM     27  H   UNL     1     160.585 159.562 201.323  1.00  0.00     0.293 HD
ENDBRANCH   8  26
TORSDOF 6
ENDMDL
MODEL 3
REMARK VINA RESULT:    -6.555      1.258      1.800
REMARK INTER + INTRA:          -8.214
REMARK INTER:                  -7.891
REMARK INTRA:                  -0.323
REMARK UNBOUND:                -0.318
REMARK SMILES O=c1c(O)c(-c2ccc(O)c(O)c2)oc2cc(O)cc(O)c12
REMARK SMILES IDX 5 1 3 2 2 3 1 4 22 5 20 6 19 7 17 8 16 9 15 10 14 11 6 12
REMARK SMILES IDX 7 13 8 14 9 15 13 16 11 17 10 18 12 20 4 22 21 24 18 26
REMARK H PARENT 10 19 12 21 4 23 21 25 18 27
REMARK Flexibility Score: inf
ROOT
ATOM      1  C   UNL     1     166.101 158.446 198.616  1.00  0.00     0.180 A 
ATOM      2  C   UNL     1     166.477 157.131 198.939  1.00  0.00     0.208 A 
ATOM      3  C   UNL     1     165.566 156.311 199.624  1.00  0.00     0.238 A 
ATOM      4  O   UNL     1     165.928 155.153 199.960  1.00  0.00    -0.285 OA
ATOM      5  C   UNL     1     164.285 156.810 199.962  1.00  0.00     0.111 A 
ATOM      6  C   UNL     1     163.268 156.055 200.620  1.00  0.00     0.134 A 
ATOM      7  C   UNL     1     162.086 156.690 201.022  1.00  0.00     0.093 A 
ATOM      8  C   UNL     1     161.858 158.037 200.731  1.00  0.00     0.123 A 
ATOM      9  C   UNL     1     162.819 158.767 200.037  1.00  0.00     0.094 A 
ATOM     10  C   UNL     1     164.024 158.171 199.655  1.00  0.00     0.146 A 
ATOM     11  O   UNL     1     164.918 158.906 199.005  1.00  0.00    -0.452 OA
ENDROOT
BRANCH   1  12
ATOM     12  C   UNL     1     166.998 159.361 197.874  1.00  0.00     0.025 A 
ATOM     13  C   UNL     1     166.982 159.357 196.472  1.00  0.00     0.016 A 
ATOM     14  C   UNL     1     167.833 160.196 195.752  1.00  0.00     0.051 A 
ATOM     15  C   UNL     1     168.728 161.044 196.415  1.00  0.00     0.157 A 
ATOM     16  C   UNL     1     167.910 160.194 198.543  1.00  0.00     0.062 A 
ATOM     17  C   UNL     1     168.772 161.038 197.830  1.00  0.00     0.158 A 
BRANCH  15  18
ATOM     18  O   UNL     1     169.548 161.865 195.637  1.00  0.00    -0.504 OA
ATOM     19  H   UNL     1     169.250 162.745 195.241  1.00  0.00     0.293 HD
ENDBRANCH  15  18
BRANCH  17  20
ATOM     20  O   UNL     1     169.651 161.840 198.560  1.00  0.00    -0.504 OA
ATOM     21  H   UNL     1     170.627 161.960 198.333  1.00  0.00     0.293 HD
ENDBRANCH  17  20
ENDBRANCH   1  12
BRANCH   2  22
ATOM     22  O   UNL     1     167.755 156.665 198.616  1.00  0.00    -0.502 OA
ATOM     23  H   UNL     1     167.994 155.681 198.629  1.00  0.00     0.293 HD
ENDBRANCH   2  22
BRANCH   6  24
ATOM     24  O   UNL     1     163.357 154.683 200.876  1.00  0.00    -0.507 OA
ATOM     25  H   UNL     1     164.164 154.113 200.674  1.00  0.00     0.293 HD
ENDBRANCH   6  24
BRANCH   8  26
ATOM     26  O   UNL     1     160.673 158.657 201.120  1.00  0.00    -0.508 OA
ATOM     27  H   UNL     1     159.814 158.537 200.595  1.00  0.00     0.293 HD
ENDBRANCH   8  26
TORSDOF 6
ENDMDL
MODEL 4
REMARK VINA RESULT:    -6.524      2.089      3.791
REMARK INTER + INTRA:          -8.177
REMARK INTER:                  -7.898
REMARK INTRA:                  -0.278
REMARK UNBOUND:                -0.318
REMARK SMILES O=c1c(O)c(-c2ccc(O)c(O)c2)oc2cc(O)cc(O)c12
REMARK SMILES IDX 5 1 3 2 2 3 1 4 22 5 20 6 19 7 17 8 16 9 15 10 14 11 6 12
REMARK SMILES IDX 7 13 8 14 9 15 13 16 11 17 10 18 12 20 4 22 21 24 18 26
REMARK H PARENT 10 19 12 21 4 23 21 25 18 27
REMARK Flexibility Score: inf
ROOT
ATOM      1  C   UNL     1     166.672 159.085 197.587  1.00  0.00     0.180 A 
ATOM      2  C   UNL     1     165.337 159.399 197.896  1.00  0.00     0.208 A 
ATOM      3  C   UNL     1     164.614 158.540 198.739  1.00  0.00     0.238 A 
ATOM      4  O   UNL     1     163.403 158.795 198.968  1.00  0.00    -0.285 OA
ATOM      5  C   UNL     1     165.239 157.388 199.276  1.00  0.00     0.111 A 
ATOM      6  C   UNL     1     164.613 156.471 200.173  1.00  0.00     0.134 A 
ATOM      7  C   UNL     1     165.283 155.296 200.538  1.00  0.00     0.093 A 
ATOM      8  C   UNL     1     166.582 155.038 200.089  1.00  0.00     0.123 A 
ATOM      9  C   UNL     1     167.222 155.957 199.261  1.00  0.00     0.094 A 
ATOM     10  C   UNL     1     166.566 157.121 198.851  1.00  0.00     0.146 A 
ATOM     11  O   UNL     1     167.209 157.964 198.053  1.00  0.00    -0.452 OA
ENDROOT
BRANCH   1  12
ATOM     12  C   UNL     1     167.506 159.955 196.726  1.00  0.00     0.025 A 
ATOM     13  C   UNL     1     168.028 161.146 197.247  1.00  0.00     0.016 A 
ATOM     14  C   UNL     1     168.799 161.991 196.447  1.00  0.00     0.051 A 
ATOM     15  C   UNL     1     169.050 161.672 195.108  1.00  0.00     0.157 A 
ATOM     16  C   UNL     1     167.736 159.642 195.375  1.00  0.00     0.062 A 
ATOM     17  C   UNL     1     168.506 160.485 194.562  1.00  0.00     0.158 A 
BRANCH  15  18
ATOM     18  O   UNL     1     169.835 162.555 194.363  1.00  0.00    -0.504 OA
ATOM     19  H   UNL     1     170.778 162.817 194.612  1.00  0.00     0.293 HD
ENDBRANCH  15  18
BRANCH  17  20
ATOM     20  O   UNL     1     168.697 160.110 193.231  1.00  0.00    -0.504 OA
ATOM     21  H   UNL     1     169.489 160.393 192.673  1.00  0.00     0.293 HD
ENDBRANCH  17  20
ENDBRANCH   1  12
BRANCH   2  22
ATOM     22  O   UNL     1     164.733 160.529 197.337  1.00  0.00    -0.502 OA
ATOM     23  H   UNL     1     165.018 161.471 197.575  1.00  0.00     0.293 HD
ENDBRANCH   2  22
BRANCH   6  24
ATOM     24  O   UNL     1     163.357 156.677 200.751  1.00  0.00    -0.507 OA
ATOM     25  H   UNL     1     162.509 156.215 200.461  1.00  0.00     0.293 HD
ENDBRANCH   6  24
BRANCH   8  26
ATOM     26  O   UNL     1     167.247 153.875 200.469  1.00  0.00    -0.508 OA
ATOM     27  H   UNL     1     166.895 153.281 201.211  1.00  0.00     0.293 HD
ENDBRANCH   8  26
TORSDOF 6
ENDMDL
MODEL 5
REMARK VINA RESULT:    -6.322      1.565      2.224
REMARK INTER + INTRA:          -7.933
REMARK INTER:                  -7.693
REMARK INTRA:                  -0.240
REMARK UNBOUND:                -0.318
REMARK SMILES O=c1c(O)c(-c2ccc(O)c(O)c2)oc2cc(O)cc(O)c12
REMARK SMILES IDX 5 1 3 2 2 3 1 4 22 5 20 6 19 7 17 8 16 9 15 10 14 11 6 12
REMARK SMILES IDX 7 13 8 14 9 15 13 16 11 17 10 18 12 20 4 22 21 24 18 26
REMARK H PARENT 10 19 12 21 4 23 21 25 18 27
REMARK Flexibility Score: inf
ROOT
ATOM      1  C   UNL     1     166.816 158.892 197.734  1.00  0.00     0.180 A 
ATOM      2  C   UNL     1     167.321 157.615 198.035  1.00  0.00     0.208 A 
ATOM      3  C   UNL     1     166.542 156.740 198.809  1.00  0.00     0.238 A 
ATOM      4  O   UNL     1     167.021 155.618 199.121  1.00  0.00    -0.285 OA
ATOM      5  C   UNL     1     165.261 157.145 199.257  1.00  0.00     0.111 A 
ATOM      6  C   UNL     1     164.370 156.325 200.013  1.00  0.00     0.134 A 
ATOM      7  C   UNL     1     163.184 156.875 200.515  1.00  0.00     0.093 A 
ATOM      8  C   UNL     1     162.826 158.196 200.233  1.00  0.00     0.123 A 
ATOM      9  C   UNL     1     163.662 158.985 199.446  1.00  0.00     0.094 A 
ATOM     10  C   UNL     1     164.869 158.476 198.962  1.00  0.00     0.146 A 
ATOM     11  O   UNL     1     165.641 159.267 198.225  1.00  0.00    -0.452 OA
ENDROOT
BRANCH   1  12
ATOM     12  C   UNL     1     167.568 159.860 196.904  1.00  0.00     0.025 A 
ATOM     13  C   UNL     1     168.051 161.040 197.486  1.00  0.00     0.016 A 
ATOM     14  C   UNL     1     168.745 161.976 196.718  1.00  0.00     0.051 A 
ATOM     15  C   UNL     1     168.957 161.761 195.352  1.00  0.00     0.157 A 
ATOM     16  C   UNL     1     167.759 159.651 195.528  1.00  0.00     0.062 A 
ATOM     17  C   UNL     1     168.452 160.586 194.747  1.00  0.00     0.158 A 
BRANCH  15  18
ATOM     18  O   UNL     1     169.665 162.732 194.641  1.00  0.00    -0.504 OA
ATOM     19  H   UNL     1     169.582 162.875 193.644  1.00  0.00     0.293 HD
ENDBRANCH  15  18
BRANCH  17  20
ATOM     20  O   UNL     1     168.607 160.312 193.386  1.00  0.00    -0.504 OA
ATOM     21  H   UNL     1     169.194 159.576 193.023  1.00  0.00     0.293 HD
ENDBRANCH  17  20
ENDBRANCH   1  12
BRANCH   2  22
ATOM     22  O   UNL     1     168.596 157.243 197.601  1.00  0.00    -0.502 OA
ATOM     23  H   UNL     1     169.438 157.699 197.932  1.00  0.00     0.293 HD
ENDBRANCH   2  22
BRANCH   6  24
ATOM     24  O   UNL     1     164.588 154.969 200.273  1.00  0.00    -0.507 OA
ATOM     25  H   UNL     1     164.088 154.212 199.832  1.00  0.00     0.293 HD
ENDBRANCH   6  24
BRANCH   8  26
ATOM     26  O   UNL     1     161.637 158.730 200.722  1.00  0.00    -0.508 OA
ATOM     27  H   UNL     1     161.416 159.714 200.624  1.00  0.00     0.293 HD
ENDBRANCH   8  26
TORSDOF 6
ENDMDL
MODEL 6
REMARK VINA RESULT:    -5.827      2.387      8.167
REMARK INTER + INTRA:          -7.337
REMARK INTER:                  -7.021
REMARK INTRA:                  -0.316
REMARK UNBOUND:                -0.318
REMARK SMILES O=c1c(O)c(-c2ccc(O)c(O)c2)oc2cc(O)cc(O)c12
REMARK SMILES IDX 5 1 3 2 2 3 1 4 22 5 20 6 19 7 17 8 16 9 15 10 14 11 6 12
REMARK SMILES IDX 7 13 8 14 9 15 13 16 11 17 10 18 12 20 4 22 21 24 18 26
REMARK H PARENT 10 19 12 21 4 23 21 25 18 27
REMARK Flexibility Score: inf
ROOT
ATOM      1  C   UNL     1     167.706 160.093 197.109  1.00  0.00     0.180 A 
ATOM      2  C   UNL     1     168.463 161.134 197.672  1.00  0.00     0.208 A 
ATOM      3  C   UNL     1     169.255 161.932 196.831  1.00  0.00     0.238 A 
ATOM      4  O   UNL     1     169.973 162.828 197.346  1.00  0.00    -0.285 OA
ATOM      5  C   UNL     1     169.267 161.690 195.436  1.00  0.00     0.111 A 
ATOM      6  C   UNL     1     170.000 162.462 194.485  1.00  0.00     0.134 A 
ATOM      7  C   UNL     1     170.042 162.051 193.147  1.00  0.00     0.093 A 
ATOM      8  C   UNL     1     169.323 160.934 192.713  1.00  0.00     0.123 A 
ATOM      9  C   UNL     1     168.557 160.210 193.623  1.00  0.00     0.094 A 
ATOM     10  C   UNL     1     168.524 160.573 194.972  1.00  0.00     0.146 A 
ATOM     11  O   UNL     1     167.789 159.849 195.807  1.00  0.00    -0.452 OA
ENDROOT
BRANCH   1  12
ATOM     12  C   UNL     1     166.829 159.225 197.928  1.00  0.00     0.025 A 
ATOM     13  C   UNL     1     165.535 159.658 198.249  1.00  0.00     0.016 A 
ATOM     14  C   UNL     1     164.699 158.866 199.037  1.00  0.00     0.051 A 
ATOM     15  C   UNL     1     165.143 157.635 199.534  1.00  0.00     0.157 A 
ATOM     16  C   UNL     1     167.286 158.000 198.444  1.00  0.00     0.062 A 
ATOM     17  C   UNL     1     166.456 157.199 199.239  1.00  0.00     0.158 A 
BRANCH  15  18
ATOM     18  O   UNL     1     164.255 156.886 200.310  1.00  0.00    -0.504 OA
ATOM     19  H   UNL     1     163.842 157.217 201.171  1.00  0.00     0.293 HD
ENDBRANCH  15  18
BRANCH  17  20
ATOM     20  O   UNL     1     166.975 155.993 199.715  1.00  0.00    -0.504 OA
ATOM     21  H   UNL     1     166.588 155.480 200.493  1.00  0.00     0.293 HD
ENDBRANCH  17  20
ENDBRANCH   1  12
BRANCH   2  22
ATOM     22  O   UNL     1     168.455 161.342 199.055  1.00  0.00    -0.502 OA
ATOM     23  H   UNL     1     169.270 161.182 199.634  1.00  0.00     0.293 HD
ENDBRANCH   2  22
BRANCH   6  24
ATOM     24  O   UNL     1     170.677 163.645 194.796  1.00  0.00    -0.507 OA
ATOM     25  H   UNL     1     170.250 164.458 195.212  1.00  0.00     0.293 HD
ENDBRANCH   6  24
BRANCH   8  26
ATOM     26  O   UNL     1     169.357 160.542 191.377  1.00  0.00    -0.508 OA
ATOM     27  H   UNL     1     170.184 160.674 190.806  1.00  0.00     0.293 HD
ENDBRANCH   8  26
TORSDOF 6
ENDMDL
MODEL 7
REMARK VINA RESULT:    -5.684      2.818      4.991
REMARK INTER + INTRA:          -7.165
REMARK INTER:                  -6.882
REMARK INTRA:                  -0.283
REMARK UNBOUND:                -0.318
REMARK SMILES O=c1c(O)c(-c2ccc(O)c(O)c2)oc2cc(O)cc(O)c12
REMARK SMILES IDX 5 1 3 2 2 3 1 4 22 5 20 6 19 7 17 8 16 9 15 10 14 11 6 12
REMARK SMILES IDX 7 13 8 14 9 15 13 16 11 17 10 18 12 20 4 22 21 24 18 26
REMARK H PARENT 10 19 12 21 4 23 21 25 18 27
REMARK Flexibility Score: inf
ROOT
ATOM      1  C   UNL     1     168.205 159.788 195.695  1.00  0.00     0.180 A 
ATOM      2  C   UNL     1     168.870 158.661 196.209  1.00  0.00     0.208 A 
ATOM      3  C   UNL     1     168.290 157.955 197.275  1.00  0.00     0.238 A 
ATOM      4  O   UNL     1     168.915 156.980 197.767  1.00  0.00    -0.285 OA
ATOM      5  C   UNL     1     167.045 158.374 197.803  1.00  0.00     0.111 A 
ATOM      6  C   UNL     1     166.346 157.710 198.856  1.00  0.00     0.134 A 
ATOM      7  C   UNL     1     165.186 158.288 199.387  1.00  0.00     0.093 A 
ATOM      8  C   UNL     1     164.664 159.472 198.859  1.00  0.00     0.123 A 
ATOM      9  C   UNL     1     165.307 160.095 197.793  1.00  0.00     0.094 A 
ATOM     10  C   UNL     1     166.487 159.562 197.265  1.00  0.00     0.146 A 
ATOM     11  O   UNL     1     167.073 160.195 196.255  1.00  0.00    -0.452 OA
ENDROOT
BRANCH   1  12
ATOM     12  C   UNL     1     168.742 160.568 194.557  1.00  0.00     0.025 A 
ATOM     13  C   UNL     1     168.614 160.066 193.255  1.00  0.00     0.016 A 
ATOM     14  C   UNL     1     169.131 160.774 192.169  1.00  0.00     0.051 A 
ATOM     15  C   UNL     1     169.800 161.988 192.362  1.00  0.00     0.157 A 
ATOM     16  C   UNL     1     169.433 161.775 194.758  1.00  0.00     0.062 A 
ATOM     17  C   UNL     1     169.959 162.492 193.675  1.00  0.00     0.158 A 
BRANCH  15  18
ATOM     18  O   UNL     1     170.287 162.652 191.234  1.00  0.00    -0.504 OA
ATOM     19  H   UNL     1     170.758 163.545 191.265  1.00  0.00     0.293 HD
ENDBRANCH  15  18
BRANCH  17  20
ATOM     20  O   UNL     1     170.631 163.686 193.948  1.00  0.00    -0.504 OA
ATOM     21  H   UNL     1     171.602 163.737 194.216  1.00  0.00     0.293 HD
ENDBRANCH  17  20
ENDBRANCH   1  12
BRANCH   2  22
ATOM     22  O   UNL     1     170.109 158.277 195.687  1.00  0.00    -0.502 OA
ATOM     23  H   UNL     1     170.195 157.640 194.904  1.00  0.00     0.293 HD
ENDBRANCH   2  22
BRANCH   6  24
ATOM     24  O   UNL     1     166.731 156.478 199.392  1.00  0.00    -0.507 OA
ATOM     25  H   UNL     1     166.132 155.669 199.458  1.00  0.00     0.293 HD
ENDBRANCH   6  24
BRANCH   8  26
ATOM     26  O   UNL     1     163.502 160.031 199.383  1.00  0.00    -0.508 OA
ATOM     27  H   UNL     1     163.431 161.024 199.577  1.00  0.00     0.293 HD
ENDBRANCH   8  26
TORSDOF 6
ENDMDL
MODEL 8
REMARK VINA RESULT:    -5.591      2.392      4.254
REMARK INTER + INTRA:          -7.053
REMARK INTER:                  -6.787
REMARK INTRA:                  -0.266
REMARK UNBOUND:                -0.318
REMARK SMILES O=c1c(O)c(-c2ccc(O)c(O)c2)oc2cc(O)cc(O)c12
REMARK SMILES IDX 5 1 3 2 2 3 1 4 22 5 20 6 19 7 17 8 16 9 15 10 14 11 6 12
REMARK SMILES IDX 7 13 8 14 9 15 13 16 11 17 10 18 12 20 4 22 21 24 18 26
REMARK H PARENT 10 19 12 21 4 23 21 25 18 27
REMARK Flexibility Score: inf
ROOT
ATOM      1  C   UNL     1     168.261 160.360 197.703  1.00  0.00     0.180 A 
ATOM      2  C   UNL     1     168.856 159.129 197.377  1.00  0.00     0.208 A 
ATOM      3  C   UNL     1     168.169 157.941 197.672  1.00  0.00     0.238 A 
ATOM      4  O   UNL     1     168.730 156.841 197.429  1.00  0.00    -0.285 OA
ATOM      5  C   UNL     1     166.889 157.998 198.275  1.00  0.00     0.111 A 
ATOM      6  C   UNL     1     166.086 156.859 198.582  1.00  0.00     0.134 A 
ATOM      7  C   UNL     1     164.893 157.026 199.296  1.00  0.00     0.093 A 
ATOM      8  C   UNL     1     164.443 158.299 199.657  1.00  0.00     0.123 A 
ATOM      9  C   UNL     1     165.191 159.421 199.310  1.00  0.00     0.094 A 
ATOM     10  C   UNL     1     166.403 159.283 198.629  1.00  0.00     0.146 A 
ATOM     11  O   UNL     1     167.090 160.379 198.327  1.00  0.00    -0.452 OA
ENDROOT
BRANCH   1  12
ATOM     12  C   UNL     1     168.913 161.654 197.400  1.00  0.00     0.025 A 
ATOM     13  C   UNL     1     169.960 162.107 198.214  1.00  0.00     0.016 A 
ATOM     14  C   UNL     1     170.575 163.333 197.959  1.00  0.00     0.051 A 
ATOM     15  C   UNL     1     170.148 164.140 196.898  1.00  0.00     0.157 A 
ATOM     16  C   UNL     1     168.465 162.471 196.347  1.00  0.00     0.062 A 
ATOM     17  C   UNL     1     169.074 163.706 196.085  1.00  0.00     0.158 A 
BRANCH  15  18
ATOM     18  O   UNL     1     170.810 165.352 196.692  1.00  0.00    -0.504 OA
ATOM     19  H   UNL     1     170.340 166.224 196.495  1.00  0.00     0.293 HD
ENDBRANCH  15  18
BRANCH  17  20
ATOM     20  O   UNL     1     168.580 164.463 195.022  1.00  0.00    -0.504 OA
ATOM     21  H   UNL     1     169.075 165.235 194.600  1.00  0.00     0.293 HD
ENDBRANCH  17  20
ENDBRANCH   1  12
BRANCH   2  22
ATOM     22  O   UNL     1     170.131 159.094 196.802  1.00  0.00    -0.502 OA
ATOM     23  H   UNL     1     170.903 159.645 197.159  1.00  0.00     0.293 HD
ENDBRANCH   2  22
BRANCH   6  24
ATOM     24  O   UNL     1     166.399 155.554 198.187  1.00  0.00    -0.507 OA
ATOM     25  H   UNL     1     167.328 155.227 197.972  1.00  0.00     0.293 HD
ENDBRANCH   6  24
BRANCH   8  26
ATOM     26  O   UNL     1     163.247 158.458 200.354  1.00  0.00    -0.508 OA
ATOM     27  H   UNL     1     162.732 159.330 200.331  1.00  0.00     0.293 HD
ENDBRANCH   8  26
TORSDOF 6
ENDMDL
