MODEL 1
REMARK VINA RESULT:    -4.084      0.000      0.000
REMARK INTER + INTRA:          -5.709
REMARK INTER:                  -5.517
REMARK INTRA:                  -0.193
REMARK UNBOUND:                -0.193
REMARK SMILES CCCCCCCC(=O)[O-]
REMARK SMILES IDX 5 1 6 2 7 3 8 4 9 5 10 6 4 7 3 8 2 9 1 10
REMARK H PARENT
REMARK Flexibility Score: inf
ROOT
ATOM      1  C   UNL     1      36.984  72.625  73.819  1.00  0.00     0.000 C 
ENDROOT
BRANCH   1   2
ATOM      2  C   UNL     1      36.933  72.075  75.258  1.00  0.00     0.006 C 
BRANCH   2   3
ATOM      3  C   UNL     1      36.200  70.727  75.388  1.00  0.00     0.053 C 
BRANCH   3   4
ATOM      4  C   UNL     1      36.962  69.732  76.211  1.00  0.00     0.041 C 
ATOM      5  O   UNL     1      37.661  70.115  77.186  1.00  0.00    -0.550 OA
ATOM      6  O   UNL     1      36.868  68.376  75.927  1.00  0.00    -0.550 OA
ENDBRANCH   3   4
ENDBRANCH   2   3
ENDBRANCH   1   2
BRANCH   1   7
ATOM      7  C   UNL     1      37.611  74.021  73.673  1.00  0.00     0.000 C 
BRANCH   7   8
ATOM      8  C   UNL     1      38.475  74.163  72.411  1.00  0.00    -0.000 C 
BRANCH   8   9
ATOM      9  C   UNL     1      39.608  75.171  72.633  1.00  0.00    -0.003 C 
ATOM     10  C   UNL     1      40.098  75.141  74.078  1.00  0.00     0.004 C 
ENDBRANCH   8   9
ENDBRANCH   7   8
ENDBRANCH   1   7
TORSDOF 6
ENDMDL
MODEL 2
REMARK VINA RESULT:    -3.971      3.180      5.752
REMARK INTER + INTRA:          -5.557
REMARK INTER:                  -5.397
REMARK INTRA:                  -0.160
REMARK UNBOUND:                -0.193
REMARK SMILES CCCCCCCC(=O)[O-]
REMARK SMILES IDX 5 1 6 2 7 3 8 4 9 5 10 6 4 7 3 8 2 9 1 10
REMARK H PARENT
REMARK Flexibility Score: inf
ROOT
ATOM      1  C   UNL     1      36.988  72.243  73.970  1.00  0.00     0.000 C 
ENDROOT
BRANCH   1   2
ATOM      2  C   UNL     1      37.154  73.736  73.622  1.00  0.00     0.006 C 
BRANCH   2   3
ATOM      3  C   UNL     1      38.172  74.009  72.500  1.00  0.00     0.053 C 
BRANCH   3   4
ATOM      4  C   UNL     1      39.341  74.823  72.965  1.00  0.00     0.041 C 
ATOM      5  O   UNL     1      39.685  74.808  74.176  1.00  0.00    -0.550 OA
ATOM      6  O   UNL     1      40.077  75.569  72.053  1.00  0.00    -0.550 OA
ENDBRANCH   3   4
ENDBRANCH   2   3
ENDBRANCH   1   2
BRANCH   1   7
ATOM      7  C   UNL     1      36.875  71.928  75.470  1.00  0.00     0.000 C 
BRANCH   7   8
ATOM      8  C   UNL     1      36.313  70.526  75.748  1.00  0.00    -0.000 C 
BRANCH   8   9
ATOM      9  C   UNL     1      37.408  69.593  76.279  1.00  0.00    -0.003 C 
ATOM     10  C   UNL     1      37.112  68.139  75.924  1.00  0.00     0.004 C 
ENDBRANCH   8   9
ENDBRANCH   7   8
ENDBRANCH   1   7
TORSDOF 6
ENDMDL
MODEL 3
REMARK VINA RESULT:    -3.939      0.949      1.587
REMARK INTER + INTRA:          -5.513
REMARK INTER:                  -5.373
REMARK INTRA:                  -0.140
REMARK UNBOUND:                -0.193
REMARK SMILES CCCCCCCC(=O)[O-]
REMARK SMILES IDX 5 1 6 2 7 3 8 4 9 5 10 6 4 7 3 8 2 9 1 10
REMARK H PARENT
REMARK Flexibility Score: inf
ROOT
ATOM      1  C   UNL     1      36.669  72.102  75.277  1.00  0.00     0.000 C 
ENDROOT
BRANCH   1   2
ATOM      2  C   UNL     1      36.457  70.600  75.546  1.00  0.00     0.006 C 
BRANCH   2   3
ATOM      3  C   UNL     1      37.439  70.000  76.569  1.00  0.00     0.053 C 
BRANCH   3   4
ATOM      4  C   UNL     1      37.843  68.597  76.229  1.00  0.00     0.041 C 
ATOM      5  O   UNL     1      39.031  68.217  76.405  1.00  0.00    -0.550 OA
ATOM      6  O   UNL     1      36.898  67.696  75.756  1.00  0.00    -0.550 OA
ENDBRANCH   3   4
ENDBRANCH   2   3
ENDBRANCH   1   2
BRANCH   1   7
ATOM      7  C   UNL     1      37.053  72.464  73.833  1.00  0.00     0.000 C 
BRANCH   7   8
ATOM      8  C   UNL     1      37.322  73.963  73.639  1.00  0.00    -0.000 C 
BRANCH   8   9
ATOM      9  C   UNL     1      38.591  74.189  72.811  1.00  0.00    -0.003 C 
ATOM     10  C   UNL     1      39.671  74.884  73.634  1.00  0.00     0.004 C 
ENDBRANCH   8   9
ENDBRANCH   7   8
ENDBRANCH   1   7
TORSDOF 6
ENDMDL
MODEL 4
REMARK VINA RESULT:    -3.826      1.220      2.101
REMARK INTER + INTRA:          -5.362
REMARK INTER:                  -5.122
REMARK INTRA:                  -0.240
REMARK UNBOUND:                -0.193
REMARK SMILES CCCCCCCC(=O)[O-]
REMARK SMILES IDX 5 1 6 2 7 3 8 4 9 5 10 6 4 7 3 8 2 9 1 10
REMARK H PARENT
REMARK Flexibility Score: inf
ROOT
ATOM      1  C   UNL     1      36.745  72.832  73.973  1.00  0.00     0.000 C 
ENDROOT
BRANCH   1   2
ATOM      2  C   UNL     1      36.893  72.068  75.304  1.00  0.00     0.006 C 
BRANCH   2   3
ATOM      3  C   UNL     1      36.226  70.680  75.308  1.00  0.00     0.053 C 
BRANCH   3   4
ATOM      4  C   UNL     1      36.962  69.688  76.157  1.00  0.00     0.041 C 
ATOM      5  O   UNL     1      37.695  70.080  77.103  1.00  0.00    -0.550 OA
ATOM      6  O   UNL     1      36.806  68.326  75.930  1.00  0.00    -0.550 OA
ENDBRANCH   3   4
ENDBRANCH   2   3
ENDBRANCH   1   2
BRANCH   1   7
ATOM      7  C   UNL     1      37.951  73.700  73.577  1.00  0.00     0.000 C 
BRANCH   7   8
ATOM      8  C   UNL     1      38.158  73.783  72.058  1.00  0.00    -0.000 C 
BRANCH   8   9
ATOM      9  C   UNL     1      36.942  73.228  71.308  1.00  0.00    -0.003 C 
ATOM     10  C   UNL     1      37.368  72.273  70.197  1.00  0.00     0.004 C 
ENDBRANCH   8   9
ENDBRANCH   7   8
ENDBRANCH   1   7
TORSDOF 6
ENDMDL
MODEL 5
REMARK VINA RESULT:    -3.730      3.289      5.793
REMARK INTER + INTRA:          -5.231
REMARK INTER:                  -5.002
REMARK INTRA:                  -0.229
REMARK UNBOUND:                -0.193
REMARK SMILES CCCCCCCC(=O)[O-]
REMARK SMILES IDX 5 1 6 2 7 3 8 4 9 5 10 6 4 7 3 8 2 9 1 10
REMARK H PARENT
REMARK Flexibility Score: inf
ROOT
ATOM      1  C   UNL     1      36.666  71.993  75.482  1.00  0.00     0.000 C 
ENDROOT
BRANCH   1   2
ATOM      2  C   UNL     1      36.989  72.233  73.994  1.00  0.00     0.006 C 
BRANCH   2   3
ATOM      3  C   UNL     1      36.924  73.710  73.567  1.00  0.00     0.053 C 
BRANCH   3   4
ATOM      4  C   UNL     1      37.942  74.056  72.523  1.00  0.00     0.041 C 
ATOM      5  O   UNL     1      37.672  73.919  71.301  1.00  0.00    -0.550 OA
ATOM      6  O   UNL     1      39.177  74.569  72.898  1.00  0.00    -0.550 OA
ENDBRANCH   3   4
ENDBRANCH   2   3
ENDBRANCH   1   2
BRANCH   1   7
ATOM      7  C   UNL     1      36.713  70.525  75.936  1.00  0.00     0.000 C 
BRANCH   7   8
ATOM      8  C   UNL     1      35.770  69.618  75.133  1.00  0.00    -0.000 C 
BRANCH   8   9
ATOM      9  C   UNL     1      36.278  68.172  75.121  1.00  0.00    -0.003 C 
ATOM     10  C   UNL     1      37.396  67.973  76.141  1.00  0.00     0.004 C 
ENDBRANCH   8   9
ENDBRANCH   7   8
ENDBRANCH   1   7
TORSDOF 6
ENDMDL
MODEL 6
REMARK VINA RESULT:    -3.370     13.481     14.524
REMARK INTER + INTRA:          -4.745
REMARK INTER:                  -4.320
REMARK INTRA:                  -0.425
REMARK UNBOUND:                -0.193
REMARK SMILES CCCCCCCC(=O)[O-]
REMARK SMILES IDX 5 1 6 2 7 3 8 4 9 5 10 6 4 7 3 8 2 9 1 10
REMARK H PARENT
REMARK Flexibility Score: inf
ROOT
ATOM      1  C   UNL     1      25.701  65.239  75.738  1.00  0.00     0.000 C 
ENDROOT
BRANCH   1   2
ATOM      2  C   UNL     1      25.217  64.513  74.467  1.00  0.00     0.006 C 
BRANCH   2   3
ATOM      3  C   UNL     1      25.860  65.028  73.167  1.00  0.00     0.053 C 
BRANCH   3   4
ATOM      4  C   UNL     1      24.875  65.712  72.267  1.00  0.00     0.041 C 
ATOM      5  O   UNL     1      24.156  66.648  72.705  1.00  0.00    -0.550 OA
ATOM      6  O   UNL     1      24.780  65.343  70.931  1.00  0.00    -0.550 OA
ENDBRANCH   3   4
ENDBRANCH   2   3
ENDBRANCH   1   2
BRANCH   1   7
ATOM      7  C   UNL     1      26.529  66.510  75.492  1.00  0.00     0.000 C 
BRANCH   7   8
ATOM      8  C   UNL     1      25.803  67.793  75.922  1.00  0.00    -0.000 C 
BRANCH   8   9
ATOM      9  C   UNL     1      24.523  67.464  76.698  1.00  0.00    -0.003 C 
ATOM     10  C   UNL     1      23.971  68.701  77.401  1.00  0.00     0.004 C 
ENDBRANCH   8   9
ENDBRANCH   7   8
ENDBRANCH   1   7
TORSDOF 6
ENDMDL
MODEL 7
REMARK VINA RESULT:    -3.168     13.262     14.426
REMARK INTER + INTRA:          -4.472
REMARK INTER:                  -4.272
REMARK INTRA:                  -0.200
REMARK UNBOUND:                -0.193
REMARK SMILES CCCCCCCC(=O)[O-]
REMARK SMILES IDX 5 1 6 2 7 3 8 4 9 5 10 6 4 7 3 8 2 9 1 10
REMARK H PARENT
REMARK Flexibility Score: inf
ROOT
ATOM      1  C   UNL     1      25.534  64.621  75.870  1.00  0.00     0.000 C 
ENDROOT
BRANCH   1   2
ATOM      2  C   UNL     1      26.158  63.212  75.875  1.00  0.00     0.006 C 
BRANCH   2   3
ATOM      3  C   UNL     1      25.924  62.427  77.178  1.00  0.00     0.053 C 
BRANCH   3   4
ATOM      4  C   UNL     1      27.050  61.490  77.498  1.00  0.00     0.041 C 
ATOM      5  O   UNL     1      27.374  60.583  76.688  1.00  0.00    -0.550 OA
ATOM      6  O   UNL     1      27.770  61.644  78.677  1.00  0.00    -0.550 OA
ENDBRANCH   3   4
ENDBRANCH   2   3
ENDBRANCH   1   2
BRANCH   1   7
ATOM      7  C   UNL     1      26.390  65.717  75.213  1.00  0.00     0.000 C 
BRANCH   7   8
ATOM      8  C   UNL     1      26.118  67.116  75.785  1.00  0.00    -0.000 C 
BRANCH   8   9
ATOM      9  C   UNL     1      24.784  67.149  76.540  1.00  0.00    -0.003 C 
ATOM     10  C   UNL     1      24.370  68.581  76.864  1.00  0.00     0.004 C 
ENDBRANCH   8   9
ENDBRANCH   7   8
ENDBRANCH   1   7
TORSDOF 6
ENDMDL
MODEL 8
REMARK VINA RESULT:    -3.134     19.088     20.231
REMARK INTER + INTRA:          -4.426
REMARK INTER:                  -4.120
REMARK INTRA:                  -0.306
REMARK UNBOUND:                -0.193
REMARK SMILES CCCCCCCC(=O)[O-]
REMARK SMILES IDX 5 1 6 2 7 3 8 4 9 5 10 6 4 7 3 8 2 9 1 10
REMARK H PARENT
REMARK Flexibility Score: inf
ROOT
ATOM      1  C   UNL     1      28.435  57.397  86.790  1.00  0.00     0.000 C 
ENDROOT
BRANCH   1   2
ATOM      2  C   UNL     1      29.893  56.936  86.603  1.00  0.00     0.006 C 
BRANCH   2   3
ATOM      3  C   UNL     1      30.806  57.989  85.949  1.00  0.00     0.053 C 
BRANCH   3   4
ATOM      4  C   UNL     1      31.457  57.490  84.694  1.00  0.00     0.041 C 
ATOM      5  O   UNL     1      30.812  57.455  83.614  1.00  0.00    -0.550 OA
ATOM      6  O   UNL     1      32.791  57.102  84.709  1.00  0.00    -0.550 OA
ENDBRANCH   3   4
ENDBRANCH   2   3
ENDBRANCH   1   2
BRANCH   1   7
ATOM      7  C   UNL     1      28.152  58.171  88.088  1.00  0.00     0.000 C 
BRANCH   7   8
ATOM      8  C   UNL     1      27.370  59.471  87.855  1.00  0.00    -0.000 C 
BRANCH   8   9
ATOM      9  C   UNL     1      28.237  60.511  87.137  1.00  0.00    -0.003 C 
ATOM     10  C   UNL     1      28.047  61.899  87.742  1.00  0.00     0.004 C 
ENDBRANCH   8   9
ENDBRANCH   7   8
ENDBRANCH   1   7
TORSDOF 6
ENDMDL
MODEL 9
REMARK VINA RESULT:    -3.075     13.143     15.226
REMARK INTER + INTRA:          -4.346
REMARK INTER:                  -4.086
REMARK INTRA:                  -0.260
REMARK UNBOUND:                -0.193
REMARK SMILES CCCCCCCC(=O)[O-]
REMARK SMILES IDX 5 1 6 2 7 3 8 4 9 5 10 6 4 7 3 8 2 9 1 10
REMARK H PARENT
REMARK Flexibility Score: inf
ROOT
ATOM      1  C   UNL     1      25.352  65.116  75.901  1.00  0.00     0.000 C 
ENDROOT
BRANCH   1   2
ATOM      2  C   UNL     1      26.232  66.174  75.207  1.00  0.00     0.006 C 
BRANCH   2   3
ATOM      3  C   UNL     1      26.238  67.544  75.910  1.00  0.00     0.053 C 
BRANCH   3   4
ATOM      4  C   UNL     1      24.869  68.143  76.022  1.00  0.00     0.041 C 
ATOM      5  O   UNL     1      24.430  68.523  77.139  1.00  0.00    -0.550 OA
ATOM      6  O   UNL     1      24.090  68.318  74.885  1.00  0.00    -0.550 OA
ENDBRANCH   3   4
ENDBRANCH   2   3
ENDBRANCH   1   2
BRANCH   1   7
ATOM      7  C   UNL     1      25.724  63.655  75.602  1.00  0.00     0.000 C 
BRANCH   7   8
ATOM      8  C   UNL     1      25.767  62.776  76.861  1.00  0.00    -0.000 C 
BRANCH   8   9
ATOM      9  C   UNL     1      24.678  63.191  77.856  1.00  0.00    -0.003 C 
ATOM     10  C   UNL     1      24.910  62.556  79.224  1.00  0.00     0.004 C 
ENDBRANCH   8   9
ENDBRANCH   7   8
ENDBRANCH   1   7
TORSDOF 6
ENDMDL
