MODEL 1
REMARK VINA RESULT:    -1.686      0.000      0.000
REMARK INTER + INTRA:          -2.977
REMARK INTER:                  -2.426
REMARK INTRA:                  -0.551
REMARK UNBOUND:                -0.551
REMARK SMILES O=c1cc(-c2ccc(O)c(O)c2)oc2cc(O[C@H]3O[C@H](CO)[C@@H](O)[C@H](O)[C@@H]3O)cc(O)c12
REMARK SMILES IDX 17 1 16 2 4 3 3 4 13 5 2 6 14 7 1 8 32 9 15 10 30 11 29 12
REMARK SMILES IDX 5 13 6 14 7 15 8 16 12 17 10 18 9 19 11 21 31 23 18 25 27 26
REMARK SMILES IDX 19 27 25 28 20 29 23 30 28 31 26 33 21 35 22 36 24 38
REMARK H PARENT 9 20 11 22 31 24 28 32 26 34 22 37 24 39
REMARK Flexibility Score: inf
ROOT
ATOM      1  O   UNL     1     -12.255  32.312  16.011  1.00  0.00    -0.462 OA
ENDROOT
BRANCH   1   2
ATOM      2  C   UNL     1     -12.871  31.055  15.880  1.00  0.00     0.130 A 
ATOM      3  C   UNL     1     -17.000  28.676  15.703  1.00  0.00     0.138 A 
ATOM      4  C   UNL     1     -16.358  27.458  15.424  1.00  0.00     0.100 A 
ATOM      5  O   UNL     1     -16.273  29.780  15.841  1.00  0.00    -0.456 OA
ATOM      6  C   UNL     1     -14.966  27.414  15.352  1.00  0.00     0.197 A 
ATOM      7  C   UNL     1     -14.945  29.794  15.764  1.00  0.00     0.146 A 
ATOM      8  O   UNL     1     -14.395  26.315  15.111  1.00  0.00    -0.289 OA
ATOM      9  C   UNL     1     -14.226  28.597  15.544  1.00  0.00     0.107 A 
ATOM     10  C   UNL     1     -14.266  31.006  15.910  1.00  0.00     0.094 A 
ATOM     11  C   UNL     1     -12.813  28.638  15.524  1.00  0.00     0.134 A 
ATOM     12  C   UNL     1     -12.148  29.861  15.701  1.00  0.00     0.093 A 
BRANCH   3  13
ATOM     13  C   UNL     1     -18.472  28.768  15.870  1.00  0.00     0.021 A 
ATOM     14  C   UNL     1     -19.227  27.593  16.039  1.00  0.00     0.016 A 
ATOM     15  C   UNL     1     -20.621  27.647  16.120  1.00  0.00     0.051 A 
ATOM     16  C   UNL     1     -21.287  28.873  16.031  1.00  0.00     0.157 A 
ATOM     17  C   UNL     1     -19.149  30.001  15.790  1.00  0.00     0.062 A 
ATOM     18  C   UNL     1     -20.547  30.057  15.873  1.00  0.00     0.158 A 
BRANCH  16  19
ATOM     19  O   UNL     1     -22.682  28.894  16.085  1.00  0.00    -0.504 OA
ATOM     20  H   UNL     1     -23.255  28.764  15.259  1.00  0.00     0.293 HD
ENDBRANCH  16  19
BRANCH  18  21
ATOM     21  O   UNL     1     -21.206  31.285  15.787  1.00  0.00    -0.504 OA
ATOM     22  H   UNL     1     -20.700  32.150  15.626  1.00  0.00     0.293 HD
ENDBRANCH  18  21
ENDBRANCH   3  13
BRANCH  11  23
ATOM     23  O   UNL     1     -12.067  27.474  15.330  1.00  0.00    -0.507 OA
ATOM     24  H   UNL     1     -12.386  26.730  14.727  1.00  0.00     0.293 HD
ENDBRANCH  11  23
ENDBRANCH   1   2
BRANCH   1  25
ATOM     25  C   UNL     1     -11.901  33.192  14.938  1.00  0.00     0.339 C 
ATOM     26  C   UNL     1     -12.871  34.415  14.904  1.00  0.00     0.214 C 
ATOM     27  O   UNL     1     -11.879  32.453  13.723  1.00  0.00    -0.332 OA
ATOM     28  C   UNL     1     -13.088  34.901  13.457  1.00  0.00     0.180 C 
ATOM     29  C   UNL     1     -13.167  32.357  13.141  1.00  0.00     0.179 C 
ATOM     30  C   UNL     1     -13.596  33.733  12.566  1.00  0.00     0.177 C 
BRANCH  26  31
ATOM     31  O   UNL     1     -12.427  35.458  15.739  1.00  0.00    -0.384 OA
ATOM     32  H   UNL     1     -12.984  36.259  15.555  1.00  0.00     0.211 HD
ENDBRANCH  26  31
BRANCH  28  33
ATOM     33  O   UNL     1     -11.876  35.404  12.945  1.00  0.00    -0.387 OA
ATOM     34  H   UNL     1     -12.013  35.538  11.971  1.00  0.00     0.211 HD
ENDBRANCH  28  33
BRANCH  29  35
ATOM     35  C   UNL     1     -13.153  31.271  12.056  1.00  0.00     0.191 C 
BRANCH  35  36
ATOM     36  O   UNL     1     -14.229  31.446  11.175  1.00  0.00    -0.394 OA
ATOM     37  H   UNL     1     -14.200  32.397  10.886  1.00  0.00     0.210 HD
ENDBRANCH  35  36
ENDBRANCH  29  35
BRANCH  30  38
ATOM     38  O   UNL     1     -14.999  33.771  12.477  1.00  0.00    -0.387 OA
ATOM     39  H   UNL     1     -15.296  34.610  12.916  1.00  0.00     0.211 HD
ENDBRANCH  30  38
ENDBRANCH   1  25
TORSDOF 11
ENDMDL
MODEL 2
REMARK VINA RESULT:    -0.844      4.953      8.763
REMARK INTER + INTRA:          -1.765
REMARK INTER:                  -1.011
REMARK INTRA:                  -0.754
REMARK UNBOUND:                -0.551
REMARK SMILES O=c1cc(-c2ccc(O)c(O)c2)oc2cc(O[C@H]3O[C@H](CO)[C@@H](O)[C@H](O)[C@@H]3O)cc(O)c12
REMARK SMILES IDX 17 1 16 2 4 3 3 4 13 5 2 6 14 7 1 8 32 9 15 10 30 11 29 12
REMARK SMILES IDX 5 13 6 14 7 15 8 16 12 17 10 18 9 19 11 21 31 23 18 25 27 26
REMARK SMILES IDX 19 27 25 28 20 29 23 30 28 31 26 33 21 35 22 36 24 38
REMARK H PARENT 9 20 11 22 31 24 28 32 26 34 22 37 24 39
REMARK Flexibility Score: inf
ROOT
ATOM      1  O   UNL     1     -15.682  29.937  12.433  1.00  0.00    -0.462 OA
ENDROOT
BRANCH   1   2
ATOM      2  C   UNL     1     -15.095  30.445  11.261  1.00  0.00     0.130 A 
ATOM      3  C   UNL     1     -15.720  33.134   7.373  1.00  0.00     0.138 A 
ATOM      4  C   UNL     1     -14.375  33.004   6.990  1.00  0.00     0.100 A 
ATOM      5  O   UNL     1     -16.138  32.557   8.495  1.00  0.00    -0.456 OA
ATOM      6  C   UNL     1     -13.512  32.224   7.760  1.00  0.00     0.197 A 
ATOM      7  C   UNL     1     -15.352  31.819   9.273  1.00  0.00     0.146 A 
ATOM      8  O   UNL     1     -12.308  32.103   7.405  1.00  0.00    -0.289 OA
ATOM      9  C   UNL     1     -14.000  31.594   8.922  1.00  0.00     0.107 A 
ATOM     10  C   UNL     1     -15.876  31.262  10.442  1.00  0.00     0.094 A 
ATOM     11  C   UNL     1     -13.207  30.759   9.741  1.00  0.00     0.134 A 
ATOM     12  C   UNL     1     -13.761  30.185  10.895  1.00  0.00     0.093 A 
BRANCH   3  13
ATOM     13  C   UNL     1     -16.702  33.884   6.550  1.00  0.00     0.021 A 
ATOM     14  C   UNL     1     -17.869  34.391   7.149  1.00  0.00     0.016 A 
ATOM     15  C   UNL     1     -18.844  35.031   6.381  1.00  0.00     0.051 A 
ATOM     16  C   UNL     1     -18.674  35.176   5.001  1.00  0.00     0.157 A 
ATOM     17  C   UNL     1     -16.533  34.039   5.159  1.00  0.00     0.062 A 
ATOM     18  C   UNL     1     -17.510  34.685   4.388  1.00  0.00     0.158 A 
BRANCH  16  19
ATOM     19  O   UNL     1     -19.679  35.794   4.254  1.00  0.00    -0.504 OA
ATOM     20  H   UNL     1     -20.593  35.997   4.643  1.00  0.00     0.293 HD
ENDBRANCH  16  19
BRANCH  18  21
ATOM     21  O   UNL     1     -17.333  34.829   3.010  1.00  0.00    -0.504 OA
ATOM     22  H   UNL     1     -16.766  35.577   2.623  1.00  0.00     0.293 HD
ENDBRANCH  18  21
ENDBRANCH   3  13
BRANCH  11  23
ATOM     23  O   UNL     1     -11.875  30.497   9.415  1.00  0.00    -0.507 OA
ATOM     24  H   UNL     1     -11.147  30.479  10.115  1.00  0.00     0.293 HD
ENDBRANCH  11  23
ENDBRANCH   1   2
BRANCH   1  25
ATOM     25  C   UNL     1     -15.023  29.747  13.691  1.00  0.00     0.339 C 
ATOM     26  C   UNL     1     -14.789  28.225  13.949  1.00  0.00     0.214 C 
ATOM     27  O   UNL     1     -15.784  30.384  14.710  1.00  0.00    -0.332 OA
ATOM     28  C   UNL     1     -14.867  27.909  15.456  1.00  0.00     0.180 C 
ATOM     29  C   UNL     1     -16.821  29.550  15.194  1.00  0.00     0.179 C 
ATOM     30  C   UNL     1     -16.225  28.394  16.040  1.00  0.00     0.177 C 
BRANCH  26  31
ATOM     31  O   UNL     1     -13.576  27.781  13.390  1.00  0.00    -0.384 OA
ATOM     32  H   UNL     1     -13.250  28.479  12.764  1.00  0.00     0.211 HD
ENDBRANCH  26  31
BRANCH  28  33
ATOM     33  O   UNL     1     -13.803  28.543  16.125  1.00  0.00    -0.387 OA
ATOM     34  H   UNL     1     -13.696  28.078  16.995  1.00  0.00     0.211 HD
ENDBRANCH  28  33
BRANCH  29  35
ATOM     35  C   UNL     1     -17.811  30.393  16.010  1.00  0.00     0.191 C 
BRANCH  35  36
ATOM     36  O   UNL     1     -17.643  31.756  15.727  1.00  0.00    -0.394 OA
ATOM     37  H   UNL     1     -16.858  32.055  16.260  1.00  0.00     0.210 HD
ENDBRANCH  35  36
ENDBRANCH  29  35
BRANCH  30  38
ATOM     38  O   UNL     1     -17.144  27.330  16.068  1.00  0.00    -0.387 OA
ATOM     39  H   UNL     1     -16.974  26.821  16.903  1.00  0.00     0.211 HD
ENDBRANCH  30  38
ENDBRANCH   1  25
TORSDOF 11
ENDMDL
MODEL 3
REMARK VINA RESULT:    -0.648      3.202      9.094
REMARK INTER + INTRA:          -1.483
REMARK INTER:                  -0.676
REMARK INTRA:                  -0.807
REMARK UNBOUND:                -0.551
REMARK SMILES O=c1cc(-c2ccc(O)c(O)c2)oc2cc(O[C@H]3O[C@H](CO)[C@@H](O)[C@H](O)[C@@H]3O)cc(O)c12
REMARK SMILES IDX 17 1 16 2 4 3 3 4 13 5 2 6 14 7 1 8 32 9 15 10 30 11 29 12
REMARK SMILES IDX 5 13 6 14 7 15 8 16 12 17 10 18 9 19 11 21 31 23 18 25 27 26
REMARK SMILES IDX 19 27 25 28 20 29 23 30 28 31 26 33 21 35 22 36 24 38
REMARK H PARENT 9 20 11 22 31 24 28 32 26 34 22 37 24 39
REMARK Flexibility Score: inf
ROOT
ATOM      1  O   UNL     1     -16.630  25.935  13.418  1.00  0.00    -0.462 OA
ENDROOT
BRANCH   1   2
ATOM      2  C   UNL     1     -15.672  26.963  13.486  1.00  0.00     0.130 A 
ATOM      3  C   UNL     1     -13.531  30.530  11.156  1.00  0.00     0.138 A 
ATOM      4  C   UNL     1     -12.818  30.931  12.298  1.00  0.00     0.100 A 
ATOM      5  O   UNL     1     -14.376  29.507  11.240  1.00  0.00    -0.456 OA
ATOM      6  C   UNL     1     -12.962  30.215  13.486  1.00  0.00     0.197 A 
ATOM      7  C   UNL     1     -14.562  28.804  12.353  1.00  0.00     0.146 A 
ATOM      8  O   UNL     1     -12.310  30.574  14.506  1.00  0.00    -0.289 OA
ATOM      9  C   UNL     1     -13.836  29.111  13.527  1.00  0.00     0.107 A 
ATOM     10  C   UNL     1     -15.481  27.752  12.351  1.00  0.00     0.094 A 
ATOM     11  C   UNL     1     -14.016  28.308  14.677  1.00  0.00     0.134 A 
ATOM     12  C   UNL     1     -14.923  27.238  14.645  1.00  0.00     0.093 A 
BRANCH   3  13
ATOM     13  C   UNL     1     -13.357  31.204   9.845  1.00  0.00     0.021 A 
ATOM     14  C   UNL     1     -12.062  31.491   9.377  1.00  0.00     0.016 A 
ATOM     15  C   UNL     1     -11.875  32.193   8.184  1.00  0.00     0.051 A 
ATOM     16  C   UNL     1     -12.975  32.624   7.438  1.00  0.00     0.157 A 
ATOM     17  C   UNL     1     -14.463  31.634   9.084  1.00  0.00     0.062 A 
ATOM     18  C   UNL     1     -14.276  32.337   7.886  1.00  0.00     0.158 A 
BRANCH  16  19
ATOM     19  O   UNL     1     -12.759  33.351   6.265  1.00  0.00    -0.504 OA
ATOM     20  H   UNL     1     -13.507  33.843   5.790  1.00  0.00     0.293 HD
ENDBRANCH  16  19
BRANCH  18  21
ATOM     21  O   UNL     1     -15.379  32.762   7.143  1.00  0.00    -0.504 OA
ATOM     22  H   UNL     1     -16.017  32.100   6.713  1.00  0.00     0.293 HD
ENDBRANCH  18  21
ENDBRANCH   3  13
BRANCH  11  23
ATOM     23  O   UNL     1     -13.301  28.567  15.848  1.00  0.00    -0.507 OA
ATOM     24  H   UNL     1     -13.240  29.495  16.242  1.00  0.00     0.293 HD
ENDBRANCH  11  23
ENDBRANCH   1   2
BRANCH   1  25
ATOM     25  C   UNL     1     -17.021  25.076  14.495  1.00  0.00     0.339 C 
ATOM     26  C   UNL     1     -17.908  23.909  13.955  1.00  0.00     0.214 C 
ATOM     27  O   UNL     1     -17.659  25.855  15.499  1.00  0.00    -0.332 OA
ATOM     28  C   UNL     1     -18.954  23.487  15.006  1.00  0.00     0.180 C 
ATOM     29  C   UNL     1     -19.036  26.042  15.225  1.00  0.00     0.179 C 
ATOM     30  C   UNL     1     -19.808  24.712  15.440  1.00  0.00     0.177 C 
BRANCH  26  31
ATOM     31  O   UNL     1     -17.131  22.815  13.531  1.00  0.00    -0.384 OA
ATOM     32  H   UNL     1     -16.404  22.677  14.193  1.00  0.00     0.211 HD
ENDBRANCH  26  31
BRANCH  28  33
ATOM     33  O   UNL     1     -18.299  22.937  16.125  1.00  0.00    -0.387 OA
ATOM     34  H   UNL     1     -18.712  22.049  16.287  1.00  0.00     0.211 HD
ENDBRANCH  28  33
BRANCH  29  35
ATOM     35  C   UNL     1     -19.584  27.163  16.120  1.00  0.00     0.191 C 
BRANCH  35  36
ATOM     36  O   UNL     1     -20.866  27.543  15.699  1.00  0.00    -0.394 OA
ATOM     37  H   UNL     1     -21.495  26.882  16.097  1.00  0.00     0.210 HD
ENDBRANCH  35  36
ENDBRANCH  29  35
BRANCH  30  38
ATOM     38  O   UNL     1     -21.001  24.754  14.697  1.00  0.00    -0.387 OA
ATOM     39  H   UNL     1     -21.224  25.711  14.558  1.00  0.00     0.211 HD
ENDBRANCH  30  38
ENDBRANCH   1  25
TORSDOF 11
ENDMDL
MODEL 4
REMARK VINA RESULT:    -0.132      4.974      8.536
REMARK INTER + INTRA:          -0.741
REMARK INTER:                  -0.428
REMARK INTRA:                  -0.313
REMARK UNBOUND:                -0.551
REMARK SMILES O=c1cc(-c2ccc(O)c(O)c2)oc2cc(O[C@H]3O[C@H](CO)[C@@H](O)[C@H](O)[C@@H]3O)cc(O)c12
REMARK SMILES IDX 17 1 16 2 4 3 3 4 13 5 2 6 14 7 1 8 32 9 15 10 30 11 29 12
REMARK SMILES IDX 5 13 6 14 7 15 8 16 12 17 10 18 9 19 11 21 31 23 18 25 27 26
REMARK SMILES IDX 19 27 25 28 20 29 23 30 28 31 26 33 21 35 22 36 24 38
REMARK H PARENT 9 20 11 22 31 24 28 32 26 34 22 37 24 39
REMARK Flexibility Score: inf
ROOT
ATOM      1  O   UNL     1     -15.702  30.093  12.395  1.00  0.00    -0.462 OA
ENDROOT
BRANCH   1   2
ATOM      2  C   UNL     1     -15.102  30.558  11.212  1.00  0.00     0.130 A 
ATOM      3  C   UNL     1     -15.664  33.150   7.249  1.00  0.00     0.138 A 
ATOM      4  C   UNL     1     -14.320  32.984   6.875  1.00  0.00     0.100 A 
ATOM      5  O   UNL     1     -16.096  32.612   8.385  1.00  0.00    -0.456 OA
ATOM      6  C   UNL     1     -13.474  32.211   7.670  1.00  0.00     0.197 A 
ATOM      7  C   UNL     1     -15.326  31.882   9.186  1.00  0.00     0.146 A 
ATOM      8  O   UNL     1     -12.271  32.057   7.323  1.00  0.00    -0.289 OA
ATOM      9  C   UNL     1     -13.978  31.622   8.847  1.00  0.00     0.107 A 
ATOM     10  C   UNL     1     -15.865  31.366  10.368  1.00  0.00     0.094 A 
ATOM     11  C   UNL     1     -13.203  30.795   9.692  1.00  0.00     0.134 A 
ATOM     12  C   UNL     1     -13.771  30.263  10.859  1.00  0.00     0.093 A 
BRANCH   3  13
ATOM     13  C   UNL     1     -16.629  33.895   6.402  1.00  0.00     0.021 A 
ATOM     14  C   UNL     1     -17.879  34.262   6.930  1.00  0.00     0.016 A 
ATOM     15  C   UNL     1     -18.833  34.894   6.129  1.00  0.00     0.051 A 
ATOM     16  C   UNL     1     -18.559  35.169   4.787  1.00  0.00     0.157 A 
ATOM     17  C   UNL     1     -16.354  34.182   5.049  1.00  0.00     0.062 A 
ATOM     18  C   UNL     1     -17.310  34.818   4.245  1.00  0.00     0.158 A 
BRANCH  16  19
ATOM     19  O   UNL     1     -19.542  35.775   4.002  1.00  0.00    -0.504 OA
ATOM     20  H   UNL     1     -19.994  36.640   4.277  1.00  0.00     0.293 HD
ENDBRANCH  16  19
BRANCH  18  21
ATOM     21  O   UNL     1     -17.028  35.094   2.906  1.00  0.00    -0.504 OA
ATOM     22  H   UNL     1     -16.225  34.687   2.437  1.00  0.00     0.293 HD
ENDBRANCH  18  21
ENDBRANCH   3  13
BRANCH  11  23
ATOM     23  O   UNL     1     -11.875  30.499   9.379  1.00  0.00    -0.507 OA
ATOM     24  H   UNL     1     -11.102  30.964   9.834  1.00  0.00     0.293 HD
ENDBRANCH  11  23
ENDBRANCH   1   2
BRANCH   1  25
ATOM     25  C   UNL     1     -15.263  30.375  13.729  1.00  0.00     0.339 C 
ATOM     26  C   UNL     1     -13.804  30.932  13.707  1.00  0.00     0.214 C 
ATOM     27  O   UNL     1     -15.409  29.202  14.520  1.00  0.00    -0.332 OA
ATOM     28  C   UNL     1     -13.035  30.501  14.972  1.00  0.00     0.180 C 
ATOM     29  C   UNL     1     -14.292  28.340  14.397  1.00  0.00     0.179 C 
ATOM     30  C   UNL     1     -13.063  28.953  15.119  1.00  0.00     0.177 C 
BRANCH  26  31
ATOM     31  O   UNL     1     -13.781  32.329  13.540  1.00  0.00    -0.384 OA
ATOM     32  H   UNL     1     -14.068  32.748  14.393  1.00  0.00     0.211 HD
ENDBRANCH  26  31
BRANCH  28  33
ATOM     33  O   UNL     1     -13.620  31.101  16.104  1.00  0.00    -0.387 OA
ATOM     34  H   UNL     1     -13.467  32.078  16.018  1.00  0.00     0.211 HD
ENDBRANCH  28  33
BRANCH  29  35
ATOM     35  C   UNL     1     -14.651  26.960  14.967  1.00  0.00     0.191 C 
BRANCH  35  36
ATOM     36  O   UNL     1     -13.543  26.394  15.614  1.00  0.00    -0.394 OA
ATOM     37  H   UNL     1     -13.132  27.125  16.150  1.00  0.00     0.210 HD
ENDBRANCH  35  36
ENDBRANCH  29  35
BRANCH  30  38
ATOM     38  O   UNL     1     -11.891  28.397  14.575  1.00  0.00    -0.387 OA
ATOM     39  H   UNL     1     -11.820  28.726  13.640  1.00  0.00     0.211 HD
ENDBRANCH  30  38
ENDBRANCH   1  25
TORSDOF 11
ENDMDL
MODEL 5
REMARK VINA RESULT:    -0.050      2.808      4.010
REMARK INTER + INTRA:          -0.623
REMARK INTER:                   0.320
REMARK INTRA:                  -0.944
REMARK UNBOUND:                -0.551
REMARK SMILES O=c1cc(-c2ccc(O)c(O)c2)oc2cc(O[C@H]3O[C@H](CO)[C@@H](O)[C@H](O)[C@@H]3O)cc(O)c12
REMARK SMILES IDX 17 1 16 2 4 3 3 4 13 5 2 6 14 7 1 8 32 9 15 10 30 11 29 12
REMARK SMILES IDX 5 13 6 14 7 15 8 16 12 17 10 18 9 19 11 21 31 23 18 25 27 26
REMARK SMILES IDX 19 27 25 28 20 29 23 30 28 31 26 33 21 35 22 36 24 38
REMARK H PARENT 9 20 11 22 31 24 28 32 26 34 22 37 24 39
REMARK Flexibility Score: inf
ROOT
ATOM      1  O   UNL     1     -14.377  31.492  11.310  1.00  0.00    -0.462 OA
ENDROOT
BRANCH   1   2
ATOM      2  C   UNL     1     -14.320  30.590  12.387  1.00  0.00     0.130 A 
ATOM      3  C   UNL     1     -16.758  27.524  15.106  1.00  0.00     0.138 A 
ATOM      4  C   UNL     1     -15.603  27.122  15.798  1.00  0.00     0.100 A 
ATOM      5  O   UNL     1     -16.656  28.423  14.133  1.00  0.00    -0.456 OA
ATOM      6  C   UNL     1     -14.377  27.713  15.493  1.00  0.00     0.197 A 
ATOM      7  C   UNL     1     -15.508  29.002  13.791  1.00  0.00     0.146 A 
ATOM      8  O   UNL     1     -13.345  27.356  16.125  1.00  0.00    -0.289 OA
ATOM      9  C   UNL     1     -14.314  28.692  14.482  1.00  0.00     0.107 A 
ATOM     10  C   UNL     1     -15.495  29.928  12.745  1.00  0.00     0.094 A 
ATOM     11  C   UNL     1     -13.122  29.368  14.132  1.00  0.00     0.134 A 
ATOM     12  C   UNL     1     -13.136  30.316  13.097  1.00  0.00     0.093 A 
BRANCH   3  13
ATOM     13  C   UNL     1     -18.101  26.988  15.443  1.00  0.00     0.021 A 
ATOM     14  C   UNL     1     -18.304  25.597  15.485  1.00  0.00     0.016 A 
ATOM     15  C   UNL     1     -19.575  25.070  15.722  1.00  0.00     0.051 A 
ATOM     16  C   UNL     1     -20.667  25.920  15.919  1.00  0.00     0.157 A 
ATOM     17  C   UNL     1     -19.204  27.840  15.650  1.00  0.00     0.062 A 
ATOM     18  C   UNL     1     -20.480  27.312  15.891  1.00  0.00     0.158 A 
BRANCH  16  19
ATOM     19  O   UNL     1     -21.932  25.365  16.125  1.00  0.00    -0.504 OA
ATOM     20  H   UNL     1     -22.113  24.375  16.000  1.00  0.00     0.293 HD
ENDBRANCH  16  19
BRANCH  18  21
ATOM     21  O   UNL     1     -21.566  28.166  16.090  1.00  0.00    -0.504 OA
ATOM     22  H   UNL     1     -22.522  27.824  16.075  1.00  0.00     0.293 HD
ENDBRANCH  18  21
ENDBRANCH   3  13
BRANCH  11  23
ATOM     23  O   UNL     1     -11.928  29.104  14.805  1.00  0.00    -0.507 OA
ATOM     24  H   UNL     1     -11.145  28.659  14.348  1.00  0.00     0.293 HD
ENDBRANCH  11  23
ENDBRANCH   1   2
BRANCH   1  25
ATOM     25  C   UNL     1     -13.895  31.250   9.983  1.00  0.00     0.339 C 
ATOM     26  C   UNL     1     -13.281  32.557   9.389  1.00  0.00     0.214 C 
ATOM     27  O   UNL     1     -14.954  30.714   9.198  1.00  0.00    -0.332 OA
ATOM     28  C   UNL     1     -13.499  32.618   7.864  1.00  0.00     0.180 C 
ATOM     29  C   UNL     1     -15.773  31.732   8.653  1.00  0.00     0.179 C 
ATOM     30  C   UNL     1     -15.012  32.484   7.529  1.00  0.00     0.177 C 
BRANCH  26  31
ATOM     31  O   UNL     1     -11.920  32.693   9.722  1.00  0.00    -0.384 OA
ATOM     32  H   UNL     1     -11.450  31.863   9.448  1.00  0.00     0.211 HD
ENDBRANCH  26  31
BRANCH  28  33
ATOM     33  O   UNL     1     -12.776  31.581   7.244  1.00  0.00    -0.387 OA
ATOM     34  H   UNL     1     -11.818  31.745   7.443  1.00  0.00     0.211 HD
ENDBRANCH  28  33
BRANCH  29  35
ATOM     35  C   UNL     1     -17.076  31.109   8.132  1.00  0.00     0.191 C 
BRANCH  35  36
ATOM     36  O   UNL     1     -17.858  32.077   7.486  1.00  0.00    -0.394 OA
ATOM     37  H   UNL     1     -17.324  32.390   6.707  1.00  0.00     0.210 HD
ENDBRANCH  35  36
ENDBRANCH  29  35
BRANCH  30  38
ATOM     38  O   UNL     1     -15.583  33.759   7.366  1.00  0.00    -0.387 OA
ATOM     39  H   UNL     1     -16.318  33.835   8.029  1.00  0.00     0.211 HD
ENDBRANCH  30  38
ENDBRANCH   1  25
TORSDOF 11
ENDMDL
MODEL 6
REMARK VINA RESULT:     0.884      2.771      4.522
REMARK INTER + INTRA:           0.721
REMARK INTER:                   1.344
REMARK INTRA:                  -0.623
REMARK UNBOUND:                -0.551
REMARK SMILES O=c1cc(-c2ccc(O)c(O)c2)oc2cc(O[C@H]3O[C@H](CO)[C@@H](O)[C@H](O)[C@@H]3O)cc(O)c12
REMARK SMILES IDX 17 1 16 2 4 3 3 4 13 5 2 6 14 7 1 8 32 9 15 10 30 11 29 12
REMARK SMILES IDX 5 13 6 14 7 15 8 16 12 17 10 18 9 19 11 21 31 23 18 25 27 26
REMARK SMILES IDX 19 27 25 28 20 29 23 30 28 31 26 33 21 35 22 36 24 38
REMARK H PARENT 9 20 11 22 31 24 28 32 26 34 22 37 24 39
REMARK Flexibility Score: inf
ROOT
ATOM      1  O   UNL     1     -13.049  30.061   9.793  1.00  0.00    -0.462 OA
ENDROOT
BRANCH   1   2
ATOM      2  C   UNL     1     -13.427  30.455  11.089  1.00  0.00     0.130 A 
ATOM      3  C   UNL     1     -16.480  29.787  14.690  1.00  0.00     0.138 A 
ATOM      4  C   UNL     1     -15.792  30.685  15.523  1.00  0.00     0.100 A 
ATOM      5  O   UNL     1     -16.019  29.546  13.467  1.00  0.00    -0.456 OA
ATOM      6  C   UNL     1     -14.670  31.353  15.035  1.00  0.00     0.197 A 
ATOM      7  C   UNL     1     -14.943  30.143  12.962  1.00  0.00     0.146 A 
ATOM      8  O   UNL     1     -14.062  32.167  15.785  1.00  0.00    -0.289 OA
ATOM      9  C   UNL     1     -14.232  31.103  13.719  1.00  0.00     0.107 A 
ATOM     10  C   UNL     1     -14.524  29.817  11.670  1.00  0.00     0.094 A 
ATOM     11  C   UNL     1     -13.127  31.761  13.133  1.00  0.00     0.134 A 
ATOM     12  C   UNL     1     -12.740  31.440  11.823  1.00  0.00     0.093 A 
BRANCH   3  13
ATOM     13  C   UNL     1     -17.726  29.108  15.127  1.00  0.00     0.021 A 
ATOM     14  C   UNL     1     -17.688  27.748  15.485  1.00  0.00     0.016 A 
ATOM     15  C   UNL     1     -18.860  27.068  15.825  1.00  0.00     0.051 A 
ATOM     16  C   UNL     1     -20.091  27.730  15.810  1.00  0.00     0.157 A 
ATOM     17  C   UNL     1     -18.969  29.772  15.122  1.00  0.00     0.062 A 
ATOM     18  C   UNL     1     -20.146  29.091  15.465  1.00  0.00     0.158 A 
BRANCH  16  19
ATOM     19  O   UNL     1     -21.250  27.017  16.125  1.00  0.00    -0.504 OA
ATOM     20  H   UNL     1     -21.319  26.441  16.956  1.00  0.00     0.293 HD
ENDBRANCH  16  19
BRANCH  18  21
ATOM     21  O   UNL     1     -21.371  29.759  15.452  1.00  0.00    -0.504 OA
ATOM     22  H   UNL     1     -22.210  29.325  15.079  1.00  0.00     0.293 HD
ENDBRANCH  18  21
ENDBRANCH   3  13
BRANCH  11  23
ATOM     23  O   UNL     1     -12.414  32.730  13.841  1.00  0.00    -0.507 OA
ATOM     24  H   UNL     1     -11.429  32.887  13.686  1.00  0.00     0.293 HD
ENDBRANCH  11  23
ENDBRANCH   1   2
BRANCH   1  25
ATOM     25  C   UNL     1     -13.358  30.753   8.578  1.00  0.00     0.339 C 
ATOM     26  C   UNL     1     -13.196  32.292   8.782  1.00  0.00     0.214 C 
ATOM     27  O   UNL     1     -14.659  30.372   8.148  1.00  0.00    -0.332 OA
ATOM     28  C   UNL     1     -14.207  33.068   7.914  1.00  0.00     0.180 C 
ATOM     29  C   UNL     1     -15.668  31.143   8.775  1.00  0.00     0.179 C 
ATOM     30  C   UNL     1     -15.656  32.591   8.218  1.00  0.00     0.177 C 
BRANCH  26  31
ATOM     31  O   UNL     1     -11.875  32.716   8.539  1.00  0.00    -0.384 OA
ATOM     32  H   UNL     1     -11.875  33.268   7.714  1.00  0.00     0.211 HD
ENDBRANCH  26  31
BRANCH  28  33
ATOM     33  O   UNL     1     -13.910  32.864   6.553  1.00  0.00    -0.387 OA
ATOM     34  H   UNL     1     -12.932  32.710   6.495  1.00  0.00     0.211 HD
ENDBRANCH  28  33
BRANCH  29  35
ATOM     35  C   UNL     1     -17.030  30.467   8.560  1.00  0.00     0.191 C 
BRANCH  35  36
ATOM     36  O   UNL     1     -17.899  31.326   7.873  1.00  0.00    -0.394 OA
ATOM     37  H   UNL     1     -18.578  30.743   7.438  1.00  0.00     0.210 HD
ENDBRANCH  35  36
ENDBRANCH  29  35
BRANCH  30  38
ATOM     38  O   UNL     1     -16.255  33.446   9.161  1.00  0.00    -0.387 OA
ATOM     39  H   UNL     1     -15.521  33.896   9.654  1.00  0.00     0.211 HD
ENDBRANCH  30  38
ENDBRANCH   1  25
TORSDOF 11
ENDMDL
MODEL 7
REMARK VINA RESULT:     1.096      5.383      8.896
REMARK INTER + INTRA:           1.026
REMARK INTER:                   1.027
REMARK INTRA:                  -0.001
REMARK UNBOUND:                -0.551
REMARK SMILES O=c1cc(-c2ccc(O)c(O)c2)oc2cc(O[C@H]3O[C@H](CO)[C@@H](O)[C@H](O)[C@@H]3O)cc(O)c12
REMARK SMILES IDX 17 1 16 2 4 3 3 4 13 5 2 6 14 7 1 8 32 9 15 10 30 11 29 12
REMARK SMILES IDX 5 13 6 14 7 15 8 16 12 17 10 18 9 19 11 21 31 23 18 25 27 26
REMARK SMILES IDX 19 27 25 28 20 29 23 30 28 31 26 33 21 35 22 36 24 38
REMARK H PARENT 9 20 11 22 31 24 28 32 26 34 22 37 24 39
REMARK Flexibility Score: inf
ROOT
ATOM      1  O   UNL     1     -15.667  30.877  12.039  1.00  0.00    -0.462 OA
ENDROOT
BRANCH   1   2
ATOM      2  C   UNL     1     -15.077  31.236  10.814  1.00  0.00     0.130 A 
ATOM      3  C   UNL     1     -15.663  33.500   6.659  1.00  0.00     0.138 A 
ATOM      4  C   UNL     1     -14.326  33.289   6.284  1.00  0.00     0.100 A 
ATOM      5  O   UNL     1     -16.086  33.062   7.840  1.00  0.00    -0.456 OA
ATOM      6  C   UNL     1     -13.478  32.574   7.130  1.00  0.00     0.197 A 
ATOM      7  C   UNL     1     -15.313  32.392   8.690  1.00  0.00     0.146 A 
ATOM      8  O   UNL     1     -12.281  32.379   6.782  1.00  0.00    -0.289 OA
ATOM      9  C   UNL     1     -13.972  32.090   8.357  1.00  0.00     0.107 A 
ATOM     10  C   UNL     1     -15.842  31.981   9.916  1.00  0.00     0.094 A 
ATOM     11  C   UNL     1     -13.195  31.326   9.257  1.00  0.00     0.134 A 
ATOM     12  C   UNL     1     -13.755  30.898  10.471  1.00  0.00     0.093 A 
BRANCH   3  13
ATOM     13  C   UNL     1     -16.630  34.184   5.765  1.00  0.00     0.021 A 
ATOM     14  C   UNL     1     -17.954  34.384   6.196  1.00  0.00     0.016 A 
ATOM     15  C   UNL     1     -18.902  34.955   5.344  1.00  0.00     0.051 A 
ATOM     16  C   UNL     1     -18.549  35.334   4.045  1.00  0.00     0.157 A 
ATOM     17  C   UNL     1     -16.278  34.575   4.457  1.00  0.00     0.062 A 
ATOM     18  C   UNL     1     -17.228  35.150   3.602  1.00  0.00     0.158 A 
BRANCH  16  19
ATOM     19  O   UNL     1     -19.525  35.874   3.205  1.00  0.00    -0.504 OA
ATOM     20  H   UNL     1     -19.378  35.980   2.208  1.00  0.00     0.293 HD
ENDBRANCH  16  19
BRANCH  18  21
ATOM     21  O   UNL     1     -16.868  35.530   2.308  1.00  0.00    -0.504 OA
ATOM     22  H   UNL     1     -15.962  35.291   1.917  1.00  0.00     0.293 HD
ENDBRANCH  18  21
ENDBRANCH   3  13
BRANCH  11  23
ATOM     23  O   UNL     1     -11.875  30.990   8.954  1.00  0.00    -0.507 OA
ATOM     24  H   UNL     1     -11.106  31.247   9.557  1.00  0.00     0.293 HD
ENDBRANCH  11  23
ENDBRANCH   1   2
BRANCH   1  25
ATOM     25  C   UNL     1     -15.034  30.147  13.097  1.00  0.00     0.339 C 
ATOM     26  C   UNL     1     -15.751  30.439  14.453  1.00  0.00     0.214 C 
ATOM     27  O   UNL     1     -13.648  30.462  13.110  1.00  0.00    -0.332 OA
ATOM     28  C   UNL     1     -14.747  30.395  15.622  1.00  0.00     0.180 C 
ATOM     29  C   UNL     1     -13.382  31.643  13.845  1.00  0.00     0.179 C 
ATOM     30  C   UNL     1     -13.574  31.381  15.363  1.00  0.00     0.177 C 
BRANCH  26  31
ATOM     31  O   UNL     1     -16.835  29.566  14.669  1.00  0.00    -0.384 OA
ATOM     32  H   UNL     1     -17.486  30.023  15.263  1.00  0.00     0.211 HD
ENDBRANCH  26  31
BRANCH  28  33
ATOM     33  O   UNL     1     -14.251  29.084  15.765  1.00  0.00    -0.387 OA
ATOM     34  H   UNL     1     -14.001  28.978  16.720  1.00  0.00     0.211 HD
ENDBRANCH  28  33
BRANCH  29  35
ATOM     35  C   UNL     1     -11.960  32.127  13.531  1.00  0.00     0.191 C 
BRANCH  35  36
ATOM     36  O   UNL     1     -11.969  33.487  13.189  1.00  0.00    -0.394 OA
ATOM     37  H   UNL     1     -11.214  33.903  13.686  1.00  0.00     0.210 HD
ENDBRANCH  35  36
ENDBRANCH  29  35
BRANCH  30  38
ATOM     38  O   UNL     1     -13.822  32.605  16.008  1.00  0.00    -0.387 OA
ATOM     39  H   UNL     1     -13.181  32.672  16.763  1.00  0.00     0.211 HD
ENDBRANCH  30  38
ENDBRANCH   1  25
TORSDOF 11
ENDMDL
