MODEL 1
REMARK VINA RESULT:    -4.199      0.000      0.000
REMARK INTER + INTRA:          -7.256
REMARK INTER:                  -6.409
REMARK INTRA:                  -0.847
REMARK UNBOUND:                -0.847
REMARK SMILES CCCCCCCCCC=CC(=O)[O-]
REMARK SMILES IDX 7 1 8 2 9 3 10 4 11 5 12 6 13 7 14 8 6 9 5 10 4 11 3 12 2 13
REMARK SMILES IDX 1 14
REMARK H PARENT
REMARK Flexibility Score: inf
ROOT
ATOM      1  C   UNL     1      49.016   6.662 110.824  1.00  0.00     0.000 C 
ENDROOT
BRANCH   1   2
ATOM      2  C   UNL     1      47.925   7.524 111.481  1.00  0.00     0.004 C 
BRANCH   2   3
ATOM      3  C   UNL     1      47.460   6.958 112.831  1.00  0.00     0.027 C 
BRANCH   3   4
ATOM      4  C   UNL     1      46.238   7.677 113.326  1.00  0.00    -0.025 C 
ATOM      5  C   UNL     1      45.260   7.031 113.970  1.00  0.00     0.020 C 
BRANCH   5   6
ATOM      6  C   UNL     1      44.051   7.718 114.447  1.00  0.00     0.064 C 
ATOM      7  O   UNL     1      43.658   8.762 113.864  1.00  0.00    -0.545 OA
ATOM      8  O   UNL     1      43.332   7.230 115.532  1.00  0.00    -0.545 OA
ENDBRANCH   5   6
ENDBRANCH   3   4
ENDBRANCH   2   3
ENDBRANCH   1   2
BRANCH   1   9
ATOM      9  C   UNL     1      49.028   5.220 111.359  1.00  0.00     0.000 C 
BRANCH   9  10
ATOM     10  C   UNL     1      50.440   4.613 111.385  1.00  0.00     0.000 C 
BRANCH  10  11
ATOM     11  C   UNL     1      51.217   4.984 112.660  1.00  0.00    -0.000 C 
BRANCH  11  12
ATOM     12  C   UNL     1      50.539   4.464 113.937  1.00  0.00    -0.000 C 
BRANCH  12  13
ATOM     13  C   UNL     1      50.965   5.242 115.190  1.00  0.00    -0.003 C 
ATOM     14  C   UNL     1      50.051   6.442 115.429  1.00  0.00     0.004 C 
ENDBRANCH  12  13
ENDBRANCH  11  12
ENDBRANCH  10  11
ENDBRANCH   9  10
ENDBRANCH   1   9
TORSDOF 9
ENDMDL
MODEL 2
REMARK VINA RESULT:    -4.141      4.529      8.155
REMARK INTER + INTRA:          -7.167
REMARK INTER:                  -6.635
REMARK INTRA:                  -0.532
REMARK UNBOUND:                -0.847
REMARK SMILES CCCCCCCCCC=CC(=O)[O-]
REMARK SMILES IDX 7 1 8 2 9 3 10 4 11 5 12 6 13 7 14 8 6 9 5 10 4 11 3 12 2 13
REMARK SMILES IDX 1 14
REMARK H PARENT
REMARK Flexibility Score: inf
ROOT
ATOM      1  C   UNL     1      43.726   9.957 116.630  1.00  0.00     0.000 C 
ENDROOT
BRANCH   1   2
ATOM      2  C   UNL     1      44.140   9.871 115.152  1.00  0.00     0.004 C 
BRANCH   2   3
ATOM      3  C   UNL     1      44.114   8.431 114.615  1.00  0.00     0.027 C 
BRANCH   3   4
ATOM      4  C   UNL     1      45.217   8.205 113.622  1.00  0.00    -0.025 C 
ATOM      5  C   UNL     1      46.165   7.285 113.827  1.00  0.00     0.020 C 
BRANCH   5   6
ATOM      6  C   UNL     1      47.259   7.062 112.871  1.00  0.00     0.064 C 
ATOM      7  O   UNL     1      48.051   6.099 113.046  1.00  0.00    -0.545 OA
ATOM      8  O   UNL     1      47.432   7.898 111.774  1.00  0.00    -0.545 OA
ENDBRANCH   5   6
ENDBRANCH   3   4
ENDBRANCH   2   3
ENDBRANCH   1   2
BRANCH   1   9
ATOM      9  C   UNL     1      43.604   8.572 117.289  1.00  0.00     0.000 C 
BRANCH   9  10
ATOM     10  C   UNL     1      43.693   8.639 118.822  1.00  0.00     0.000 C 
BRANCH  10  11
ATOM     11  C   UNL     1      43.356  10.037 119.371  1.00  0.00    -0.000 C 
BRANCH  11  12
ATOM     12  C   UNL     1      42.173  10.016 120.351  1.00  0.00    -0.000 C 
BRANCH  12  13
ATOM     13  C   UNL     1      41.967  11.365 121.056  1.00  0.00    -0.003 C 
ATOM     14  C   UNL     1      42.695  12.487 120.319  1.00  0.00     0.004 C 
ENDBRANCH  12  13
ENDBRANCH  11  12
ENDBRANCH  10  11
ENDBRANCH   9  10
ENDBRANCH   1   9
TORSDOF 9
ENDMDL
MODEL 3
REMARK VINA RESULT:    -4.135      1.169      2.825
REMARK INTER + INTRA:          -7.157
REMARK INTER:                  -6.018
REMARK INTRA:                  -1.139
REMARK UNBOUND:                -0.847
REMARK SMILES CCCCCCCCCC=CC(=O)[O-]
REMARK SMILES IDX 7 1 8 2 9 3 10 4 11 5 12 6 13 7 14 8 6 9 5 10 4 11 3 12 2 13
REMARK SMILES IDX 1 14
REMARK H PARENT
REMARK Flexibility Score: inf
ROOT
ATOM      1  C   UNL     1      49.260   7.071 115.441  1.00  0.00     0.000 C 
ENDROOT
BRANCH   1   2
ATOM      2  C   UNL     1      48.214   7.943 114.728  1.00  0.00     0.004 C 
BRANCH   2   3
ATOM      3  C   UNL     1      47.733   7.325 113.406  1.00  0.00     0.027 C 
BRANCH   3   4
ATOM      4  C   UNL     1      46.268   7.003 113.462  1.00  0.00    -0.025 C 
ATOM      5  C   UNL     1      45.570   7.116 114.597  1.00  0.00     0.020 C 
BRANCH   5   6
ATOM      6  C   UNL     1      44.138   6.789 114.670  1.00  0.00     0.064 C 
ATOM      7  O   UNL     1      43.415   7.357 115.529  1.00  0.00    -0.545 OA
ATOM      8  O   UNL     1      43.570   5.863 113.802  1.00  0.00    -0.545 OA
ENDBRANCH   5   6
ENDBRANCH   3   4
ENDBRANCH   2   3
ENDBRANCH   1   2
BRANCH   1   9
ATOM      9  C   UNL     1      50.361   6.573 114.488  1.00  0.00     0.000 C 
BRANCH   9  10
ATOM     10  C   UNL     1      50.783   5.125 114.781  1.00  0.00     0.000 C 
BRANCH  10  11
ATOM     11  C   UNL     1      50.754   4.237 113.524  1.00  0.00    -0.000 C 
BRANCH  11  12
ATOM     12  C   UNL     1      50.668   5.055 112.226  1.00  0.00    -0.000 C 
BRANCH  12  13
ATOM     13  C   UNL     1      49.495   4.624 111.334  1.00  0.00    -0.003 C 
ATOM     14  C   UNL     1      48.406   3.935 112.153  1.00  0.00     0.004 C 
ENDBRANCH  12  13
ENDBRANCH  11  12
ENDBRANCH  10  11
ENDBRANCH   9  10
ENDBRANCH   1   9
TORSDOF 9
ENDMDL
MODEL 4
REMARK VINA RESULT:    -4.127      6.774      9.774
REMARK INTER + INTRA:          -7.144
REMARK INTER:                  -5.852
REMARK INTRA:                  -1.293
REMARK UNBOUND:                -0.847
REMARK SMILES CCCCCCCCCC=CC(=O)[O-]
REMARK SMILES IDX 7 1 8 2 9 3 10 4 11 5 12 6 13 7 14 8 6 9 5 10 4 11 3 12 2 13
REMARK SMILES IDX 1 14
REMARK H PARENT
REMARK Flexibility Score: inf
ROOT
ATOM      1  C   UNL     1      42.834  12.666 120.642  1.00  0.00     0.000 C 
ENDROOT
BRANCH   1   2
ATOM      2  C   UNL     1      42.633  11.549 119.605  1.00  0.00     0.004 C 
BRANCH   2   3
ATOM      3  C   UNL     1      42.473  10.165 120.252  1.00  0.00     0.027 C 
BRANCH   3   4
ATOM      4  C   UNL     1      42.911   9.077 119.315  1.00  0.00    -0.025 C 
ATOM      5  C   UNL     1      43.657   9.341 118.237  1.00  0.00     0.020 C 
BRANCH   5   6
ATOM      6  C   UNL     1      44.081   8.288 117.303  1.00  0.00     0.064 C 
ATOM      7  O   UNL     1      43.274   7.866 116.434  1.00  0.00    -0.545 OA
ATOM      8  O   UNL     1      45.363   7.753 117.362  1.00  0.00    -0.545 OA
ENDBRANCH   5   6
ENDBRANCH   3   4
ENDBRANCH   2   3
ENDBRANCH   1   2
BRANCH   1   9
ATOM      9  C   UNL     1      43.065  12.117 122.061  1.00  0.00     0.000 C 
BRANCH   9  10
ATOM     10  C   UNL     1      44.457  12.466 122.610  1.00  0.00     0.000 C 
BRANCH  10  11
ATOM     11  C   UNL     1      45.449  12.852 121.497  1.00  0.00    -0.000 C 
BRANCH  11  12
ATOM     12  C   UNL     1      46.156  11.631 120.889  1.00  0.00    -0.000 C 
BRANCH  12  13
ATOM     13  C   UNL     1      46.438  10.535 121.927  1.00  0.00    -0.003 C 
ATOM     14  C   UNL     1      45.951   9.174 121.436  1.00  0.00     0.004 C 
ENDBRANCH  12  13
ENDBRANCH  11  12
ENDBRANCH  10  11
ENDBRANCH   9  10
ENDBRANCH   1   9
TORSDOF 9
ENDMDL
MODEL 5
REMARK VINA RESULT:    -4.089      1.414      3.452
REMARK INTER + INTRA:          -7.087
REMARK INTER:                  -5.757
REMARK INTRA:                  -1.329
REMARK UNBOUND:                -0.847
REMARK SMILES CCCCCCCCCC=CC(=O)[O-]
REMARK SMILES IDX 7 1 8 2 9 3 10 4 11 5 12 6 13 7 14 8 6 9 5 10 4 11 3 12 2 13
REMARK SMILES IDX 1 14
REMARK H PARENT
REMARK Flexibility Score: inf
ROOT
ATOM      1  C   UNL     1      50.995   5.341 115.005  1.00  0.00     0.000 C 
ENDROOT
BRANCH   1   2
ATOM      2  C   UNL     1      50.912   6.790 114.500  1.00  0.00     0.004 C 
BRANCH   2   3
ATOM      3  C   UNL     1      50.020   7.673 115.387  1.00  0.00     0.027 C 
BRANCH   3   4
ATOM      4  C   UNL     1      48.586   7.234 115.319  1.00  0.00    -0.025 C 
ATOM      5  C   UNL     1      47.656   7.977 114.710  1.00  0.00     0.020 C 
BRANCH   5   6
ATOM      6  C   UNL     1      46.246   7.568 114.648  1.00  0.00     0.064 C 
ATOM      7  O   UNL     1      45.804   7.012 113.608  1.00  0.00    -0.545 OA
ATOM      8  O   UNL     1      45.390   7.783 115.723  1.00  0.00    -0.545 OA
ENDBRANCH   5   6
ENDBRANCH   3   4
ENDBRANCH   2   3
ENDBRANCH   1   2
BRANCH   1   9
ATOM      9  C   UNL     1      50.603   4.317 113.926  1.00  0.00     0.000 C 
BRANCH   9  10
ATOM     10  C   UNL     1      50.937   4.800 112.506  1.00  0.00     0.000 C 
BRANCH  10  11
ATOM     11  C   UNL     1      49.760   4.619 111.530  1.00  0.00    -0.000 C 
BRANCH  11  12
ATOM     12  C   UNL     1      48.535   5.460 111.921  1.00  0.00    -0.000 C 
BRANCH  12  13
ATOM     13  C   UNL     1      48.605   6.893 111.374  1.00  0.00    -0.003 C 
ATOM     14  C   UNL     1      49.240   6.921 109.986  1.00  0.00     0.004 C 
ENDBRANCH  12  13
ENDBRANCH  11  12
ENDBRANCH  10  11
ENDBRANCH   9  10
ENDBRANCH   1   9
TORSDOF 9
ENDMDL
MODEL 6
REMARK VINA RESULT:    -4.056      3.562      6.773
REMARK INTER + INTRA:          -7.037
REMARK INTER:                  -6.280
REMARK INTRA:                  -0.758
REMARK UNBOUND:                -0.847
REMARK SMILES CCCCCCCCCC=CC(=O)[O-]
REMARK SMILES IDX 7 1 8 2 9 3 10 4 11 5 12 6 13 7 14 8 6 9 5 10 4 11 3 12 2 13
REMARK SMILES IDX 1 14
REMARK H PARENT
REMARK Flexibility Score: inf
ROOT
ATOM      1  C   UNL     1      44.621   6.891 114.103  1.00  0.00     0.000 C 
ENDROOT
BRANCH   1   2
ATOM      2  C   UNL     1      45.717   7.726 113.422  1.00  0.00     0.004 C 
BRANCH   2   3
ATOM      3  C   UNL     1      47.125   7.374 113.926  1.00  0.00     0.027 C 
BRANCH   3   4
ATOM      4  C   UNL     1      47.904   6.633 112.879  1.00  0.00    -0.025 C 
ATOM      5  C   UNL     1      48.352   7.244 111.777  1.00  0.00     0.020 C 
BRANCH   5   6
ATOM      6  C   UNL     1      49.103   6.529 110.736  1.00  0.00     0.064 C 
ATOM      7  O   UNL     1      49.472   7.144 109.701  1.00  0.00    -0.545 OA
ATOM      8  O   UNL     1      49.415   5.181 110.877  1.00  0.00    -0.545 OA
ENDBRANCH   5   6
ENDBRANCH   3   4
ENDBRANCH   2   3
ENDBRANCH   1   2
BRANCH   1   9
ATOM      9  C   UNL     1      43.396   7.734 114.496  1.00  0.00     0.000 C 
BRANCH   9  10
ATOM     10  C   UNL     1      43.416   9.134 113.863  1.00  0.00     0.000 C 
BRANCH  10  11
ATOM     11  C   UNL     1      43.381  10.257 114.915  1.00  0.00    -0.000 C 
BRANCH  11  12
ATOM     12  C   UNL     1      44.348  10.004 116.081  1.00  0.00    -0.000 C 
BRANCH  12  13
ATOM     13  C   UNL     1      43.643  10.016 117.445  1.00  0.00    -0.003 C 
ATOM     14  C   UNL     1      43.647   8.628 118.079  1.00  0.00     0.004 C 
ENDBRANCH  12  13
ENDBRANCH  11  12
ENDBRANCH  10  11
ENDBRANCH   9  10
ENDBRANCH   1   9
TORSDOF 9
ENDMDL
MODEL 7
REMARK VINA RESULT:    -4.041      4.358      6.553
REMARK INTER + INTRA:          -7.014
REMARK INTER:                  -5.952
REMARK INTRA:                  -1.062
REMARK UNBOUND:                -0.847
REMARK SMILES CCCCCCCCCC=CC(=O)[O-]
REMARK SMILES IDX 7 1 8 2 9 3 10 4 11 5 12 6 13 7 14 8 6 9 5 10 4 11 3 12 2 13
REMARK SMILES IDX 1 14
REMARK H PARENT
REMARK Flexibility Score: inf
ROOT
ATOM      1  C   UNL     1      43.910   9.304 115.426  1.00  0.00     0.000 C 
ENDROOT
BRANCH   1   2
ATOM      2  C   UNL     1      43.852   9.865 116.856  1.00  0.00     0.004 C 
BRANCH   2   3
ATOM      3  C   UNL     1      43.933   8.765 117.925  1.00  0.00     0.027 C 
BRANCH   3   4
ATOM      4  C   UNL     1      43.000   9.050 119.066  1.00  0.00    -0.025 C 
ATOM      5  C   UNL     1      42.842  10.287 119.548  1.00  0.00     0.020 C 
BRANCH   5   6
ATOM      6  C   UNL     1      41.944  10.580 120.674  1.00  0.00     0.064 C 
ATOM      7  O   UNL     1      41.899  11.745 121.147  1.00  0.00    -0.545 OA
ATOM      8  O   UNL     1      41.140   9.588 121.225  1.00  0.00    -0.545 OA
ENDBRANCH   5   6
ENDBRANCH   3   4
ENDBRANCH   2   3
ENDBRANCH   1   2
BRANCH   1   9
ATOM      9  C   UNL     1      43.491   7.824 115.356  1.00  0.00     0.000 C 
BRANCH   9  10
ATOM     10  C   UNL     1      44.616   6.918 114.832  1.00  0.00     0.000 C 
BRANCH  10  11
ATOM     11  C   UNL     1      45.559   7.650 113.861  1.00  0.00    -0.000 C 
BRANCH  11  12
ATOM     12  C   UNL     1      47.017   7.656 114.346  1.00  0.00    -0.000 C 
BRANCH  12  13
ATOM     13  C   UNL     1      47.129   7.638 115.877  1.00  0.00    -0.003 C 
ATOM     14  C   UNL     1      47.599   8.989 116.410  1.00  0.00     0.004 C 
ENDBRANCH  12  13
ENDBRANCH  11  12
ENDBRANCH  10  11
ENDBRANCH   9  10
ENDBRANCH   1   9
TORSDOF 9
ENDMDL
MODEL 8
REMARK VINA RESULT:    -4.039      4.886      7.778
REMARK INTER + INTRA:          -7.010
REMARK INTER:                  -6.043
REMARK INTRA:                  -0.967
REMARK UNBOUND:                -0.847
REMARK SMILES CCCCCCCCCC=CC(=O)[O-]
REMARK SMILES IDX 7 1 8 2 9 3 10 4 11 5 12 6 13 7 14 8 6 9 5 10 4 11 3 12 2 13
REMARK SMILES IDX 1 14
REMARK H PARENT
REMARK Flexibility Score: inf
ROOT
ATOM      1  C   UNL     1      45.198   9.469 117.716  1.00  0.00     0.000 C 
ENDROOT
BRANCH   1   2
ATOM      2  C   UNL     1      44.239   8.303 118.003  1.00  0.00     0.004 C 
BRANCH   2   3
ATOM      3  C   UNL     1      43.093   8.699 118.948  1.00  0.00     0.027 C 
BRANCH   3   4
ATOM      4  C   UNL     1      43.079  10.181 119.187  1.00  0.00    -0.025 C 
ATOM      5  C   UNL     1      42.640  10.699 120.339  1.00  0.00     0.020 C 
BRANCH   5   6
ATOM      6  C   UNL     1      42.605  12.148 120.582  1.00  0.00     0.064 C 
ATOM      7  O   UNL     1      42.560  12.580 121.764  1.00  0.00    -0.545 OA
ATOM      8  O   UNL     1      42.624  13.052 119.526  1.00  0.00    -0.545 OA
ENDBRANCH   5   6
ENDBRANCH   3   4
ENDBRANCH   2   3
ENDBRANCH   1   2
BRANCH   1   9
ATOM      9  C   UNL     1      45.294   9.797 116.216  1.00  0.00     0.000 C 
BRANCH   9  10
ATOM     10  C   UNL     1      43.915   9.904 115.546  1.00  0.00     0.000 C 
BRANCH  10  11
ATOM     11  C   UNL     1      43.785   8.989 114.316  1.00  0.00    -0.000 C 
BRANCH  11  12
ATOM     12  C   UNL     1      43.129   7.640 114.651  1.00  0.00    -0.000 C 
BRANCH  12  13
ATOM     13  C   UNL     1      43.946   6.444 114.139  1.00  0.00    -0.003 C 
ATOM     14  C   UNL     1      45.421   6.808 113.994  1.00  0.00     0.004 C 
ENDBRANCH  12  13
ENDBRANCH  11  12
ENDBRANCH  10  11
ENDBRANCH   9  10
ENDBRANCH   1   9
TORSDOF 9
ENDMDL
MODEL 9
REMARK VINA RESULT:    -4.031      1.976      3.344
REMARK INTER + INTRA:          -6.998
REMARK INTER:                  -6.378
REMARK INTRA:                  -0.620
REMARK UNBOUND:                -0.847
REMARK SMILES CCCCCCCCCC=CC(=O)[O-]
REMARK SMILES IDX 7 1 8 2 9 3 10 4 11 5 12 6 13 7 14 8 6 9 5 10 4 11 3 12 2 13
REMARK SMILES IDX 1 14
REMARK H PARENT
REMARK Flexibility Score: inf
ROOT
ATOM      1  C   UNL     1      46.924   7.692 114.271  1.00  0.00     0.000 C 
ENDROOT
BRANCH   1   2
ATOM      2  C   UNL     1      45.648   7.149 113.608  1.00  0.00     0.004 C 
BRANCH   2   3
ATOM      3  C   UNL     1      44.553   6.804 114.630  1.00  0.00     0.027 C 
BRANCH   3   4
ATOM      4  C   UNL     1      44.699   7.628 115.876  1.00  0.00    -0.025 C 
ATOM      5  C   UNL     1      43.641   7.955 116.626  1.00  0.00     0.020 C 
BRANCH   5   6
ATOM      6  C   UNL     1      43.766   8.773 117.841  1.00  0.00     0.064 C 
ATOM      7  O   UNL     1      43.481   9.998 117.797  1.00  0.00    -0.545 OA
ATOM      8  O   UNL     1      44.192   8.213 119.040  1.00  0.00    -0.545 OA
ENDBRANCH   5   6
ENDBRANCH   3   4
ENDBRANCH   2   3
ENDBRANCH   1   2
BRANCH   1   9
ATOM      9  C   UNL     1      48.203   7.065 113.689  1.00  0.00     0.000 C 
BRANCH   9  10
ATOM     10  C   UNL     1      47.971   6.424 112.312  1.00  0.00     0.000 C 
BRANCH  10  11
ATOM     11  C   UNL     1      48.294   4.919 112.301  1.00  0.00    -0.000 C 
BRANCH  11  12
ATOM     12  C   UNL     1      49.486   4.579 111.394  1.00  0.00    -0.000 C 
BRANCH  12  13
ATOM     13  C   UNL     1      50.838   4.824 112.079  1.00  0.00    -0.003 C 
ATOM     14  C   UNL     1      50.816   4.340 113.527  1.00  0.00     0.004 C 
ENDBRANCH  12  13
ENDBRANCH  11  12
ENDBRANCH  10  11
ENDBRANCH   9  10
ENDBRANCH   1   9
TORSDOF 9
ENDMDL
