MODEL 1
REMARK VINA RESULT:    -3.950      0.000      0.000
REMARK INTER + INTRA:          -9.659
REMARK INTER:                  -7.182
REMARK INTRA:                  -2.477
REMARK UNBOUND:                -2.477
REMARK SMILES CCCCCCCCCCCCCCCC(=O)[O-]
REMARK SMILES IDX 9 1 10 2 11 3 12 4 13 5 14 6 15 7 16 8 17 9 18 10 8 11 7 12
REMARK SMILES IDX 6 13 5 14 4 15 3 16 2 17 1 18
REMARK H PARENT
REMARK Flexibility Score: inf
ROOT
ATOM      1  C   UNL     1     114.628 109.219 121.806  1.00  0.00     0.000 C 
ENDROOT
BRANCH   1   2
ATOM      2  C   UNL     1     114.009 109.669 120.472  1.00  0.00     0.000 C 
BRANCH   2   3
ATOM      3  C   UNL     1     112.528 110.068 120.602  1.00  0.00     0.000 C 
BRANCH   3   4
ATOM      4  C   UNL     1     111.962 110.032 122.034  1.00  0.00     0.000 C 
BRANCH   4   5
ATOM      5  C   UNL     1     111.589 111.422 122.568  1.00  0.00     0.000 C 
BRANCH   5   6
ATOM      6  C   UNL     1     111.782 112.495 121.489  1.00  0.00     0.006 C 
BRANCH   6   7
ATOM      7  C   UNL     1     110.432 113.010 120.979  1.00  0.00     0.053 C 
BRANCH   7   8
ATOM      8  C   UNL     1     110.205 112.574 119.567  1.00  0.00     0.041 C 
ATOM      9  O   UNL     1     109.138 111.985 119.250  1.00  0.00    -0.550 OA
ATOM     10  O   UNL     1     111.191 112.773 118.610  1.00  0.00    -0.550 OA
ENDBRANCH   7   8
ENDBRANCH   6   7
ENDBRANCH   5   6
ENDBRANCH   4   5
ENDBRANCH   3   4
ENDBRANCH   2   3
ENDBRANCH   1   2
BRANCH   1  11
ATOM     11  C   UNL     1     115.904 110.001 122.168  1.00  0.00     0.000 C 
BRANCH  11  12
ATOM     12  C   UNL     1     115.670 111.336 122.905  1.00  0.00    -0.000 C 
BRANCH  12  13
ATOM     13  C   UNL     1     116.203 112.588 122.180  1.00  0.00    -0.000 C 
BRANCH  13  14
ATOM     14  C   UNL     1     115.151 113.361 121.363  1.00  0.00    -0.000 C 
BRANCH  14  15
ATOM     15  C   UNL     1     115.236 113.071 119.857  1.00  0.00    -0.000 C 
BRANCH  15  16
ATOM     16  C   UNL     1     116.629 112.559 119.474  1.00  0.00    -0.000 C 
BRANCH  16  17
ATOM     17  C   UNL     1     116.540 111.477 118.392  1.00  0.00    -0.003 C 
ATOM     18  C   UNL     1     117.339 110.237 118.784  1.00  0.00     0.004 C 
ENDBRANCH  16  17
ENDBRANCH  15  16
ENDBRANCH  14  15
ENDBRANCH  13  14
ENDBRANCH  12  13
ENDBRANCH  11  12
ENDBRANCH   1  11
TORSDOF 14
ENDMDL
MODEL 2
REMARK VINA RESULT:    -3.795      2.219      4.023
REMARK INTER + INTRA:          -9.378
REMARK INTER:                  -7.481
REMARK INTRA:                  -1.898
REMARK UNBOUND:                -2.477
REMARK SMILES CCCCCCCCCCCCCCCC(=O)[O-]
REMARK SMILES IDX 9 1 10 2 11 3 12 4 13 5 14 6 15 7 16 8 17 9 18 10 8 11 7 12
REMARK SMILES IDX 6 13 5 14 4 15 3 16 2 17 1 18
REMARK H PARENT
REMARK Flexibility Score: inf
ROOT
ATOM      1  C   UNL     1     111.558 111.258 122.736  1.00  0.00     0.000 C 
ENDROOT
BRANCH   1   2
ATOM      2  C   UNL     1     111.898 112.497 121.892  1.00  0.00     0.000 C 
BRANCH   2   3
ATOM      3  C   UNL     1     110.725 112.964 121.010  1.00  0.00     0.000 C 
BRANCH   3   4
ATOM      4  C   UNL     1     110.765 112.473 119.551  1.00  0.00     0.000 C 
BRANCH   4   5
ATOM      5  C   UNL     1     109.460 111.797 119.108  1.00  0.00     0.000 C 
BRANCH   5   6
ATOM      6  C   UNL     1     109.689 110.312 118.799  1.00  0.00     0.006 C 
BRANCH   6   7
ATOM      7  C   UNL     1     108.510 109.725 118.018  1.00  0.00     0.053 C 
BRANCH   7   8
ATOM      8  C   UNL     1     108.123 108.392 118.575  1.00  0.00     0.041 C 
ATOM      9  O   UNL     1     108.507 108.051 119.725  1.00  0.00    -0.550 OA
ATOM     10  O   UNL     1     107.380 107.505 117.807  1.00  0.00    -0.550 OA
ENDBRANCH   7   8
ENDBRANCH   6   7
ENDBRANCH   5   6
ENDBRANCH   4   5
ENDBRANCH   3   4
ENDBRANCH   2   3
ENDBRANCH   1   2
BRANCH   1  11
ATOM     11  C   UNL     1     111.885 109.936 122.018  1.00  0.00     0.000 C 
BRANCH  11  12
ATOM     12  C   UNL     1     113.103 109.986 121.072  1.00  0.00    -0.000 C 
BRANCH  12  13
ATOM     13  C   UNL     1     114.349 109.222 121.565  1.00  0.00    -0.000 C 
BRANCH  13  14
ATOM     14  C   UNL     1     115.646 110.050 121.597  1.00  0.00    -0.000 C 
BRANCH  14  15
ATOM     15  C   UNL     1     115.643 111.119 122.701  1.00  0.00    -0.000 C 
BRANCH  15  16
ATOM     16  C   UNL     1     115.549 112.527 122.101  1.00  0.00    -0.000 C 
BRANCH  16  17
ATOM     17  C   UNL     1     115.764 112.495 120.584  1.00  0.00    -0.003 C 
ATOM     18  C   UNL     1     114.913 113.551 119.884  1.00  0.00     0.004 C 
ENDBRANCH  16  17
ENDBRANCH  15  16
ENDBRANCH  14  15
ENDBRANCH  13  14
ENDBRANCH  12  13
ENDBRANCH  11  12
ENDBRANCH   1  11
TORSDOF 14
ENDMDL
MODEL 3
REMARK VINA RESULT:    -3.714      1.183      2.068
REMARK INTER + INTRA:          -9.232
REMARK INTER:                  -6.859
REMARK INTRA:                  -2.373
REMARK UNBOUND:                -2.477
REMARK SMILES CCCCCCCCCCCCCCCC(=O)[O-]
REMARK SMILES IDX 9 1 10 2 11 3 12 4 13 5 14 6 15 7 16 8 17 9 18 10 8 11 7 12
REMARK SMILES IDX 6 13 5 14 4 15 3 16 2 17 1 18
REMARK H PARENT
REMARK Flexibility Score: inf
ROOT
ATOM      1  C   UNL     1     113.276 110.004 121.118  1.00  0.00     0.000 C 
ENDROOT
BRANCH   1   2
ATOM      2  C   UNL     1     112.012 109.826 121.974  1.00  0.00     0.000 C 
BRANCH   2   3
ATOM      3  C   UNL     1     111.569 111.128 122.667  1.00  0.00     0.000 C 
BRANCH   3   4
ATOM      4  C   UNL     1     111.934 112.425 121.922  1.00  0.00     0.000 C 
BRANCH   4   5
ATOM      5  C   UNL     1     110.711 113.150 121.343  1.00  0.00     0.000 C 
BRANCH   5   6
ATOM      6  C   UNL     1     110.312 112.556 119.986  1.00  0.00     0.006 C 
BRANCH   6   7
ATOM      7  C   UNL     1     111.512 112.502 119.035  1.00  0.00     0.053 C 
BRANCH   7   8
ATOM      8  C   UNL     1     111.259 111.528 117.928  1.00  0.00     0.041 C 
ATOM      9  O   UNL     1     111.499 110.303 118.095  1.00  0.00    -0.550 OA
ATOM     10  O   UNL     1     110.805 111.979 116.696  1.00  0.00    -0.550 OA
ENDBRANCH   7   8
ENDBRANCH   6   7
ENDBRANCH   5   6
ENDBRANCH   4   5
ENDBRANCH   3   4
ENDBRANCH   2   3
ENDBRANCH   1   2
BRANCH   1  11
ATOM     11  C   UNL     1     114.473 109.189 121.642  1.00  0.00     0.000 C 
BRANCH  11  12
ATOM     12  C   UNL     1     115.703 110.022 122.057  1.00  0.00    -0.000 C 
BRANCH  12  13
ATOM     13  C   UNL     1     115.389 111.319 122.829  1.00  0.00    -0.000 C 
BRANCH  13  14
ATOM     14  C   UNL     1     115.782 112.617 122.101  1.00  0.00    -0.000 C 
BRANCH  14  15
ATOM     15  C   UNL     1     116.788 112.382 120.964  1.00  0.00    -0.000 C 
BRANCH  15  16
ATOM     16  C   UNL     1     116.362 113.123 119.692  1.00  0.00    -0.000 C 
BRANCH  16  17
ATOM     17  C   UNL     1     115.141 112.456 119.048  1.00  0.00    -0.003 C 
ATOM     18  C   UNL     1     115.514 111.120 118.412  1.00  0.00     0.004 C 
ENDBRANCH  16  17
ENDBRANCH  15  16
ENDBRANCH  14  15
ENDBRANCH  13  14
ENDBRANCH  12  13
ENDBRANCH  11  12
ENDBRANCH   1  11
TORSDOF 14
ENDMDL
MODEL 4
REMARK VINA RESULT:    -3.630      3.565      5.254
REMARK INTER + INTRA:          -9.078
REMARK INTER:                  -7.679
REMARK INTRA:                  -1.400
REMARK UNBOUND:                -2.477
REMARK SMILES CCCCCCCCCCCCCCCC(=O)[O-]
REMARK SMILES IDX 9 1 10 2 11 3 12 4 13 5 14 6 15 7 16 8 17 9 18 10 8 11 7 12
REMARK SMILES IDX 6 13 5 14 4 15 3 16 2 17 1 18
REMARK H PARENT
REMARK Flexibility Score: inf
ROOT
ATOM      1  C   UNL     1     110.465 112.549 120.224  1.00  0.00     0.000 C 
ENDROOT
BRANCH   1   2
ATOM      2  C   UNL     1     110.552 111.915 118.826  1.00  0.00     0.000 C 
BRANCH   2   3
ATOM      3  C   UNL     1     110.181 110.421 118.821  1.00  0.00     0.000 C 
BRANCH   3   4
ATOM      4  C   UNL     1     108.902 110.065 118.042  1.00  0.00     0.000 C 
BRANCH   4   5
ATOM      5  C   UNL     1     107.699 109.784 118.955  1.00  0.00     0.000 C 
BRANCH   5   6
ATOM      6  C   UNL     1     107.706 108.330 119.440  1.00  0.00     0.006 C 
BRANCH   6   7
ATOM      7  C   UNL     1     106.281 107.826 119.687  1.00  0.00     0.053 C 
BRANCH   7   8
ATOM      8  C   UNL     1     105.666 107.348 118.410  1.00  0.00     0.041 C 
ATOM      9  O   UNL     1     106.067 106.281 117.875  1.00  0.00    -0.550 OA
ATOM     10  O   UNL     1     104.683 108.104 117.786  1.00  0.00    -0.550 OA
ENDBRANCH   7   8
ENDBRANCH   6   7
ENDBRANCH   5   6
ENDBRANCH   4   5
ENDBRANCH   3   4
ENDBRANCH   2   3
ENDBRANCH   1   2
BRANCH   1  11
ATOM     11  C   UNL     1     111.767 112.399 121.032  1.00  0.00     0.000 C 
BRANCH  11  12
ATOM     12  C   UNL     1     111.677 111.467 122.258  1.00  0.00    -0.000 C 
BRANCH  12  13
ATOM     13  C   UNL     1     112.096 110.005 122.004  1.00  0.00    -0.000 C 
BRANCH  13  14
ATOM     14  C   UNL     1     113.164 109.818 120.911  1.00  0.00    -0.000 C 
BRANCH  14  15
ATOM     15  C   UNL     1     114.464 109.201 121.448  1.00  0.00    -0.000 C 
BRANCH  15  16
ATOM     16  C   UNL     1     115.317 110.255 122.164  1.00  0.00    -0.000 C 
BRANCH  16  17
ATOM     17  C   UNL     1     115.816 111.320 121.181  1.00  0.00    -0.003 C 
ATOM     18  C   UNL     1     115.567 112.727 121.717  1.00  0.00     0.004 C 
ENDBRANCH  16  17
ENDBRANCH  15  16
ENDBRANCH  14  15
ENDBRANCH  13  14
ENDBRANCH  12  13
ENDBRANCH  11  12
ENDBRANCH   1  11
TORSDOF 14
ENDMDL
MODEL 5
REMARK VINA RESULT:    -3.588      8.927     12.347
REMARK INTER + INTRA:          -9.003
REMARK INTER:                  -7.216
REMARK INTRA:                  -1.786
REMARK UNBOUND:                -2.477
REMARK SMILES CCCCCCCCCCCCCCCC(=O)[O-]
REMARK SMILES IDX 9 1 10 2 11 3 12 4 13 5 14 6 15 7 16 8 17 9 18 10 8 11 7 12
REMARK SMILES IDX 6 13 5 14 4 15 3 16 2 17 1 18
REMARK H PARENT
REMARK Flexibility Score: inf
ROOT
ATOM      1  C   UNL     1     101.692 111.430 114.535  1.00  0.00     0.000 C 
ENDROOT
BRANCH   1   2
ATOM      2  C   UNL     1     101.789 111.747 116.037  1.00  0.00     0.000 C 
BRANCH   2   3
ATOM      3  C   UNL     1     102.188 110.524 116.883  1.00  0.00     0.000 C 
BRANCH   3   4
ATOM      4  C   UNL     1     102.543 109.258 116.081  1.00  0.00     0.000 C 
BRANCH   4   5
ATOM      5  C   UNL     1     103.086 108.122 116.959  1.00  0.00     0.000 C 
BRANCH   5   6
ATOM      6  C   UNL     1     104.590 108.293 117.209  1.00  0.00     0.006 C 
BRANCH   6   7
ATOM      7  C   UNL     1     105.078 107.336 118.301  1.00  0.00     0.053 C 
BRANCH   7   8
ATOM      8  C   UNL     1     106.256 107.916 119.017  1.00  0.00     0.041 C 
ATOM      9  O   UNL     1     106.358 107.797 120.267  1.00  0.00    -0.550 OA
ATOM     10  O   UNL     1     107.217 108.628 118.312  1.00  0.00    -0.550 OA
ENDBRANCH   7   8
ENDBRANCH   6   7
ENDBRANCH   5   6
ENDBRANCH   4   5
ENDBRANCH   3   4
ENDBRANCH   2   3
ENDBRANCH   1   2
BRANCH   1  11
ATOM     11  C   UNL     1     101.004 112.549 113.731  1.00  0.00     0.000 C 
BRANCH  11  12
ATOM     12  C   UNL     1     100.768 113.863 114.503  1.00  0.00    -0.000 C 
BRANCH  12  13
ATOM     13  C   UNL     1     101.446 115.110 113.900  1.00  0.00    -0.000 C 
BRANCH  13  14
ATOM     14  C   UNL     1     102.934 115.274 114.258  1.00  0.00    -0.000 C 
BRANCH  14  15
ATOM     15  C   UNL     1     103.189 115.261 115.772  1.00  0.00    -0.000 C 
BRANCH  15  16
ATOM     16  C   UNL     1     104.500 114.538 116.102  1.00  0.00    -0.000 C 
BRANCH  16  17
ATOM     17  C   UNL     1     104.823 113.474 115.047  1.00  0.00    -0.003 C 
ATOM     18  C   UNL     1     105.380 112.209 115.692  1.00  0.00     0.004 C 
ENDBRANCH  16  17
ENDBRANCH  15  16
ENDBRANCH  14  15
ENDBRANCH  13  14
ENDBRANCH  12  13
ENDBRANCH  11  12
ENDBRANCH   1  11
TORSDOF 14
ENDMDL
MODEL 6
REMARK VINA RESULT:    -3.565      1.685      3.329
REMARK INTER + INTRA:          -8.961
REMARK INTER:                  -6.643
REMARK INTRA:                  -2.318
REMARK UNBOUND:                -2.477
REMARK SMILES CCCCCCCCCCCCCCCC(=O)[O-]
REMARK SMILES IDX 9 1 10 2 11 3 12 4 13 5 14 6 15 7 16 8 17 9 18 10 8 11 7 12
REMARK SMILES IDX 6 13 5 14 4 15 3 16 2 17 1 18
REMARK H PARENT
REMARK Flexibility Score: inf
ROOT
ATOM      1  C   UNL     1     114.454 112.327 118.898  1.00  0.00     0.000 C 
ENDROOT
BRANCH   1   2
ATOM      2  C   UNL     1     115.497 111.205 118.765  1.00  0.00     0.000 C 
BRANCH   2   3
ATOM      3  C   UNL     1     115.222 110.016 119.703  1.00  0.00     0.000 C 
BRANCH   3   4
ATOM      4  C   UNL     1     113.739 109.778 120.044  1.00  0.00     0.000 C 
BRANCH   4   5
ATOM      5  C   UNL     1     113.463 109.771 121.554  1.00  0.00     0.000 C 
BRANCH   5   6
ATOM      6  C   UNL     1     112.182 110.547 121.882  1.00  0.00     0.006 C 
BRANCH   6   7
ATOM      7  C   UNL     1     112.507 111.902 122.516  1.00  0.00     0.053 C 
BRANCH   7   8
ATOM      8  C   UNL     1     112.013 113.018 121.651  1.00  0.00     0.041 C 
ATOM      9  O   UNL     1     112.206 114.215 121.989  1.00  0.00    -0.550 OA
ATOM     10  O   UNL     1     111.297 112.736 120.495  1.00  0.00    -0.550 OA
ENDBRANCH   7   8
ENDBRANCH   6   7
ENDBRANCH   5   6
ENDBRANCH   4   5
ENDBRANCH   3   4
ENDBRANCH   2   3
ENDBRANCH   1   2
BRANCH   1  11
ATOM     11  C   UNL     1     115.052 113.729 118.681  1.00  0.00     0.000 C 
BRANCH  11  12
ATOM     12  C   UNL     1     115.602 114.413 119.949  1.00  0.00    -0.000 C 
BRANCH  12  13
ATOM     13  C   UNL     1     117.083 114.119 120.263  1.00  0.00    -0.000 C 
BRANCH  13  14
ATOM     14  C   UNL     1     117.342 113.514 121.655  1.00  0.00    -0.000 C 
BRANCH  14  15
ATOM     15  C   UNL     1     116.162 112.678 122.170  1.00  0.00    -0.000 C 
BRANCH  15  16
ATOM     16  C   UNL     1     116.641 111.324 122.706  1.00  0.00    -0.000 C 
BRANCH  16  17
ATOM     17  C   UNL     1     118.169 111.216 122.642  1.00  0.00    -0.003 C 
ATOM     18  C   UNL     1     118.603 110.072 121.730  1.00  0.00     0.004 C 
ENDBRANCH  16  17
ENDBRANCH  15  16
ENDBRANCH  14  15
ENDBRANCH  13  14
ENDBRANCH  12  13
ENDBRANCH  11  12
ENDBRANCH   1  11
TORSDOF 14
ENDMDL
MODEL 7
REMARK VINA RESULT:    -3.514      3.730      7.082
REMARK INTER + INTRA:          -8.868
REMARK INTER:                  -7.539
REMARK INTRA:                  -1.330
REMARK UNBOUND:                -2.477
REMARK SMILES CCCCCCCCCCCCCCCC(=O)[O-]
REMARK SMILES IDX 9 1 10 2 11 3 12 4 13 5 14 6 15 7 16 8 17 9 18 10 8 11 7 12
REMARK SMILES IDX 6 13 5 14 4 15 3 16 2 17 1 18
REMARK H PARENT
REMARK Flexibility Score: inf
ROOT
ATOM      1  C   UNL     1     110.090 112.459 119.631  1.00  0.00     0.000 C 
ENDROOT
BRANCH   1   2
ATOM      2  C   UNL     1     110.552 112.978 121.002  1.00  0.00     0.000 C 
BRANCH   2   3
ATOM      3  C   UNL     1     111.882 112.354 121.463  1.00  0.00     0.000 C 
BRANCH   3   4
ATOM      4  C   UNL     1     111.750 111.215 122.491  1.00  0.00     0.000 C 
BRANCH   4   5
ATOM      5  C   UNL     1     111.924 109.822 121.870  1.00  0.00     0.000 C 
BRANCH   5   6
ATOM      6  C   UNL     1     113.114 109.795 120.904  1.00  0.00     0.006 C 
BRANCH   6   7
ATOM      7  C   UNL     1     114.332 109.128 121.549  1.00  0.00     0.053 C 
BRANCH   7   8
ATOM      8  C   UNL     1     115.320 110.159 121.995  1.00  0.00     0.041 C 
ATOM      9  O   UNL     1     115.198 111.355 121.623  1.00  0.00    -0.550 OA
ATOM     10  O   UNL     1     116.403 109.790 122.782  1.00  0.00    -0.550 OA
ENDBRANCH   7   8
ENDBRANCH   6   7
ENDBRANCH   5   6
ENDBRANCH   4   5
ENDBRANCH   3   4
ENDBRANCH   2   3
ENDBRANCH   1   2
BRANCH   1  11
ATOM     11  C   UNL     1     111.261 112.183 118.669  1.00  0.00     0.000 C 
BRANCH  11  12
ATOM     12  C   UNL     1     110.932 111.254 117.483  1.00  0.00    -0.000 C 
BRANCH  12  13
ATOM     13  C   UNL     1     110.337 109.884 117.867  1.00  0.00    -0.000 C 
BRANCH  13  14
ATOM     14  C   UNL     1     108.803 109.793 117.767  1.00  0.00    -0.000 C 
BRANCH  14  15
ATOM     15  C   UNL     1     108.261 108.414 118.169  1.00  0.00    -0.000 C 
BRANCH  15  16
ATOM     16  C   UNL     1     106.799 108.251 117.737  1.00  0.00    -0.000 C 
BRANCH  16  17
ATOM     17  C   UNL     1     105.974 107.561 118.829  1.00  0.00    -0.003 C 
ATOM     18  C   UNL     1     106.607 107.756 120.204  1.00  0.00     0.004 C 
ENDBRANCH  16  17
ENDBRANCH  15  16
ENDBRANCH  14  15
ENDBRANCH  13  14
ENDBRANCH  12  13
ENDBRANCH  11  12
ENDBRANCH   1  11
TORSDOF 14
ENDMDL
MODEL 8
REMARK VINA RESULT:    -3.504      1.671      2.707
REMARK INTER + INTRA:          -8.849
REMARK INTER:                  -6.458
REMARK INTRA:                  -2.391
REMARK UNBOUND:                -2.477
REMARK SMILES CCCCCCCCCCCCCCCC(=O)[O-]
REMARK SMILES IDX 9 1 10 2 11 3 12 4 13 5 14 6 15 7 16 8 17 9 18 10 8 11 7 12
REMARK SMILES IDX 6 13 5 14 4 15 3 16 2 17 1 18
REMARK H PARENT
REMARK Flexibility Score: inf
ROOT
ATOM      1  C   UNL     1     115.411 111.438 122.638  1.00  0.00     0.000 C 
ENDROOT
BRANCH   1   2
ATOM      2  C   UNL     1     115.689 110.032 122.082  1.00  0.00     0.000 C 
BRANCH   2   3
ATOM      3  C   UNL     1     114.414 109.307 121.615  1.00  0.00     0.000 C 
BRANCH   3   4
ATOM      4  C   UNL     1     114.135 109.380 120.102  1.00  0.00     0.000 C 
BRANCH   4   5
ATOM      5  C   UNL     1     113.393 110.659 119.688  1.00  0.00     0.000 C 
BRANCH   5   6
ATOM      6  C   UNL     1     111.893 110.545 119.986  1.00  0.00     0.006 C 
BRANCH   6   7
ATOM      7  C   UNL     1     111.311 111.899 120.404  1.00  0.00     0.053 C 
BRANCH   7   8
ATOM      8  C   UNL     1     111.817 112.292 121.755  1.00  0.00     0.041 C 
ATOM      9  O   UNL     1     111.635 111.536 122.745  1.00  0.00    -0.550 OA
ATOM     10  O   UNL     1     112.448 113.517 121.932  1.00  0.00    -0.550 OA
ENDBRANCH   7   8
ENDBRANCH   6   7
ENDBRANCH   5   6
ENDBRANCH   4   5
ENDBRANCH   3   4
ENDBRANCH   2   3
ENDBRANCH   1   2
BRANCH   1  11
ATOM     11  C   UNL     1     116.693 112.264 122.847  1.00  0.00     0.000 C 
BRANCH  11  12
ATOM     12  C   UNL     1     117.148 113.091 121.627  1.00  0.00    -0.000 C 
BRANCH  12  13
ATOM     13  C   UNL     1     116.095 113.253 120.513  1.00  0.00    -0.000 C 
BRANCH  13  14
ATOM     14  C   UNL     1     116.405 112.491 119.212  1.00  0.00    -0.000 C 
BRANCH  14  15
ATOM     15  C   UNL     1     117.737 111.729 119.271  1.00  0.00    -0.000 C 
BRANCH  15  16
ATOM     16  C   UNL     1     117.556 110.271 118.835  1.00  0.00    -0.000 C 
BRANCH  16  17
ATOM     17  C   UNL     1     116.709 110.179 117.560  1.00  0.00    -0.003 C 
ATOM     18  C   UNL     1     116.407 108.727 117.202  1.00  0.00     0.004 C 
ENDBRANCH  16  17
ENDBRANCH  15  16
ENDBRANCH  14  15
ENDBRANCH  13  14
ENDBRANCH  12  13
ENDBRANCH  11  12
ENDBRANCH   1  11
TORSDOF 14
ENDMDL
MODEL 9
REMARK VINA RESULT:    -3.460      1.781      2.323
REMARK INTER + INTRA:          -8.769
REMARK INTER:                  -6.463
REMARK INTRA:                  -2.306
REMARK UNBOUND:                -2.477
REMARK SMILES CCCCCCCCCCCCCCCC(=O)[O-]
REMARK SMILES IDX 9 1 10 2 11 3 12 4 13 5 14 6 15 7 16 8 17 9 18 10 8 11 7 12
REMARK SMILES IDX 6 13 5 14 4 15 3 16 2 17 1 18
REMARK H PARENT
REMARK Flexibility Score: inf
ROOT
ATOM      1  C   UNL     1     114.234 109.529 121.288  1.00  0.00     0.000 C 
ENDROOT
BRANCH   1   2
ATOM      2  C   UNL     1     114.502 109.173 119.816  1.00  0.00     0.000 C 
BRANCH   2   3
ATOM      3  C   UNL     1     113.648 109.995 118.834  1.00  0.00     0.000 C 
BRANCH   3   4
ATOM      4  C   UNL     1     113.959 111.502 118.796  1.00  0.00     0.000 C 
BRANCH   4   5
ATOM      5  C   UNL     1     112.698 112.377 118.806  1.00  0.00     0.000 C 
BRANCH   5   6
ATOM      6  C   UNL     1     111.569 111.704 119.596  1.00  0.00     0.006 C 
BRANCH   6   7
ATOM      7  C   UNL     1     110.897 112.696 120.550  1.00  0.00     0.053 C 
BRANCH   7   8
ATOM      8  C   UNL     1     111.735 112.897 121.772  1.00  0.00     0.041 C 
ATOM      9  O   UNL     1     112.297 114.005 121.979  1.00  0.00    -0.550 OA
ATOM     10  O   UNL     1     111.937 111.847 122.657  1.00  0.00    -0.550 OA
ENDBRANCH   7   8
ENDBRANCH   6   7
ENDBRANCH   5   6
ENDBRANCH   4   5
ENDBRANCH   3   4
ENDBRANCH   2   3
ENDBRANCH   1   2
BRANCH   1  11
ATOM     11  C   UNL     1     115.513 109.914 122.053  1.00  0.00     0.000 C 
BRANCH  11  12
ATOM     12  C   UNL     1     115.417 111.210 122.885  1.00  0.00    -0.000 C 
BRANCH  12  13
ATOM     13  C   UNL     1     116.378 112.338 122.457  1.00  0.00    -0.000 C 
BRANCH  13  14
ATOM     14  C   UNL     1     115.854 113.241 121.326  1.00  0.00    -0.000 C 
BRANCH  14  15
ATOM     15  C   UNL     1     116.801 113.293 120.118  1.00  0.00    -0.000 C 
BRANCH  15  16
ATOM     16  C   UNL     1     117.545 111.964 119.946  1.00  0.00    -0.000 C 
BRANCH  16  17
ATOM     17  C   UNL     1     117.811 111.668 118.466  1.00  0.00    -0.003 C 
ATOM     18  C   UNL     1     117.567 110.197 118.144  1.00  0.00     0.004 C 
ENDBRANCH  16  17
ENDBRANCH  15  16
ENDBRANCH  14  15
ENDBRANCH  13  14
ENDBRANCH  12  13
ENDBRANCH  11  12
ENDBRANCH   1  11
TORSDOF 14
ENDMDL
