MODEL 1
REMARK VINA RESULT:    -3.488      0.000      0.000
REMARK INTER + INTRA:          -5.983
REMARK INTER:                  -5.018
REMARK INTRA:                  -0.965
REMARK UNBOUND:                -0.965
REMARK SMILES O=C(CO)[C@H](O)[C@H](O)[C@@H](O)CO
REMARK SMILES IDX 7 1 9 2 11 3 12 4 10 6 5 8 2 9 1 10 3 11 4 12 6 14 8 16
REMARK H PARENT 12 5 10 7 4 13 6 15 8 17
REMARK Flexibility Score: inf
ROOT
ATOM      1  C   UNL     1      72.233  31.555  59.805  1.00  0.00     0.181 C 
ENDROOT
BRANCH   1   2
ATOM      2  C   UNL     1      72.345  30.757  61.133  1.00  0.00     0.171 C 
BRANCH   2   3
ATOM      3  C   UNL     1      70.979  30.376  61.721  1.00  0.00     0.190 C 
BRANCH   3   4
ATOM      4  O   UNL     1      70.510  29.204  61.113  1.00  0.00    -0.394 OA
ATOM      5  H   UNL     1      69.536  29.336  60.971  1.00  0.00     0.210 HD
ENDBRANCH   3   4
ENDBRANCH   2   3
BRANCH   2   6
ATOM      6  O   UNL     1      73.031  31.535  62.083  1.00  0.00    -0.388 OA
ATOM      7  H   UNL     1      73.921  31.114  62.221  1.00  0.00     0.211 HD
ENDBRANCH   2   6
ENDBRANCH   1   2
BRANCH   1   8
ATOM      8  C   UNL     1      71.405  32.864  59.949  1.00  0.00     0.214 C 
BRANCH   8   9
ATOM      9  C   UNL     1      71.240  33.564  58.613  1.00  0.00     0.189 C 
ATOM     10  O   UNL     1      71.840  33.146  57.634  1.00  0.00    -0.294 OA
BRANCH   9  11
ATOM     11  C   UNL     1      70.343  34.759  58.461  1.00  0.00     0.234 C 
BRANCH  11  12
ATOM     12  O   UNL     1      70.925  35.861  59.100  1.00  0.00    -0.388 OA
ATOM     13  H   UNL     1      70.268  36.163  59.781  1.00  0.00     0.211 HD
ENDBRANCH  11  12
ENDBRANCH   9  11
ENDBRANCH   8   9
BRANCH   8  14
ATOM     14  O   UNL     1      71.992  33.754  60.867  1.00  0.00    -0.382 OA
ATOM     15  H   UNL     1      71.606  33.569  61.763  1.00  0.00     0.211 HD
ENDBRANCH   8  14
ENDBRANCH   1   8
BRANCH   1  16
ATOM     16  O   UNL     1      71.609  30.738  58.843  1.00  0.00    -0.387 OA
ATOM     17  H   UNL     1      70.640  30.959  58.850  1.00  0.00     0.211 HD
ENDBRANCH   1  16
TORSDOF 10
ENDMDL
MODEL 2
REMARK VINA RESULT:    -3.387     20.649     22.140
REMARK INTER + INTRA:          -5.837
REMARK INTER:                  -4.891
REMARK INTRA:                  -0.946
REMARK UNBOUND:                -0.965
REMARK SMILES O=C(CO)[C@H](O)[C@H](O)[C@@H](O)CO
REMARK SMILES IDX 7 1 9 2 11 3 12 4 10 6 5 8 2 9 1 10 3 11 4 12 6 14 8 16
REMARK H PARENT 12 5 10 7 4 13 6 15 8 17
REMARK Flexibility Score: inf
ROOT
ATOM      1  C   UNL     1      57.497  18.072  51.372  1.00  0.00     0.181 C 
ENDROOT
BRANCH   1   2
ATOM      2  C   UNL     1      58.335  17.830  50.086  1.00  0.00     0.171 C 
BRANCH   2   3
ATOM      3  C   UNL     1      58.829  19.132  49.439  1.00  0.00     0.190 C 
BRANCH   3   4
ATOM      4  O   UNL     1      59.995  19.569  50.082  1.00  0.00    -0.394 OA
ATOM      5  H   UNL     1      60.020  19.101  50.957  1.00  0.00     0.210 HD
ENDBRANCH   3   4
ENDBRANCH   2   3
BRANCH   2   6
ATOM      6  O   UNL     1      57.549  17.142  49.145  1.00  0.00    -0.388 OA
ATOM      7  H   UNL     1      57.577  16.178  49.387  1.00  0.00     0.211 HD
ENDBRANCH   2   6
ENDBRANCH   1   2
BRANCH   1   8
ATOM      8  C   UNL     1      56.211  18.908  51.113  1.00  0.00     0.214 C 
BRANCH   8   9
ATOM      9  C   UNL     1      55.480  19.213  52.406  1.00  0.00     0.189 C 
ATOM     10  O   UNL     1      55.835  18.672  53.443  1.00  0.00    -0.294 OA
BRANCH   9  11
ATOM     11  C   UNL     1      54.329  20.178  52.446  1.00  0.00     0.234 C 
BRANCH  11  12
ATOM     12  O   UNL     1      54.010  20.575  51.142  1.00  0.00    -0.388 OA
ATOM     13  H   UNL     1      54.847  20.940  50.753  1.00  0.00     0.211 HD
ENDBRANCH  11  12
ENDBRANCH   9  11
ENDBRANCH   8   9
BRANCH   8  14
ATOM     14  O   UNL     1      55.334  18.255  50.229  1.00  0.00    -0.382 OA
ATOM     15  H   UNL     1      55.625  18.458  49.302  1.00  0.00     0.211 HD
ENDBRANCH   8  14
ENDBRANCH   1   8
BRANCH   1  16
ATOM     16  O   UNL     1      58.296  18.761  52.304  1.00  0.00    -0.387 OA
ATOM     17  H   UNL     1      58.852  18.085  52.775  1.00  0.00     0.211 HD
ENDBRANCH   1  16
TORSDOF 10
ENDMDL
MODEL 3
REMARK VINA RESULT:    -3.358      1.065      1.718
REMARK INTER + INTRA:          -5.795
REMARK INTER:                  -5.122
REMARK INTRA:                  -0.673
REMARK UNBOUND:                -0.965
REMARK SMILES O=C(CO)[C@H](O)[C@H](O)[C@@H](O)CO
REMARK SMILES IDX 7 1 9 2 11 3 12 4 10 6 5 8 2 9 1 10 3 11 4 12 6 14 8 16
REMARK H PARENT 12 5 10 7 4 13 6 15 8 17
REMARK Flexibility Score: inf
ROOT
ATOM      1  C   UNL     1      71.448  32.531  60.308  1.00  0.00     0.181 C 
ENDROOT
BRANCH   1   2
ATOM      2  C   UNL     1      72.439  31.399  60.700  1.00  0.00     0.171 C 
BRANCH   2   3
ATOM      3  C   UNL     1      71.772  30.018  60.774  1.00  0.00     0.190 C 
BRANCH   3   4
ATOM      4  O   UNL     1      70.747  30.037  61.728  1.00  0.00    -0.394 OA
ATOM      5  H   UNL     1      71.184  29.893  62.608  1.00  0.00     0.210 HD
ENDBRANCH   3   4
ENDBRANCH   2   3
BRANCH   2   6
ATOM      6  O   UNL     1      72.995  31.687  61.959  1.00  0.00    -0.388 OA
ATOM      7  H   UNL     1      73.334  30.832  62.334  1.00  0.00     0.211 HD
ENDBRANCH   2   6
ENDBRANCH   1   2
BRANCH   1   8
ATOM      8  C   UNL     1      70.956  32.428  58.837  1.00  0.00     0.214 C 
BRANCH   8   9
ATOM      9  C   UNL     1      71.106  33.750  58.110  1.00  0.00     0.189 C 
ATOM     10  O   UNL     1      72.152  34.008  57.534  1.00  0.00    -0.294 OA
BRANCH   9  11
ATOM     11  C   UNL     1      69.989  34.754  58.072  1.00  0.00     0.234 C 
BRANCH  11  12
ATOM     12  O   UNL     1      69.741  35.223  59.367  1.00  0.00    -0.388 OA
ATOM     13  H   UNL     1      70.089  34.527  59.984  1.00  0.00     0.211 HD
ENDBRANCH  11  12
ENDBRANCH   9  11
ENDBRANCH   8   9
BRANCH   8  14
ATOM     14  O   UNL     1      69.615  32.009  58.762  1.00  0.00    -0.382 OA
ATOM     15  H   UNL     1      69.590  31.030  58.921  1.00  0.00     0.211 HD
ENDBRANCH   8  14
ENDBRANCH   1   8
BRANCH   1  16
ATOM     16  O   UNL     1      72.095  33.770  60.476  1.00  0.00    -0.387 OA
ATOM     17  H   UNL     1      72.882  33.615  61.064  1.00  0.00     0.211 HD
ENDBRANCH   1  16
TORSDOF 10
ENDMDL
MODEL 4
REMARK VINA RESULT:    -3.336      1.811      4.709
REMARK INTER + INTRA:          -5.764
REMARK INTER:                  -4.704
REMARK INTRA:                  -1.060
REMARK UNBOUND:                -0.965
REMARK SMILES O=C(CO)[C@H](O)[C@H](O)[C@@H](O)CO
REMARK SMILES IDX 7 1 9 2 11 3 12 4 10 6 5 8 2 9 1 10 3 11 4 12 6 14 8 16
REMARK H PARENT 12 5 10 7 4 13 6 15 8 17
REMARK Flexibility Score: inf
ROOT
ATOM      1  C   UNL     1      70.650  33.954  57.649  1.00  0.00     0.181 C 
ENDROOT
BRANCH   1   2
ATOM      2  C   UNL     1      69.913  35.229  58.146  1.00  0.00     0.171 C 
BRANCH   2   3
ATOM      3  C   UNL     1      70.505  36.525  57.576  1.00  0.00     0.190 C 
BRANCH   3   4
ATOM      4  O   UNL     1      71.485  37.021  58.444  1.00  0.00    -0.394 OA
ATOM      5  H   UNL     1      71.210  37.948  58.673  1.00  0.00     0.210 HD
ENDBRANCH   3   4
ENDBRANCH   2   3
BRANCH   2   6
ATOM      6  O   UNL     1      69.991  35.290  59.549  1.00  0.00    -0.388 OA
ATOM      7  H   UNL     1      69.757  34.388  59.897  1.00  0.00     0.211 HD
ENDBRANCH   2   6
ENDBRANCH   1   2
BRANCH   1   8
ATOM      8  C   UNL     1      70.317  32.689  58.490  1.00  0.00     0.214 C 
BRANCH   8   9
ATOM      9  C   UNL     1      71.564  32.098  59.117  1.00  0.00     0.189 C 
ATOM     10  O   UNL     1      72.318  31.417  58.437  1.00  0.00    -0.294 OA
BRANCH   9  11
ATOM     11  C   UNL     1      71.905  32.337  60.560  1.00  0.00     0.234 C 
BRANCH  11  12
ATOM     12  O   UNL     1      72.170  33.698  60.755  1.00  0.00    -0.388 OA
ATOM     13  H   UNL     1      72.721  33.986  59.981  1.00  0.00     0.211 HD
ENDBRANCH  11  12
ENDBRANCH   9  11
ENDBRANCH   8   9
BRANCH   8  14
ATOM     14  O   UNL     1      69.675  31.704  57.719  1.00  0.00    -0.382 OA
ATOM     15  H   UNL     1      70.372  31.100  57.351  1.00  0.00     0.211 HD
ENDBRANCH   8  14
ENDBRANCH   1   8
BRANCH   1  16
ATOM     16  O   UNL     1      72.038  34.184  57.721  1.00  0.00    -0.387 OA
ATOM     17  H   UNL     1      72.371  34.274  56.789  1.00  0.00     0.211 HD
ENDBRANCH   1  16
TORSDOF 10
ENDMDL
MODEL 5
REMARK VINA RESULT:    -3.274     20.578     22.006
REMARK INTER + INTRA:          -5.674
REMARK INTER:                  -5.061
REMARK INTRA:                  -0.613
REMARK UNBOUND:                -0.965
REMARK SMILES O=C(CO)[C@H](O)[C@H](O)[C@@H](O)CO
REMARK SMILES IDX 7 1 9 2 11 3 12 4 10 6 5 8 2 9 1 10 3 11 4 12 6 14 8 16
REMARK H PARENT 12 5 10 7 4 13 6 15 8 17
REMARK Flexibility Score: inf
ROOT
ATOM      1  C   UNL     1      56.777  18.871  50.709  1.00  0.00     0.181 C 
ENDROOT
BRANCH   1   2
ATOM      2  C   UNL     1      57.805  17.773  50.315  1.00  0.00     0.171 C 
BRANCH   2   3
ATOM      3  C   UNL     1      59.234  18.314  50.170  1.00  0.00     0.190 C 
BRANCH   3   4
ATOM      4  O   UNL     1      59.234  19.437  49.332  1.00  0.00    -0.394 OA
ATOM      5  H   UNL     1      59.726  19.171  48.512  1.00  0.00     0.210 HD
ENDBRANCH   3   4
ENDBRANCH   2   3
BRANCH   2   6
ATOM      6  O   UNL     1      57.424  17.203  49.086  1.00  0.00    -0.388 OA
ATOM      7  H   UNL     1      58.010  17.595  48.386  1.00  0.00     0.211 HD
ENDBRANCH   2   6
ENDBRANCH   1   2
BRANCH   1   8
ATOM      8  C   UNL     1      56.909  19.324  52.191  1.00  0.00     0.214 C 
BRANCH   8   9
ATOM      9  C   UNL     1      55.556  19.382  52.873  1.00  0.00     0.189 C 
ATOM     10  O   UNL     1      55.145  18.407  53.485  1.00  0.00    -0.294 OA
BRANCH   9  11
ATOM     11  C   UNL     1      54.706  20.621  52.824  1.00  0.00     0.234 C 
BRANCH  11  12
ATOM     12  O   UNL     1      54.001  20.653  51.615  1.00  0.00    -0.388 OA
ATOM     13  H   UNL     1      53.587  19.756  51.514  1.00  0.00     0.211 HD
ENDBRANCH  11  12
ENDBRANCH   9  11
ENDBRANCH   8   9
BRANCH   8  14
ATOM     14  O   UNL     1      57.535  20.579  52.299  1.00  0.00    -0.382 OA
ATOM     15  H   UNL     1      57.199  21.155  51.563  1.00  0.00     0.211 HD
ENDBRANCH   8  14
ENDBRANCH   1   8
BRANCH   1  16
ATOM     16  O   UNL     1      55.480  18.360  50.512  1.00  0.00    -0.387 OA
ATOM     17  H   UNL     1      55.239  18.522  49.562  1.00  0.00     0.211 HD
ENDBRANCH   1  16
TORSDOF 10
ENDMDL
MODEL 6
REMARK VINA RESULT:    -3.209     15.512     16.743
REMARK INTER + INTRA:          -5.581
REMARK INTER:                  -4.117
REMARK INTRA:                  -1.464
REMARK UNBOUND:                -0.965
REMARK SMILES O=C(CO)[C@H](O)[C@H](O)[C@@H](O)CO
REMARK SMILES IDX 7 1 9 2 11 3 12 4 10 6 5 8 2 9 1 10 3 11 4 12 6 14 8 16
REMARK H PARENT 12 5 10 7 4 13 6 15 8 17
REMARK Flexibility Score: inf
ROOT
ATOM      1  C   UNL     1      60.331  27.637  50.537  1.00  0.00     0.181 C 
ENDROOT
BRANCH   1   2
ATOM      2  C   UNL     1      60.700  29.141  50.398  1.00  0.00     0.171 C 
BRANCH   2   3
ATOM      3  C   UNL     1      60.376  29.956  51.658  1.00  0.00     0.190 C 
BRANCH   3   4
ATOM      4  O   UNL     1      59.028  30.340  51.640  1.00  0.00    -0.394 OA
ATOM      5  H   UNL     1      58.576  29.734  50.997  1.00  0.00     0.210 HD
ENDBRANCH   3   4
ENDBRANCH   2   3
BRANCH   2   6
ATOM      6  O   UNL     1      59.987  29.694  49.320  1.00  0.00    -0.388 OA
ATOM      7  H   UNL     1      59.031  29.731  49.587  1.00  0.00     0.211 HD
ENDBRANCH   2   6
ENDBRANCH   1   2
BRANCH   1   8
ATOM      8  C   UNL     1      59.260  27.176  49.507  1.00  0.00     0.214 C 
BRANCH   8   9
ATOM      9  C   UNL     1      57.868  27.201  50.109  1.00  0.00     0.189 C 
ATOM     10  O   UNL     1      57.370  28.267  50.436  1.00  0.00    -0.294 OA
BRANCH   9  11
ATOM     11  C   UNL     1      57.077  25.938  50.305  1.00  0.00     0.234 C 
BRANCH  11  12
ATOM     12  O   UNL     1      57.759  25.095  51.190  1.00  0.00    -0.388 OA
ATOM     13  H   UNL     1      57.061  24.637  51.728  1.00  0.00     0.211 HD
ENDBRANCH  11  12
ENDBRANCH   9  11
ENDBRANCH   8   9
BRANCH   8  14
ATOM     14  O   UNL     1      59.529  25.885  49.017  1.00  0.00    -0.382 OA
ATOM     15  H   UNL     1      60.006  25.979  48.152  1.00  0.00     0.211 HD
ENDBRANCH   8  14
ENDBRANCH   1   8
BRANCH   1  16
ATOM     16  O   UNL     1      59.826  27.418  51.833  1.00  0.00    -0.387 OA
ATOM     17  H   UNL     1      60.526  27.708  52.476  1.00  0.00     0.211 HD
ENDBRANCH   1  16
TORSDOF 10
ENDMDL
MODEL 7
REMARK VINA RESULT:    -3.160     15.594     16.821
REMARK INTER + INTRA:          -5.510
REMARK INTER:                  -4.038
REMARK INTRA:                  -1.473
REMARK UNBOUND:                -0.965
REMARK SMILES O=C(CO)[C@H](O)[C@H](O)[C@@H](O)CO
REMARK SMILES IDX 7 1 9 2 11 3 12 4 10 6 5 8 2 9 1 10 3 11 4 12 6 14 8 16
REMARK H PARENT 12 5 10 7 4 13 6 15 8 17
REMARK Flexibility Score: inf
ROOT
ATOM      1  C   UNL     1      59.001  26.083  50.276  1.00  0.00     0.181 C 
ENDROOT
BRANCH   1   2
ATOM      2  C   UNL     1      59.103  27.618  50.499  1.00  0.00     0.171 C 
BRANCH   2   3
ATOM      3  C   UNL     1      59.489  28.384  49.226  1.00  0.00     0.190 C 
BRANCH   3   4
ATOM      4  O   UNL     1      60.840  28.160  48.929  1.00  0.00    -0.394 OA
ATOM      5  H   UNL     1      61.036  27.229  49.215  1.00  0.00     0.210 HD
ENDBRANCH   3   4
ENDBRANCH   2   3
BRANCH   2   6
ATOM      6  O   UNL     1      60.075  27.878  51.481  1.00  0.00    -0.388 OA
ATOM      7  H   UNL     1      60.948  27.569  51.121  1.00  0.00     0.211 HD
ENDBRANCH   2   6
ENDBRANCH   1   2
BRANCH   1   8
ATOM      8  C   UNL     1      59.980  25.271  51.171  1.00  0.00     0.214 C 
BRANCH   8   9
ATOM      9  C   UNL     1      61.240  24.898  50.415  1.00  0.00     0.189 C 
ATOM     10  O   UNL     1      62.019  25.774  50.070  1.00  0.00    -0.294 OA
BRANCH   9  11
ATOM     11  C   UNL     1      61.562  23.468  50.086  1.00  0.00     0.234 C 
BRANCH  11  12
ATOM     12  O   UNL     1      60.549  22.937  49.279  1.00  0.00    -0.388 OA
ATOM     13  H   UNL     1      60.834  23.093  48.341  1.00  0.00     0.211 HD
ENDBRANCH  11  12
ENDBRANCH   9  11
ENDBRANCH   8   9
BRANCH   8  14
ATOM     14  O   UNL     1      59.380  24.102  51.674  1.00  0.00    -0.382 OA
ATOM     15  H   UNL     1      59.188  23.501  50.907  1.00  0.00     0.211 HD
ENDBRANCH   8  14
ENDBRANCH   1   8
BRANCH   1  16
ATOM     16  O   UNL     1      59.296  25.806  48.928  1.00  0.00    -0.387 OA
ATOM     17  H   UNL     1      60.266  25.980  48.796  1.00  0.00     0.211 HD
ENDBRANCH   1  16
TORSDOF 10
ENDMDL
MODEL 8
REMARK VINA RESULT:    -3.156     13.021     13.943
REMARK INTER + INTRA:          -5.505
REMARK INTER:                  -4.678
REMARK INTRA:                  -0.828
REMARK UNBOUND:                -0.965
REMARK SMILES O=C(CO)[C@H](O)[C@H](O)[C@@H](O)CO
REMARK SMILES IDX 7 1 9 2 11 3 12 4 10 6 5 8 2 9 1 10 3 11 4 12 6 14 8 16
REMARK H PARENT 12 5 10 7 4 13 6 15 8 17
REMARK Flexibility Score: inf
ROOT
ATOM      1  C   UNL     1      64.273  30.654  49.301  1.00  0.00     0.181 C 
ENDROOT
BRANCH   1   2
ATOM      2  C   UNL     1      64.028  29.127  49.144  1.00  0.00     0.171 C 
BRANCH   2   3
ATOM      3  C   UNL     1      64.735  28.530  47.919  1.00  0.00     0.190 C 
BRANCH   3   4
ATOM      4  O   UNL     1      63.997  28.809  46.762  1.00  0.00    -0.394 OA
ATOM      5  H   UNL     1      64.159  29.766  46.554  1.00  0.00     0.210 HD
ENDBRANCH   3   4
ENDBRANCH   2   3
BRANCH   2   6
ATOM      6  O   UNL     1      62.648  28.891  49.014  1.00  0.00    -0.388 OA
ATOM      7  H   UNL     1      62.178  29.599  49.529  1.00  0.00     0.211 HD
ENDBRANCH   2   6
ENDBRANCH   1   2
BRANCH   1   8
ATOM      8  C   UNL     1      62.956  31.478  49.369  1.00  0.00     0.214 C 
BRANCH   8   9
ATOM      9  C   UNL     1      63.226  32.964  49.237  1.00  0.00     0.189 C 
ATOM     10  O   UNL     1      64.241  33.440  49.724  1.00  0.00    -0.294 OA
BRANCH   9  11
ATOM     11  C   UNL     1      62.276  33.872  48.508  1.00  0.00     0.234 C 
BRANCH  11  12
ATOM     12  O   UNL     1      61.321  34.362  49.407  1.00  0.00    -0.388 OA
ATOM     13  H   UNL     1      61.156  33.633  50.060  1.00  0.00     0.211 HD
ENDBRANCH  11  12
ENDBRANCH   9  11
ENDBRANCH   8   9
BRANCH   8  14
ATOM     14  O   UNL     1      62.253  31.241  50.564  1.00  0.00    -0.382 OA
ATOM     15  H   UNL     1      61.287  31.175  50.344  1.00  0.00     0.211 HD
ENDBRANCH   8  14
ENDBRANCH   1   8
BRANCH   1  16
ATOM     16  O   UNL     1      65.023  31.103  48.197  1.00  0.00    -0.387 OA
ATOM     17  H   UNL     1      64.392  31.552  47.574  1.00  0.00     0.211 HD
ENDBRANCH   1  16
TORSDOF 10
ENDMDL
MODEL 9
REMARK VINA RESULT:    -3.147      8.855     10.153
REMARK INTER + INTRA:          -5.492
REMARK INTER:                  -4.001
REMARK INTRA:                  -1.491
REMARK UNBOUND:                -0.965
REMARK SMILES O=C(CO)[C@H](O)[C@H](O)[C@@H](O)CO
REMARK SMILES IDX 7 1 9 2 11 3 12 4 10 6 5 8 2 9 1 10 3 11 4 12 6 14 8 16
REMARK H PARENT 12 5 10 7 4 13 6 15 8 17
REMARK Flexibility Score: inf
ROOT
ATOM      1  C   UNL     1      62.427  31.417  60.788  1.00  0.00     0.181 C 
ENDROOT
BRANCH   1   2
ATOM      2  C   UNL     1      63.952  31.316  61.075  1.00  0.00     0.171 C 
BRANCH   2   3
ATOM      3  C   UNL     1      64.761  30.849  59.857  1.00  0.00     0.190 C 
BRANCH   3   4
ATOM      4  O   UNL     1      64.652  29.460  59.719  1.00  0.00    -0.394 OA
ATOM      5  H   UNL     1      63.686  29.248  59.803  1.00  0.00     0.210 HD
ENDBRANCH   3   4
ENDBRANCH   2   3
BRANCH   2   6
ATOM      6  O   UNL     1      64.165  30.401  62.122  1.00  0.00    -0.388 OA
ATOM      7  H   UNL     1      64.451  30.925  62.917  1.00  0.00     0.211 HD
ENDBRANCH   2   6
ENDBRANCH   1   2
BRANCH   1   8
ATOM      8  C   UNL     1      61.573  30.495  61.704  1.00  0.00     0.214 C 
BRANCH   8   9
ATOM      9  C   UNL     1      61.232  29.190  61.011  1.00  0.00     0.189 C 
ATOM     10  O   UNL     1      62.116  28.379  60.780  1.00  0.00    -0.294 OA
BRANCH   9  11
ATOM     11  C   UNL     1      59.822  28.862  60.609  1.00  0.00     0.234 C 
BRANCH  11  12
ATOM     12  O   UNL     1      59.360  29.827  59.705  1.00  0.00    -0.388 OA
ATOM     13  H   UNL     1      58.877  30.504  60.247  1.00  0.00     0.211 HD
ENDBRANCH  11  12
ENDBRANCH   9  11
ENDBRANCH   8   9
BRANCH   8  14
ATOM     14  O   UNL     1      60.384  31.125  62.115  1.00  0.00    -0.382 OA
ATOM     15  H   UNL     1      59.700  30.979  61.411  1.00  0.00     0.211 HD
ENDBRANCH   8  14
ENDBRANCH   1   8
BRANCH   1  16
ATOM     16  O   UNL     1      62.199  31.048  59.449  1.00  0.00    -0.387 OA
ATOM     17  H   UNL     1      62.074  30.063  59.430  1.00  0.00     0.211 HD
ENDBRANCH   1  16
TORSDOF 10
ENDMDL
