MODEL 1
REMARK VINA RESULT:    -4.424      0.000      0.000
REMARK INTER + INTRA:          -4.812
REMARK INTER:                  -4.812
REMARK INTRA:                   0.000
REMARK UNBOUND:                 0.000
REMARK SMILES Cc1cc(O)c2c(c1)C(=O)c1cc(O)cc(O)c1C2=O
REMARK SMILES IDX 1 1 2 2 8 3 7 4 6 5 4 6 3 7 19 8 20 9 18 10 11 11 9 12 10 13
REMARK SMILES IDX 12 14 13 15 15 16 16 17 5 18 17 20 14 22
REMARK H PARENT 5 19 17 21 14 23
REMARK Flexibility Score: inf
ROOT
ATOM      1  C   UNL     1      47.981  85.033  33.758  1.00  0.00     0.044 C 
ATOM      2  C   UNL     1      49.035  84.284  32.997  1.00  0.00    -0.047 A 
ATOM      3  C   UNL     1      50.385  84.615  33.154  1.00  0.00     0.016 A 
ATOM      4  C   UNL     1      51.378  83.938  32.425  1.00  0.00     0.038 A 
ATOM      5  C   UNL     1      51.013  82.914  31.524  1.00  0.00     0.076 A 
ATOM      6  C   UNL     1      49.638  82.641  31.307  1.00  0.00     0.127 A 
ATOM      7  C   UNL     1      48.669  83.314  32.058  1.00  0.00     0.050 A 
ATOM      8  C   UNL     1      52.095  82.121  30.883  1.00  0.00     0.201 C 
ATOM      9  O   UNL     1      51.888  80.920  30.567  1.00  0.00    -0.288 OA
ATOM     10  C   UNL     1      53.466  82.686  30.791  1.00  0.00     0.076 A 
ATOM     11  C   UNL     1      53.827  83.713  31.692  1.00  0.00     0.041 A 
ATOM     12  C   UNL     1      52.806  84.299  32.592  1.00  0.00     0.194 C 
ATOM     13  O   UNL     1      53.148  85.125  33.483  1.00  0.00    -0.289 OA
ATOM     14  C   UNL     1      55.153  84.177  31.729  1.00  0.00     0.059 A 
ATOM     15  C   UNL     1      56.115  83.643  30.871  1.00  0.00     0.120 A 
ATOM     16  C   UNL     1      55.754  82.656  29.951  1.00  0.00     0.093 A 
ATOM     17  C   UNL     1      54.436  82.192  29.880  1.00  0.00     0.131 A 
ENDROOT
BRANCH   6  18
ATOM     18  O   UNL     1      49.190  81.743  30.334  1.00  0.00    -0.507 OA
ATOM     19  H   UNL     1      49.640  81.621  29.438  1.00  0.00     0.293 HD
ENDBRANCH   6  18
BRANCH  17  20
ATOM     20  O   UNL     1      54.130  81.272  28.875  1.00  0.00    -0.507 OA
ATOM     21  H   UNL     1      54.023  80.280  29.039  1.00  0.00     0.293 HD
ENDBRANCH  17  20
BRANCH  15  22
ATOM     22  O   UNL     1      57.426  84.110  30.934  1.00  0.00    -0.508 OA
ATOM     23  H   UNL     1      58.052  84.040  30.140  1.00  0.00     0.293 HD
ENDBRANCH  15  22
TORSDOF 3
ENDMDL
MODEL 2
REMARK VINA RESULT:    -1.436      1.347      5.507
REMARK INTER + INTRA:          -1.562
REMARK INTER:                  -1.562
REMARK INTRA:                   0.000
REMARK UNBOUND:                 0.000
REMARK SMILES Cc1cc(O)c2c(c1)C(=O)c1cc(O)cc(O)c1C2=O
REMARK SMILES IDX 1 1 2 2 8 3 7 4 6 5 4 6 3 7 19 8 20 9 18 10 11 11 9 12 10 13
REMARK SMILES IDX 12 14 13 15 15 16 16 17 5 18 17 20 14 22
REMARK H PARENT 5 19 17 21 14 23
REMARK Flexibility Score: inf
ROOT
ATOM      1  C   UNL     1      57.659  83.927  32.066  1.00  0.00     0.044 C 
ATOM      2  C   UNL     1      56.255  83.700  31.589  1.00  0.00    -0.047 A 
ATOM      3  C   UNL     1      55.171  84.152  32.350  1.00  0.00     0.016 A 
ATOM      4  C   UNL     1      53.852  83.919  31.926  1.00  0.00     0.038 A 
ATOM      5  C   UNL     1      53.612  83.223  30.721  1.00  0.00     0.076 A 
ATOM      6  C   UNL     1      54.713  82.694  29.998  1.00  0.00     0.127 A 
ATOM      7  C   UNL     1      56.017  82.955  30.429  1.00  0.00     0.050 A 
ATOM      8  C   UNL     1      52.213  83.126  30.231  1.00  0.00     0.201 C 
ATOM      9  O   UNL     1      51.987  83.059  28.994  1.00  0.00    -0.288 OA
ATOM     10  C   UNL     1      51.085  83.297  31.182  1.00  0.00     0.076 A 
ATOM     11  C   UNL     1      51.328  83.991  32.389  1.00  0.00     0.041 A 
ATOM     12  C   UNL     1      52.709  84.396  32.743  1.00  0.00     0.194 C 
ATOM     13  O   UNL     1      52.915  85.123  33.753  1.00  0.00    -0.289 OA
ATOM     14  C   UNL     1      50.259  84.292  33.250  1.00  0.00     0.059 A 
ATOM     15  C   UNL     1      48.960  83.898  32.932  1.00  0.00     0.120 A 
ATOM     16  C   UNL     1      48.720  83.176  31.760  1.00  0.00     0.093 A 
ATOM     17  C   UNL     1      49.769  82.846  30.896  1.00  0.00     0.131 A 
ENDROOT
BRANCH   6  18
ATOM     18  O   UNL     1      54.556  81.878  28.875  1.00  0.00    -0.507 OA
ATOM     19  H   UNL     1      55.252  81.215  28.566  1.00  0.00     0.293 HD
ENDBRANCH   6  18
BRANCH  17  20
ATOM     20  O   UNL     1      49.469  82.045  29.793  1.00  0.00    -0.507 OA
ATOM     21  H   UNL     1      50.000  81.224  29.536  1.00  0.00     0.293 HD
ENDBRANCH  17  20
BRANCH  15  22
ATOM     22  O   UNL     1      47.914  84.219  33.794  1.00  0.00    -0.508 OA
ATOM     23  H   UNL     1      47.547  85.162  33.854  1.00  0.00     0.293 HD
ENDBRANCH  15  22
TORSDOF 3
ENDMDL
