MODEL 1
REMARK VINA RESULT:    -3.084      0.000      0.000
REMARK INTER + INTRA:          -3.933
REMARK INTER:                  -3.715
REMARK INTRA:                  -0.217
REMARK UNBOUND:                -0.217
REMARK SMILES OCC(O)CO
REMARK SMILES IDX 3 1 5 2 6 3 2 5 1 6 4 8
REMARK H PARENT 6 4 1 7 4 9
REMARK Flexibility Score: inf
ROOT
ATOM      1  C   UNL     1     -13.580   3.024  28.086  1.00  0.00     0.165 C 
ENDROOT
BRANCH   1   2
ATOM      2  C   UNL     1     -14.120   2.761  26.675  1.00  0.00     0.190 C 
BRANCH   2   3
ATOM      3  O   UNL     1     -14.720   3.923  26.173  1.00  0.00    -0.394 OA
ATOM      4  H   UNL     1     -14.214   4.684  26.560  1.00  0.00     0.210 HD
ENDBRANCH   2   3
ENDBRANCH   1   2
BRANCH   1   5
ATOM      5  C   UNL     1     -12.884   4.389  28.149  1.00  0.00     0.190 C 
BRANCH   5   6
ATOM      6  O   UNL     1     -13.815   5.402  28.422  1.00  0.00    -0.394 OA
ATOM      7  H   UNL     1     -13.838   5.990  27.623  1.00  0.00     0.210 HD
ENDBRANCH   5   6
ENDBRANCH   1   5
BRANCH   1   8
ATOM      8  O   UNL     1     -14.635   3.003  29.013  1.00  0.00    -0.388 OA
ATOM      9  H   UNL     1     -14.912   3.946  29.156  1.00  0.00     0.211 HD
ENDBRANCH   1   8
TORSDOF 5
ENDMDL
MODEL 2
REMARK VINA RESULT:    -3.040      1.007      2.642
REMARK INTER + INTRA:          -3.879
REMARK INTER:                  -3.687
REMARK INTRA:                  -0.192
REMARK UNBOUND:                -0.217
REMARK SMILES OCC(O)CO
REMARK SMILES IDX 3 1 5 2 6 3 2 5 1 6 4 8
REMARK H PARENT 6 4 1 7 4 9
REMARK Flexibility Score: inf
ROOT
ATOM      1  C   UNL     1     -13.511   3.816  27.018  1.00  0.00     0.165 C 
ENDROOT
BRANCH   1   2
ATOM      2  C   UNL     1     -13.784   2.636  27.959  1.00  0.00     0.190 C 
BRANCH   2   3
ATOM      3  O   UNL     1     -14.623   3.046  29.002  1.00  0.00    -0.394 OA
ATOM      4  H   UNL     1     -15.380   2.404  29.016  1.00  0.00     0.210 HD
ENDBRANCH   2   3
ENDBRANCH   1   2
BRANCH   1   5
ATOM      5  C   UNL     1     -14.359   3.695  25.745  1.00  0.00     0.190 C 
BRANCH   5   6
ATOM      6  O   UNL     1     -15.553   3.008  26.014  1.00  0.00    -0.394 OA
ATOM      7  H   UNL     1     -16.120   3.097  25.205  1.00  0.00     0.210 HD
ENDBRANCH   5   6
ENDBRANCH   1   5
BRANCH   1   8
ATOM      8  O   UNL     1     -13.822   5.024  27.662  1.00  0.00    -0.388 OA
ATOM      9  H   UNL     1     -14.492   4.813  28.364  1.00  0.00     0.211 HD
ENDBRANCH   1   8
TORSDOF 5
ENDMDL
MODEL 3
REMARK VINA RESULT:    -3.026      1.133      2.690
REMARK INTER + INTRA:          -3.863
REMARK INTER:                  -3.639
REMARK INTRA:                  -0.224
REMARK UNBOUND:                -0.217
REMARK SMILES OCC(O)CO
REMARK SMILES IDX 3 1 5 2 6 3 2 5 1 6 4 8
REMARK H PARENT 6 4 1 7 4 9
REMARK Flexibility Score: inf
ROOT
ATOM      1  C   UNL     1     -13.355   3.660  27.028  1.00  0.00     0.165 C 
ENDROOT
BRANCH   1   2
ATOM      2  C   UNL     1     -12.707   4.808  27.813  1.00  0.00     0.190 C 
BRANCH   2   3
ATOM      3  O   UNL     1     -11.798   4.291  28.745  1.00  0.00    -0.394 OA
ATOM      4  H   UNL     1     -11.365   3.514  28.305  1.00  0.00     0.210 HD
ENDBRANCH   2   3
ENDBRANCH   1   2
BRANCH   1   5
ATOM      5  C   UNL     1     -13.793   2.540  27.980  1.00  0.00     0.190 C 
BRANCH   5   6
ATOM      6  O   UNL     1     -14.449   3.075  29.098  1.00  0.00    -0.394 OA
ATOM      7  H   UNL     1     -14.433   4.062  28.992  1.00  0.00     0.210 HD
ENDBRANCH   5   6
ENDBRANCH   1   5
BRANCH   1   8
ATOM      8  O   UNL     1     -14.476   4.132  26.328  1.00  0.00    -0.388 OA
ATOM      9  H   UNL     1     -14.210   4.989  25.902  1.00  0.00     0.211 HD
ENDBRANCH   1   8
TORSDOF 5
ENDMDL
MODEL 4
REMARK VINA RESULT:    -2.972      8.181      8.802
REMARK INTER + INTRA:          -3.798
REMARK INTER:                  -3.585
REMARK INTRA:                  -0.213
REMARK UNBOUND:                -0.217
REMARK SMILES OCC(O)CO
REMARK SMILES IDX 3 1 5 2 6 3 2 5 1 6 4 8
REMARK H PARENT 6 4 1 7 4 9
REMARK Flexibility Score: inf
ROOT
ATOM      1  C   UNL     1     -11.696  -4.936  26.242  1.00  0.00     0.165 C 
ENDROOT
BRANCH   1   2
ATOM      2  C   UNL     1     -12.198  -3.499  26.054  1.00  0.00     0.190 C 
BRANCH   2   3
ATOM      3  O   UNL     1     -11.110  -2.619  26.009  1.00  0.00    -0.394 OA
ATOM      4  H   UNL     1     -10.633  -2.726  26.874  1.00  0.00     0.210 HD
ENDBRANCH   2   3
ENDBRANCH   1   2
BRANCH   1   5
ATOM      5  C   UNL     1     -11.216  -5.153  27.683  1.00  0.00     0.190 C 
BRANCH   5   6
ATOM      6  O   UNL     1     -10.068  -4.388  27.938  1.00  0.00    -0.394 OA
ATOM      7  H   UNL     1      -9.521  -4.413  27.109  1.00  0.00     0.210 HD
ENDBRANCH   5   6
ENDBRANCH   1   5
BRANCH   1   8
ATOM      8  O   UNL     1     -12.729  -5.845  25.961  1.00  0.00    -0.388 OA
ATOM      9  H   UNL     1     -13.273  -5.447  25.232  1.00  0.00     0.211 HD
ENDBRANCH   1   8
TORSDOF 5
ENDMDL
MODEL 5
REMARK VINA RESULT:    -2.950      8.408      9.246
REMARK INTER + INTRA:          -3.771
REMARK INTER:                  -3.556
REMARK INTRA:                  -0.215
REMARK UNBOUND:                -0.217
REMARK SMILES OCC(O)CO
REMARK SMILES IDX 3 1 5 2 6 3 2 5 1 6 4 8
REMARK H PARENT 6 4 1 7 4 9
REMARK Flexibility Score: inf
ROOT
ATOM      1  C   UNL     1     -18.197   8.727  21.648  1.00  0.00     0.165 C 
ENDROOT
BRANCH   1   2
ATOM      2  C   UNL     1     -19.095   7.532  21.993  1.00  0.00     0.190 C 
BRANCH   2   3
ATOM      3  O   UNL     1     -19.343   7.508  23.371  1.00  0.00    -0.394 OA
ATOM      4  H   UNL     1     -19.686   6.599  23.574  1.00  0.00     0.210 HD
ENDBRANCH   2   3
ENDBRANCH   1   2
BRANCH   1   5
ATOM      5  C   UNL     1     -19.042   9.989  21.430  1.00  0.00     0.190 C 
BRANCH   5   6
ATOM      6  O   UNL     1     -20.408   9.688  21.537  1.00  0.00    -0.394 OA
ATOM      7  H   UNL     1     -20.476   8.868  22.092  1.00  0.00     0.210 HD
ENDBRANCH   5   6
ENDBRANCH   1   5
BRANCH   1   8
ATOM      8  O   UNL     1     -17.287   8.959  22.692  1.00  0.00    -0.388 OA
ATOM      9  H   UNL     1     -16.751   9.755  22.436  1.00  0.00     0.211 HD
ENDBRANCH   1   8
TORSDOF 5
ENDMDL
MODEL 6
REMARK VINA RESULT:    -2.943      1.238      2.133
REMARK INTER + INTRA:          -3.762
REMARK INTER:                  -3.737
REMARK INTRA:                  -0.026
REMARK UNBOUND:                -0.217
REMARK SMILES OCC(O)CO
REMARK SMILES IDX 3 1 5 2 6 3 2 5 1 6 4 8
REMARK H PARENT 6 4 1 7 4 9
REMARK Flexibility Score: inf
ROOT
ATOM      1  C   UNL     1     -13.449   3.996  28.219  1.00  0.00     0.165 C 
ENDROOT
BRANCH   1   2
ATOM      2  C   UNL     1     -13.527   4.466  26.762  1.00  0.00     0.190 C 
BRANCH   2   3
ATOM      3  O   UNL     1     -14.687   3.962  26.162  1.00  0.00    -0.394 OA
ATOM      4  H   UNL     1     -15.424   4.568  26.433  1.00  0.00     0.210 HD
ENDBRANCH   2   3
ENDBRANCH   1   2
BRANCH   1   5
ATOM      5  C   UNL     1     -13.977   2.561  28.349  1.00  0.00     0.190 C 
BRANCH   5   6
ATOM      6  O   UNL     1     -14.728   2.419  29.526  1.00  0.00    -0.394 OA
ATOM      7  H   UNL     1     -15.050   1.481  29.545  1.00  0.00     0.210 HD
ENDBRANCH   5   6
ENDBRANCH   1   5
BRANCH   1   8
ATOM      8  O   UNL     1     -12.119   4.038  28.666  1.00  0.00    -0.388 OA
ATOM      9  H   UNL     1     -12.127   3.770  29.622  1.00  0.00     0.211 HD
ENDBRANCH   1   8
TORSDOF 5
ENDMDL
MODEL 7
REMARK VINA RESULT:    -2.934      8.154      8.831
REMARK INTER + INTRA:          -3.751
REMARK INTER:                  -3.528
REMARK INTRA:                  -0.223
REMARK UNBOUND:                -0.217
REMARK SMILES OCC(O)CO
REMARK SMILES IDX 3 1 5 2 6 3 2 5 1 6 4 8
REMARK H PARENT 6 4 1 7 4 9
REMARK Flexibility Score: inf
ROOT
ATOM      1  C   UNL     1     -12.062  -4.575  26.577  1.00  0.00     0.165 C 
ENDROOT
BRANCH   1   2
ATOM      2  C   UNL     1     -11.163  -5.227  27.634  1.00  0.00     0.190 C 
BRANCH   2   3
ATOM      3  O   UNL     1     -10.104  -4.366  27.952  1.00  0.00    -0.394 OA
ATOM      4  H   UNL     1      -9.275  -4.837  27.677  1.00  0.00     0.210 HD
ENDBRANCH   2   3
ENDBRANCH   1   2
BRANCH   1   5
ATOM      5  C   UNL     1     -11.216  -3.821  25.543  1.00  0.00     0.190 C 
BRANCH   5   6
ATOM      6  O   UNL     1     -11.087  -2.472  25.906  1.00  0.00    -0.394 OA
ATOM      7  H   UNL     1     -11.775  -1.973  25.394  1.00  0.00     0.210 HD
ENDBRANCH   5   6
ENDBRANCH   1   5
BRANCH   1   8
ATOM      8  O   UNL     1     -12.819  -5.559  25.920  1.00  0.00    -0.388 OA
ATOM      9  H   UNL     1     -12.565  -5.526  24.961  1.00  0.00     0.211 HD
ENDBRANCH   1   8
TORSDOF 5
ENDMDL
MODEL 8
REMARK VINA RESULT:    -2.908      9.196      9.956
REMARK INTER + INTRA:          -3.720
REMARK INTER:                  -3.701
REMARK INTRA:                  -0.019
REMARK UNBOUND:                -0.217
REMARK SMILES OCC(O)CO
REMARK SMILES IDX 3 1 5 2 6 3 2 5 1 6 4 8
REMARK H PARENT 6 4 1 7 4 9
REMARK Flexibility Score: inf
ROOT
ATOM      1  C   UNL     1     -22.726   3.789  23.603  1.00  0.00     0.165 C 
ENDROOT
BRANCH   1   2
ATOM      2  C   UNL     1     -23.490   2.882  24.576  1.00  0.00     0.190 C 
BRANCH   2   3
ATOM      3  O   UNL     1     -22.583   2.155  25.357  1.00  0.00    -0.394 OA
ATOM      4  H   UNL     1     -21.961   2.821  25.749  1.00  0.00     0.210 HD
ENDBRANCH   2   3
ENDBRANCH   1   2
BRANCH   1   5
ATOM      5  C   UNL     1     -23.268   5.223  23.668  1.00  0.00     0.190 C 
BRANCH   5   6
ATOM      6  O   UNL     1     -24.535   5.241  24.270  1.00  0.00    -0.394 OA
ATOM      7  H   UNL     1     -25.190   5.010  23.560  1.00  0.00     0.210 HD
ENDBRANCH   5   6
ENDBRANCH   1   5
BRANCH   1   8
ATOM      8  O   UNL     1     -21.361   3.799  23.930  1.00  0.00    -0.388 OA
ATOM      9  H   UNL     1     -20.977   2.948  23.591  1.00  0.00     0.211 HD
ENDBRANCH   1   8
TORSDOF 5
ENDMDL
MODEL 9
REMARK VINA RESULT:    -2.855      1.051      2.147
REMARK INTER + INTRA:          -3.657
REMARK INTER:                  -3.435
REMARK INTRA:                  -0.222
REMARK UNBOUND:                -0.217
REMARK SMILES OCC(O)CO
REMARK SMILES IDX 3 1 5 2 6 3 2 5 1 6 4 8
REMARK H PARENT 6 4 1 7 4 9
REMARK Flexibility Score: inf
ROOT
ATOM      1  C   UNL     1     -13.592   4.017  27.036  1.00  0.00     0.165 C 
ENDROOT
BRANCH   1   2
ATOM      2  C   UNL     1     -13.652   2.779  27.939  1.00  0.00     0.190 C 
BRANCH   2   3
ATOM      3  O   UNL     1     -14.440   3.051  29.065  1.00  0.00    -0.394 OA
ATOM      4  H   UNL     1     -13.937   3.721  29.597  1.00  0.00     0.210 HD
ENDBRANCH   2   3
ENDBRANCH   1   2
BRANCH   1   5
ATOM      5  C   UNL     1     -12.933   5.188  27.774  1.00  0.00     0.190 C 
BRANCH   5   6
ATOM      6  O   UNL     1     -13.866   5.839  28.595  1.00  0.00    -0.394 OA
ATOM      7  H   UNL     1     -13.994   5.261  29.392  1.00  0.00     0.210 HD
ENDBRANCH   5   6
ENDBRANCH   1   5
BRANCH   1   8
ATOM      8  O   UNL     1     -12.853   3.729  25.877  1.00  0.00    -0.388 OA
ATOM      9  H   UNL     1     -13.497   3.707  25.122  1.00  0.00     0.211 HD
ENDBRANCH   1   8
TORSDOF 5
ENDMDL
