MODEL 1
REMARK VINA RESULT:    -4.238      0.000      0.000
REMARK INTER + INTRA:          -6.924
REMARK INTER:                  -6.468
REMARK INTRA:                  -0.455
REMARK UNBOUND:                -0.455
REMARK SMILES CC1=CCC[C@H](C)C(=O)C[C@H](C(C)C)C(=O)C1
REMARK SMILES IDX 8 1 9 2 6 3 7 4 5 5 4 6 3 7 2 8 1 9 10 11 11 12 15 13 16 14
REMARK SMILES IDX 17 15 12 17 13 18 14 19
REMARK H PARENT
REMARK Flexibility Score: 70.00
ROOT
ATOM      1  C   UNL     1      49.273   2.615  16.683  1.00  0.00     0.136 C 
ATOM      2  O   UNL     1      49.097   3.093  15.570  1.00  0.00    -0.299 OA
ENDROOT
BRANCH   1   3
ATOM      3  C   UNL     1      48.255   1.634  17.255  1.00  0.00     0.053 C 
ATOM      4  C   UNL     1      48.685   1.073  18.621  1.00  0.00     0.016 C 
BRANCH   3   5
ATOM      5  C   UNL     1      46.849   2.288  17.363  1.00  0.00     0.015 C 
BRANCH   5   6
ATOM      6  C   UNL     1      46.500   2.952  18.712  1.00  0.00     0.028 C 
BRANCH   6   7
ATOM      7  C   UNL     1      46.676   4.450  18.849  1.00  0.00    -0.028 C 
ATOM      8  C   UNL     1      47.694   5.108  19.456  1.00  0.00    -0.070 CG0
ATOM      9  C   UNL     1      47.529   6.595  19.663  1.00  0.00     0.039 C 
ATOM     10  G   UNL     1      49.011   4.469  19.873  1.00  0.00     0.000 G0
ENDBRANCH   6   7
ENDBRANCH   5   6
ENDBRANCH   3   5
ENDBRANCH   1   3
BRANCH   1  11
ATOM     11  C   UNL     1      50.502   3.052  17.465  1.00  0.00     0.087 C 
BRANCH  11  12
ATOM     12  C   UNL     1      50.582   4.579  17.705  1.00  0.00     0.066 C 
BRANCH  12  13
ATOM     13  C   UNL     1      50.186   5.039  19.108  1.00  0.00     0.140 C 
ATOM     14  O   UNL     1      50.909   5.862  19.649  1.00  0.00    -0.299 OA
BRANCH  13  15
ATOM     15  C   UNL     1      49.013   4.475  19.900  1.00  0.00     0.106 CG0
ATOM     16  G   UNL     1      47.700   5.111  19.463  1.00  0.00     0.000 G0
ENDBRANCH  13  15
ENDBRANCH  12  13
BRANCH  12  17
ATOM     17  C   UNL     1      51.957   5.164  17.256  1.00  0.00    -0.006 C 
ATOM     18  C   UNL     1      52.990   4.056  16.991  1.00  0.00     0.008 C 
ATOM     19  C   UNL     1      51.867   6.100  16.040  1.00  0.00     0.008 C 
ENDBRANCH  12  17
ENDBRANCH  11  12
ENDBRANCH   1  11
TORSDOF 1
ENDMDL
MODEL 2
REMARK VINA RESULT:    -4.066      2.459      3.874
REMARK INTER + INTRA:          -6.661
REMARK INTER:                  -6.586
REMARK INTRA:                  -0.075
REMARK UNBOUND:                -0.455
REMARK SMILES CC1=CCC[C@H](C)C(=O)C[C@H](C(C)C)C(=O)C1
REMARK SMILES IDX 8 1 9 2 6 3 7 4 5 5 4 6 3 7 2 8 1 9 10 11 11 12 15 13 16 14
REMARK SMILES IDX 17 15 12 17 13 18 14 19
REMARK H PARENT
REMARK Flexibility Score: 70.00
ROOT
ATOM      1  C   UNL     1      49.033   2.249  18.526  1.00  0.00     0.136 C 
ATOM      2  O   UNL     1      49.740   1.284  18.785  1.00  0.00    -0.299 OA
ENDROOT
BRANCH   1   3
ATOM      3  C   UNL     1      47.731   2.048  17.759  1.00  0.00     0.053 C 
ATOM      4  C   UNL     1      46.511   2.592  18.521  1.00  0.00     0.016 C 
BRANCH   3   5
ATOM      5  C   UNL     1      47.810   2.690  16.345  1.00  0.00     0.015 C 
BRANCH   5   6
ATOM      6  C   UNL     1      49.144   2.523  15.587  1.00  0.00     0.028 C 
BRANCH   6   7
ATOM      7  C   UNL     1      49.591   3.629  14.654  1.00  0.00    -0.028 C 
ATOM      8  C   UNL     1      50.580   4.533  14.861  1.00  0.00    -0.070 CG0
ATOM      9  C   UNL     1      50.683   5.681  13.885  1.00  0.00     0.039 C 
ATOM     10  G   UNL     1      51.629   4.432  15.960  1.00  0.00     0.000 G0
ENDBRANCH   6   7
ENDBRANCH   5   6
ENDBRANCH   3   5
ENDBRANCH   1   3
BRANCH   1  11
ATOM     11  C   UNL     1      49.508   3.626  18.963  1.00  0.00     0.087 C 
BRANCH  11  12
ATOM     12  C   UNL     1      50.956   3.957  18.525  1.00  0.00     0.066 C 
BRANCH  12  13
ATOM     13  C   UNL     1      51.074   4.883  17.314  1.00  0.00     0.140 C 
ATOM     14  O   UNL     1      50.609   6.007  17.425  1.00  0.00    -0.299 OA
BRANCH  13  15
ATOM     15  C   UNL     1      51.645   4.466  15.964  1.00  0.00     0.106 CG0
ATOM     16  G   UNL     1      50.575   4.505  14.881  1.00  0.00     0.000 G0
ENDBRANCH  13  15
ENDBRANCH  12  13
BRANCH  12  17
ATOM     17  C   UNL     1      51.828   4.439  19.726  1.00  0.00    -0.006 C 
ATOM     18  C   UNL     1      50.967   4.817  20.942  1.00  0.00     0.008 C 
ATOM     19  C   UNL     1      52.917   3.437  20.145  1.00  0.00     0.008 C 
ENDBRANCH  12  17
ENDBRANCH  11  12
ENDBRANCH   1  11
TORSDOF 1
ENDMDL
MODEL 3
REMARK VINA RESULT:    -4.058      1.527      2.002
REMARK INTER + INTRA:          -6.648
REMARK INTER:                  -6.299
REMARK INTRA:                  -0.349
REMARK UNBOUND:                -0.455
REMARK SMILES CC1=CCC[C@H](C)C(=O)C[C@H](C(C)C)C(=O)C1
REMARK SMILES IDX 8 1 9 2 6 3 7 4 5 5 4 6 3 7 2 8 1 9 10 11 11 12 15 13 16 14
REMARK SMILES IDX 17 15 12 17 13 18 14 19
REMARK H PARENT
REMARK Flexibility Score: 70.00
ROOT
ATOM      1  C   UNL     1      48.399   2.526  16.412  1.00  0.00     0.136 C 
ATOM      2  O   UNL     1      47.834   3.016  15.443  1.00  0.00    -0.299 OA
ENDROOT
BRANCH   1   3
ATOM      3  C   UNL     1      47.575   1.904  17.533  1.00  0.00     0.053 C 
ATOM      4  C   UNL     1      48.355   0.828  18.307  1.00  0.00     0.016 C 
BRANCH   3   5
ATOM      5  C   UNL     1      47.049   2.992  18.511  1.00  0.00     0.015 C 
BRANCH   5   6
ATOM      6  C   UNL     1      47.907   3.264  19.764  1.00  0.00     0.028 C 
BRANCH   6   7
ATOM      7  C   UNL     1      48.593   4.607  19.895  1.00  0.00    -0.028 C 
ATOM      8  C   UNL     1      49.920   4.869  19.797  1.00  0.00    -0.070 CG0
ATOM      9  C   UNL     1      50.384   6.250  20.193  1.00  0.00     0.039 C 
ATOM     10  G   UNL     1      50.956   3.895  19.251  1.00  0.00     0.000 G0
ENDBRANCH   6   7
ENDBRANCH   5   6
ENDBRANCH   3   5
ENDBRANCH   1   3
BRANCH   1  11
ATOM     11  C   UNL     1      49.918   2.590  16.466  1.00  0.00     0.087 C 
BRANCH  11  12
ATOM     12  C   UNL     1      50.481   4.026  16.592  1.00  0.00     0.066 C 
BRANCH  12  13
ATOM     13  C   UNL     1      51.356   4.276  17.820  1.00  0.00     0.140 C 
ATOM     14  O   UNL     1      52.467   4.747  17.626  1.00  0.00    -0.299 OA
BRANCH  13  15
ATOM     15  C   UNL     1      50.972   3.893  19.244  1.00  0.00     0.106 CG0
ATOM     16  G   UNL     1      49.935   4.854  19.809  1.00  0.00     0.000 G0
ENDBRANCH  13  15
ENDBRANCH  12  13
BRANCH  12  17
ATOM     17  C   UNL     1      51.164   4.500  15.272  1.00  0.00    -0.006 C 
ATOM     18  C   UNL     1      50.937   3.503  14.123  1.00  0.00     0.008 C 
ATOM     19  C   UNL     1      50.749   5.912  14.829  1.00  0.00     0.008 C 
ENDBRANCH  12  17
ENDBRANCH  11  12
ENDBRANCH   1  11
TORSDOF 1
ENDMDL
MODEL 4
REMARK VINA RESULT:    -3.910      2.062      3.407
REMARK INTER + INTRA:          -6.423
REMARK INTER:                  -6.024
REMARK INTRA:                  -0.399
REMARK UNBOUND:                -0.455
REMARK SMILES CC1=CCC[C@H](C)C(=O)C[C@H](C(C)C)C(=O)C1
REMARK SMILES IDX 8 1 9 2 6 3 7 4 5 5 4 6 3 7 2 8 1 9 10 11 11 12 15 13 16 14
REMARK SMILES IDX 17 15 12 17 13 18 14 19
REMARK H PARENT
REMARK Flexibility Score: 70.00
ROOT
ATOM      1  C   UNL     1      48.814   2.003  18.324  1.00  0.00     0.136 C 
ATOM      2  O   UNL     1      48.540   0.907  18.794  1.00  0.00    -0.299 OA
ENDROOT
BRANCH   1   3
ATOM      3  C   UNL     1      47.906   3.195  18.606  1.00  0.00     0.053 C 
ATOM      4  C   UNL     1      46.415   2.825  18.539  1.00  0.00     0.016 C 
BRANCH   3   5
ATOM      5  C   UNL     1      48.238   3.838  19.982  1.00  0.00     0.015 C 
BRANCH   5   6
ATOM      6  C   UNL     1      48.912   5.226  19.950  1.00  0.00     0.028 C 
BRANCH   6   7
ATOM      7  C   UNL     1      50.397   5.317  20.232  1.00  0.00    -0.028 C 
ATOM      8  C   UNL     1      51.406   5.365  19.328  1.00  0.00    -0.070 CG0
ATOM      9  C   UNL     1      52.814   5.222  19.856  1.00  0.00     0.039 C 
ATOM     10  G   UNL     1      51.223   5.623  17.838  1.00  0.00     0.000 G0
ENDBRANCH   6   7
ENDBRANCH   5   6
ENDBRANCH   3   5
ENDBRANCH   1   3
BRANCH   1  11
ATOM     11  C   UNL     1      50.049   2.118  17.444  1.00  0.00     0.087 C 
BRANCH  11  12
ATOM     12  C   UNL     1      50.144   3.455  16.669  1.00  0.00     0.066 C 
BRANCH  12  13
ATOM     13  C   UNL     1      51.341   4.333  17.031  1.00  0.00     0.140 C 
ATOM     14  O   UNL     1      52.449   3.921  16.717  1.00  0.00    -0.299 OA
BRANCH  13  15
ATOM     15  C   UNL     1      51.251   5.628  17.829  1.00  0.00     0.106 CG0
ATOM     16  G   UNL     1      51.384   5.362  19.323  1.00  0.00     0.000 G0
ENDBRANCH  13  15
ENDBRANCH  12  13
BRANCH  12  17
ATOM     17  C   UNL     1      50.008   3.244  15.129  1.00  0.00    -0.006 C 
ATOM     18  C   UNL     1      48.667   2.589  14.759  1.00  0.00     0.008 C 
ATOM     19  C   UNL     1      50.211   4.525  14.305  1.00  0.00     0.008 C 
ENDBRANCH  12  17
ENDBRANCH  11  12
ENDBRANCH   1  11
TORSDOF 1
ENDMDL
MODEL 5
REMARK VINA RESULT:    -3.789      2.081      5.123
REMARK INTER + INTRA:          -6.238
REMARK INTER:                  -6.443
REMARK INTRA:                   0.205
REMARK UNBOUND:                -0.455
REMARK SMILES CC1=CCC[C@H](C)C(=O)C[C@H](C(C)C)C(=O)C1
REMARK SMILES IDX 8 1 9 2 6 3 7 4 5 5 4 6 3 7 2 8 1 9 10 11 11 12 15 13 16 14
REMARK SMILES IDX 17 15 12 17 13 18 14 19
REMARK H PARENT
REMARK Flexibility Score: 70.00
ROOT
ATOM      1  C   UNL     1      48.632   5.704  19.916  1.00  0.00     0.136 C 
ATOM      2  O   UNL     1      47.592   6.039  19.366  1.00  0.00    -0.299 OA
ENDROOT
BRANCH   1   3
ATOM      3  C   UNL     1      49.585   6.770  20.446  1.00  0.00     0.053 C 
ATOM      4  C   UNL     1      50.540   6.221  21.519  1.00  0.00     0.016 C 
BRANCH   3   5
ATOM      5  C   UNL     1      50.396   7.419  19.289  1.00  0.00     0.015 C 
BRANCH   5   6
ATOM      6  C   UNL     1      50.553   6.581  18.003  1.00  0.00     0.028 C 
BRANCH   6   7
ATOM      7  C   UNL     1      51.842   5.816  17.789  1.00  0.00    -0.028 C 
ATOM      8  C   UNL     1      51.980   4.509  17.455  1.00  0.00    -0.070 CG0
ATOM      9  C   UNL     1      53.368   3.920  17.525  1.00  0.00     0.039 C 
ATOM     10  G   UNL     1      50.851   3.622  16.947  1.00  0.00     0.000 G0
ENDBRANCH   6   7
ENDBRANCH   5   6
ENDBRANCH   3   5
ENDBRANCH   1   3
BRANCH   1  11
ATOM     11  C   UNL     1      48.942   4.219  20.021  1.00  0.00     0.087 C 
BRANCH  11  12
ATOM     12  C   UNL     1      48.803   3.454  18.682  1.00  0.00     0.066 C 
BRANCH  12  13
ATOM     13  C   UNL     1      50.113   2.934  18.091  1.00  0.00     0.140 C 
ATOM     14  O   UNL     1      50.616   1.956  18.624  1.00  0.00    -0.299 OA
BRANCH  13  15
ATOM     15  C   UNL     1      50.870   3.605  16.950  1.00  0.00     0.106 CG0
ATOM     16  G   UNL     1      51.970   4.513  17.482  1.00  0.00     0.000 G0
ENDBRANCH  13  15
ENDBRANCH  12  13
BRANCH  12  17
ATOM     17  C   UNL     1      47.707   2.346  18.759  1.00  0.00    -0.006 C 
ATOM     18  C   UNL     1      46.293   2.932  18.626  1.00  0.00     0.008 C 
ATOM     19  C   UNL     1      47.901   1.208  17.744  1.00  0.00     0.008 C 
ENDBRANCH  12  17
ENDBRANCH  11  12
ENDBRANCH   1  11
TORSDOF 1
ENDMDL
MODEL 6
REMARK VINA RESULT:    -3.577      2.928      5.761
REMARK INTER + INTRA:          -5.914
REMARK INTER:                  -5.648
REMARK INTRA:                  -0.266
REMARK UNBOUND:                -0.455
REMARK SMILES CC1=CCC[C@H](C)C(=O)C[C@H](C(C)C)C(=O)C1
REMARK SMILES IDX 8 1 9 2 6 3 7 4 5 5 4 6 3 7 2 8 1 9 10 11 11 12 15 13 16 14
REMARK SMILES IDX 17 15 12 17 13 18 14 19
REMARK H PARENT
REMARK Flexibility Score: 70.00
ROOT
ATOM      1  C   UNL     1      50.034   3.756  15.474  1.00  0.00     0.136 C 
ATOM      2  O   UNL     1      49.003   3.098  15.478  1.00  0.00    -0.299 OA
ENDROOT
BRANCH   1   3
ATOM      3  C   UNL     1      50.612   4.249  14.152  1.00  0.00     0.053 C 
ATOM      4  C   UNL     1      50.858   5.767  14.149  1.00  0.00     0.016 C 
BRANCH   3   5
ATOM      5  C   UNL     1      51.923   3.493  13.798  1.00  0.00     0.015 C 
BRANCH   5   6
ATOM      6  C   UNL     1      53.232   4.085  14.361  1.00  0.00     0.028 C 
BRANCH   6   7
ATOM      7  C   UNL     1      54.237   3.147  14.997  1.00  0.00    -0.028 C 
ATOM      8  C   UNL     1      54.510   3.002  16.317  1.00  0.00    -0.070 CG0
ATOM      9  C   UNL     1      55.714   2.169  16.687  1.00  0.00     0.039 C 
ATOM     10  G   UNL     1      53.650   3.559  17.444  1.00  0.00     0.000 G0
ENDBRANCH   6   7
ENDBRANCH   5   6
ENDBRANCH   3   5
ENDBRANCH   1   3
BRANCH   1  11
ATOM     11  C   UNL     1      50.717   4.029  16.805  1.00  0.00     0.087 C 
BRANCH  11  12
ATOM     12  C   UNL     1      51.078   2.750  17.598  1.00  0.00     0.066 C 
BRANCH  12  13
ATOM     13  C   UNL     1      52.570   2.551  17.868  1.00  0.00     0.140 C 
ATOM     14  O   UNL     1      52.893   1.563  18.510  1.00  0.00    -0.299 OA
BRANCH  13  15
ATOM     15  C   UNL     1      53.656   3.544  17.473  1.00  0.00     0.106 CG0
ATOM     16  G   UNL     1      54.507   3.000  16.332  1.00  0.00     0.000 G0
ENDBRANCH  13  15
ENDBRANCH  12  13
BRANCH  12  17
ATOM     17  C   UNL     1      50.218   2.608  18.892  1.00  0.00    -0.006 C 
ATOM     18  C   UNL     1      49.740   3.973  19.412  1.00  0.00     0.008 C 
ATOM     19  C   UNL     1      49.021   1.656  18.742  1.00  0.00     0.008 C 
ENDBRANCH  12  17
ENDBRANCH  11  12
ENDBRANCH   1  11
TORSDOF 1
ENDMDL
MODEL 7
REMARK VINA RESULT:    -3.547      2.372      3.209
REMARK INTER + INTRA:          -5.869
REMARK INTER:                  -5.632
REMARK INTRA:                  -0.237
REMARK UNBOUND:                -0.455
REMARK SMILES CC1=CCC[C@H](C)C(=O)C[C@H](C(C)C)C(=O)C1
REMARK SMILES IDX 8 1 9 2 6 3 7 4 5 5 4 6 3 7 2 8 1 9 10 11 11 12 15 13 16 14
REMARK SMILES IDX 17 15 12 17 13 18 14 19
REMARK H PARENT
REMARK Flexibility Score: 70.00
ROOT
ATOM      1  C   UNL     1      50.824   2.670  18.086  1.00  0.00     0.136 C 
ATOM      2  O   UNL     1      51.516   2.003  18.843  1.00  0.00    -0.299 OA
ENDROOT
BRANCH   1   3
ATOM      3  C   UNL     1      49.307   2.661  18.243  1.00  0.00     0.053 C 
ATOM      4  C   UNL     1      48.775   1.298  18.717  1.00  0.00     0.016 C 
BRANCH   3   5
ATOM      5  C   UNL     1      48.838   3.785  19.210  1.00  0.00     0.015 C 
BRANCH   5   6
ATOM      6  C   UNL     1      49.944   4.658  19.839  1.00  0.00     0.028 C 
BRANCH   6   7
ATOM      7  C   UNL     1      49.864   6.161  19.670  1.00  0.00    -0.028 C 
ATOM      8  C   UNL     1      50.692   6.954  18.945  1.00  0.00    -0.070 CG0
ATOM      9  C   UNL     1      50.544   8.447  19.118  1.00  0.00     0.039 C 
ATOM     10  G   UNL     1      51.702   6.448  17.924  1.00  0.00     0.000 G0
ENDBRANCH   6   7
ENDBRANCH   5   6
ENDBRANCH   3   5
ENDBRANCH   1   3
BRANCH   1  11
ATOM     11  C   UNL     1      51.517   3.465  16.991  1.00  0.00     0.087 C 
BRANCH  11  12
ATOM     12  C   UNL     1      50.617   4.536  16.328  1.00  0.00     0.066 C 
BRANCH  12  13
ATOM     13  C   UNL     1      50.998   5.985  16.632  1.00  0.00     0.140 C 
ATOM     14  O   UNL     1      50.790   6.811  15.756  1.00  0.00    -0.299 OA
BRANCH  13  15
ATOM     15  C   UNL     1      51.698   6.443  17.906  1.00  0.00     0.106 CG0
ATOM     16  G   UNL     1      50.692   6.949  18.932  1.00  0.00     0.000 G0
ENDBRANCH  13  15
ENDBRANCH  12  13
BRANCH  12  17
ATOM     17  C   UNL     1      50.440   4.278  14.799  1.00  0.00    -0.006 C 
ATOM     18  C   UNL     1      51.729   3.739  14.159  1.00  0.00     0.008 C 
ATOM     19  C   UNL     1      49.259   3.356  14.457  1.00  0.00     0.008 C 
ENDBRANCH  12  17
ENDBRANCH  11  12
ENDBRANCH   1  11
TORSDOF 1
ENDMDL
MODEL 8
REMARK VINA RESULT:    -3.412      2.490      5.283
REMARK INTER + INTRA:          -5.663
REMARK INTER:                  -5.562
REMARK INTRA:                  -0.101
REMARK UNBOUND:                -0.455
REMARK SMILES CC1=CCC[C@H](C)C(=O)C[C@H](C(C)C)C(=O)C1
REMARK SMILES IDX 8 1 9 2 6 3 7 4 5 5 4 6 3 7 2 8 1 9 10 11 11 12 15 13 16 14
REMARK SMILES IDX 17 15 12 17 13 18 14 19
REMARK H PARENT
REMARK Flexibility Score: 70.00
ROOT
ATOM      1  C   UNL     1      50.983   3.658  18.997  1.00  0.00     0.136 C 
ATOM      2  O   UNL     1      50.210   4.583  19.211  1.00  0.00    -0.299 OA
ENDROOT
BRANCH   1   3
ATOM      3  C   UNL     1      52.446   3.784  19.405  1.00  0.00     0.053 C 
ATOM      4  C   UNL     1      53.214   2.461  19.251  1.00  0.00     0.016 C 
BRANCH   3   5
ATOM      5  C   UNL     1      53.155   4.912  18.604  1.00  0.00     0.015 C 
BRANCH   5   6
ATOM      6  C   UNL     1      53.296   4.692  17.083  1.00  0.00     0.028 C 
BRANCH   6   7
ATOM      7  C   UNL     1      52.277   5.330  16.162  1.00  0.00    -0.028 C 
ATOM      8  C   UNL     1      51.396   4.701  15.345  1.00  0.00    -0.070 CG0
ATOM      9  C   UNL     1      50.642   5.554  14.354  1.00  0.00     0.039 C 
ATOM     10  G   UNL     1      51.065   3.216  15.409  1.00  0.00     0.000 G0
ENDBRANCH   6   7
ENDBRANCH   5   6
ENDBRANCH   3   5
ENDBRANCH   1   3
BRANCH   1  11
ATOM     11  C   UNL     1      50.444   2.420  18.296  1.00  0.00     0.087 C 
BRANCH  11  12
ATOM     12  C   UNL     1      49.254   2.705  17.348  1.00  0.00     0.066 C 
BRANCH  12  13
ATOM     13  C   UNL     1      49.631   2.955  15.888  1.00  0.00     0.140 C 
ATOM     14  O   UNL     1      48.733   2.885  15.061  1.00  0.00    -0.299 OA
BRANCH  13  15
ATOM     15  C   UNL     1      51.053   3.192  15.394  1.00  0.00     0.106 CG0
ATOM     16  G   UNL     1      51.375   4.680  15.344  1.00  0.00     0.000 G0
ENDBRANCH  13  15
ENDBRANCH  12  13
BRANCH  12  17
ATOM     17  C   UNL     1      48.128   1.635  17.494  1.00  0.00    -0.006 C 
ATOM     18  C   UNL     1      48.236   0.871  18.824  1.00  0.00     0.008 C 
ATOM     19  C   UNL     1      46.708   2.199  17.327  1.00  0.00     0.008 C 
ENDBRANCH  12  17
ENDBRANCH  11  12
ENDBRANCH   1  11
TORSDOF 1
ENDMDL
MODEL 9
REMARK VINA RESULT:    -3.364      2.117      3.080
REMARK INTER + INTRA:          -5.590
REMARK INTER:                  -5.380
REMARK INTRA:                  -0.209
REMARK UNBOUND:                -0.455
REMARK SMILES CC1=CCC[C@H](C)C(=O)C[C@H](C(C)C)C(=O)C1
REMARK SMILES IDX 8 1 9 2 6 3 7 4 5 5 4 6 3 7 2 8 1 9 10 11 11 12 15 13 16 14
REMARK SMILES IDX 17 15 12 17 13 18 14 19
REMARK H PARENT
REMARK Flexibility Score: 70.00
ROOT
ATOM      1  C   UNL     1      49.782   3.353  15.923  1.00  0.00     0.136 C 
ATOM      2  O   UNL     1      48.984   3.384  14.995  1.00  0.00    -0.299 OA
ENDROOT
BRANCH   1   3
ATOM      3  C   UNL     1      49.366   2.746  17.258  1.00  0.00     0.053 C 
ATOM      4  C   UNL     1      48.584   1.433  17.087  1.00  0.00     0.016 C 
BRANCH   3   5
ATOM      5  C   UNL     1      50.599   2.520  18.178  1.00  0.00     0.015 C 
BRANCH   5   6
ATOM      6  C   UNL     1      50.908   3.634  19.200  1.00  0.00     0.028 C 
BRANCH   6   7
ATOM      7  C   UNL     1      50.090   4.908  19.153  1.00  0.00    -0.028 C 
ATOM      8  C   UNL     1      50.445   6.096  18.603  1.00  0.00    -0.070 CG0
ATOM      9  C   UNL     1      49.553   7.281  18.885  1.00  0.00     0.039 C 
ATOM     10  G   UNL     1      51.631   6.297  17.669  1.00  0.00     0.000 G0
ENDBRANCH   6   7
ENDBRANCH   5   6
ENDBRANCH   3   5
ENDBRANCH   1   3
BRANCH   1  11
ATOM     11  C   UNL     1      51.159   3.958  15.705  1.00  0.00     0.087 C 
BRANCH  11  12
ATOM     12  C   UNL     1      51.129   5.407  15.160  1.00  0.00     0.066 C 
BRANCH  12  13
ATOM     13  C   UNL     1      51.199   6.503  16.222  1.00  0.00     0.140 C 
ATOM     14  O   UNL     1      50.946   7.644  15.863  1.00  0.00    -0.299 OA
BRANCH  13  15
ATOM     15  C   UNL     1      51.649   6.281  17.661  1.00  0.00     0.106 CG0
ATOM     16  G   UNL     1      50.453   6.101  18.588  1.00  0.00     0.000 G0
ENDBRANCH  13  15
ENDBRANCH  12  13
BRANCH  12  17
ATOM     17  C   UNL     1      52.173   5.619  14.020  1.00  0.00    -0.006 C 
ATOM     18  C   UNL     1      53.615   5.587  14.553  1.00  0.00     0.008 C 
ATOM     19  C   UNL     1      52.025   4.634  12.849  1.00  0.00     0.008 C 
ENDBRANCH  12  17
ENDBRANCH  11  12
ENDBRANCH   1  11
TORSDOF 1
ENDMDL
