MODEL 1
REMARK VINA RESULT:    -4.896      0.000      0.000
REMARK INTER + INTRA:          -4.896
REMARK INTER:                  -4.896
REMARK INTRA:                   0.000
REMARK UNBOUND:                 0.000
REMARK SMILES C=C1CCC[C@@]2(C)CC(=O)C(=C(C)C)C[C@@H]12
REMARK SMILES IDX 13 1 12 2 11 3 15 4 16 5 2 6 1 7 3 8 4 9 5 10 6 11 8 12 9 13
REMARK SMILES IDX 10 14 7 15 14 16
REMARK H PARENT
REMARK Flexibility Score: inf
ROOT
ATOM      1  C   UNL     1     148.707 160.126 198.372  1.00  0.00     0.039 C 
ATOM      2  C   UNL     1     149.070 160.093 199.838  1.00  0.00    -0.070 C 
ATOM      3  C   UNL     1     150.328 159.765 200.250  1.00  0.00    -0.006 C 
ATOM      4  C   UNL     1     151.432 159.420 199.271  1.00  0.00     0.047 C 
ATOM      5  C   UNL     1     152.415 158.346 199.804  1.00  0.00     0.025 C 
ATOM      6  C   UNL     1     153.601 158.258 198.858  1.00  0.00    -0.073 C 
ATOM      7  C   UNL     1     153.656 157.301 197.918  1.00  0.00     0.008 C 
ATOM      8  C   UNL     1     154.640 159.360 198.890  1.00  0.00     0.031 C 
ATOM      9  C   UNL     1     155.067 159.695 200.325  1.00  0.00     0.005 C 
ATOM     10  C   UNL     1     153.869 159.846 201.281  1.00  0.00     0.008 C 
ATOM     11  C   UNL     1     152.917 158.613 201.260  1.00  0.00    -0.018 C 
ATOM     12  C   UNL     1     151.713 158.853 202.209  1.00  0.00     0.088 C 
ATOM     13  C   UNL     1     150.744 159.854 201.669  1.00  0.00     0.159 C 
ATOM     14  O   UNL     1     150.299 160.756 202.427  1.00  0.00    -0.295 OA
ATOM     15  C   UNL     1     153.665 157.362 201.792  1.00  0.00     0.012 C 
ATOM     16  C   UNL     1     147.971 160.400 200.829  1.00  0.00     0.039 C 
ENDROOT
TORSDOF 0
ENDMDL
MODEL 2
REMARK VINA RESULT:    -4.650      2.278      3.498
REMARK INTER + INTRA:          -4.650
REMARK INTER:                  -4.650
REMARK INTRA:                   0.000
REMARK UNBOUND:                 0.000
REMARK SMILES C=C1CCC[C@@]2(C)CC(=O)C(=C(C)C)C[C@@H]12
REMARK SMILES IDX 13 1 12 2 11 3 15 4 16 5 2 6 1 7 3 8 4 9 5 10 6 11 8 12 9 13
REMARK SMILES IDX 10 14 7 15 14 16
REMARK H PARENT
REMARK Flexibility Score: inf
ROOT
ATOM      1  C   UNL     1     150.221 156.232 196.724  1.00  0.00     0.039 C 
ATOM      2  C   UNL     1     150.099 157.727 196.902  1.00  0.00    -0.070 C 
ATOM      3  C   UNL     1     150.646 158.361 197.978  1.00  0.00    -0.006 C 
ATOM      4  C   UNL     1     151.409 157.611 199.052  1.00  0.00     0.047 C 
ATOM      5  C   UNL     1     151.228 158.214 200.469  1.00  0.00     0.025 C 
ATOM      6  C   UNL     1     152.215 157.545 201.413  1.00  0.00    -0.073 C 
ATOM      7  C   UNL     1     151.826 156.532 202.203  1.00  0.00     0.008 C 
ATOM      8  C   UNL     1     153.676 157.933 201.331  1.00  0.00     0.031 C 
ATOM      9  C   UNL     1     153.856 159.456 201.288  1.00  0.00     0.005 C 
ATOM     10  C   UNL     1     152.902 160.140 200.291  1.00  0.00     0.008 C 
ATOM     11  C   UNL     1     151.409 159.765 200.526  1.00  0.00    -0.018 C 
ATOM     12  C   UNL     1     150.513 160.451 199.462  1.00  0.00     0.088 C 
ATOM     13  C   UNL     1     150.654 159.836 198.107  1.00  0.00     0.159 C 
ATOM     14  O   UNL     1     150.780 160.582 197.099  1.00  0.00    -0.295 OA
ATOM     15  C   UNL     1     150.946 160.294 201.910  1.00  0.00     0.012 C 
ATOM     16  C   UNL     1     149.310 158.484 195.858  1.00  0.00     0.039 C 
ENDROOT
TORSDOF 0
ENDMDL
MODEL 3
REMARK VINA RESULT:    -4.628      2.108      4.423
REMARK INTER + INTRA:          -4.628
REMARK INTER:                  -4.628
REMARK INTRA:                   0.000
REMARK UNBOUND:                 0.000
REMARK SMILES C=C1CCC[C@@]2(C)CC(=O)C(=C(C)C)C[C@@H]12
REMARK SMILES IDX 13 1 12 2 11 3 15 4 16 5 2 6 1 7 3 8 4 9 5 10 6 11 8 12 9 13
REMARK SMILES IDX 10 14 7 15 14 16
REMARK H PARENT
REMARK Flexibility Score: inf
ROOT
ATOM      1  C   UNL     1     153.189 159.850 201.510  1.00  0.00     0.039 C 
ATOM      2  C   UNL     1     151.771 160.293 201.237  1.00  0.00    -0.070 C 
ATOM      3  C   UNL     1     151.210 160.154 200.002  1.00  0.00    -0.006 C 
ATOM      4  C   UNL     1     151.966 159.548 198.837  1.00  0.00     0.047 C 
ATOM      5  C   UNL     1     151.598 160.178 197.469  1.00  0.00     0.025 C 
ATOM      6  C   UNL     1     152.222 159.342 196.363  1.00  0.00    -0.073 C 
ATOM      7  C   UNL     1     153.382 159.713 195.798  1.00  0.00     0.008 C 
ATOM      8  C   UNL     1     151.597 158.006 196.021  1.00  0.00     0.031 C 
ATOM      9  C   UNL     1     150.074 158.113 195.878  1.00  0.00     0.005 C 
ATOM     10  C   UNL     1     149.422 158.908 197.025  1.00  0.00     0.008 C 
ATOM     11  C   UNL     1     150.060 160.315 197.226  1.00  0.00    -0.018 C 
ATOM     12  C   UNL     1     149.389 161.038 198.423  1.00  0.00     0.088 C 
ATOM     13  C   UNL     1     149.783 160.458 199.742  1.00  0.00     0.159 C 
ATOM     14  O   UNL     1     148.897 160.234 200.610  1.00  0.00    -0.295 OA
ATOM     15  C   UNL     1     149.805 161.192 195.972  1.00  0.00     0.012 C 
ATOM     16  C   UNL     1     151.015 160.932 202.379  1.00  0.00     0.039 C 
ENDROOT
TORSDOF 0
ENDMDL
MODEL 4
REMARK VINA RESULT:    -4.615      2.322      5.251
REMARK INTER + INTRA:          -4.615
REMARK INTER:                  -4.615
REMARK INTRA:                   0.000
REMARK UNBOUND:                 0.000
REMARK SMILES C=C1CCC[C@@]2(C)CC(=O)C(=C(C)C)C[C@@H]12
REMARK SMILES IDX 13 1 12 2 11 3 15 4 16 5 2 6 1 7 3 8 4 9 5 10 6 11 8 12 9 13
REMARK SMILES IDX 10 14 7 15 14 16
REMARK H PARENT
REMARK Flexibility Score: inf
ROOT
ATOM      1  C   UNL     1     156.435 161.322 199.414  1.00  0.00     0.039 C 
ATOM      2  C   UNL     1     156.181 159.846 199.219  1.00  0.00    -0.070 C 
ATOM      3  C   UNL     1     154.956 159.299 199.461  1.00  0.00    -0.006 C 
ATOM      4  C   UNL     1     153.781 160.131 199.934  1.00  0.00     0.047 C 
ATOM      5  C   UNL     1     152.836 159.370 200.900  1.00  0.00     0.025 C 
ATOM      6  C   UNL     1     151.582 160.204 201.113  1.00  0.00    -0.073 C 
ATOM      7  C   UNL     1     151.455 160.980 202.200  1.00  0.00     0.008 C 
ATOM      8  C   UNL     1     150.553 160.265 200.004  1.00  0.00     0.031 C 
ATOM      9  C   UNL     1     150.235 158.871 199.448  1.00  0.00     0.005 C 
ATOM     10  C   UNL     1     151.501 158.038 199.171  1.00  0.00     0.008 C 
ATOM     11  C   UNL     1     152.444 157.940 200.407  1.00  0.00    -0.018 C 
ATOM     12  C   UNL     1     153.716 157.128 200.045  1.00  0.00     0.088 C 
ATOM     13  C   UNL     1     154.646 157.883 199.153  1.00  0.00     0.159 C 
ATOM     14  O   UNL     1     155.150 157.305 198.152  1.00  0.00    -0.295 OA
ATOM     15  C   UNL     1     151.732 157.170 201.552  1.00  0.00     0.012 C 
ATOM     16  C   UNL     1     157.352 158.995 198.782  1.00  0.00     0.039 C 
ENDROOT
TORSDOF 0
ENDMDL
MODEL 5
REMARK VINA RESULT:    -4.545      5.624      7.983
REMARK INTER + INTRA:          -4.545
REMARK INTER:                  -4.545
REMARK INTRA:                   0.000
REMARK UNBOUND:                 0.000
REMARK SMILES C=C1CCC[C@@]2(C)CC(=O)C(=C(C)C)C[C@@H]12
REMARK SMILES IDX 13 1 12 2 11 3 15 4 16 5 2 6 1 7 3 8 4 9 5 10 6 11 8 12 9 13
REMARK SMILES IDX 10 14 7 15 14 16
REMARK H PARENT
REMARK Flexibility Score: inf
ROOT
ATOM      1  C   UNL     1     158.127 166.861 197.514  1.00  0.00     0.039 C 
ATOM      2  C   UNL     1     158.358 165.855 198.616  1.00  0.00    -0.070 C 
ATOM      3  C   UNL     1     157.998 164.548 198.469  1.00  0.00    -0.006 C 
ATOM      4  C   UNL     1     157.353 164.027 197.201  1.00  0.00     0.047 C 
ATOM      5  C   UNL     1     156.319 162.899 197.454  1.00  0.00     0.025 C 
ATOM      6  C   UNL     1     155.922 162.293 196.118  1.00  0.00    -0.073 C 
ATOM      7  C   UNL     1     154.793 162.677 195.502  1.00  0.00     0.008 C 
ATOM      8  C   UNL     1     156.898 161.369 195.420  1.00  0.00     0.031 C 
ATOM      9  C   UNL     1     157.476 160.324 196.383  1.00  0.00     0.005 C 
ATOM     10  C   UNL     1     157.937 160.936 197.719  1.00  0.00     0.008 C 
ATOM     11  C   UNL     1     156.826 161.777 198.416  1.00  0.00    -0.018 C 
ATOM     12  C   UNL     1     157.373 162.399 199.728  1.00  0.00     0.088 C 
ATOM     13  C   UNL     1     158.333 163.517 199.480  1.00  0.00     0.159 C 
ATOM     14  O   UNL     1     159.411 163.563 200.130  1.00  0.00    -0.295 OA
ATOM     15  C   UNL     1     155.642 160.857 198.815  1.00  0.00     0.012 C 
ATOM     16  C   UNL     1     158.968 166.365 199.901  1.00  0.00     0.039 C 
ENDROOT
TORSDOF 0
ENDMDL
MODEL 6
REMARK VINA RESULT:    -4.500      2.152      4.763
REMARK INTER + INTRA:          -4.500
REMARK INTER:                  -4.500
REMARK INTRA:                   0.000
REMARK UNBOUND:                 0.000
REMARK SMILES C=C1CCC[C@@]2(C)CC(=O)C(=C(C)C)C[C@@H]12
REMARK SMILES IDX 13 1 12 2 11 3 15 4 16 5 2 6 1 7 3 8 4 9 5 10 6 11 8 12 9 13
REMARK SMILES IDX 10 14 7 15 14 16
REMARK H PARENT
REMARK Flexibility Score: inf
ROOT
ATOM      1  C   UNL     1     155.459 161.295 196.939  1.00  0.00     0.039 C 
ATOM      2  C   UNL     1     155.676 160.835 198.362  1.00  0.00    -0.070 C 
ATOM      3  C   UNL     1     154.681 160.229 199.070  1.00  0.00    -0.006 C 
ATOM      4  C   UNL     1     153.308 159.978 198.479  1.00  0.00     0.047 C 
ATOM      5  C   UNL     1     152.160 160.090 199.516  1.00  0.00     0.025 C 
ATOM      6  C   UNL     1     150.876 159.586 198.878  1.00  0.00    -0.073 C 
ATOM      7  C   UNL     1     149.987 160.448 198.360  1.00  0.00     0.008 C 
ATOM      8  C   UNL     1     150.692 158.094 198.696  1.00  0.00     0.031 C 
ATOM      9  C   UNL     1     151.049 157.320 199.971  1.00  0.00     0.005 C 
ATOM     10  C   UNL     1     152.380 157.781 200.594  1.00  0.00     0.008 C 
ATOM     11  C   UNL     1     152.430 159.317 200.847  1.00  0.00    -0.018 C 
ATOM     12  C   UNL     1     153.811 159.716 201.431  1.00  0.00     0.088 C 
ATOM     13  C   UNL     1     154.906 159.652 200.416  1.00  0.00     0.159 C 
ATOM     14  O   UNL     1     156.001 159.107 200.720  1.00  0.00    -0.295 OA
ATOM     15  C   UNL     1     151.365 159.711 201.905  1.00  0.00     0.012 C 
ATOM     16  C   UNL     1     157.028 161.110 198.978  1.00  0.00     0.039 C 
ENDROOT
TORSDOF 0
ENDMDL
MODEL 7
REMARK VINA RESULT:    -4.346      5.811      8.485
REMARK INTER + INTRA:          -4.346
REMARK INTER:                  -4.346
REMARK INTRA:                   0.000
REMARK UNBOUND:                 0.000
REMARK SMILES C=C1CCC[C@@]2(C)CC(=O)C(=C(C)C)C[C@@H]12
REMARK SMILES IDX 13 1 12 2 11 3 15 4 16 5 2 6 1 7 3 8 4 9 5 10 6 11 8 12 9 13
REMARK SMILES IDX 10 14 7 15 14 16
REMARK H PARENT
REMARK Flexibility Score: inf
ROOT
ATOM      1  C   UNL     1     156.246 159.352 198.663  1.00  0.00     0.039 C 
ATOM      2  C   UNL     1     157.698 159.751 198.782  1.00  0.00    -0.070 C 
ATOM      3  C   UNL     1     158.091 161.048 198.632  1.00  0.00    -0.006 C 
ATOM      4  C   UNL     1     157.104 162.161 198.344  1.00  0.00     0.047 C 
ATOM      5  C   UNL     1     157.680 163.276 197.433  1.00  0.00     0.025 C 
ATOM      6  C   UNL     1     156.704 164.441 197.412  1.00  0.00    -0.073 C 
ATOM      7  C   UNL     1     155.834 164.585 196.401  1.00  0.00     0.008 C 
ATOM      8  C   UNL     1     156.624 165.344 198.625  1.00  0.00     0.031 C 
ATOM      9  C   UNL     1     158.017 165.763 199.113  1.00  0.00     0.005 C 
ATOM     10  C   UNL     1     158.999 164.578 199.196  1.00  0.00     0.008 C 
ATOM     11  C   UNL     1     159.096 163.777 197.864  1.00  0.00    -0.018 C 
ATOM     12  C   UNL     1     160.064 162.577 198.033  1.00  0.00     0.088 C 
ATOM     13  C   UNL     1     159.486 161.485 198.873  1.00  0.00     0.159 C 
ATOM     14  O   UNL     1     160.193 160.955 199.772  1.00  0.00    -0.295 OA
ATOM     15  C   UNL     1     159.691 164.680 196.750  1.00  0.00     0.012 C 
ATOM     16  C   UNL     1     158.700 158.647 199.033  1.00  0.00     0.039 C 
ENDROOT
TORSDOF 0
ENDMDL
MODEL 8
REMARK VINA RESULT:    -4.323      2.284      4.609
REMARK INTER + INTRA:          -4.323
REMARK INTER:                  -4.323
REMARK INTRA:                   0.000
REMARK UNBOUND:                 0.000
REMARK SMILES C=C1CCC[C@@]2(C)CC(=O)C(=C(C)C)C[C@@H]12
REMARK SMILES IDX 13 1 12 2 11 3 15 4 16 5 2 6 1 7 3 8 4 9 5 10 6 11 8 12 9 13
REMARK SMILES IDX 10 14 7 15 14 16
REMARK H PARENT
REMARK Flexibility Score: inf
ROOT
ATOM      1  C   UNL     1     151.441 154.198 201.418  1.00  0.00     0.039 C 
ATOM      2  C   UNL     1     152.705 155.003 201.607  1.00  0.00    -0.070 C 
ATOM      3  C   UNL     1     152.743 156.339 201.334  1.00  0.00    -0.006 C 
ATOM      4  C   UNL     1     151.528 157.092 200.831  1.00  0.00     0.047 C 
ATOM      5  C   UNL     1     151.877 158.234 199.841  1.00  0.00     0.025 C 
ATOM      6  C   UNL     1     150.628 159.066 199.597  1.00  0.00    -0.073 C 
ATOM      7  C   UNL     1     149.873 158.860 198.506  1.00  0.00     0.008 C 
ATOM      8  C   UNL     1     150.166 160.018 200.679  1.00  0.00     0.031 C 
ATOM      9  C   UNL     1     151.325 160.860 201.227  1.00  0.00     0.005 C 
ATOM     10  C   UNL     1     152.578 160.018 201.535  1.00  0.00     0.008 C 
ATOM     11  C   UNL     1     153.042 159.157 200.324  1.00  0.00    -0.018 C 
ATOM     12  C   UNL     1     154.276 158.303 200.719  1.00  0.00     0.088 C 
ATOM     13  C   UNL     1     153.928 157.175 201.635  1.00  0.00     0.159 C 
ATOM     14  O   UNL     1     154.644 156.956 202.648  1.00  0.00    -0.295 OA
ATOM     15  C   UNL     1     153.491 160.082 199.161  1.00  0.00     0.012 C 
ATOM     16  C   UNL     1     153.936 154.260 202.074  1.00  0.00     0.039 C 
ENDROOT
TORSDOF 0
ENDMDL
MODEL 9
REMARK VINA RESULT:    -4.321      2.000      2.742
REMARK INTER + INTRA:          -4.321
REMARK INTER:                  -4.321
REMARK INTRA:                   0.000
REMARK UNBOUND:                 0.000
REMARK SMILES C=C1CCC[C@@]2(C)CC(=O)C(=C(C)C)C[C@@H]12
REMARK SMILES IDX 13 1 12 2 11 3 15 4 16 5 2 6 1 7 3 8 4 9 5 10 6 11 8 12 9 13
REMARK SMILES IDX 10 14 7 15 14 16
REMARK H PARENT
REMARK Flexibility Score: inf
ROOT
ATOM      1  C   UNL     1     149.883 158.314 197.620  1.00  0.00     0.039 C 
ATOM      2  C   UNL     1     150.159 159.165 198.837  1.00  0.00    -0.070 C 
ATOM      3  C   UNL     1     150.903 158.692 199.878  1.00  0.00    -0.006 C 
ATOM      4  C   UNL     1     151.498 157.298 199.876  1.00  0.00     0.047 C 
ATOM      5  C   UNL     1     151.548 156.648 201.283  1.00  0.00     0.025 C 
ATOM      6  C   UNL     1     152.373 155.374 201.202  1.00  0.00    -0.073 C 
ATOM      7  C   UNL     1     151.774 154.179 201.084  1.00  0.00     0.008 C 
ATOM      8  C   UNL     1     153.879 155.489 201.098  1.00  0.00     0.031 C 
ATOM      9  C   UNL     1     154.444 156.481 202.123  1.00  0.00     0.005 C 
ATOM     10  C   UNL     1     153.652 157.802 202.171  1.00  0.00     0.008 C 
ATOM     11  C   UNL     1     152.125 157.584 202.393  1.00  0.00    -0.018 C 
ATOM     12  C   UNL     1     151.386 158.948 202.386  1.00  0.00     0.088 C 
ATOM     13  C   UNL     1     151.298 159.548 201.020  1.00  0.00     0.159 C 
ATOM     14  O   UNL     1     151.564 160.770 200.863  1.00  0.00    -0.295 OA
ATOM     15  C   UNL     1     151.882 156.950 203.789  1.00  0.00     0.012 C 
ATOM     16  C   UNL     1     149.544 160.545 198.870  1.00  0.00     0.039 C 
ENDROOT
TORSDOF 0
ENDMDL
