MODEL 1
REMARK VINA RESULT:     1.173      0.000      0.000
REMARK INTER + INTRA:           1.303
REMARK INTER:                   2.682
REMARK INTRA:                  -1.379
REMARK UNBOUND:                -1.379
REMARK SMILES CCCCCCCCCCCCCCCCCCCCCCCC(=O)[O-]
REMARK SMILES IDX 13 1 14 2 15 3 16 4 17 5 18 6 19 7 20 8 21 9 22 10 23 11
REMARK SMILES IDX 24 12 25 13 26 14 12 15 11 16 10 17 9 18 8 19 7 20 6 21 5 22
REMARK SMILES IDX 4 23 3 24 2 25 1 26
REMARK H PARENT
REMARK Flexibility Score: inf
ROOT
ATOM      1  C   UNL     1       4.848   4.688   1.262  1.00  0.00     0.000 C 
ENDROOT
BRANCH   1   2
ATOM      2  C   UNL     1       3.747   3.656   1.592  1.00  0.00     0.000 C 
BRANCH   2   3
ATOM      3  C   UNL     1       3.016   3.047   0.378  1.00  0.00     0.000 C 
BRANCH   3   4
ATOM      4  C   UNL     1       2.987   1.501   0.342  1.00  0.00     0.000 C 
BRANCH   4   5
ATOM      5  C   UNL     1       2.452   0.920  -0.980  1.00  0.00     0.000 C 
BRANCH   5   6
ATOM      6  C   UNL     1       1.492  -0.272  -0.821  1.00  0.00     0.000 C 
BRANCH   6   7
ATOM      7  C   UNL     1       1.511  -0.953   0.564  1.00  0.00     0.000 C 
BRANCH   7   8
ATOM      8  C   UNL     1       0.662  -2.231   0.681  1.00  0.00     0.000 C 
BRANCH   8   9
ATOM      9  C   UNL     1       0.843  -2.946   2.031  1.00  0.00     0.000 C 
BRANCH   9  10
ATOM     10  C   UNL     1      -0.461  -3.589   2.544  1.00  0.00     0.006 C 
BRANCH  10  11
ATOM     11  C   UNL     1      -1.568  -2.585   2.899  1.00  0.00     0.053 C 
BRANCH  11  12
ATOM     12  C   UNL     1      -1.921  -2.627   4.354  1.00  0.00     0.041 C 
ATOM     13  O   UNL     1      -1.211  -3.286   5.161  1.00  0.00    -0.550 OA
ATOM     14  O   UNL     1      -3.020  -1.918   4.825  1.00  0.00    -0.550 OA
ENDBRANCH  11  12
ENDBRANCH  10  11
ENDBRANCH   9  10
ENDBRANCH   8   9
ENDBRANCH   7   8
ENDBRANCH   6   7
ENDBRANCH   5   6
ENDBRANCH   4   5
ENDBRANCH   3   4
ENDBRANCH   2   3
ENDBRANCH   1   2
BRANCH   1  15
ATOM     15  C   UNL     1       5.506   5.359   2.481  1.00  0.00     0.000 C 
BRANCH  15  16
ATOM     16  C   UNL     1       6.789   6.127   2.119  1.00  0.00     0.000 C 
BRANCH  16  17
ATOM     17  C   UNL     1       7.392   5.680   0.770  1.00  0.00     0.000 C 
BRANCH  17  18
ATOM     18  C   UNL     1       8.642   4.789   0.905  1.00  0.00    -0.000 C 
BRANCH  18  19
ATOM     19  C   UNL     1       9.655   5.230   1.977  1.00  0.00    -0.000 C 
BRANCH  19  20
ATOM     20  C   UNL     1      10.039   4.141   2.996  1.00  0.00    -0.000 C 
BRANCH  20  21
ATOM     21  C   UNL     1       9.935   4.625   4.453  1.00  0.00    -0.000 C 
BRANCH  21  22
ATOM     22  C   UNL     1      10.124   6.145   4.585  1.00  0.00    -0.000 C 
BRANCH  22  23
ATOM     23  C   UNL     1       9.220   6.761   5.663  1.00  0.00    -0.000 C 
BRANCH  23  24
ATOM     24  C   UNL     1       7.822   7.059   5.102  1.00  0.00    -0.000 C 
BRANCH  24  25
ATOM     25  C   UNL     1       7.622   8.549   4.778  1.00  0.00    -0.003 C 
ATOM     26  C   UNL     1       8.941   9.283   4.540  1.00  0.00     0.004 C 
ENDBRANCH  24  25
ENDBRANCH  23  24
ENDBRANCH  22  23
ENDBRANCH  21  22
ENDBRANCH  20  21
ENDBRANCH  19  20
ENDBRANCH  18  19
ENDBRANCH  17  18
ENDBRANCH  16  17
ENDBRANCH  15  16
ENDBRANCH   1  15
TORSDOF 22
ENDMDL
MODEL 2
REMARK VINA RESULT:     1.247      0.772      1.231
REMARK INTER + INTRA:           1.471
REMARK INTER:                   3.065
REMARK INTRA:                  -1.594
REMARK UNBOUND:                -1.379
REMARK SMILES CCCCCCCCCCCCCCCCCCCCCCCC(=O)[O-]
REMARK SMILES IDX 13 1 14 2 15 3 16 4 17 5 18 6 19 7 20 8 21 9 22 10 23 11
REMARK SMILES IDX 24 12 25 13 26 14 12 15 11 16 10 17 9 18 8 19 7 20 6 21 5 22
REMARK SMILES IDX 4 23 3 24 2 25 1 26
REMARK H PARENT
REMARK Flexibility Score: inf
ROOT
ATOM      1  C   UNL     1       4.578   4.706   0.998  1.00  0.00     0.000 C 
ENDROOT
BRANCH   1   2
ATOM      2  C   UNL     1       3.744   3.564   1.619  1.00  0.00     0.000 C 
BRANCH   2   3
ATOM      3  C   UNL     1       2.677   2.937   0.698  1.00  0.00     0.000 C 
BRANCH   3   4
ATOM      4  C   UNL     1       2.900   1.444   0.363  1.00  0.00     0.000 C 
BRANCH   4   5
ATOM      5  C   UNL     1       2.254   1.001  -0.963  1.00  0.00     0.000 C 
BRANCH   5   6
ATOM      6  C   UNL     1       1.579  -0.381  -0.924  1.00  0.00     0.000 C 
BRANCH   6   7
ATOM      7  C   UNL     1       1.624  -1.097   0.443  1.00  0.00     0.000 C 
BRANCH   7   8
ATOM      8  C   UNL     1       0.591  -2.222   0.631  1.00  0.00     0.000 C 
BRANCH   8   9
ATOM      9  C   UNL     1       0.800  -3.013   1.934  1.00  0.00     0.000 C 
BRANCH   9  10
ATOM     10  C   UNL     1      -0.522  -3.530   2.535  1.00  0.00     0.006 C 
BRANCH  10  11
ATOM     11  C   UNL     1      -1.506  -2.427   2.953  1.00  0.00     0.053 C 
BRANCH  11  12
ATOM     12  C   UNL     1      -2.023  -2.631   4.344  1.00  0.00     0.041 C 
ATOM     13  O   UNL     1      -3.080  -2.056   4.719  1.00  0.00    -0.550 OA
ATOM     14  O   UNL     1      -1.352  -3.476   5.220  1.00  0.00    -0.550 OA
ENDBRANCH  11  12
ENDBRANCH  10  11
ENDBRANCH   9  10
ENDBRANCH   8   9
ENDBRANCH   7   8
ENDBRANCH   6   7
ENDBRANCH   5   6
ENDBRANCH   4   5
ENDBRANCH   3   4
ENDBRANCH   2   3
ENDBRANCH   1   2
BRANCH   1  15
ATOM     15  C   UNL     1       5.631   5.333   1.929  1.00  0.00     0.000 C 
BRANCH  15  16
ATOM     16  C   UNL     1       6.623   6.240   1.182  1.00  0.00     0.000 C 
BRANCH  16  17
ATOM     17  C   UNL     1       7.963   5.536   0.877  1.00  0.00     0.000 C 
BRANCH  17  18
ATOM     18  C   UNL     1       9.073   5.826   1.905  1.00  0.00    -0.000 C 
BRANCH  18  19
ATOM     19  C   UNL     1       9.745   4.585   2.520  1.00  0.00    -0.000 C 
BRANCH  19  20
ATOM     20  C   UNL     1      10.020   4.676   4.033  1.00  0.00    -0.000 C 
BRANCH  20  21
ATOM     21  C   UNL     1       9.010   5.573   4.769  1.00  0.00    -0.000 C 
BRANCH  21  22
ATOM     22  C   UNL     1       9.658   6.844   5.342  1.00  0.00    -0.000 C 
BRANCH  22  23
ATOM     23  C   UNL     1       8.916   8.124   4.926  1.00  0.00    -0.000 C 
BRANCH  23  24
ATOM     24  C   UNL     1       7.433   7.835   4.655  1.00  0.00    -0.000 C 
BRANCH  24  25
ATOM     25  C   UNL     1       6.533   9.048   4.942  1.00  0.00    -0.003 C 
ATOM     26  C   UNL     1       5.195   8.977   4.207  1.00  0.00     0.004 C 
ENDBRANCH  24  25
ENDBRANCH  23  24
ENDBRANCH  22  23
ENDBRANCH  21  22
ENDBRANCH  20  21
ENDBRANCH  19  20
ENDBRANCH  18  19
ENDBRANCH  17  18
ENDBRANCH  16  17
ENDBRANCH  15  16
ENDBRANCH   1  15
TORSDOF 22
ENDMDL
MODEL 3
REMARK VINA RESULT:     1.362      4.274     11.360
REMARK INTER + INTRA:           1.735
REMARK INTER:                   3.068
REMARK INTRA:                  -1.333
REMARK UNBOUND:                -1.379
REMARK SMILES CCCCCCCCCCCCCCCCCCCCCCCC(=O)[O-]
REMARK SMILES IDX 13 1 14 2 15 3 16 4 17 5 18 6 19 7 20 8 21 9 22 10 23 11
REMARK SMILES IDX 24 12 25 13 26 14 12 15 11 16 10 17 9 18 8 19 7 20 6 21 5 22
REMARK SMILES IDX 4 23 3 24 2 25 1 26
REMARK H PARENT
REMARK Flexibility Score: inf
ROOT
ATOM      1  C   UNL     1       4.425   4.252   0.845  1.00  0.00     0.000 C 
ENDROOT
BRANCH   1   2
ATOM      2  C   UNL     1       5.204   4.992   1.953  1.00  0.00     0.000 C 
BRANCH   2   3
ATOM      3  C   UNL     1       6.244   6.023   1.467  1.00  0.00     0.000 C 
BRANCH   3   4
ATOM      4  C   UNL     1       7.620   5.432   1.084  1.00  0.00     0.000 C 
BRANCH   4   5
ATOM      5  C   UNL     1       8.780   6.439   1.186  1.00  0.00     0.000 C 
BRANCH   5   6
ATOM      6  C   UNL     1      10.123   5.837   1.636  1.00  0.00     0.000 C 
BRANCH   6   7
ATOM      7  C   UNL     1      10.015   4.605   2.561  1.00  0.00     0.000 C 
BRANCH   7   8
ATOM      8  C   UNL     1       9.390   4.873   3.941  1.00  0.00     0.000 C 
BRANCH   8   9
ATOM      9  C   UNL     1      10.117   5.981   4.721  1.00  0.00     0.000 C 
BRANCH   9  10
ATOM     10  C   UNL     1       9.168   6.801   5.616  1.00  0.00     0.006 C 
BRANCH  10  11
ATOM     11  C   UNL     1       7.783   7.063   5.004  1.00  0.00     0.053 C 
BRANCH  11  12
ATOM     12  C   UNL     1       7.527   8.523   4.792  1.00  0.00     0.041 C 
ATOM     13  O   UNL     1       8.448   9.274   4.371  1.00  0.00    -0.550 OA
ATOM     14  O   UNL     1       6.265   9.051   5.034  1.00  0.00    -0.550 OA
ENDBRANCH  11  12
ENDBRANCH  10  11
ENDBRANCH   9  10
ENDBRANCH   8   9
ENDBRANCH   7   8
ENDBRANCH   6   7
ENDBRANCH   5   6
ENDBRANCH   4   5
ENDBRANCH   3   4
ENDBRANCH   2   3
ENDBRANCH   1   2
BRANCH   1  15
ATOM     15  C   UNL     1       3.311   3.313   1.340  1.00  0.00     0.000 C 
BRANCH  15  16
ATOM     16  C   UNL     1       2.494   2.698   0.191  1.00  0.00     0.000 C 
BRANCH  16  17
ATOM     17  C   UNL     1       2.839   1.214  -0.060  1.00  0.00     0.000 C 
BRANCH  17  18
ATOM     18  C   UNL     1       1.795   0.461  -0.908  1.00  0.00    -0.000 C 
BRANCH  18  19
ATOM     19  C   UNL     1       1.490  -0.978  -0.454  1.00  0.00    -0.000 C 
BRANCH  19  20
ATOM     20  C   UNL     1       1.694  -1.243   1.049  1.00  0.00    -0.000 C 
BRANCH  20  21
ATOM     21  C   UNL     1       1.179  -2.625   1.485  1.00  0.00    -0.000 C 
BRANCH  21  22
ATOM     22  C   UNL     1      -0.351  -2.668   1.626  1.00  0.00    -0.000 C 
BRANCH  22  23
ATOM     23  C   UNL     1      -0.807  -3.398   2.899  1.00  0.00    -0.000 C 
BRANCH  23  24
ATOM     24  C   UNL     1      -1.952  -2.639   3.586  1.00  0.00    -0.000 C 
BRANCH  24  25
ATOM     25  C   UNL     1      -2.012  -2.907   5.099  1.00  0.00    -0.003 C 
ATOM     26  C   UNL     1      -3.270  -2.333   5.749  1.00  0.00     0.004 C 
ENDBRANCH  24  25
ENDBRANCH  23  24
ENDBRANCH  22  23
ENDBRANCH  21  22
ENDBRANCH  20  21
ENDBRANCH  19  20
ENDBRANCH  18  19
ENDBRANCH  17  18
ENDBRANCH  16  17
ENDBRANCH  15  16
ENDBRANCH   1  15
TORSDOF 22
ENDMDL
MODEL 4
REMARK VINA RESULT:     1.425      0.941      2.485
REMARK INTER + INTRA:           1.880
REMARK INTER:                   3.385
REMARK INTRA:                  -1.506
REMARK UNBOUND:                -1.379
REMARK SMILES CCCCCCCCCCCCCCCCCCCCCCCC(=O)[O-]
REMARK SMILES IDX 13 1 14 2 15 3 16 4 17 5 18 6 19 7 20 8 21 9 22 10 23 11
REMARK SMILES IDX 24 12 25 13 26 14 12 15 11 16 10 17 9 18 8 19 7 20 6 21 5 22
REMARK SMILES IDX 4 23 3 24 2 25 1 26
REMARK H PARENT
REMARK Flexibility Score: inf
ROOT
ATOM      1  C   UNL     1       4.856   5.132   1.165  1.00  0.00     0.000 C 
ENDROOT
BRANCH   1   2
ATOM      2  C   UNL     1       4.226   3.837   1.720  1.00  0.00     0.000 C 
BRANCH   2   3
ATOM      3  C   UNL     1       3.040   3.269   0.913  1.00  0.00     0.000 C 
BRANCH   3   4
ATOM      4  C   UNL     1       3.090   1.744   0.664  1.00  0.00     0.000 C 
BRANCH   4   5
ATOM      5  C   UNL     1       2.716   1.336  -0.773  1.00  0.00     0.000 C 
BRANCH   5   6
ATOM      6  C   UNL     1       1.814   0.093  -0.878  1.00  0.00     0.000 C 
BRANCH   6   7
ATOM      7  C   UNL     1       1.731  -0.770   0.399  1.00  0.00     0.000 C 
BRANCH   7   8
ATOM      8  C   UNL     1       0.719  -1.928   0.345  1.00  0.00     0.000 C 
BRANCH   8   9
ATOM      9  C   UNL     1       0.768  -2.822   1.596  1.00  0.00     0.000 C 
BRANCH   9  10
ATOM     10  C   UNL     1      -0.105  -2.284   2.747  1.00  0.00     0.006 C 
BRANCH  10  11
ATOM     11  C   UNL     1      -1.198  -3.252   3.223  1.00  0.00     0.053 C 
BRANCH  11  12
ATOM     12  C   UNL     1      -1.874  -2.770   4.470  1.00  0.00     0.041 C 
ATOM     13  O   UNL     1      -1.423  -3.093   5.602  1.00  0.00    -0.550 OA
ATOM     14  O   UNL     1      -2.988  -1.943   4.383  1.00  0.00    -0.550 OA
ENDBRANCH  11  12
ENDBRANCH  10  11
ENDBRANCH   9  10
ENDBRANCH   8   9
ENDBRANCH   7   8
ENDBRANCH   6   7
ENDBRANCH   5   6
ENDBRANCH   4   5
ENDBRANCH   3   4
ENDBRANCH   2   3
ENDBRANCH   1   2
BRANCH   1  15
ATOM     15  C   UNL     1       6.086   5.647   1.933  1.00  0.00     0.000 C 
BRANCH  15  16
ATOM     16  C   UNL     1       5.776   5.984   3.401  1.00  0.00     0.000 C 
BRANCH  16  17
ATOM     17  C   UNL     1       5.862   7.497   3.698  1.00  0.00     0.000 C 
BRANCH  17  18
ATOM     18  C   UNL     1       6.999   7.883   4.665  1.00  0.00    -0.000 C 
BRANCH  18  19
ATOM     19  C   UNL     1       7.826   6.707   5.215  1.00  0.00    -0.000 C 
BRANCH  19  20
ATOM     20  C   UNL     1       9.350   6.926   5.214  1.00  0.00    -0.000 C 
BRANCH  20  21
ATOM     21  C   UNL     1      10.125   5.721   4.654  1.00  0.00    -0.000 C 
BRANCH  21  22
ATOM     22  C   UNL     1       9.246   4.805   3.787  1.00  0.00    -0.000 C 
BRANCH  22  23
ATOM     23  C   UNL     1      10.047   4.079   2.696  1.00  0.00    -0.000 C 
BRANCH  23  24
ATOM     24  C   UNL     1      10.125   4.927   1.417  1.00  0.00    -0.000 C 
BRANCH  24  25
ATOM     25  C   UNL     1       9.345   6.247   1.536  1.00  0.00    -0.003 C 
ATOM     26  C   UNL     1      10.012   7.396   0.781  1.00  0.00     0.004 C 
ENDBRANCH  24  25
ENDBRANCH  23  24
ENDBRANCH  22  23
ENDBRANCH  21  22
ENDBRANCH  20  21
ENDBRANCH  19  20
ENDBRANCH  18  19
ENDBRANCH  17  18
ENDBRANCH  16  17
ENDBRANCH  15  16
ENDBRANCH   1  15
TORSDOF 22
ENDMDL
MODEL 5
REMARK VINA RESULT:     1.546      3.982     11.341
REMARK INTER + INTRA:           2.155
REMARK INTER:                   3.220
REMARK INTRA:                  -1.065
REMARK UNBOUND:                -1.379
REMARK SMILES CCCCCCCCCCCCCCCCCCCCCCCC(=O)[O-]
REMARK SMILES IDX 13 1 14 2 15 3 16 4 17 5 18 6 19 7 20 8 21 9 22 10 23 11
REMARK SMILES IDX 24 12 25 13 26 14 12 15 11 16 10 17 9 18 8 19 7 20 6 21 5 22
REMARK SMILES IDX 4 23 3 24 2 25 1 26
REMARK H PARENT
REMARK Flexibility Score: inf
ROOT
ATOM      1  C   UNL     1       4.502   4.608   1.094  1.00  0.00     0.000 C 
ENDROOT
BRANCH   1   2
ATOM      2  C   UNL     1       5.363   5.276   2.187  1.00  0.00     0.000 C 
BRANCH   2   3
ATOM      3  C   UNL     1       6.483   6.209   1.681  1.00  0.00     0.000 C 
BRANCH   3   4
ATOM      4  C   UNL     1       7.589   5.512   0.856  1.00  0.00     0.000 C 
BRANCH   4   5
ATOM      5  C   UNL     1       8.832   5.127   1.682  1.00  0.00     0.000 C 
BRANCH   5   6
ATOM      6  C   UNL     1       9.245   6.159   2.746  1.00  0.00     0.000 C 
BRANCH   6   7
ATOM      7  C   UNL     1       9.054   5.707   4.210  1.00  0.00     0.000 C 
BRANCH   7   8
ATOM      8  C   UNL     1       9.321   6.788   5.272  1.00  0.00     0.000 C 
BRANCH   8   9
ATOM      9  C   UNL     1       9.532   8.184   4.662  1.00  0.00     0.000 C 
BRANCH   9  10
ATOM     10  C   UNL     1       8.222   8.988   4.545  1.00  0.00     0.006 C 
BRANCH  10  11
ATOM     11  C   UNL     1       6.946   8.160   4.759  1.00  0.00     0.053 C 
BRANCH  11  12
ATOM     12  C   UNL     1       5.728   9.023   4.882  1.00  0.00     0.041 C 
ATOM     13  O   UNL     1       4.789   8.918   4.048  1.00  0.00    -0.550 OA
ATOM     14  O   UNL     1       5.618   9.926   5.933  1.00  0.00    -0.550 OA
ENDBRANCH  11  12
ENDBRANCH  10  11
ENDBRANCH   9  10
ENDBRANCH   8   9
ENDBRANCH   7   8
ENDBRANCH   6   7
ENDBRANCH   5   6
ENDBRANCH   4   5
ENDBRANCH   3   4
ENDBRANCH   2   3
ENDBRANCH   1   2
BRANCH   1  15
ATOM     15  C   UNL     1       3.683   3.389   1.555  1.00  0.00     0.000 C 
BRANCH  15  16
ATOM     16  C   UNL     1       2.719   2.873   0.473  1.00  0.00     0.000 C 
BRANCH  16  17
ATOM     17  C   UNL     1       2.963   1.391   0.115  1.00  0.00     0.000 C 
BRANCH  17  18
ATOM     18  C   UNL     1       1.959   0.819  -0.905  1.00  0.00    -0.000 C 
BRANCH  18  19
ATOM     19  C   UNL     1       1.615  -0.671  -0.729  1.00  0.00    -0.000 C 
BRANCH  19  20
ATOM     20  C   UNL     1       1.532  -1.151   0.732  1.00  0.00    -0.000 C 
BRANCH  20  21
ATOM     21  C   UNL     1       0.759  -2.472   0.882  1.00  0.00    -0.000 C 
BRANCH  21  22
ATOM     22  C   UNL     1       0.399  -2.783   2.344  1.00  0.00    -0.000 C 
BRANCH  22  23
ATOM     23  C   UNL     1      -1.103  -2.638   2.626  1.00  0.00    -0.000 C 
BRANCH  23  24
ATOM     24  C   UNL     1      -1.527  -3.521   3.809  1.00  0.00    -0.000 C 
BRANCH  24  25
ATOM     25  C   UNL     1      -1.699  -2.722   5.111  1.00  0.00    -0.003 C 
ATOM     26  C   UNL     1      -3.091  -2.106   5.245  1.00  0.00     0.004 C 
ENDBRANCH  24  25
ENDBRANCH  23  24
ENDBRANCH  22  23
ENDBRANCH  21  22
ENDBRANCH  20  21
ENDBRANCH  19  20
ENDBRANCH  18  19
ENDBRANCH  17  18
ENDBRANCH  16  17
ENDBRANCH  15  16
ENDBRANCH   1  15
TORSDOF 22
ENDMDL
MODEL 6
REMARK VINA RESULT:     1.839      3.890     11.332
REMARK INTER + INTRA:           2.824
REMARK INTER:                   4.203
REMARK INTRA:                  -1.378
REMARK UNBOUND:                -1.379
REMARK SMILES CCCCCCCCCCCCCCCCCCCCCCCC(=O)[O-]
REMARK SMILES IDX 13 1 14 2 15 3 16 4 17 5 18 6 19 7 20 8 21 9 22 10 23 11
REMARK SMILES IDX 24 12 25 13 26 14 12 15 11 16 10 17 9 18 8 19 7 20 6 21 5 22
REMARK SMILES IDX 4 23 3 24 2 25 1 26
REMARK H PARENT
REMARK Flexibility Score: inf
ROOT
ATOM      1  C   UNL     1       4.160   3.745   1.593  1.00  0.00     0.000 C 
ENDROOT
BRANCH   1   2
ATOM      2  C   UNL     1       4.801   5.066   1.117  1.00  0.00     0.000 C 
BRANCH   2   3
ATOM      3  C   UNL     1       6.014   5.556   1.935  1.00  0.00     0.000 C 
BRANCH   3   4
ATOM      4  C   UNL     1       5.704   5.926   3.403  1.00  0.00     0.000 C 
BRANCH   4   5
ATOM      5  C   UNL     1       6.227   7.315   3.818  1.00  0.00     0.000 C 
BRANCH   5   6
ATOM      6  C   UNL     1       7.378   7.295   4.839  1.00  0.00     0.000 C 
BRANCH   6   7
ATOM      7  C   UNL     1       8.668   8.015   4.391  1.00  0.00     0.000 C 
BRANCH   7   8
ATOM      8  C   UNL     1       9.946   7.160   4.430  1.00  0.00     0.000 C 
BRANCH   8   9
ATOM      9  C   UNL     1       9.707   5.756   5.012  1.00  0.00     0.000 C 
BRANCH   9  10
ATOM     10  C   UNL     1      10.027   4.632   4.006  1.00  0.00     0.006 C 
BRANCH  10  11
ATOM     11  C   UNL     1       9.965   5.060   2.532  1.00  0.00     0.053 C 
BRANCH  11  12
ATOM     12  C   UNL     1       9.750   3.895   1.616  1.00  0.00     0.041 C 
ATOM     13  O   UNL     1      10.075   2.733   1.980  1.00  0.00    -0.550 OA
ATOM     14  O   UNL     1       9.169   4.088   0.368  1.00  0.00    -0.550 OA
ENDBRANCH  11  12
ENDBRANCH  10  11
ENDBRANCH   9  10
ENDBRANCH   8   9
ENDBRANCH   7   8
ENDBRANCH   6   7
ENDBRANCH   5   6
ENDBRANCH   4   5
ENDBRANCH   3   4
ENDBRANCH   2   3
ENDBRANCH   1   2
BRANCH   1  15
ATOM     15  C   UNL     1       2.987   3.236   0.737  1.00  0.00     0.000 C 
BRANCH  15  16
ATOM     16  C   UNL     1       3.114   1.746   0.375  1.00  0.00     0.000 C 
BRANCH  16  17
ATOM     17  C   UNL     1       2.407   1.392  -0.951  1.00  0.00     0.000 C 
BRANCH  17  18
ATOM     18  C   UNL     1       1.737   0.004  -0.953  1.00  0.00    -0.000 C 
BRANCH  18  19
ATOM     19  C   UNL     1       1.624  -0.678   0.422  1.00  0.00    -0.000 C 
BRANCH  19  20
ATOM     20  C   UNL     1       1.290  -2.180   0.378  1.00  0.00    -0.000 C 
BRANCH  20  21
ATOM     21  C   UNL     1       0.979  -2.762   1.767  1.00  0.00    -0.000 C 
BRANCH  21  22
ATOM     22  C   UNL     1      -0.531  -2.848   2.047  1.00  0.00    -0.000 C 
BRANCH  22  23
ATOM     23  C   UNL     1      -0.932  -2.136   3.347  1.00  0.00    -0.000 C 
BRANCH  23  24
ATOM     24  C   UNL     1      -2.297  -2.632   3.845  1.00  0.00    -0.000 C 
BRANCH  24  25
ATOM     25  C   UNL     1      -2.313  -2.897   5.360  1.00  0.00    -0.003 C 
ATOM     26  C   UNL     1      -3.517  -2.266   6.057  1.00  0.00     0.004 C 
ENDBRANCH  24  25
ENDBRANCH  23  24
ENDBRANCH  22  23
ENDBRANCH  21  22
ENDBRANCH  20  21
ENDBRANCH  19  20
ENDBRANCH  18  19
ENDBRANCH  17  18
ENDBRANCH  16  17
ENDBRANCH  15  16
ENDBRANCH   1  15
TORSDOF 22
ENDMDL
MODEL 7
REMARK VINA RESULT:     2.153      1.052      2.090
REMARK INTER + INTRA:           3.542
REMARK INTER:                   4.894
REMARK INTRA:                  -1.352
REMARK UNBOUND:                -1.379
REMARK SMILES CCCCCCCCCCCCCCCCCCCCCCCC(=O)[O-]
REMARK SMILES IDX 13 1 14 2 15 3 16 4 17 5 18 6 19 7 20 8 21 9 22 10 23 11
REMARK SMILES IDX 24 12 25 13 26 14 12 15 11 16 10 17 9 18 8 19 7 20 6 21 5 22
REMARK SMILES IDX 4 23 3 24 2 25 1 26
REMARK H PARENT
REMARK Flexibility Score: inf
ROOT
ATOM      1  C   UNL     1       2.994   2.953   1.184  1.00  0.00     0.000 C 
ENDROOT
BRANCH   1   2
ATOM      2  C   UNL     1       3.323   1.612   0.494  1.00  0.00     0.000 C 
BRANCH   2   3
ATOM      3  C   UNL     1       2.566   1.333  -0.822  1.00  0.00     0.000 C 
BRANCH   3   4
ATOM      4  C   UNL     1       1.784  -0.001  -0.854  1.00  0.00     0.000 C 
BRANCH   4   5
ATOM      5  C   UNL     1       1.771  -0.746   0.494  1.00  0.00     0.000 C 
BRANCH   5   6
ATOM      6  C   UNL     1       0.760  -1.903   0.583  1.00  0.00     0.000 C 
BRANCH   6   7
ATOM      7  C   UNL     1       1.302  -3.204   1.213  1.00  0.00     0.000 C 
BRANCH   7   8
ATOM      8  C   UNL     1       0.392  -3.851   2.272  1.00  0.00     0.000 C 
BRANCH   8   9
ATOM      9  C   UNL     1      -0.938  -3.101   2.455  1.00  0.00     0.000 C 
BRANCH   9  10
ATOM     10  C   UNL     1      -1.776  -3.650   3.625  1.00  0.00     0.006 C 
BRANCH  10  11
ATOM     11  C   UNL     1      -1.652  -2.848   4.930  1.00  0.00     0.053 C 
BRANCH  11  12
ATOM     12  C   UNL     1      -2.822  -1.939   5.146  1.00  0.00     0.041 C 
ATOM     13  O   UNL     1      -3.814  -2.330   5.818  1.00  0.00    -0.550 OA
ATOM     14  O   UNL     1      -2.808  -0.650   4.627  1.00  0.00    -0.550 OA
ENDBRANCH  11  12
ENDBRANCH  10  11
ENDBRANCH   9  10
ENDBRANCH   8   9
ENDBRANCH   7   8
ENDBRANCH   6   7
ENDBRANCH   5   6
ENDBRANCH   4   5
ENDBRANCH   3   4
ENDBRANCH   2   3
ENDBRANCH   1   2
BRANCH   1  15
ATOM     15  C   UNL     1       3.850   4.150   0.736  1.00  0.00     0.000 C 
BRANCH  15  16
ATOM     16  C   UNL     1       4.921   4.539   1.770  1.00  0.00     0.000 C 
BRANCH  16  17
ATOM     17  C   UNL     1       5.592   5.893   1.455  1.00  0.00     0.000 C 
BRANCH  17  18
ATOM     18  C   UNL     1       7.058   5.991   1.919  1.00  0.00    -0.000 C 
BRANCH  18  19
ATOM     19  C   UNL     1       8.112   5.591   0.870  1.00  0.00    -0.000 C 
BRANCH  19  20
ATOM     20  C   UNL     1       9.307   4.790   1.421  1.00  0.00    -0.000 C 
BRANCH  20  21
ATOM     21  C   UNL     1       9.810   5.325   2.772  1.00  0.00    -0.000 C 
BRANCH  21  22
ATOM     22  C   UNL     1      10.115   6.831   2.735  1.00  0.00    -0.000 C 
BRANCH  22  23
ATOM     23  C   UNL     1       9.852   7.521   4.083  1.00  0.00    -0.000 C 
BRANCH  23  24
ATOM     24  C   UNL     1       9.165   6.561   5.065  1.00  0.00    -0.000 C 
BRANCH  24  25
ATOM     25  C   UNL     1       7.717   6.973   5.376  1.00  0.00    -0.003 C 
ATOM     26  C   UNL     1       7.368   8.358   4.833  1.00  0.00     0.004 C 
ENDBRANCH  24  25
ENDBRANCH  23  24
ENDBRANCH  22  23
ENDBRANCH  21  22
ENDBRANCH  20  21
ENDBRANCH  19  20
ENDBRANCH  18  19
ENDBRANCH  17  18
ENDBRANCH  16  17
ENDBRANCH  15  16
ENDBRANCH   1  15
TORSDOF 22
ENDMDL
MODEL 8
REMARK VINA RESULT:     2.172     16.560     19.176
REMARK INTER + INTRA:           3.587
REMARK INTER:                   3.856
REMARK INTRA:                  -0.269
REMARK UNBOUND:                -1.379
REMARK SMILES CCCCCCCCCCCCCCCCCCCCCCCC(=O)[O-]
REMARK SMILES IDX 13 1 14 2 15 3 16 4 17 5 18 6 19 7 20 8 21 9 22 10 23 11
REMARK SMILES IDX 24 12 25 13 26 14 12 15 11 16 10 17 9 18 8 19 7 20 6 21 5 22
REMARK SMILES IDX 4 23 3 24 2 25 1 26
REMARK H PARENT
REMARK Flexibility Score: inf
ROOT
ATOM      1  C   UNL     1      -8.792  -4.526  -6.028  1.00  0.00     0.000 C 
ENDROOT
BRANCH   1   2
ATOM      2  C   UNL     1      -9.634  -5.386  -6.994  1.00  0.00     0.000 C 
BRANCH   2   3
ATOM      3  C   UNL     1      -9.633  -4.932  -8.469  1.00  0.00     0.000 C 
BRANCH   3   4
ATOM      4  C   UNL     1     -10.123  -5.996  -9.479  1.00  0.00     0.000 C 
BRANCH   4   5
ATOM      5  C   UNL     1      -9.004  -6.914 -10.006  1.00  0.00     0.000 C 
BRANCH   5   6
ATOM      6  C   UNL     1      -8.312  -7.772  -8.932  1.00  0.00     0.000 C 
BRANCH   6   7
ATOM      7  C   UNL     1      -8.630  -9.282  -8.991  1.00  0.00     0.000 C 
BRANCH   7   8
ATOM      8  C   UNL     1      -9.951  -9.702  -8.323  1.00  0.00     0.000 C 
BRANCH   8   9
ATOM      9  C   UNL     1     -10.123  -9.110  -6.914  1.00  0.00     0.000 C 
BRANCH   9  10
ATOM     10  C   UNL     1      -9.801 -10.123  -5.799  1.00  0.00     0.006 C 
BRANCH  10  11
ATOM     11  C   UNL     1      -8.521  -9.814  -5.007  1.00  0.00     0.053 C 
BRANCH  11  12
ATOM     12  C   UNL     1      -7.422  -9.307  -5.889  1.00  0.00     0.041 C 
ATOM     13  O   UNL     1      -6.654 -10.117  -6.475  1.00  0.00    -0.550 OA
ATOM     14  O   UNL     1      -7.259  -7.941  -6.084  1.00  0.00    -0.550 OA
ENDBRANCH  11  12
ENDBRANCH  10  11
ENDBRANCH   9  10
ENDBRANCH   8   9
ENDBRANCH   7   8
ENDBRANCH   6   7
ENDBRANCH   5   6
ENDBRANCH   4   5
ENDBRANCH   3   4
ENDBRANCH   2   3
ENDBRANCH   1   2
BRANCH   1  15
ATOM     15  C   UNL     1      -7.757  -3.605  -6.698  1.00  0.00     0.000 C 
BRANCH  15  16
ATOM     16  C   UNL     1      -6.311  -3.932  -6.286  1.00  0.00     0.000 C 
BRANCH  16  17
ATOM     17  C   UNL     1      -5.725  -5.131  -7.062  1.00  0.00     0.000 C 
BRANCH  17  18
ATOM     18  C   UNL     1      -6.355  -5.347  -8.452  1.00  0.00    -0.000 C 
BRANCH  18  19
ATOM     19  C   UNL     1      -5.555  -6.253  -9.406  1.00  0.00    -0.000 C 
BRANCH  19  20
ATOM     20  C   UNL     1      -5.465  -7.730  -8.978  1.00  0.00    -0.000 C 
BRANCH  20  21
ATOM     21  C   UNL     1      -4.971  -8.649 -10.107  1.00  0.00    -0.000 C 
BRANCH  21  22
ATOM     22  C   UNL     1      -3.444  -8.828 -10.097  1.00  0.00    -0.000 C 
BRANCH  22  23
ATOM     23  C   UNL     1      -2.988  -9.957  -9.160  1.00  0.00    -0.000 C 
BRANCH  23  24
ATOM     24  C   UNL     1      -3.931 -10.083  -7.954  1.00  0.00    -0.000 C 
BRANCH  24  25
ATOM     25  C   UNL     1      -3.260  -9.667  -6.635  1.00  0.00    -0.003 C 
ATOM     26  C   UNL     1      -3.235  -8.151  -6.438  1.00  0.00     0.004 C 
ENDBRANCH  24  25
ENDBRANCH  23  24
ENDBRANCH  22  23
ENDBRANCH  21  22
ENDBRANCH  20  21
ENDBRANCH  19  20
ENDBRANCH  18  19
ENDBRANCH  17  18
ENDBRANCH  16  17
ENDBRANCH  15  16
ENDBRANCH   1  15
TORSDOF 22
ENDMDL
MODEL 9
REMARK VINA RESULT:     2.191      3.332     10.538
REMARK INTER + INTRA:           3.630
REMARK INTER:                   4.818
REMARK INTRA:                  -1.188
REMARK UNBOUND:                -1.379
REMARK SMILES CCCCCCCCCCCCCCCCCCCCCCCC(=O)[O-]
REMARK SMILES IDX 13 1 14 2 15 3 16 4 17 5 18 6 19 7 20 8 21 9 22 10 23 11
REMARK SMILES IDX 24 12 25 13 26 14 12 15 11 16 10 17 9 18 8 19 7 20 6 21 5 22
REMARK SMILES IDX 4 23 3 24 2 25 1 26
REMARK H PARENT
REMARK Flexibility Score: inf
ROOT
ATOM      1  C   UNL     1       5.380   4.458   1.359  1.00  0.00     0.000 C 
ENDROOT
BRANCH   1   2
ATOM      2  C   UNL     1       5.635   5.882   1.898  1.00  0.00     0.000 C 
BRANCH   2   3
ATOM      3  C   UNL     1       5.620   6.029   3.434  1.00  0.00     0.000 C 
BRANCH   3   4
ATOM      4  C   UNL     1       6.732   6.933   4.013  1.00  0.00     0.000 C 
BRANCH   4   5
ATOM      5  C   UNL     1       8.070   6.204   4.242  1.00  0.00     0.000 C 
BRANCH   5   6
ATOM      6  C   UNL     1       9.234   6.696   3.363  1.00  0.00     0.000 C 
BRANCH   6   7
ATOM      7  C   UNL     1       9.170   6.263   1.883  1.00  0.00     0.000 C 
BRANCH   7   8
ATOM      8  C   UNL     1       9.359   4.757   1.630  1.00  0.00     0.000 C 
BRANCH   8   9
ATOM      9  C   UNL     1       9.946   4.017   2.844  1.00  0.00     0.000 C 
BRANCH   9  10
ATOM     10  C   UNL     1      10.125   2.507   2.591  1.00  0.00     0.006 C 
BRANCH  10  11
ATOM     11  C   UNL     1      10.125   1.645   3.863  1.00  0.00     0.053 C 
BRANCH  11  12
ATOM     12  C   UNL     1       9.527   0.292   3.626  1.00  0.00     0.041 C 
ATOM     13  O   UNL     1       8.773  -0.229   4.491  1.00  0.00    -0.550 OA
ATOM     14  O   UNL     1       9.782  -0.384   2.438  1.00  0.00    -0.550 OA
ENDBRANCH  11  12
ENDBRANCH  10  11
ENDBRANCH   9  10
ENDBRANCH   8   9
ENDBRANCH   7   8
ENDBRANCH   6   7
ENDBRANCH   5   6
ENDBRANCH   4   5
ENDBRANCH   3   4
ENDBRANCH   2   3
ENDBRANCH   1   2
BRANCH   1  15
ATOM     15  C   UNL     1       4.014   3.851   1.725  1.00  0.00     0.000 C 
BRANCH  15  16
ATOM     16  C   UNL     1       3.259   3.297   0.504  1.00  0.00     0.000 C 
BRANCH  16  17
ATOM     17  C   UNL     1       2.940   1.793   0.631  1.00  0.00     0.000 C 
BRANCH  17  18
ATOM     18  C   UNL     1       2.424   1.148  -0.671  1.00  0.00    -0.000 C 
BRANCH  18  19
ATOM     19  C   UNL     1       1.566  -0.118  -0.486  1.00  0.00    -0.000 C 
BRANCH  19  20
ATOM     20  C   UNL     1       1.543  -0.685   0.945  1.00  0.00    -0.000 C 
BRANCH  20  21
ATOM     21  C   UNL     1       1.767  -2.206   0.987  1.00  0.00    -0.000 C 
BRANCH  21  22
ATOM     22  C   UNL     1       0.533  -2.970   1.494  1.00  0.00    -0.000 C 
BRANCH  22  23
ATOM     23  C   UNL     1      -0.107  -2.310   2.724  1.00  0.00    -0.000 C 
BRANCH  23  24
ATOM     24  C   UNL     1      -1.496  -2.903   3.004  1.00  0.00    -0.000 C 
BRANCH  24  25
ATOM     25  C   UNL     1      -1.852  -2.891   4.500  1.00  0.00    -0.003 C 
ATOM     26  C   UNL     1      -3.053  -2.000   4.813  1.00  0.00     0.004 C 
ENDBRANCH  24  25
ENDBRANCH  23  24
ENDBRANCH  22  23
ENDBRANCH  21  22
ENDBRANCH  20  21
ENDBRANCH  19  20
ENDBRANCH  18  19
ENDBRANCH  17  18
ENDBRANCH  16  17
ENDBRANCH  15  16
ENDBRANCH   1  15
TORSDOF 22
ENDMDL
