MODEL 1
REMARK VINA RESULT:    18.139      0.000      0.000
REMARK INTER + INTRA:          20.769
REMARK INTER:                  20.259
REMARK INTRA:                   0.510
REMARK UNBOUND:                 0.510
REMARK SMILES CC1(C)CC[C@@]2(C(=O)[O-])[C@@H](O)C[C@@]3(C)C(=CC[C@H]4[C@@]5(C)CC[C@@H](O)C(C)(C)[C@@H]5CC[C@@]43C)[C@@H]2C1
REMARK SMILES IDX 6 1 5 2 33 3 10 4 4 5 34 6 15 7 12 8 2 9 16 10 13 11 1 12
REMARK SMILES IDX 3 13 17 14 31 15 14 16 18 17 30 18 32 19 19 20 29 21 21 22
REMARK SMILES IDX 20 23 28 24 22 25 25 26 23 27 26 28 27 29 7 30 8 31 9 32
REMARK SMILES IDX 11 33 24 35
REMARK H PARENT 11 34 24 36
REMARK Flexibility Score: inf
ROOT
ATOM      1  C   UNL     1       7.664 -54.153 576.462  1.00  0.00     0.042 C 
ATOM      2  C   UNL     1       7.449 -54.120 578.008  1.00  0.00     0.017 C 
ATOM      3  C   UNL     1       6.264 -53.879 575.831  1.00  0.00     0.030 C 
ATOM      4  C   UNL     1       8.241 -55.544 575.965  1.00  0.00     0.127 C 
ATOM      5  C   UNL     1       6.864 -52.775 578.499  1.00  0.00     0.007 C 
ATOM      6  C   UNL     1       5.686 -52.502 576.239  1.00  0.00     0.015 C 
ATOM      7  C   UNL     1       6.262 -54.225 574.349  1.00  0.00    -0.063 C 
ATOM      8  C   UNL     1       7.230 -56.430 575.179  1.00  0.00     0.044 C 
ATOM      9  C   UNL     1       5.545 -52.360 577.784  1.00  0.00    -0.035 C 
ATOM     10  C   UNL     1       6.224 -53.263 573.386  1.00  0.00    -0.027 C 
ATOM     11  C   UNL     1       6.399 -55.726 574.022  1.00  0.00    -0.003 C 
ATOM     12  C   UNL     1       4.359 -53.203 578.315  1.00  0.00     0.011 C 
ATOM     13  C   UNL     1       5.250 -50.880 578.114  1.00  0.00     0.011 C 
ATOM     14  C   UNL     1       6.462 -53.516 571.912  1.00  0.00     0.032 C 
ATOM     15  C   UNL     1       7.056 -55.910 572.561  1.00  0.00    -0.020 C 
ATOM     16  C   UNL     1       4.962 -56.347 574.110  1.00  0.00     0.017 C 
ATOM     17  C   UNL     1       6.267 -54.999 571.539  1.00  0.00     0.006 C 
ATOM     18  C   UNL     1       6.956 -57.373 572.045  1.00  0.00     0.008 C 
ATOM     19  C   UNL     1       8.565 -55.499 572.661  1.00  0.00     0.012 C 
ATOM     20  C   UNL     1       6.315 -55.404 569.974  1.00  0.00    -0.025 C 
ATOM     21  C   UNL     1       7.590 -57.601 570.661  1.00  0.00     0.005 C 
ATOM     22  C   UNL     1       6.503 -54.149 569.065  1.00  0.00     0.010 C 
ATOM     23  C   UNL     1       4.937 -56.051 569.616  1.00  0.00     0.012 C 
ATOM     24  C   UNL     1       7.499 -56.395 569.676  1.00  0.00     0.003 C 
ATOM     25  C   UNL     1       6.702 -54.463 567.570  1.00  0.00     0.033 C 
ATOM     26  C   UNL     1       7.754 -56.771 568.158  1.00  0.00    -0.006 C 
ATOM     27  C   UNL     1       7.845 -55.462 567.293  1.00  0.00     0.120 C 
ATOM     28  C   UNL     1       9.111 -57.522 568.044  1.00  0.00     0.014 C 
ATOM     29  C   UNL     1       6.669 -57.712 567.547  1.00  0.00     0.014 C 
ENDROOT
BRANCH   1  30
ATOM     30  C   UNL     1       8.690 -53.080 576.086  1.00  0.00     0.051 C 
ATOM     31  O   UNL     1       9.081 -52.968 574.892  1.00  0.00    -0.549 OA
ATOM     32  O   UNL     1       9.119 -52.137 577.011  1.00  0.00    -0.549 OA
ENDBRANCH   1  30
BRANCH   4  33
ATOM     33  O   UNL     1       8.750 -56.285 577.048  1.00  0.00    -0.392 OA
ATOM     34  H   UNL     1       8.072 -56.256 577.774  1.00  0.00     0.210 HD
ENDBRANCH   4  33
BRANCH  27  35
ATOM     35  O   UNL     1       9.098 -54.824 567.403  1.00  0.00    -0.393 OA
ATOM     36  H   UNL     1       9.810 -55.510 567.369  1.00  0.00     0.210 HD
ENDBRANCH  27  35
TORSDOF 3
ENDMDL
