MODEL 1
REMARK VINA RESULT:    -3.066      0.000      0.000
REMARK INTER + INTRA:          -4.283
REMARK INTER:                  -4.052
REMARK INTRA:                  -0.231
REMARK UNBOUND:                -0.231
REMARK SMILES CCCCCCCO
REMARK SMILES IDX 5 1 4 2 3 3 2 4 1 5 6 6 7 7 8 8
REMARK H PARENT 8 9
REMARK Flexibility Score: inf
ROOT
ATOM      1  C   UNL     1     161.795 177.867 187.734  1.00  0.00     0.002 C 
ENDROOT
BRANCH   1   2
ATOM      2  C   UNL     1     160.460 177.115 187.687  1.00  0.00     0.000 C 
BRANCH   2   3
ATOM      3  C   UNL     1     160.251 176.285 188.962  1.00  0.00    -0.000 C 
BRANCH   3   4
ATOM      4  C   UNL     1     160.249 174.774 188.690  1.00  0.00    -0.003 C 
ATOM      5  C   UNL     1     161.643 174.153 188.784  1.00  0.00     0.004 C 
ENDBRANCH   3   4
ENDBRANCH   2   3
ENDBRANCH   1   2
BRANCH   1   6
ATOM      6  C   UNL     1     162.874 177.126 186.933  1.00  0.00     0.028 C 
BRANCH   6   7
ATOM      7  C   UNL     1     164.286 177.588 187.307  1.00  0.00     0.156 C 
BRANCH   7   8
ATOM      8  O   UNL     1     164.749 178.553 186.400  1.00  0.00    -0.396 OA
ATOM      9  H   UNL     1     164.844 178.101 185.522  1.00  0.00     0.210 HD
ENDBRANCH   7   8
ENDBRANCH   6   7
ENDBRANCH   1   6
TORSDOF 6
ENDMDL
MODEL 2
REMARK VINA RESULT:    -3.046      2.062      2.585
REMARK INTER + INTRA:          -4.256
REMARK INTER:                  -3.986
REMARK INTRA:                  -0.270
REMARK UNBOUND:                -0.231
REMARK SMILES CCCCCCCO
REMARK SMILES IDX 5 1 4 2 3 3 2 4 1 5 6 6 7 7 8 8
REMARK H PARENT 8 9
REMARK Flexibility Score: inf
ROOT
ATOM      1  C   UNL     1     161.118 177.123 187.510  1.00  0.00     0.002 C 
ENDROOT
BRANCH   1   2
ATOM      2  C   UNL     1     160.575 176.736 188.890  1.00  0.00     0.000 C 
BRANCH   2   3
ATOM      3  C   UNL     1     159.892 175.361 188.847  1.00  0.00    -0.000 C 
BRANCH   3   4
ATOM      4  C   UNL     1     160.885 174.217 188.593  1.00  0.00    -0.003 C 
ATOM      5  C   UNL     1     160.437 173.284 187.468  1.00  0.00     0.004 C 
ENDBRANCH   3   4
ENDBRANCH   2   3
ENDBRANCH   1   2
BRANCH   1   6
ATOM      6  C   UNL     1     160.045 176.946 186.427  1.00  0.00     0.028 C 
BRANCH   6   7
ATOM      7  C   UNL     1     160.638 176.430 185.111  1.00  0.00     0.156 C 
BRANCH   7   8
ATOM      8  O   UNL     1     161.255 177.472 184.403  1.00  0.00    -0.396 OA
ATOM      9  H   UNL     1     161.847 177.944 185.043  1.00  0.00     0.210 HD
ENDBRANCH   7   8
ENDBRANCH   6   7
ENDBRANCH   1   6
TORSDOF 6
ENDMDL
MODEL 3
REMARK VINA RESULT:    -3.036     15.137     16.127
REMARK INTER + INTRA:          -4.243
REMARK INTER:                  -3.983
REMARK INTRA:                  -0.260
REMARK UNBOUND:                -0.231
REMARK SMILES CCCCCCCO
REMARK SMILES IDX 5 1 4 2 3 3 2 4 1 5 6 6 7 7 8 8
REMARK H PARENT 8 9
REMARK Flexibility Score: inf
ROOT
ATOM      1  C   UNL     1     179.057 174.163 187.738  1.00  0.00     0.002 C 
ENDROOT
BRANCH   1   2
ATOM      2  C   UNL     1     178.715 174.249 189.230  1.00  0.00     0.000 C 
BRANCH   2   3
ATOM      3  C   UNL     1     177.372 174.960 189.446  1.00  0.00    -0.000 C 
BRANCH   3   4
ATOM      4  C   UNL     1     176.403 174.140 190.312  1.00  0.00    -0.003 C 
ATOM      5  C   UNL     1     176.251 172.698 189.826  1.00  0.00     0.004 C 
ENDBRANCH   3   4
ENDBRANCH   2   3
ENDBRANCH   1   2
BRANCH   1   6
ATOM      6  C   UNL     1     177.845 174.535 186.873  1.00  0.00     0.028 C 
BRANCH   6   7
ATOM      7  C   UNL     1     178.239 174.798 185.416  1.00  0.00     0.156 C 
BRANCH   7   8
ATOM      8  O   UNL     1     179.045 175.943 185.318  1.00  0.00    -0.396 OA
ATOM      9  H   UNL     1     179.161 176.132 184.352  1.00  0.00     0.210 HD
ENDBRANCH   7   8
ENDBRANCH   6   7
ENDBRANCH   1   6
TORSDOF 6
ENDMDL
MODEL 4
REMARK VINA RESULT:    -2.965     19.584     20.312
REMARK INTER + INTRA:          -4.149
REMARK INTER:                  -3.905
REMARK INTRA:                  -0.244
REMARK UNBOUND:                -0.231
REMARK SMILES CCCCCCCO
REMARK SMILES IDX 5 1 4 2 3 3 2 4 1 5 6 6 7 7 8 8
REMARK H PARENT 8 9
REMARK Flexibility Score: inf
ROOT
ATOM      1  C   UNL     1     176.627 163.984 188.505  1.00  0.00     0.002 C 
ENDROOT
BRANCH   1   2
ATOM      2  C   UNL     1     177.157 163.149 189.677  1.00  0.00     0.000 C 
BRANCH   2   3
ATOM      3  C   UNL     1     177.134 161.651 189.340  1.00  0.00    -0.000 C 
BRANCH   3   4
ATOM      4  C   UNL     1     176.270 161.336 188.109  1.00  0.00    -0.003 C 
ATOM      5  C   UNL     1     175.183 160.301 188.399  1.00  0.00     0.004 C 
ENDBRANCH   3   4
ENDBRANCH   2   3
ENDBRANCH   1   2
BRANCH   1   6
ATOM      6  C   UNL     1     177.582 165.138 188.175  1.00  0.00     0.028 C 
BRANCH   6   7
ATOM      7  C   UNL     1     177.921 165.194 186.682  1.00  0.00     0.156 C 
BRANCH   7   8
ATOM      8  O   UNL     1     178.216 163.913 186.192  1.00  0.00    -0.396 OA
ATOM      9  H   UNL     1     179.127 163.685 186.512  1.00  0.00     0.210 HD
ENDBRANCH   7   8
ENDBRANCH   6   7
ENDBRANCH   1   6
TORSDOF 6
ENDMDL
MODEL 5
REMARK VINA RESULT:    -2.957     14.186     15.668
REMARK INTER + INTRA:          -4.139
REMARK INTER:                  -3.806
REMARK INTRA:                  -0.332
REMARK UNBOUND:                -0.231
REMARK SMILES CCCCCCCO
REMARK SMILES IDX 5 1 4 2 3 3 2 4 1 5 6 6 7 7 8 8
REMARK H PARENT 8 9
REMARK Flexibility Score: inf
ROOT
ATOM      1  C   UNL     1     175.731 174.588 188.496  1.00  0.00     0.002 C 
ENDROOT
BRANCH   1   2
ATOM      2  C   UNL     1     176.800 173.870 189.329  1.00  0.00     0.000 C 
BRANCH   2   3
ATOM      3  C   UNL     1     177.855 174.860 189.841  1.00  0.00    -0.000 C 
BRANCH   3   4
ATOM      4  C   UNL     1     179.283 174.463 189.437  1.00  0.00    -0.003 C 
ATOM      5  C   UNL     1     179.314 173.459 188.285  1.00  0.00     0.004 C 
ENDBRANCH   3   4
ENDBRANCH   2   3
ENDBRANCH   1   2
BRANCH   1   6
ATOM      6  C   UNL     1     176.153 176.030 188.184  1.00  0.00     0.028 C 
BRANCH   6   7
ATOM      7  C   UNL     1     176.165 176.311 186.678  1.00  0.00     0.156 C 
BRANCH   7   8
ATOM      8  O   UNL     1     177.436 176.066 186.137  1.00  0.00    -0.396 OA
ATOM      9  H   UNL     1     178.099 176.360 186.814  1.00  0.00     0.210 HD
ENDBRANCH   7   8
ENDBRANCH   6   7
ENDBRANCH   1   6
TORSDOF 6
ENDMDL
MODEL 6
REMARK VINA RESULT:    -2.924      4.028      6.520
REMARK INTER + INTRA:          -4.095
REMARK INTER:                  -3.835
REMARK INTRA:                  -0.260
REMARK UNBOUND:                -0.231
REMARK SMILES CCCCCCCO
REMARK SMILES IDX 5 1 4 2 3 3 2 4 1 5 6 6 7 7 8 8
REMARK H PARENT 8 9
REMARK Flexibility Score: inf
ROOT
ATOM      1  C   UNL     1     166.459 177.320 188.628  1.00  0.00     0.002 C 
ENDROOT
BRANCH   1   2
ATOM      2  C   UNL     1     167.017 178.169 189.776  1.00  0.00     0.000 C 
BRANCH   2   3
ATOM      3  C   UNL     1     167.574 179.502 189.254  1.00  0.00    -0.000 C 
BRANCH   3   4
ATOM      4  C   UNL     1     168.630 179.311 188.155  1.00  0.00    -0.003 C 
ATOM      5  C   UNL     1     169.899 180.125 188.406  1.00  0.00     0.004 C 
ENDBRANCH   3   4
ENDBRANCH   2   3
ENDBRANCH   1   2
BRANCH   1   6
ATOM      6  C   UNL     1     165.135 177.897 188.110  1.00  0.00     0.028 C 
BRANCH   6   7
ATOM      7  C   UNL     1     165.065 177.886 186.579  1.00  0.00     0.156 C 
BRANCH   7   8
ATOM      8  O   UNL     1     165.766 178.976 186.042  1.00  0.00    -0.396 OA
ATOM      9  H   UNL     1     165.426 179.790 186.497  1.00  0.00     0.210 HD
ENDBRANCH   7   8
ENDBRANCH   6   7
ENDBRANCH   1   6
TORSDOF 6
ENDMDL
MODEL 7
REMARK VINA RESULT:    -2.872     14.862     15.796
REMARK INTER + INTRA:          -4.027
REMARK INTER:                  -3.924
REMARK INTRA:                  -0.103
REMARK UNBOUND:                -0.231
REMARK SMILES CCCCCCCO
REMARK SMILES IDX 5 1 4 2 3 3 2 4 1 5 6 6 7 7 8 8
REMARK H PARENT 8 9
REMARK Flexibility Score: inf
ROOT
ATOM      1  C   UNL     1     163.656 161.073 187.915  1.00  0.00     0.002 C 
ENDROOT
BRANCH   1   2
ATOM      2  C   UNL     1     162.221 161.368 188.365  1.00  0.00     0.000 C 
BRANCH   2   3
ATOM      3  C   UNL     1     161.322 161.689 187.162  1.00  0.00    -0.000 C 
BRANCH   3   4
ATOM      4  C   UNL     1     159.982 162.315 187.576  1.00  0.00    -0.003 C 
ATOM      5  C   UNL     1     159.875 162.539 189.085  1.00  0.00     0.004 C 
ENDBRANCH   3   4
ENDBRANCH   2   3
ENDBRANCH   1   2
BRANCH   1   6
ATOM      6  C   UNL     1     164.377 160.174 188.929  1.00  0.00     0.028 C 
BRANCH   6   7
ATOM      7  C   UNL     1     165.829 160.610 189.151  1.00  0.00     0.156 C 
BRANCH   7   8
ATOM      8  O   UNL     1     166.328 160.082 190.351  1.00  0.00    -0.396 OA
ATOM      9  H   UNL     1     167.201 159.661 190.139  1.00  0.00     0.210 HD
ENDBRANCH   7   8
ENDBRANCH   6   7
ENDBRANCH   1   6
TORSDOF 6
ENDMDL
MODEL 8
REMARK VINA RESULT:    -2.837     12.458     14.178
REMARK INTER + INTRA:          -3.980
REMARK INTER:                  -3.690
REMARK INTRA:                  -0.290
REMARK UNBOUND:                -0.231
REMARK SMILES CCCCCCCO
REMARK SMILES IDX 5 1 4 2 3 3 2 4 1 5 6 6 7 7 8 8
REMARK H PARENT 8 9
REMARK Flexibility Score: inf
ROOT
ATOM      1  C   UNL     1     160.001 162.179 185.041  1.00  0.00     0.002 C 
ENDROOT
BRANCH   1   2
ATOM      2  C   UNL     1     160.526 161.094 185.988  1.00  0.00     0.000 C 
BRANCH   2   3
ATOM      3  C   UNL     1     159.876 161.211 187.374  1.00  0.00    -0.000 C 
BRANCH   3   4
ATOM      4  C   UNL     1     160.821 161.818 188.421  1.00  0.00    -0.003 C 
ATOM      5  C   UNL     1     160.242 163.064 189.089  1.00  0.00     0.004 C 
ENDBRANCH   3   4
ENDBRANCH   2   3
ENDBRANCH   1   2
BRANCH   1   6
ATOM      6  C   UNL     1     160.914 163.412 185.056  1.00  0.00     0.028 C 
BRANCH   6   7
ATOM      7  C   UNL     1     160.247 164.611 185.739  1.00  0.00     0.156 C 
BRANCH   7   8
ATOM      8  O   UNL     1     160.287 165.741 184.908  1.00  0.00    -0.396 OA
ATOM      9  H   UNL     1     161.182 165.752 184.479  1.00  0.00     0.210 HD
ENDBRANCH   7   8
ENDBRANCH   6   7
ENDBRANCH   1   6
TORSDOF 6
ENDMDL
