MODEL 1
REMARK VINA RESULT:    -3.944      0.000      0.000
REMARK INTER + INTRA:          -9.816
REMARK INTER:                  -8.556
REMARK INTRA:                  -1.260
REMARK UNBOUND:                -1.260
REMARK SMILES CCCCCCCCCCCCCCCCCCCCCC(=O)[O-]
REMARK SMILES IDX 12 1 11 2 10 3 9 4 8 5 7 6 6 7 5 8 4 9 3 10 2 11 1 12 13 13
REMARK SMILES IDX 14 14 15 15 16 16 17 17 18 18 19 19 20 20 21 21 22 22 23 23
REMARK SMILES IDX 24 24
REMARK H PARENT
REMARK Flexibility Score: inf
ROOT
ATOM      1  C   UNL     1     -18.255   0.831  -4.862  1.00  0.00     0.000 C 
ENDROOT
BRANCH   1   2
ATOM      2  C   UNL     1     -17.934   1.989  -3.902  1.00  0.00     0.000 C 
BRANCH   2   3
ATOM      3  C   UNL     1     -19.027   3.070  -3.873  1.00  0.00     0.000 C 
BRANCH   3   4
ATOM      4  C   UNL     1     -18.427   4.469  -3.654  1.00  0.00    -0.000 C 
BRANCH   4   5
ATOM      5  C   UNL     1     -17.893   5.078  -4.963  1.00  0.00    -0.000 C 
BRANCH   5   6
ATOM      6  C   UNL     1     -18.336   6.539  -5.153  1.00  0.00    -0.000 C 
BRANCH   6   7
ATOM      7  C   UNL     1     -19.801   6.750  -4.723  1.00  0.00    -0.000 C 
BRANCH   7   8
ATOM      8  C   UNL     1     -19.943   7.755  -3.568  1.00  0.00    -0.000 C 
BRANCH   8   9
ATOM      9  C   UNL     1     -21.213   7.519  -2.732  1.00  0.00    -0.000 C 
BRANCH   9  10
ATOM     10  C   UNL     1     -21.123   6.251  -1.867  1.00  0.00    -0.000 C 
BRANCH  10  11
ATOM     11  C   UNL     1     -21.981   5.098  -2.411  1.00  0.00    -0.003 C 
ATOM     12  C   UNL     1     -22.833   4.480  -1.307  1.00  0.00     0.004 C 
ENDBRANCH  10  11
ENDBRANCH   9  10
ENDBRANCH   8   9
ENDBRANCH   7   8
ENDBRANCH   6   7
ENDBRANCH   5   6
ENDBRANCH   4   5
ENDBRANCH   3   4
ENDBRANCH   2   3
ENDBRANCH   1   2
BRANCH   1  13
ATOM     13  C   UNL     1     -18.511  -0.531  -4.184  1.00  0.00     0.000 C 
BRANCH  13  14
ATOM     14  C   UNL     1     -19.818  -0.629  -3.373  1.00  0.00     0.000 C 
BRANCH  14  15
ATOM     15  C   UNL     1     -20.149  -2.034  -2.829  1.00  0.00     0.000 C 
BRANCH  15  16
ATOM     16  C   UNL     1     -20.133  -2.159  -1.296  1.00  0.00     0.000 C 
BRANCH  16  17
ATOM     17  C   UNL     1     -19.607  -3.519  -0.812  1.00  0.00     0.000 C 
BRANCH  17  18
ATOM     18  C   UNL     1     -19.696  -3.626   0.718  1.00  0.00     0.000 C 
BRANCH  18  19
ATOM     19  C   UNL     1     -19.057  -4.917   1.255  1.00  0.00     0.000 C 
BRANCH  19  20
ATOM     20  C   UNL     1     -19.699  -6.181   0.658  1.00  0.00     0.006 C 
BRANCH  20  21
ATOM     21  C   UNL     1     -19.713  -7.348   1.656  1.00  0.00     0.053 C 
BRANCH  21  22
ATOM     22  C   UNL     1     -20.979  -7.377   2.458  1.00  0.00     0.041 C 
ATOM     23  O   UNL     1     -21.183  -6.509   3.346  1.00  0.00    -0.550 OA
ATOM     24  O   UNL     1     -21.940  -8.348   2.209  1.00  0.00    -0.550 OA
ENDBRANCH  21  22
ENDBRANCH  20  21
ENDBRANCH  19  20
ENDBRANCH  18  19
ENDBRANCH  17  18
ENDBRANCH  16  17
ENDBRANCH  15  16
ENDBRANCH  14  15
ENDBRANCH  13  14
ENDBRANCH   1  13
TORSDOF 20
ENDMDL
MODEL 2
REMARK VINA RESULT:    -3.876      4.007     11.108
REMARK INTER + INTRA:          -9.668
REMARK INTER:                  -8.657
REMARK INTRA:                  -1.012
REMARK UNBOUND:                -1.260
REMARK SMILES CCCCCCCCCCCCCCCCCCCCCC(=O)[O-]
REMARK SMILES IDX 12 1 11 2 10 3 9 4 8 5 7 6 6 7 5 8 4 9 3 10 2 11 1 12 13 13
REMARK SMILES IDX 14 14 15 15 16 16 17 17 18 18 19 19 20 20 21 21 22 22 23 23
REMARK SMILES IDX 24 24
REMARK H PARENT
REMARK Flexibility Score: inf
ROOT
ATOM      1  C   UNL     1     -18.194   0.240  -4.208  1.00  0.00     0.000 C 
ENDROOT
BRANCH   1   2
ATOM      2  C   UNL     1     -19.505  -0.136  -3.495  1.00  0.00     0.000 C 
BRANCH   2   3
ATOM      3  C   UNL     1     -19.808  -1.643  -3.543  1.00  0.00     0.000 C 
BRANCH   3   4
ATOM      4  C   UNL     1     -20.588  -2.097  -2.298  1.00  0.00    -0.000 C 
BRANCH   4   5
ATOM      5  C   UNL     1     -19.748  -3.018  -1.395  1.00  0.00    -0.000 C 
BRANCH   5   6
ATOM      6  C   UNL     1     -20.064  -2.823   0.098  1.00  0.00    -0.000 C 
BRANCH   6   7
ATOM      7  C   UNL     1     -19.267  -3.802   0.982  1.00  0.00    -0.000 C 
BRANCH   7   8
ATOM      8  C   UNL     1     -20.075  -5.054   1.361  1.00  0.00    -0.000 C 
BRANCH   8   9
ATOM      9  C   UNL     1     -20.145  -5.273   2.882  1.00  0.00    -0.000 C 
BRANCH   9  10
ATOM     10  C   UNL     1     -20.811  -6.608   3.256  1.00  0.00    -0.000 C 
BRANCH  10  11
ATOM     11  C   UNL     1     -20.857  -7.598   2.081  1.00  0.00    -0.003 C 
ATOM     12  C   UNL     1     -22.012  -8.582   2.240  1.00  0.00     0.004 C 
ENDBRANCH  10  11
ENDBRANCH   9  10
ENDBRANCH   8   9
ENDBRANCH   7   8
ENDBRANCH   6   7
ENDBRANCH   5   6
ENDBRANCH   4   5
ENDBRANCH   3   4
ENDBRANCH   2   3
ENDBRANCH   1   2
BRANCH   1  13
ATOM     13  C   UNL     1     -18.181   1.635  -4.864  1.00  0.00     0.000 C 
BRANCH  13  14
ATOM     14  C   UNL     1     -18.442   2.816  -3.909  1.00  0.00     0.000 C 
BRANCH  14  15
ATOM     15  C   UNL     1     -18.965   4.101  -4.582  1.00  0.00     0.000 C 
BRANCH  15  16
ATOM     16  C   UNL     1     -17.889   5.151  -4.911  1.00  0.00     0.000 C 
BRANCH  16  17
ATOM     17  C   UNL     1     -18.441   6.583  -4.948  1.00  0.00     0.000 C 
BRANCH  17  18
ATOM     18  C   UNL     1     -19.935   6.603  -4.587  1.00  0.00     0.000 C 
BRANCH  18  19
ATOM     19  C   UNL     1     -20.419   7.997  -4.160  1.00  0.00     0.000 C 
BRANCH  19  20
ATOM     20  C   UNL     1     -21.064   7.991  -2.763  1.00  0.00     0.006 C 
BRANCH  20  21
ATOM     21  C   UNL     1     -20.910   6.633  -2.063  1.00  0.00     0.053 C 
BRANCH  21  22
ATOM     22  C   UNL     1     -22.223   5.921  -1.939  1.00  0.00     0.041 C 
ATOM     23  O   UNL     1     -23.061   6.287  -1.074  1.00  0.00    -0.550 OA
ATOM     24  O   UNL     1     -22.530   4.868  -2.793  1.00  0.00    -0.550 OA
ENDBRANCH  21  22
ENDBRANCH  20  21
ENDBRANCH  19  20
ENDBRANCH  18  19
ENDBRANCH  17  18
ENDBRANCH  16  17
ENDBRANCH  15  16
ENDBRANCH  14  15
ENDBRANCH  13  14
ENDBRANCH   1  13
TORSDOF 20
ENDMDL
MODEL 3
REMARK VINA RESULT:    -3.791     12.343     15.046
REMARK INTER + INTRA:          -9.483
REMARK INTER:                  -8.088
REMARK INTRA:                  -1.395
REMARK UNBOUND:                -1.260
REMARK SMILES CCCCCCCCCCCCCCCCCCCCCC(=O)[O-]
REMARK SMILES IDX 12 1 11 2 10 3 9 4 8 5 7 6 6 7 5 8 4 9 3 10 2 11 1 12 13 13
REMARK SMILES IDX 14 14 15 15 16 16 17 17 18 18 19 19 20 20 21 21 22 22 23 23
REMARK SMILES IDX 24 24
REMARK H PARENT
REMARK Flexibility Score: inf
ROOT
ATOM      1  C   UNL     1     -26.994   4.906  10.927  1.00  0.00     0.000 C 
ENDROOT
BRANCH   1   2
ATOM      2  C   UNL     1     -28.489   4.749  10.599  1.00  0.00     0.000 C 
BRANCH   2   3
ATOM      3  C   UNL     1     -28.747   4.346   9.138  1.00  0.00     0.000 C 
BRANCH   3   4
ATOM      4  C   UNL     1     -29.395   5.495   8.346  1.00  0.00    -0.000 C 
BRANCH   4   5
ATOM      5  C   UNL     1     -28.619   5.815   7.056  1.00  0.00    -0.000 C 
BRANCH   5   6
ATOM      6  C   UNL     1     -29.528   6.384   5.952  1.00  0.00    -0.000 C 
BRANCH   6   7
ATOM      7  C   UNL     1     -30.810   7.009   6.535  1.00  0.00    -0.000 C 
BRANCH   7   8
ATOM      8  C   UNL     1     -31.385   8.125   5.647  1.00  0.00    -0.000 C 
BRANCH   8   9
ATOM      9  C   UNL     1     -32.735   7.740   5.016  1.00  0.00    -0.000 C 
BRANCH   9  10
ATOM     10  C   UNL     1     -32.784   6.266   4.579  1.00  0.00    -0.000 C 
BRANCH  10  11
ATOM     11  C   UNL     1     -32.541   6.086   3.072  1.00  0.00    -0.003 C 
ATOM     12  C   UNL     1     -31.054   5.922   2.774  1.00  0.00     0.004 C 
ENDBRANCH  10  11
ENDBRANCH   9  10
ENDBRANCH   8   9
ENDBRANCH   7   8
ENDBRANCH   6   7
ENDBRANCH   5   6
ENDBRANCH   4   5
ENDBRANCH   3   4
ENDBRANCH   2   3
ENDBRANCH   1   2
BRANCH   1  13
ATOM     13  C   UNL     1     -26.676   5.852  12.102  1.00  0.00     0.000 C 
BRANCH  13  14
ATOM     14  C   UNL     1     -25.177   6.105  12.359  1.00  0.00     0.000 C 
BRANCH  14  15
ATOM     15  C   UNL     1     -24.252   4.902  12.081  1.00  0.00     0.000 C 
BRANCH  15  16
ATOM     16  C   UNL     1     -23.067   4.754  13.051  1.00  0.00     0.000 C 
BRANCH  16  17
ATOM     17  C   UNL     1     -21.739   5.244  12.454  1.00  0.00     0.000 C 
BRANCH  17  18
ATOM     18  C   UNL     1     -21.938   5.737  11.013  1.00  0.00     0.000 C 
BRANCH  18  19
ATOM     19  C   UNL     1     -20.742   5.403  10.107  1.00  0.00     0.000 C 
BRANCH  19  20
ATOM     20  C   UNL     1     -20.321   3.927  10.213  1.00  0.00     0.006 C 
BRANCH  20  21
ATOM     21  C   UNL     1     -20.825   3.096   9.025  1.00  0.00     0.053 C 
BRANCH  21  22
ATOM     22  C   UNL     1     -21.902   2.138   9.435  1.00  0.00     0.041 C 
ATOM     23  O   UNL     1     -22.282   1.237   8.642  1.00  0.00    -0.550 OA
ATOM     24  O   UNL     1     -22.470   2.226  10.700  1.00  0.00    -0.550 OA
ENDBRANCH  21  22
ENDBRANCH  20  21
ENDBRANCH  19  20
ENDBRANCH  18  19
ENDBRANCH  17  18
ENDBRANCH  16  17
ENDBRANCH  15  16
ENDBRANCH  14  15
ENDBRANCH  13  14
ENDBRANCH   1  13
TORSDOF 20
ENDMDL
MODEL 4
REMARK VINA RESULT:    -3.685     11.692     14.324
REMARK INTER + INTRA:          -9.254
REMARK INTER:                  -5.852
REMARK INTRA:                  -3.402
REMARK UNBOUND:                -1.260
REMARK SMILES CCCCCCCCCCCCCCCCCCCCCC(=O)[O-]
REMARK SMILES IDX 12 1 11 2 10 3 9 4 8 5 7 6 6 7 5 8 4 9 3 10 2 11 1 12 13 13
REMARK SMILES IDX 14 14 15 15 16 16 17 17 18 18 19 19 20 20 21 21 22 22 23 23
REMARK SMILES IDX 24 24
REMARK H PARENT
REMARK Flexibility Score: inf
ROOT
ATOM      1  C   UNL     1     -22.249   1.773  10.530  1.00  0.00     0.000 C 
ENDROOT
BRANCH   1   2
ATOM      2  C   UNL     1     -22.369   3.276  10.840  1.00  0.00     0.000 C 
BRANCH   2   3
ATOM      3  C   UNL     1     -22.403   3.581  12.346  1.00  0.00     0.000 C 
BRANCH   3   4
ATOM      4  C   UNL     1     -21.061   3.245  13.017  1.00  0.00    -0.000 C 
BRANCH   4   5
ATOM      5  C   UNL     1     -20.141   4.475  13.116  1.00  0.00    -0.000 C 
BRANCH   5   6
ATOM      6  C   UNL     1     -18.929   4.378  12.173  1.00  0.00    -0.000 C 
BRANCH   6   7
ATOM      7  C   UNL     1     -18.672   5.708  11.437  1.00  0.00    -0.000 C 
BRANCH   7   8
ATOM      8  C   UNL     1     -19.571   6.850  11.940  1.00  0.00    -0.000 C 
BRANCH   8   9
ATOM      9  C   UNL     1     -20.398   7.490  10.811  1.00  0.00    -0.000 C 
BRANCH   9  10
ATOM     10  C   UNL     1     -21.878   7.075  10.856  1.00  0.00    -0.000 C 
BRANCH  10  11
ATOM     11  C   UNL     1     -22.592   7.558  12.129  1.00  0.00    -0.003 C 
ATOM     12  C   UNL     1     -23.905   6.811  12.337  1.00  0.00     0.004 C 
ENDBRANCH  10  11
ENDBRANCH   9  10
ENDBRANCH   8   9
ENDBRANCH   7   8
ENDBRANCH   6   7
ENDBRANCH   5   6
ENDBRANCH   4   5
ENDBRANCH   3   4
ENDBRANCH   2   3
ENDBRANCH   1   2
BRANCH   1  13
ATOM     13  C   UNL     1     -21.383   1.423   9.303  1.00  0.00     0.000 C 
BRANCH  13  14
ATOM     14  C   UNL     1     -19.865   1.354   9.564  1.00  0.00     0.000 C 
BRANCH  14  15
ATOM     15  C   UNL     1     -19.039   2.500   8.945  1.00  0.00     0.000 C 
BRANCH  15  16
ATOM     16  C   UNL     1     -19.761   3.306   7.850  1.00  0.00     0.000 C 
BRANCH  16  17
ATOM     17  C   UNL     1     -20.026   4.763   8.257  1.00  0.00     0.000 C 
BRANCH  17  18
ATOM     18  C   UNL     1     -19.286   5.734   7.324  1.00  0.00     0.000 C 
BRANCH  18  19
ATOM     19  C   UNL     1     -18.300   5.016   6.390  1.00  0.00     0.000 C 
BRANCH  19  20
ATOM     20  C   UNL     1     -18.454   5.457   4.924  1.00  0.00     0.006 C 
BRANCH  20  21
ATOM     21  C   UNL     1     -19.650   6.399   4.728  1.00  0.00     0.053 C 
BRANCH  21  22
ATOM     22  C   UNL     1     -20.229   6.282   3.351  1.00  0.00     0.041 C 
ATOM     23  O   UNL     1     -21.475   6.343   3.182  1.00  0.00    -0.550 OA
ATOM     24  O   UNL     1     -19.392   6.126   2.253  1.00  0.00    -0.550 OA
ENDBRANCH  21  22
ENDBRANCH  20  21
ENDBRANCH  19  20
ENDBRANCH  18  19
ENDBRANCH  17  18
ENDBRANCH  16  17
ENDBRANCH  15  16
ENDBRANCH  14  15
ENDBRANCH  13  14
ENDBRANCH   1  13
TORSDOF 20
ENDMDL
MODEL 5
REMARK VINA RESULT:    -3.526     10.313     13.646
REMARK INTER + INTRA:          -8.909
REMARK INTER:                  -7.278
REMARK INTRA:                  -1.631
REMARK UNBOUND:                -1.260
REMARK SMILES CCCCCCCCCCCCCCCCCCCCCC(=O)[O-]
REMARK SMILES IDX 12 1 11 2 10 3 9 4 8 5 7 6 6 7 5 8 4 9 3 10 2 11 1 12 13 13
REMARK SMILES IDX 14 14 15 15 16 16 17 17 18 18 19 19 20 20 21 21 22 22 23 23
REMARK SMILES IDX 24 24
REMARK H PARENT
REMARK Flexibility Score: inf
ROOT
ATOM      1  C   UNL     1     -19.357   4.612   8.580  1.00  0.00     0.000 C 
ENDROOT
BRANCH   1   2
ATOM      2  C   UNL     1     -20.603   3.713   8.657  1.00  0.00     0.000 C 
BRANCH   2   3
ATOM      3  C   UNL     1     -20.323   2.346   9.304  1.00  0.00     0.000 C 
BRANCH   3   4
ATOM      4  C   UNL     1     -21.535   1.848  10.109  1.00  0.00    -0.000 C 
BRANCH   4   5
ATOM      5  C   UNL     1     -22.370   3.012  10.673  1.00  0.00    -0.000 C 
BRANCH   5   6
ATOM      6  C   UNL     1     -22.019   3.327  12.138  1.00  0.00    -0.000 C 
BRANCH   6   7
ATOM      7  C   UNL     1     -21.247   4.655  12.266  1.00  0.00    -0.000 C 
BRANCH   7   8
ATOM      8  C   UNL     1     -21.985   5.837  11.617  1.00  0.00    -0.000 C 
BRANCH   8   9
ATOM      9  C   UNL     1     -22.784   6.666  12.638  1.00  0.00    -0.000 C 
BRANCH   9  10
ATOM     10  C   UNL     1     -24.253   6.855  12.224  1.00  0.00    -0.000 C 
BRANCH  10  11
ATOM     11  C   UNL     1     -25.062   5.550  12.295  1.00  0.00    -0.003 C 
ATOM     12  C   UNL     1     -26.521   5.789  11.920  1.00  0.00     0.004 C 
ENDBRANCH  10  11
ENDBRANCH   9  10
ENDBRANCH   8   9
ENDBRANCH   7   8
ENDBRANCH   6   7
ENDBRANCH   5   6
ENDBRANCH   4   5
ENDBRANCH   3   4
ENDBRANCH   2   3
ENDBRANCH   1   2
BRANCH   1  13
ATOM     13  C   UNL     1     -18.262   4.134   7.605  1.00  0.00     0.000 C 
BRANCH  13  14
ATOM     14  C   UNL     1     -18.117   4.966   6.316  1.00  0.00     0.000 C 
BRANCH  14  15
ATOM     15  C   UNL     1     -19.238   4.762   5.275  1.00  0.00     0.000 C 
BRANCH  15  16
ATOM     16  C   UNL     1     -19.702   6.042   4.559  1.00  0.00     0.000 C 
BRANCH  16  17
ATOM     17  C   UNL     1     -19.386   6.035   3.056  1.00  0.00     0.000 C 
BRANCH  17  18
ATOM     18  C   UNL     1     -19.539   7.443   2.458  1.00  0.00     0.000 C 
BRANCH  18  19
ATOM     19  C   UNL     1     -19.895   7.411   0.964  1.00  0.00     0.000 C 
BRANCH  19  20
ATOM     20  C   UNL     1     -21.216   6.671   0.691  1.00  0.00     0.006 C 
BRANCH  20  21
ATOM     21  C   UNL     1     -21.072   5.625  -0.424  1.00  0.00     0.053 C 
BRANCH  21  22
ATOM     22  C   UNL     1     -22.400   5.063  -0.832  1.00  0.00     0.041 C 
ATOM     23  O   UNL     1     -22.797   5.180  -2.021  1.00  0.00    -0.550 OA
ATOM     24  O   UNL     1     -23.187   4.390   0.094  1.00  0.00    -0.550 OA
ENDBRANCH  21  22
ENDBRANCH  20  21
ENDBRANCH  19  20
ENDBRANCH  18  19
ENDBRANCH  17  18
ENDBRANCH  16  17
ENDBRANCH  15  16
ENDBRANCH  14  15
ENDBRANCH  13  14
ENDBRANCH   1  13
TORSDOF 20
ENDMDL
MODEL 6
REMARK VINA RESULT:    -3.506     10.085     13.891
REMARK INTER + INTRA:          -8.866
REMARK INTER:                  -6.546
REMARK INTRA:                  -2.320
REMARK UNBOUND:                -1.260
REMARK SMILES CCCCCCCCCCCCCCCCCCCCCC(=O)[O-]
REMARK SMILES IDX 12 1 11 2 10 3 9 4 8 5 7 6 6 7 5 8 4 9 3 10 2 11 1 12 13 13
REMARK SMILES IDX 14 14 15 15 16 16 17 17 18 18 19 19 20 20 21 21 22 22 23 23
REMARK SMILES IDX 24 24
REMARK H PARENT
REMARK Flexibility Score: inf
ROOT
ATOM      1  C   UNL     1     -20.545   5.875   9.288  1.00  0.00     0.000 C 
ENDROOT
BRANCH   1   2
ATOM      2  C   UNL     1     -19.706   6.138  10.550  1.00  0.00     0.000 C 
BRANCH   2   3
ATOM      3  C   UNL     1     -20.550   6.209  11.833  1.00  0.00     0.000 C 
BRANCH   3   4
ATOM      4  C   UNL     1     -22.053   6.105  11.521  1.00  0.00    -0.000 C 
BRANCH   4   5
ATOM      5  C   UNL     1     -22.789   5.197  12.523  1.00  0.00    -0.000 C 
BRANCH   5   6
ATOM      6  C   UNL     1     -22.345   3.728  12.417  1.00  0.00    -0.000 C 
BRANCH   6   7
ATOM      7  C   UNL     1     -22.563   3.168  10.997  1.00  0.00    -0.000 C 
BRANCH   7   8
ATOM      8  C   UNL     1     -21.372   2.334  10.497  1.00  0.00    -0.000 C 
BRANCH   8   9
ATOM      9  C   UNL     1     -20.134   2.474  11.400  1.00  0.00    -0.000 C 
BRANCH   9  10
ATOM     10  C   UNL     1     -18.821   2.513  10.600  1.00  0.00    -0.000 C 
BRANCH  10  11
ATOM     11  C   UNL     1     -18.882   1.670   9.317  1.00  0.00    -0.003 C 
ATOM     12  C   UNL     1     -18.318   0.273   9.552  1.00  0.00     0.004 C 
ENDBRANCH  10  11
ENDBRANCH   9  10
ENDBRANCH   8   9
ENDBRANCH   7   8
ENDBRANCH   6   7
ENDBRANCH   5   6
ENDBRANCH   4   5
ENDBRANCH   3   4
ENDBRANCH   2   3
ENDBRANCH   1   2
BRANCH   1  13
ATOM     13  C   UNL     1     -19.796   5.174   8.136  1.00  0.00     0.000 C 
BRANCH  13  14
ATOM     14  C   UNL     1     -18.803   6.060   7.360  1.00  0.00     0.000 C 
BRANCH  14  15
ATOM     15  C   UNL     1     -19.302   6.559   5.988  1.00  0.00     0.000 C 
BRANCH  15  16
ATOM     16  C   UNL     1     -19.446   5.469   4.911  1.00  0.00     0.000 C 
BRANCH  16  17
ATOM     17  C   UNL     1     -19.485   6.039   3.485  1.00  0.00     0.000 C 
BRANCH  17  18
ATOM     18  C   UNL     1     -20.910   6.471   3.107  1.00  0.00     0.000 C 
BRANCH  18  19
ATOM     19  C   UNL     1     -20.977   7.133   1.722  1.00  0.00     0.000 C 
BRANCH  19  20
ATOM     20  C   UNL     1     -20.909   6.107   0.578  1.00  0.00     0.006 C 
BRANCH  20  21
ATOM     21  C   UNL     1     -22.090   6.248  -0.394  1.00  0.00     0.053 C 
BRANCH  21  22
ATOM     22  C   UNL     1     -22.592   4.914  -0.855  1.00  0.00     0.041 C 
ATOM     23  O   UNL     1     -23.299   4.207  -0.090  1.00  0.00    -0.550 OA
ATOM     24  O   UNL     1     -22.297   4.461  -2.135  1.00  0.00    -0.550 OA
ENDBRANCH  21  22
ENDBRANCH  20  21
ENDBRANCH  19  20
ENDBRANCH  18  19
ENDBRANCH  17  18
ENDBRANCH  16  17
ENDBRANCH  15  16
ENDBRANCH  14  15
ENDBRANCH  13  14
ENDBRANCH   1  13
TORSDOF 20
ENDMDL
MODEL 7
REMARK VINA RESULT:    -3.485     11.078     14.126
REMARK INTER + INTRA:          -8.820
REMARK INTER:                  -6.162
REMARK INTRA:                  -2.657
REMARK UNBOUND:                -1.260
REMARK SMILES CCCCCCCCCCCCCCCCCCCCCC(=O)[O-]
REMARK SMILES IDX 12 1 11 2 10 3 9 4 8 5 7 6 6 7 5 8 4 9 3 10 2 11 1 12 13 13
REMARK SMILES IDX 14 14 15 15 16 16 17 17 18 18 19 19 20 20 21 21 22 22 23 23
REMARK SMILES IDX 24 24
REMARK H PARENT
REMARK Flexibility Score: inf
ROOT
ATOM      1  C   UNL     1     -20.919   1.872   9.101  1.00  0.00     0.000 C 
ENDROOT
BRANCH   1   2
ATOM      2  C   UNL     1     -22.180   2.365   9.833  1.00  0.00     0.000 C 
BRANCH   2   3
ATOM      3  C   UNL     1     -21.964   2.555  11.344  1.00  0.00     0.000 C 
BRANCH   3   4
ATOM      4  C   UNL     1     -20.497   2.888  11.663  1.00  0.00    -0.000 C 
BRANCH   4   5
ATOM      5  C   UNL     1     -20.321   4.351  12.109  1.00  0.00    -0.000 C 
BRANCH   5   6
ATOM      6  C   UNL     1     -20.039   5.294  10.926  1.00  0.00    -0.000 C 
BRANCH   6   7
ATOM      7  C   UNL     1     -21.330   5.955  10.404  1.00  0.00    -0.000 C 
BRANCH   7   8
ATOM      8  C   UNL     1     -21.580   7.341  11.021  1.00  0.00    -0.000 C 
BRANCH   8   9
ATOM      9  C   UNL     1     -23.000   7.483  11.596  1.00  0.00    -0.000 C 
BRANCH   9  10
ATOM     10  C   UNL     1     -23.340   6.377  12.610  1.00  0.00    -0.000 C 
BRANCH  10  11
ATOM     11  C   UNL     1     -24.377   5.378  12.073  1.00  0.00    -0.003 C 
ATOM     12  C   UNL     1     -25.794   5.919  12.237  1.00  0.00     0.004 C 
ENDBRANCH  10  11
ENDBRANCH   9  10
ENDBRANCH   8   9
ENDBRANCH   7   8
ENDBRANCH   6   7
ENDBRANCH   5   6
ENDBRANCH   4   5
ENDBRANCH   3   4
ENDBRANCH   2   3
ENDBRANCH   1   2
BRANCH   1  13
ATOM     13  C   UNL     1     -20.332   2.858   8.071  1.00  0.00     0.000 C 
BRANCH  13  14
ATOM     14  C   UNL     1     -18.812   3.094   8.175  1.00  0.00     0.000 C 
BRANCH  14  15
ATOM     15  C   UNL     1     -18.327   4.476   7.691  1.00  0.00     0.000 C 
BRANCH  15  16
ATOM     16  C   UNL     1     -19.442   5.441   7.252  1.00  0.00     0.000 C 
BRANCH  16  17
ATOM     17  C   UNL     1     -19.030   6.917   7.353  1.00  0.00     0.000 C 
BRANCH  17  18
ATOM     18  C   UNL     1     -19.342   7.662   6.046  1.00  0.00     0.000 C 
BRANCH  18  19
ATOM     19  C   UNL     1     -19.687   6.707   4.892  1.00  0.00     0.000 C 
BRANCH  19  20
ATOM     20  C   UNL     1     -20.135   7.457   3.625  1.00  0.00     0.006 C 
BRANCH  20  21
ATOM     21  C   UNL     1     -21.082   6.612   2.760  1.00  0.00     0.053 C 
BRANCH  21  22
ATOM     22  C   UNL     1     -20.546   6.423   1.373  1.00  0.00     0.041 C 
ATOM     23  O   UNL     1     -19.382   6.808   1.088  1.00  0.00    -0.550 OA
ATOM     24  O   UNL     1     -21.324   5.804   0.402  1.00  0.00    -0.550 OA
ENDBRANCH  21  22
ENDBRANCH  20  21
ENDBRANCH  19  20
ENDBRANCH  18  19
ENDBRANCH  17  18
ENDBRANCH  16  17
ENDBRANCH  15  16
ENDBRANCH  14  15
ENDBRANCH  13  14
ENDBRANCH   1  13
TORSDOF 20
ENDMDL
MODEL 8
REMARK VINA RESULT:    -3.467     11.307     14.469
REMARK INTER + INTRA:          -8.780
REMARK INTER:                  -6.160
REMARK INTRA:                  -2.620
REMARK UNBOUND:                -1.260
REMARK SMILES CCCCCCCCCCCCCCCCCCCCCC(=O)[O-]
REMARK SMILES IDX 12 1 11 2 10 3 9 4 8 5 7 6 6 7 5 8 4 9 3 10 2 11 1 12 13 13
REMARK SMILES IDX 14 14 15 15 16 16 17 17 18 18 19 19 20 20 21 21 22 22 23 23
REMARK SMILES IDX 24 24
REMARK H PARENT
REMARK Flexibility Score: inf
ROOT
ATOM      1  C   UNL     1     -20.720   6.255   9.923  1.00  0.00     0.000 C 
ENDROOT
BRANCH   1   2
ATOM      2  C   UNL     1     -19.514   6.636  10.798  1.00  0.00     0.000 C 
BRANCH   2   3
ATOM      3  C   UNL     1     -19.891   6.892  12.267  1.00  0.00     0.000 C 
BRANCH   3   4
ATOM      4  C   UNL     1     -19.690   5.632  13.125  1.00  0.00    -0.000 C 
BRANCH   4   5
ATOM      5  C   UNL     1     -18.849   4.567  12.398  1.00  0.00    -0.000 C 
BRANCH   5   6
ATOM      6  C   UNL     1     -19.591   3.226  12.264  1.00  0.00    -0.000 C 
BRANCH   6   7
ATOM      7  C   UNL     1     -21.045   3.326  12.767  1.00  0.00    -0.000 C 
BRANCH   7   8
ATOM      8  C   UNL     1     -22.074   2.954  11.687  1.00  0.00    -0.000 C 
BRANCH   8   9
ATOM      9  C   UNL     1     -23.188   4.007  11.546  1.00  0.00    -0.000 C 
BRANCH   9  10
ATOM     10  C   UNL     1     -23.153   5.057  12.670  1.00  0.00    -0.000 C 
BRANCH  10  11
ATOM     11  C   UNL     1     -24.043   6.273  12.373  1.00  0.00    -0.003 C 
ATOM     12  C   UNL     1     -25.486   5.847  12.119  1.00  0.00     0.004 C 
ENDBRANCH  10  11
ENDBRANCH   9  10
ENDBRANCH   8   9
ENDBRANCH   7   8
ENDBRANCH   6   7
ENDBRANCH   5   6
ENDBRANCH   4   5
ENDBRANCH   3   4
ENDBRANCH   2   3
ENDBRANCH   1   2
BRANCH   1  13
ATOM     13  C   UNL     1     -20.474   5.095   8.937  1.00  0.00     0.000 C 
BRANCH  13  14
ATOM     14  C   UNL     1     -18.998   4.699   8.738  1.00  0.00     0.000 C 
BRANCH  14  15
ATOM     15  C   UNL     1     -18.339   5.244   7.455  1.00  0.00     0.000 C 
BRANCH  15  16
ATOM     16  C   UNL     1     -19.320   5.703   6.362  1.00  0.00     0.000 C 
BRANCH  16  17
ATOM     17  C   UNL     1     -18.888   5.274   4.952  1.00  0.00     0.000 C 
BRANCH  17  18
ATOM     18  C   UNL     1     -19.761   5.951   3.884  1.00  0.00     0.000 C 
BRANCH  18  19
ATOM     19  C   UNL     1     -18.996   6.206   2.575  1.00  0.00     0.000 C 
BRANCH  19  20
ATOM     20  C   UNL     1     -19.830   7.000   1.554  1.00  0.00     0.006 C 
BRANCH  20  21
ATOM     21  C   UNL     1     -21.226   6.394   1.354  1.00  0.00     0.053 C 
BRANCH  21  22
ATOM     22  C   UNL     1     -21.411   5.875  -0.041  1.00  0.00     0.041 C 
ATOM     23  O   UNL     1     -20.411   5.540  -0.727  1.00  0.00    -0.550 OA
ATOM     24  O   UNL     1     -22.688   5.742  -0.572  1.00  0.00    -0.550 OA
ENDBRANCH  21  22
ENDBRANCH  20  21
ENDBRANCH  19  20
ENDBRANCH  18  19
ENDBRANCH  17  18
ENDBRANCH  16  17
ENDBRANCH  15  16
ENDBRANCH  14  15
ENDBRANCH  13  14
ENDBRANCH   1  13
TORSDOF 20
ENDMDL
MODEL 9
REMARK VINA RESULT:    -3.450      9.611     11.701
REMARK INTER + INTRA:          -8.744
REMARK INTER:                  -6.874
REMARK INTRA:                  -1.870
REMARK UNBOUND:                -1.260
REMARK SMILES CCCCCCCCCCCCCCCCCCCCCC(=O)[O-]
REMARK SMILES IDX 12 1 11 2 10 3 9 4 8 5 7 6 6 7 5 8 4 9 3 10 2 11 1 12 13 13
REMARK SMILES IDX 14 14 15 15 16 16 17 17 18 18 19 19 20 20 21 21 22 22 23 23
REMARK SMILES IDX 24 24
REMARK H PARENT
REMARK Flexibility Score: inf
ROOT
ATOM      1  C   UNL     1     -19.734   4.978   8.357  1.00  0.00     0.000 C 
ENDROOT
BRANCH   1   2
ATOM      2  C   UNL     1     -18.742   5.520   7.313  1.00  0.00     0.000 C 
BRANCH   2   3
ATOM      3  C   UNL     1     -19.423   5.975   6.012  1.00  0.00     0.000 C 
BRANCH   3   4
ATOM      4  C   UNL     1     -18.841   5.245   4.790  1.00  0.00    -0.000 C 
BRANCH   4   5
ATOM      5  C   UNL     1     -19.134   5.994   3.478  1.00  0.00    -0.000 C 
BRANCH   5   6
ATOM      6  C   UNL     1     -20.579   6.519   3.412  1.00  0.00    -0.000 C 
BRANCH   6   7
ATOM      7  C   UNL     1     -21.097   6.585   1.962  1.00  0.00    -0.000 C 
BRANCH   7   8
ATOM      8  C   UNL     1     -20.008   6.259   0.926  1.00  0.00    -0.000 C 
BRANCH   8   9
ATOM      9  C   UNL     1     -20.591   5.929  -0.459  1.00  0.00    -0.000 C 
BRANCH   9  10
ATOM     10  C   UNL     1     -22.016   6.476  -0.645  1.00  0.00    -0.000 C 
BRANCH  10  11
ATOM     11  C   UNL     1     -22.972   5.444  -1.263  1.00  0.00    -0.003 C 
ATOM     12  C   UNL     1     -23.261   4.310  -0.283  1.00  0.00     0.004 C 
ENDBRANCH  10  11
ENDBRANCH   9  10
ENDBRANCH   8   9
ENDBRANCH   7   8
ENDBRANCH   6   7
ENDBRANCH   5   6
ENDBRANCH   4   5
ENDBRANCH   3   4
ENDBRANCH   2   3
ENDBRANCH   1   2
BRANCH   1  13
ATOM     13  C   UNL     1     -20.506   6.054   9.149  1.00  0.00     0.000 C 
BRANCH  13  14
ATOM     14  C   UNL     1     -20.147   6.157  10.644  1.00  0.00     0.000 C 
BRANCH  14  15
ATOM     15  C   UNL     1     -20.897   7.256  11.424  1.00  0.00     0.000 C 
BRANCH  15  16
ATOM     16  C   UNL     1     -21.849   6.745  12.519  1.00  0.00     0.000 C 
BRANCH  16  17
ATOM     17  C   UNL     1     -23.291   6.563  12.021  1.00  0.00     0.000 C 
BRANCH  17  18
ATOM     18  C   UNL     1     -23.836   5.182  12.415  1.00  0.00     0.000 C 
BRANCH  18  19
ATOM     19  C   UNL     1     -22.737   4.109  12.468  1.00  0.00     0.000 C 
BRANCH  19  20
ATOM     20  C   UNL     1     -22.709   3.236  11.201  1.00  0.00     0.006 C 
BRANCH  20  21
ATOM     21  C   UNL     1     -21.315   2.648  10.937  1.00  0.00     0.053 C 
BRANCH  21  22
ATOM     22  C   UNL     1     -21.293   1.812   9.693  1.00  0.00     0.041 C 
ATOM     23  O   UNL     1     -20.202   1.362   9.254  1.00  0.00    -0.550 OA
ATOM     24  O   UNL     1     -22.478   1.512   9.032  1.00  0.00    -0.550 OA
ENDBRANCH  21  22
ENDBRANCH  20  21
ENDBRANCH  19  20
ENDBRANCH  18  19
ENDBRANCH  17  18
ENDBRANCH  16  17
ENDBRANCH  15  16
ENDBRANCH  14  15
ENDBRANCH  13  14
ENDBRANCH   1  13
TORSDOF 20
ENDMDL
