MODEL 1
REMARK VINA RESULT:    -2.241      0.000      0.000
REMARK INTER + INTRA:          -5.817
REMARK INTER:                  -3.421
REMARK INTRA:                  -2.396
REMARK UNBOUND:                -2.396
REMARK SMILES CC(=O)CCC=C(C)CCC=C(C)CCC=C(C)C
REMARK SMILES IDX 10 1 11 2 12 3 13 4 14 5 15 6 16 7 18 8 17 9 19 10 9 11 7 12
REMARK SMILES IDX 6 13 8 14 5 15 4 16 2 17 3 18 1 19
REMARK H PARENT
REMARK Flexibility Score: inf
ROOT
ATOM      1  C   UNL     1     123.097  87.382  54.531  1.00  0.00     0.032 C 
ENDROOT
BRANCH   1   2
ATOM      2  C   UNL     1     122.255  88.106  55.552  1.00  0.00    -0.028 C 
ATOM      3  C   UNL     1     120.902  88.098  55.572  1.00  0.00    -0.077 C 
ATOM      4  C   UNL     1     120.094  87.402  54.503  1.00  0.00     0.039 C 
BRANCH   3   5
ATOM      5  C   UNL     1     120.181  88.825  56.687  1.00  0.00     0.034 C 
BRANCH   5   6
ATOM      6  C   UNL     1     120.438  88.146  58.035  1.00  0.00     0.032 C 
BRANCH   6   7
ATOM      7  C   UNL     1     119.969  86.713  58.008  1.00  0.00    -0.028 C 
ATOM      8  C   UNL     1     120.159  84.267  58.157  1.00  0.00     0.039 C 
ATOM      9  C   UNL     1     120.758  85.646  58.268  1.00  0.00    -0.080 C 
ATOM     10  C   UNL     1     122.205  85.800  58.675  1.00  0.00     0.039 C 
ENDBRANCH   6   7
ENDBRANCH   5   6
ENDBRANCH   3   5
ENDBRANCH   1   2
BRANCH   1  11
ATOM     11  C   UNL     1     124.349  86.788  55.188  1.00  0.00     0.034 C 
BRANCH  11  12
ATOM     12  C   UNL     1     124.107  85.352  55.599  1.00  0.00    -0.077 C 
ATOM     13  C   UNL     1     122.997  84.723  55.151  1.00  0.00    -0.028 C 
ATOM     14  C   UNL     1     125.124  84.653  56.472  1.00  0.00     0.039 C 
BRANCH  13  15
ATOM     15  C   UNL     1     122.588  83.321  55.536  1.00  0.00     0.035 C 
BRANCH  15  16
ATOM     16  C   UNL     1     122.768  82.335  54.373  1.00  0.00     0.079 C 
BRANCH  16  17
ATOM     17  C   UNL     1     124.206  81.903  54.226  1.00  0.00     0.130 C 
ATOM     18  O   UNL     1     124.707  81.180  55.074  1.00  0.00    -0.300 OA
ATOM     19  C   UNL     1     125.034  82.339  53.054  1.00  0.00     0.087 C 
ENDBRANCH  16  17
ENDBRANCH  15  16
ENDBRANCH  13  15
ENDBRANCH  11  12
ENDBRANCH   1  11
TORSDOF 9
ENDMDL
MODEL 2
REMARK VINA RESULT:    -2.180      2.999      5.565
REMARK INTER + INTRA:          -5.723
REMARK INTER:                  -3.447
REMARK INTRA:                  -2.276
REMARK UNBOUND:                -2.396
REMARK SMILES CC(=O)CCC=C(C)CCC=C(C)CCC=C(C)C
REMARK SMILES IDX 10 1 11 2 12 3 13 4 14 5 15 6 16 7 18 8 17 9 19 10 9 11 7 12
REMARK SMILES IDX 6 13 8 14 5 15 4 16 2 17 3 18 1 19
REMARK H PARENT
REMARK Flexibility Score: inf
ROOT
ATOM      1  C   UNL     1     122.542  87.726  54.875  1.00  0.00     0.032 C 
ENDROOT
BRANCH   1   2
ATOM      2  C   UNL     1     123.630  86.855  55.452  1.00  0.00    -0.028 C 
ATOM      3  C   UNL     1     123.885  85.587  55.058  1.00  0.00    -0.077 C 
ATOM      4  C   UNL     1     123.034  84.888  54.025  1.00  0.00     0.039 C 
BRANCH   3   5
ATOM      5  C   UNL     1     125.044  84.843  55.687  1.00  0.00     0.034 C 
BRANCH   5   6
ATOM      6  C   UNL     1     124.789  84.599  57.177  1.00  0.00     0.032 C 
BRANCH   6   7
ATOM      7  C   UNL     1     123.496  83.850  57.381  1.00  0.00    -0.028 C 
ATOM      8  C   UNL     1     121.298  83.356  58.363  1.00  0.00     0.039 C 
ATOM      9  C   UNL     1     122.517  84.233  58.231  1.00  0.00    -0.080 C 
ATOM     10  C   UNL     1     122.607  85.510  59.033  1.00  0.00     0.039 C 
ENDBRANCH   6   7
ENDBRANCH   5   6
ENDBRANCH   3   5
ENDBRANCH   1   2
BRANCH   1  11
ATOM     11  C   UNL     1     121.873  88.556  55.976  1.00  0.00     0.034 C 
BRANCH  11  12
ATOM     12  C   UNL     1     120.790  87.755  56.667  1.00  0.00    -0.077 C 
ATOM     13  C   UNL     1     120.305  86.651  56.055  1.00  0.00    -0.028 C 
ATOM     14  C   UNL     1     120.303  88.193  58.029  1.00  0.00     0.039 C 
BRANCH  13  15
ATOM     15  C   UNL     1     119.178  85.798  56.587  1.00  0.00     0.035 C 
BRANCH  15  16
ATOM     16  C   UNL     1     117.812  86.273  56.071  1.00  0.00     0.079 C 
BRANCH  16  17
ATOM     17  C   UNL     1     116.909  86.704  57.199  1.00  0.00     0.130 C 
ATOM     18  O   UNL     1     115.959  87.436  56.963  1.00  0.00    -0.300 OA
ATOM     19  C   UNL     1     117.150  86.250  58.607  1.00  0.00     0.087 C 
ENDBRANCH  16  17
ENDBRANCH  15  16
ENDBRANCH  13  15
ENDBRANCH  11  12
ENDBRANCH   1  11
TORSDOF 9
ENDMDL
MODEL 3
REMARK VINA RESULT:    -2.176     12.775     15.283
REMARK INTER + INTRA:          -5.717
REMARK INTER:                  -3.151
REMARK INTRA:                  -2.566
REMARK UNBOUND:                -2.396
REMARK SMILES CC(=O)CCC=C(C)CCC=C(C)CCC=C(C)C
REMARK SMILES IDX 10 1 11 2 12 3 13 4 14 5 15 6 16 7 18 8 17 9 19 10 9 11 7 12
REMARK SMILES IDX 6 13 8 14 5 15 4 16 2 17 3 18 1 19
REMARK H PARENT
REMARK Flexibility Score: inf
ROOT
ATOM      1  C   UNL     1     105.035  84.674  54.665  1.00  0.00     0.032 C 
ENDROOT
BRANCH   1   2
ATOM      2  C   UNL     1     105.123  84.698  56.170  1.00  0.00    -0.028 C 
ATOM      3  C   UNL     1     106.083  84.073  56.891  1.00  0.00    -0.077 C 
ATOM      4  C   UNL     1     107.138  83.215  56.235  1.00  0.00     0.039 C 
BRANCH   3   5
ATOM      5  C   UNL     1     106.084  84.223  58.396  1.00  0.00     0.034 C 
BRANCH   5   6
ATOM      6  C   UNL     1     107.484  84.574  58.908  1.00  0.00     0.032 C 
BRANCH   6   7
ATOM      7  C   UNL     1     107.825  86.008  58.588  1.00  0.00    -0.028 C 
ATOM      8  C   UNL     1     109.171  87.876  57.731  1.00  0.00     0.039 C 
ATOM      9  C   UNL     1     108.944  86.401  57.938  1.00  0.00    -0.080 C 
ATOM     10  C   UNL     1     109.953  85.409  57.410  1.00  0.00     0.039 C 
ENDBRANCH   6   7
ENDBRANCH   5   6
ENDBRANCH   3   5
ENDBRANCH   1   2
BRANCH   1  11
ATOM     11  C   UNL     1     105.166  86.091  54.094  1.00  0.00     0.034 C 
BRANCH  11  12
ATOM     12  C   UNL     1     106.565  86.626  54.307  1.00  0.00    -0.077 C 
ATOM     13  C   UNL     1     107.609  85.952  53.775  1.00  0.00    -0.028 C 
ATOM     14  C   UNL     1     106.754  87.910  55.082  1.00  0.00     0.039 C 
BRANCH  13  15
ATOM     15  C   UNL     1     109.060  86.323  53.966  1.00  0.00     0.035 C 
BRANCH  15  16
ATOM     16  C   UNL     1     109.634  87.036  52.733  1.00  0.00     0.079 C 
BRANCH  16  17
ATOM     17  C   UNL     1     110.495  88.213  53.120  1.00  0.00     0.130 C 
ATOM     18  O   UNL     1     111.367  88.597  52.355  1.00  0.00    -0.300 OA
ATOM     19  C   UNL     1     110.298  88.927  54.424  1.00  0.00     0.087 C 
ENDBRANCH  16  17
ENDBRANCH  15  16
ENDBRANCH  13  15
ENDBRANCH  11  12
ENDBRANCH   1  11
TORSDOF 9
ENDMDL
MODEL 4
REMARK VINA RESULT:    -2.141     13.338     15.935
REMARK INTER + INTRA:          -5.663
REMARK INTER:                  -3.364
REMARK INTRA:                  -2.299
REMARK UNBOUND:                -2.396
REMARK SMILES CC(=O)CCC=C(C)CCC=C(C)CCC=C(C)C
REMARK SMILES IDX 10 1 11 2 12 3 13 4 14 5 15 6 16 7 18 8 17 9 19 10 9 11 7 12
REMARK SMILES IDX 6 13 8 14 5 15 4 16 2 17 3 18 1 19
REMARK H PARENT
REMARK Flexibility Score: inf
ROOT
ATOM      1  C   UNL     1     105.094  83.247  56.927  1.00  0.00     0.032 C 
ENDROOT
BRANCH   1   2
ATOM      2  C   UNL     1     105.160  84.493  56.080  1.00  0.00    -0.028 C 
ATOM      3  C   UNL     1     105.062  84.508  54.731  1.00  0.00    -0.077 C 
ATOM      4  C   UNL     1     104.947  83.234  53.928  1.00  0.00     0.039 C 
BRANCH   3   5
ATOM      5  C   UNL     1     105.091  85.837  54.008  1.00  0.00     0.034 C 
BRANCH   5   6
ATOM      6  C   UNL     1     106.076  86.799  54.678  1.00  0.00     0.032 C 
BRANCH   6   7
ATOM      7  C   UNL     1     107.254  87.072  53.775  1.00  0.00    -0.028 C 
ATOM      8  C   UNL     1     109.518  86.791  52.864  1.00  0.00     0.039 C 
ATOM      9  C   UNL     1     108.411  86.373  53.797  1.00  0.00    -0.080 C 
ATOM     10  C   UNL     1     108.614  85.189  54.712  1.00  0.00     0.039 C 
ENDBRANCH   6   7
ENDBRANCH   5   6
ENDBRANCH   3   5
ENDBRANCH   1   2
BRANCH   1  11
ATOM     11  C   UNL     1     105.704  83.502  58.310  1.00  0.00     0.034 C 
BRANCH  11  12
ATOM     12  C   UNL     1     107.059  84.164  58.184  1.00  0.00    -0.077 C 
ATOM     13  C   UNL     1     107.166  85.485  58.451  1.00  0.00    -0.028 C 
ATOM     14  C   UNL     1     108.255  83.328  57.793  1.00  0.00     0.039 C 
BRANCH  13  15
ATOM     15  C   UNL     1     108.433  86.293  58.297  1.00  0.00     0.035 C 
BRANCH  15  16
ATOM     16  C   UNL     1     108.178  87.619  57.564  1.00  0.00     0.079 C 
BRANCH  16  17
ATOM     17  C   UNL     1     109.427  88.136  56.896  1.00  0.00     0.130 C 
ATOM     18  O   UNL     1     109.335  88.989  56.027  1.00  0.00    -0.300 OA
ATOM     19  C   UNL     1     110.784  87.625  57.280  1.00  0.00     0.087 C 
ENDBRANCH  16  17
ENDBRANCH  15  16
ENDBRANCH  13  15
ENDBRANCH  11  12
ENDBRANCH   1  11
TORSDOF 9
ENDMDL
MODEL 5
REMARK VINA RESULT:    -2.140      7.565      9.761
REMARK INTER + INTRA:          -5.662
REMARK INTER:                  -4.410
REMARK INTRA:                  -1.252
REMARK UNBOUND:                -2.396
REMARK SMILES CC(=O)CCC=C(C)CCC=C(C)CCC=C(C)C
REMARK SMILES IDX 10 1 11 2 12 3 13 4 14 5 15 6 16 7 18 8 17 9 19 10 9 11 7 12
REMARK SMILES IDX 6 13 8 14 5 15 4 16 2 17 3 18 1 19
REMARK H PARENT
REMARK Flexibility Score: inf
ROOT
ATOM      1  C   UNL     1     114.160  89.031  58.182  1.00  0.00     0.032 C 
ENDROOT
BRANCH   1   2
ATOM      2  C   UNL     1     112.972  88.184  58.564  1.00  0.00    -0.028 C 
ATOM      3  C   UNL     1     112.505  87.146  57.831  1.00  0.00    -0.077 C 
ATOM      4  C   UNL     1     113.107  86.781  56.496  1.00  0.00     0.039 C 
BRANCH   3   5
ATOM      5  C   UNL     1     111.334  86.346  58.358  1.00  0.00     0.034 C 
BRANCH   5   6
ATOM      6  C   UNL     1     110.236  87.272  58.888  1.00  0.00     0.032 C 
BRANCH   6   7
ATOM      7  C   UNL     1     109.398  87.809  57.754  1.00  0.00    -0.028 C 
ATOM      8  C   UNL     1     107.492  87.925  56.208  1.00  0.00     0.039 C 
ATOM      9  C   UNL     1     108.193  87.313  57.394  1.00  0.00    -0.080 C 
ATOM     10  C   UNL     1     107.533  86.184  58.149  1.00  0.00     0.039 C 
ENDBRANCH   6   7
ENDBRANCH   5   6
ENDBRANCH   3   5
ENDBRANCH   1   2
BRANCH   1  11
ATOM     11  C   UNL     1     115.353  88.731  59.099  1.00  0.00     0.034 C 
BRANCH  11  12
ATOM     12  C   UNL     1     116.499  88.138  58.309  1.00  0.00    -0.077 C 
ATOM     13  C   UNL     1     116.711  88.567  57.045  1.00  0.00    -0.028 C 
ATOM     14  C   UNL     1     117.389  87.105  58.962  1.00  0.00     0.039 C 
BRANCH  13  15
ATOM     15  C   UNL     1     117.765  88.016  56.115  1.00  0.00     0.035 C 
BRANCH  15  16
ATOM     16  C   UNL     1     118.727  89.110  55.629  1.00  0.00     0.079 C 
BRANCH  16  17
ATOM     17  C   UNL     1     120.107  88.940  56.214  1.00  0.00     0.130 C 
ATOM     18  O   UNL     1     120.228  88.661  57.398  1.00  0.00    -0.300 OA
ATOM     19  C   UNL     1     121.336  89.102  55.371  1.00  0.00     0.087 C 
ENDBRANCH  16  17
ENDBRANCH  15  16
ENDBRANCH  13  15
ENDBRANCH  11  12
ENDBRANCH   1  11
TORSDOF 9
ENDMDL
MODEL 6
REMARK VINA RESULT:    -2.135     12.793     15.127
REMARK INTER + INTRA:          -5.654
REMARK INTER:                  -3.002
REMARK INTRA:                  -2.652
REMARK UNBOUND:                -2.396
REMARK SMILES CC(=O)CCC=C(C)CCC=C(C)CCC=C(C)C
REMARK SMILES IDX 10 1 11 2 12 3 13 4 14 5 15 6 16 7 18 8 17 9 19 10 9 11 7 12
REMARK SMILES IDX 6 13 8 14 5 15 4 16 2 17 3 18 1 19
REMARK H PARENT
REMARK Flexibility Score: inf
ROOT
ATOM      1  C   UNL     1     107.432  88.700  55.126  1.00  0.00     0.032 C 
ENDROOT
BRANCH   1   2
ATOM      2  C   UNL     1     108.788  88.505  55.757  1.00  0.00    -0.028 C 
ATOM      3  C   UNL     1     109.006  87.829  56.908  1.00  0.00    -0.077 C 
ATOM      4  C   UNL     1     107.871  87.255  57.722  1.00  0.00     0.039 C 
BRANCH   3   5
ATOM      5  C   UNL     1     110.427  87.663  57.403  1.00  0.00     0.034 C 
BRANCH   5   6
ATOM      6  C   UNL     1     111.225  86.748  56.470  1.00  0.00     0.032 C 
BRANCH   6   7
ATOM      7  C   UNL     1     110.450  85.490  56.166  1.00  0.00    -0.028 C 
ATOM      8  C   UNL     1     109.263  83.843  54.781  1.00  0.00     0.039 C 
ATOM      9  C   UNL     1     110.076  85.104  54.925  1.00  0.00    -0.080 C 
ATOM     10  C   UNL     1     110.459  85.889  53.693  1.00  0.00     0.039 C 
ENDBRANCH   6   7
ENDBRANCH   5   6
ENDBRANCH   3   5
ENDBRANCH   1   2
BRANCH   1  11
ATOM     11  C   UNL     1     107.395  88.080  53.724  1.00  0.00     0.034 C 
BRANCH  11  12
ATOM     12  C   UNL     1     106.684  86.745  53.747  1.00  0.00    -0.077 C 
ATOM     13  C   UNL     1     105.864  86.461  54.783  1.00  0.00    -0.028 C 
ATOM     14  C   UNL     1     106.886  85.781  52.600  1.00  0.00     0.039 C 
BRANCH  13  15
ATOM     15  C   UNL     1     105.148  85.146  54.978  1.00  0.00     0.035 C 
BRANCH  15  16
ATOM     16  C   UNL     1     105.605  84.431  56.258  1.00  0.00     0.079 C 
BRANCH  16  17
ATOM     17  C   UNL     1     105.898  82.973  56.009  1.00  0.00     0.130 C 
ATOM     18  O   UNL     1     106.271  82.268  56.934  1.00  0.00    -0.300 OA
ATOM     19  C   UNL     1     105.736  82.368  54.647  1.00  0.00     0.087 C 
ENDBRANCH  16  17
ENDBRANCH  15  16
ENDBRANCH  13  15
ENDBRANCH  11  12
ENDBRANCH   1  11
TORSDOF 9
ENDMDL
MODEL 7
REMARK VINA RESULT:    -2.109     12.573     14.917
REMARK INTER + INTRA:          -5.615
REMARK INTER:                  -3.252
REMARK INTRA:                  -2.362
REMARK UNBOUND:                -2.396
REMARK SMILES CC(=O)CCC=C(C)CCC=C(C)CCC=C(C)C
REMARK SMILES IDX 10 1 11 2 12 3 13 4 14 5 15 6 16 7 18 8 17 9 19 10 9 11 7 12
REMARK SMILES IDX 6 13 8 14 5 15 4 16 2 17 3 18 1 19
REMARK H PARENT
REMARK Flexibility Score: inf
ROOT
ATOM      1  C   UNL     1     107.117  88.080  55.534  1.00  0.00     0.032 C 
ENDROOT
BRANCH   1   2
ATOM      2  C   UNL     1     108.497  88.119  56.142  1.00  0.00    -0.028 C 
ATOM      3  C   UNL     1     108.838  87.521  57.306  1.00  0.00    -0.077 C 
ATOM      4  C   UNL     1     107.820  86.800  58.158  1.00  0.00     0.039 C 
BRANCH   3   5
ATOM      5  C   UNL     1     110.275  87.595  57.776  1.00  0.00     0.034 C 
BRANCH   5   6
ATOM      6  C   UNL     1     110.798  86.205  58.150  1.00  0.00     0.032 C 
BRANCH   6   7
ATOM      7  C   UNL     1     110.891  85.324  56.929  1.00  0.00    -0.028 C 
ATOM      8  C   UNL     1     111.255  83.255  55.656  1.00  0.00     0.039 C 
ATOM      9  C   UNL     1     111.147  83.997  56.963  1.00  0.00    -0.080 C 
ATOM     10  C   UNL     1     111.312  83.246  58.263  1.00  0.00     0.039 C 
ENDBRANCH   6   7
ENDBRANCH   5   6
ENDBRANCH   3   5
ENDBRANCH   1   2
BRANCH   1  11
ATOM     11  C   UNL     1     107.079  87.114  54.344  1.00  0.00     0.034 C 
BRANCH  11  12
ATOM     12  C   UNL     1     106.793  85.703  54.808  1.00  0.00    -0.077 C 
ATOM     13  C   UNL     1     105.551  85.401  55.249  1.00  0.00    -0.028 C 
ATOM     14  C   UNL     1     107.891  84.666  54.741  1.00  0.00     0.039 C 
BRANCH  13  15
ATOM     15  C   UNL     1     105.140  84.061  55.811  1.00  0.00     0.035 C 
BRANCH  15  16
ATOM     16  C   UNL     1     105.227  84.034  57.344  1.00  0.00     0.079 C 
BRANCH  16  17
ATOM     17  C   UNL     1     106.096  82.903  57.833  1.00  0.00     0.130 C 
ATOM     18  O   UNL     1     105.600  81.804  58.029  1.00  0.00    -0.300 OA
ATOM     19  C   UNL     1     107.562  83.098  58.080  1.00  0.00     0.087 C 
ENDBRANCH  16  17
ENDBRANCH  15  16
ENDBRANCH  13  15
ENDBRANCH  11  12
ENDBRANCH   1  11
TORSDOF 9
ENDMDL
MODEL 8
REMARK VINA RESULT:    -2.103     11.541     13.906
REMARK INTER + INTRA:          -5.606
REMARK INTER:                  -3.020
REMARK INTRA:                  -2.586
REMARK UNBOUND:                -2.396
REMARK SMILES CC(=O)CCC=C(C)CCC=C(C)CCC=C(C)C
REMARK SMILES IDX 10 1 11 2 12 3 13 4 14 5 15 6 16 7 18 8 17 9 19 10 9 11 7 12
REMARK SMILES IDX 6 13 8 14 5 15 4 16 2 17 3 18 1 19
REMARK H PARENT
REMARK Flexibility Score: inf
ROOT
ATOM      1  C   UNL     1     109.697  89.045  55.859  1.00  0.00     0.032 C 
ENDROOT
BRANCH   1   2
ATOM      2  C   UNL     1     110.191  88.385  57.123  1.00  0.00    -0.028 C 
ATOM      3  C   UNL     1     109.447  87.565  57.900  1.00  0.00    -0.077 C 
ATOM      4  C   UNL     1     107.994  87.287  57.599  1.00  0.00     0.039 C 
BRANCH   3   5
ATOM      5  C   UNL     1     110.086  86.928  59.115  1.00  0.00     0.034 C 
BRANCH   5   6
ATOM      6  C   UNL     1     111.509  86.458  58.798  1.00  0.00     0.032 C 
BRANCH   6   7
ATOM      7  C   UNL     1     111.483  85.168  58.017  1.00  0.00    -0.028 C 
ATOM      8  C   UNL     1     111.916  83.659  56.127  1.00  0.00     0.039 C 
ATOM      9  C   UNL     1     112.066  84.994  56.810  1.00  0.00    -0.080 C 
ATOM     10  C   UNL     1     112.865  86.088  56.141  1.00  0.00     0.039 C 
ENDBRANCH   6   7
ENDBRANCH   5   6
ENDBRANCH   3   5
ENDBRANCH   1   2
BRANCH   1  11
ATOM     11  C   UNL     1     110.220  88.303  54.624  1.00  0.00     0.034 C 
BRANCH  11  12
ATOM     12  C   UNL     1     109.224  87.261  54.164  1.00  0.00    -0.077 C 
ATOM     13  C   UNL     1     107.978  87.656  53.821  1.00  0.00    -0.028 C 
ATOM     14  C   UNL     1     109.658  85.815  54.073  1.00  0.00     0.039 C 
BRANCH  13  15
ATOM     15  C   UNL     1     106.861  86.724  53.417  1.00  0.00     0.035 C 
BRANCH  15  16
ATOM     16  C   UNL     1     105.909  86.432  54.586  1.00  0.00     0.079 C 
BRANCH  16  17
ATOM     17  C   UNL     1     106.054  85.015  55.082  1.00  0.00     0.130 C 
ATOM     18  O   UNL     1     105.873  84.771  56.266  1.00  0.00    -0.300 OA
ATOM     19  C   UNL     1     106.411  83.896  54.150  1.00  0.00     0.087 C 
ENDBRANCH  16  17
ENDBRANCH  15  16
ENDBRANCH  13  15
ENDBRANCH  11  12
ENDBRANCH   1  11
TORSDOF 9
ENDMDL
MODEL 9
REMARK VINA RESULT:    -2.091      2.456      3.875
REMARK INTER + INTRA:          -5.587
REMARK INTER:                  -3.043
REMARK INTRA:                  -2.544
REMARK UNBOUND:                -2.396
REMARK SMILES CC(=O)CCC=C(C)CCC=C(C)CCC=C(C)C
REMARK SMILES IDX 10 1 11 2 12 3 13 4 14 5 15 6 16 7 18 8 17 9 19 10 9 11 7 12
REMARK SMILES IDX 6 13 8 14 5 15 4 16 2 17 3 18 1 19
REMARK H PARENT
REMARK Flexibility Score: inf
ROOT
ATOM      1  C   UNL     1     122.514  85.454  58.701  1.00  0.00     0.032 C 
ENDROOT
BRANCH   1   2
ATOM      2  C   UNL     1     121.212  86.207  58.587  1.00  0.00    -0.028 C 
ATOM      3  C   UNL     1     121.036  87.324  57.844  1.00  0.00    -0.077 C 
ATOM      4  C   UNL     1     122.179  87.973  57.100  1.00  0.00     0.039 C 
BRANCH   3   5
ATOM      5  C   UNL     1     119.660  87.950  57.775  1.00  0.00     0.034 C 
BRANCH   5   6
ATOM      6  C   UNL     1     118.692  87.053  56.998  1.00  0.00     0.032 C 
BRANCH   6   7
ATOM      7  C   UNL     1     119.136  86.907  55.564  1.00  0.00    -0.028 C 
ATOM      8  C   UNL     1     119.968  85.755  53.560  1.00  0.00     0.039 C 
ATOM      9  C   UNL     1     119.504  85.738  54.994  1.00  0.00    -0.080 C 
ATOM     10  C   UNL     1     119.450  84.429  55.744  1.00  0.00     0.039 C 
ENDBRANCH   6   7
ENDBRANCH   5   6
ENDBRANCH   3   5
ENDBRANCH   1   2
BRANCH   1  11
ATOM     11  C   UNL     1     122.561  84.300  57.694  1.00  0.00     0.034 C 
BRANCH  11  12
ATOM     12  C   UNL     1     123.575  84.580  56.606  1.00  0.00    -0.077 C 
ATOM     13  C   UNL     1     123.138  84.997  55.397  1.00  0.00    -0.028 C 
ATOM     14  C   UNL     1     125.047  84.413  56.909  1.00  0.00     0.039 C 
BRANCH  13  15
ATOM     15  C   UNL     1     124.023  85.242  54.199  1.00  0.00     0.035 C 
BRANCH  15  16
ATOM     16  C   UNL     1     124.344  86.733  54.022  1.00  0.00     0.079 C 
BRANCH  16  17
ATOM     17  C   UNL     1     123.321  87.425  53.156  1.00  0.00     0.130 C 
ATOM     18  O   UNL     1     122.638  88.320  53.629  1.00  0.00    -0.300 OA
ATOM     19  C   UNL     1     123.129  87.038  51.720  1.00  0.00     0.087 C 
ENDBRANCH  16  17
ENDBRANCH  15  16
ENDBRANCH  13  15
ENDBRANCH  11  12
ENDBRANCH   1  11
TORSDOF 9
ENDMDL
