MODEL 1
REMARK VINA RESULT:    -5.772      0.000      0.000
REMARK INTER + INTRA:          -6.658
REMARK INTER:                  -6.447
REMARK INTRA:                  -0.212
REMARK UNBOUND:                -0.212
REMARK SMILES CC(C)c1ccc(C(=O)[O-])cc1
REMARK SMILES IDX 7 1 6 2 11 3 5 4 12 5 4 6 8 7 9 8 10 9 2 10 1 11 3 12
REMARK H PARENT
REMARK Flexibility Score: inf
ROOT
ATOM      1  C   UNL     1      17.681  10.035 -21.052  1.00  0.00    -0.003 A 
ATOM      2  C   UNL     1      17.595   9.072 -20.034  1.00  0.00     0.010 A 
ATOM      3  C   UNL     1      16.705  10.045 -22.063  1.00  0.00     0.010 A 
ATOM      4  C   UNL     1      16.554   8.138 -20.026  1.00  0.00     0.004 A 
ATOM      5  C   UNL     1      15.665   9.111 -22.056  1.00  0.00     0.004 A 
ATOM      6  C   UNL     1      15.577   8.147 -21.038  1.00  0.00    -0.045 A 
ENDROOT
BRANCH   1   7
ATOM      7  C   UNL     1      18.784  11.021 -21.057  1.00  0.00     0.071 C 
ATOM      8  O   UNL     1      19.775  10.878 -20.292  1.00  0.00    -0.545 OA
ATOM      9  O   UNL     1      18.743  12.120 -21.908  1.00  0.00    -0.545 OA
ENDBRANCH   1   7
BRANCH   6  10
ATOM     10  C   UNL     1      14.443   7.140 -21.041  1.00  0.00     0.013 C 
ATOM     11  C   UNL     1      13.144   7.768 -20.524  1.00  0.00     0.012 C 
ATOM     12  C   UNL     1      14.811   5.890 -20.232  1.00  0.00     0.012 C 
ENDBRANCH   6  10
TORSDOF 2
ENDMDL
MODEL 2
REMARK VINA RESULT:    -5.740      0.084      1.400
REMARK INTER + INTRA:          -6.623
REMARK INTER:                  -6.410
REMARK INTRA:                  -0.213
REMARK UNBOUND:                -0.212
REMARK SMILES CC(C)c1ccc(C(=O)[O-])cc1
REMARK SMILES IDX 7 1 6 2 11 3 5 4 12 5 4 6 8 7 9 8 10 9 2 10 1 11 3 12
REMARK H PARENT
REMARK Flexibility Score: inf
ROOT
ATOM      1  C   UNL     1      17.693  10.074 -21.008  1.00  0.00    -0.003 A 
ATOM      2  C   UNL     1      16.750  10.050 -22.049  1.00  0.00     0.010 A 
ATOM      3  C   UNL     1      17.589   9.128 -19.974  1.00  0.00     0.010 A 
ATOM      4  C   UNL     1      15.724   9.101 -22.056  1.00  0.00     0.004 A 
ATOM      5  C   UNL     1      16.562   8.179 -19.981  1.00  0.00     0.004 A 
ATOM      6  C   UNL     1      15.619   8.154 -21.021  1.00  0.00    -0.045 A 
ENDROOT
BRANCH   1   7
ATOM      7  C   UNL     1      18.777  11.081 -21.004  1.00  0.00     0.071 C 
ATOM      8  O   UNL     1      19.728  10.995 -20.182  1.00  0.00    -0.545 OA
ATOM      9  O   UNL     1      18.763  12.136 -21.910  1.00  0.00    -0.545 OA
ENDBRANCH   1   7
BRANCH   6  10
ATOM     10  C   UNL     1      14.511   7.118 -21.016  1.00  0.00     0.013 C 
ATOM     11  C   UNL     1      13.175   7.738 -20.589  1.00  0.00     0.012 C 
ATOM     12  C   UNL     1      14.874   5.923 -20.126  1.00  0.00     0.012 C 
ENDBRANCH   6  10
TORSDOF 2
ENDMDL
MODEL 3
REMARK VINA RESULT:    -5.384      3.072      5.175
REMARK INTER + INTRA:          -6.225
REMARK INTER:                  -6.020
REMARK INTRA:                  -0.205
REMARK UNBOUND:                -0.212
REMARK SMILES CC(C)c1ccc(C(=O)[O-])cc1
REMARK SMILES IDX 7 1 6 2 11 3 5 4 12 5 4 6 8 7 9 8 10 9 2 10 1 11 3 12
REMARK H PARENT
REMARK Flexibility Score: inf
ROOT
ATOM      1  C   UNL     1      15.544   8.034 -20.792  1.00  0.00    -0.003 A 
ATOM      2  C   UNL     1      15.498   8.846 -21.936  1.00  0.00     0.010 A 
ATOM      3  C   UNL     1      16.564   8.243 -19.849  1.00  0.00     0.010 A 
ATOM      4  C   UNL     1      16.454   9.847 -22.135  1.00  0.00     0.004 A 
ATOM      5  C   UNL     1      17.520   9.244 -20.047  1.00  0.00     0.004 A 
ATOM      6  C   UNL     1      17.476  10.057 -21.191  1.00  0.00    -0.045 A 
ENDROOT
BRANCH   1   7
ATOM      7  C   UNL     1      14.531   6.975 -20.586  1.00  0.00     0.071 C 
ATOM      8  O   UNL     1      14.875   5.765 -20.514  1.00  0.00    -0.545 OA
ATOM      9  O   UNL     1      13.185   7.301 -20.469  1.00  0.00    -0.545 OA
ENDBRANCH   1   7
BRANCH   6  10
ATOM     10  C   UNL     1      18.519  11.140 -21.394  1.00  0.00     0.013 C 
ATOM     11  C   UNL     1      18.248  12.346 -20.487  1.00  0.00     0.012 C 
ATOM     12  C   UNL     1      18.597  11.564 -22.866  1.00  0.00     0.012 C 
ENDBRANCH   6  10
TORSDOF 2
ENDMDL
MODEL 4
REMARK VINA RESULT:    -5.285     16.573     17.832
REMARK INTER + INTRA:          -6.115
REMARK INTER:                  -5.912
REMARK INTRA:                  -0.203
REMARK UNBOUND:                -0.212
REMARK SMILES CC(C)c1ccc(C(=O)[O-])cc1
REMARK SMILES IDX 7 1 6 2 11 3 5 4 12 5 4 6 8 7 9 8 10 9 2 10 1 11 3 12
REMARK H PARENT
REMARK Flexibility Score: inf
ROOT
ATOM      1  C   UNL     1       4.716  -1.789 -29.095  1.00  0.00    -0.003 A 
ATOM      2  C   UNL     1       5.769  -0.860 -29.092  1.00  0.00     0.010 A 
ATOM      3  C   UNL     1       4.869  -2.992 -28.385  1.00  0.00     0.010 A 
ATOM      4  C   UNL     1       6.951  -1.127 -28.393  1.00  0.00     0.004 A 
ATOM      5  C   UNL     1       6.050  -3.260 -27.687  1.00  0.00     0.004 A 
ATOM      6  C   UNL     1       7.104  -2.332 -27.683  1.00  0.00    -0.045 A 
ENDROOT
BRANCH   1   7
ATOM      7  C   UNL     1       3.469  -1.502 -29.836  1.00  0.00     0.071 C 
ATOM      8  O   UNL     1       2.411  -1.205 -29.219  1.00  0.00    -0.545 OA
ATOM      9  O   UNL     1       3.446  -1.556 -31.225  1.00  0.00    -0.545 OA
ENDBRANCH   1   7
BRANCH   6  10
ATOM     10  C   UNL     1       8.380  -2.634 -26.920  1.00  0.00     0.013 C 
ATOM     11  C   UNL     1       9.259  -3.629 -27.686  1.00  0.00     0.012 C 
ATOM     12  C   UNL     1       8.072  -3.144 -25.507  1.00  0.00     0.012 C 
ENDBRANCH   6  10
TORSDOF 2
ENDMDL
MODEL 5
REMARK VINA RESULT:    -5.226     15.943     17.742
REMARK INTER + INTRA:          -6.049
REMARK INTER:                  -5.847
REMARK INTRA:                  -0.202
REMARK UNBOUND:                -0.212
REMARK SMILES CC(C)c1ccc(C(=O)[O-])cc1
REMARK SMILES IDX 7 1 6 2 11 3 5 4 12 5 4 6 8 7 9 8 10 9 2 10 1 11 3 12
REMARK H PARENT
REMARK Flexibility Score: inf
ROOT
ATOM      1  C   UNL     1       4.998  -1.915 -29.099  1.00  0.00    -0.003 A 
ATOM      2  C   UNL     1       4.999  -3.244 -28.646  1.00  0.00     0.010 A 
ATOM      3  C   UNL     1       6.120  -1.108 -28.844  1.00  0.00     0.010 A 
ATOM      4  C   UNL     1       6.100  -3.757 -27.952  1.00  0.00     0.004 A 
ATOM      5  C   UNL     1       7.220  -1.620 -28.150  1.00  0.00     0.004 A 
ATOM      6  C   UNL     1       7.223  -2.949 -27.696  1.00  0.00    -0.045 A 
ENDROOT
BRANCH   1   7
ATOM      7  C   UNL     1       3.831  -1.376 -29.832  1.00  0.00     0.071 C 
ATOM      8  O   UNL     1       2.880  -0.831 -29.211  1.00  0.00    -0.545 OA
ATOM      9  O   UNL     1       3.768  -1.464 -31.218  1.00  0.00    -0.545 OA
ENDBRANCH   1   7
BRANCH   6  10
ATOM     10  C   UNL     1       8.424  -3.493 -26.945  1.00  0.00     0.013 C 
ATOM     11  C   UNL     1       8.817  -2.569 -25.787  1.00  0.00     0.012 C 
ATOM     12  C   UNL     1       9.609  -3.727 -27.891  1.00  0.00     0.012 C 
ENDBRANCH   6  10
TORSDOF 2
ENDMDL
MODEL 6
REMARK VINA RESULT:    -5.207      8.924     10.277
REMARK INTER + INTRA:          -6.028
REMARK INTER:                  -5.822
REMARK INTRA:                  -0.206
REMARK UNBOUND:                -0.212
REMARK SMILES CC(C)c1ccc(C(=O)[O-])cc1
REMARK SMILES IDX 7 1 6 2 11 3 5 4 12 5 4 6 8 7 9 8 10 9 2 10 1 11 3 12
REMARK H PARENT
REMARK Flexibility Score: inf
ROOT
ATOM      1  C   UNL     1       9.280  13.487 -19.150  1.00  0.00    -0.003 A 
ATOM      2  C   UNL     1       9.705  12.985 -17.909  1.00  0.00     0.010 A 
ATOM      3  C   UNL     1       8.961  14.851 -19.260  1.00  0.00     0.010 A 
ATOM      4  C   UNL     1       9.810  13.830 -16.800  1.00  0.00     0.004 A 
ATOM      5  C   UNL     1       9.066  15.696 -18.151  1.00  0.00     0.004 A 
ATOM      6  C   UNL     1       9.491  15.196 -16.909  1.00  0.00    -0.045 A 
ENDROOT
BRANCH   1   7
ATOM      7  C   UNL     1       9.170  12.589 -20.321  1.00  0.00     0.071 C 
ATOM      8  O   UNL     1      10.023  11.683 -20.516  1.00  0.00    -0.545 OA
ATOM      9  O   UNL     1       8.122  12.733 -21.223  1.00  0.00    -0.545 OA
ENDBRANCH   1   7
BRANCH   6  10
ATOM     10  C   UNL     1       9.601  16.124 -15.714  1.00  0.00     0.013 C 
ATOM     11  C   UNL     1      10.835  15.792 -14.867  1.00  0.00     0.012 C 
ATOM     12  C   UNL     1       8.324  16.087 -14.866  1.00  0.00     0.012 C 
ENDBRANCH   6  10
TORSDOF 2
ENDMDL
MODEL 7
REMARK VINA RESULT:    -5.138      8.706      9.888
REMARK INTER + INTRA:          -5.951
REMARK INTER:                  -5.742
REMARK INTRA:                  -0.208
REMARK UNBOUND:                -0.212
REMARK SMILES CC(C)c1ccc(C(=O)[O-])cc1
REMARK SMILES IDX 7 1 6 2 11 3 5 4 12 5 4 6 8 7 9 8 10 9 2 10 1 11 3 12
REMARK H PARENT
REMARK Flexibility Score: inf
ROOT
ATOM      1  C   UNL     1       9.623  14.791 -16.283  1.00  0.00    -0.003 A 
ATOM      2  C   UNL     1       9.233  15.522 -17.417  1.00  0.00     0.010 A 
ATOM      3  C   UNL     1       9.986  13.442 -16.434  1.00  0.00     0.010 A 
ATOM      4  C   UNL     1       9.206  14.916 -18.677  1.00  0.00     0.004 A 
ATOM      5  C   UNL     1       9.959  12.837 -17.694  1.00  0.00     0.004 A 
ATOM      6  C   UNL     1       9.569  13.566 -18.829  1.00  0.00    -0.045 A 
ENDROOT
BRANCH   1   7
ATOM      7  C   UNL     1       9.649  15.436 -14.951  1.00  0.00     0.071 C 
ATOM      8  O   UNL     1       8.649  15.368 -14.187  1.00  0.00    -0.545 OA
ATOM      9  O   UNL     1      10.778  16.125 -14.524  1.00  0.00    -0.545 OA
ENDBRANCH   1   7
BRANCH   6  10
ATOM     10  C   UNL     1       9.546  12.897 -20.190  1.00  0.00     0.013 C 
ATOM     11  C   UNL     1       8.144  12.950 -20.809  1.00  0.00     0.012 C 
ATOM     12  C   UNL     1      10.058  11.454 -20.107  1.00  0.00     0.012 C 
ENDBRANCH   6  10
TORSDOF 2
ENDMDL
MODEL 8
REMARK VINA RESULT:    -4.805     16.018     17.740
REMARK INTER + INTRA:          -5.578
REMARK INTER:                  -5.379
REMARK INTRA:                  -0.199
REMARK UNBOUND:                -0.212
REMARK SMILES CC(C)c1ccc(C(=O)[O-])cc1
REMARK SMILES IDX 7 1 6 2 11 3 5 4 12 5 4 6 8 7 9 8 10 9 2 10 1 11 3 12
REMARK H PARENT
REMARK Flexibility Score: inf
ROOT
ATOM      1  C   UNL     1       6.951  -2.657 -27.579  1.00  0.00    -0.003 A 
ATOM      2  C   UNL     1       5.984  -3.586 -27.998  1.00  0.00     0.010 A 
ATOM      3  C   UNL     1       7.058  -1.433 -28.260  1.00  0.00     0.010 A 
ATOM      4  C   UNL     1       5.142  -3.297 -29.076  1.00  0.00     0.004 A 
ATOM      5  C   UNL     1       6.217  -1.144 -29.339  1.00  0.00     0.004 A 
ATOM      6  C   UNL     1       5.250  -2.072 -29.759  1.00  0.00    -0.045 A 
ENDROOT
BRANCH   1   7
ATOM      7  C   UNL     1       7.840  -2.967 -26.438  1.00  0.00     0.071 C 
ATOM      8  O   UNL     1       7.383  -3.011 -25.263  1.00  0.00    -0.545 OA
ATOM      9  O   UNL     1       9.192  -3.215 -26.645  1.00  0.00    -0.545 OA
ENDBRANCH   1   7
BRANCH   6  10
ATOM     10  C   UNL     1       4.343  -1.746 -30.930  1.00  0.00     0.013 C 
ATOM     11  C   UNL     1       2.869  -1.761 -30.510  1.00  0.00     0.012 C 
ATOM     12  C   UNL     1       4.591  -2.700 -32.105  1.00  0.00     0.012 C 
ENDBRANCH   6  10
TORSDOF 2
ENDMDL
MODEL 9
REMARK VINA RESULT:    -4.739     16.017     17.770
REMARK INTER + INTRA:          -5.505
REMARK INTER:                  -5.306
REMARK INTRA:                  -0.199
REMARK UNBOUND:                -0.212
REMARK SMILES CC(C)c1ccc(C(=O)[O-])cc1
REMARK SMILES IDX 7 1 6 2 11 3 5 4 12 5 4 6 8 7 9 8 10 9 2 10 1 11 3 12
REMARK H PARENT
REMARK Flexibility Score: inf
ROOT
ATOM      1  C   UNL     1       6.941  -2.802 -27.510  1.00  0.00    -0.003 A 
ATOM      2  C   UNL     1       6.834  -1.555 -28.149  1.00  0.00     0.010 A 
ATOM      3  C   UNL     1       6.090  -3.846 -27.910  1.00  0.00     0.010 A 
ATOM      4  C   UNL     1       5.895  -1.357 -29.166  1.00  0.00     0.004 A 
ATOM      5  C   UNL     1       5.151  -3.648 -28.927  1.00  0.00     0.004 A 
ATOM      6  C   UNL     1       5.043  -2.402 -29.566  1.00  0.00    -0.045 A 
ENDROOT
BRANCH   1   7
ATOM      7  C   UNL     1       7.935  -3.008 -26.434  1.00  0.00     0.071 C 
ATOM      8  O   UNL     1       7.583  -2.988 -25.224  1.00  0.00    -0.545 OA
ATOM      9  O   UNL     1       9.273  -3.227 -26.744  1.00  0.00    -0.545 OA
ENDBRANCH   1   7
BRANCH   6  10
ATOM     10  C   UNL     1       4.020  -2.200 -30.668  1.00  0.00     0.013 C 
ATOM     11  C   UNL     1       4.683  -1.686 -31.951  1.00  0.00     0.012 C 
ATOM     12  C   UNL     1       2.896  -1.261 -30.215  1.00  0.00     0.012 C 
ENDBRANCH   6  10
TORSDOF 2
ENDMDL
