MODEL 1
REMARK VINA RESULT:    -5.262      0.000      0.000
REMARK INTER + INTRA:          -7.381
REMARK INTER:                  -6.493
REMARK INTRA:                  -0.888
REMARK UNBOUND:                -0.888
REMARK SMILES CC(C)=CCC[C@H](C)c1ccc(C)cc1
REMARK SMILES IDX 6 1 7 2 8 3 9 4 13 5 12 6 11 7 14 8 10 9 15 10 5 11 4 12
REMARK SMILES IDX 2 13 1 14 3 15
REMARK H PARENT
REMARK Flexibility Score: inf
ROOT
ATOM      1  C   UNL     1      40.999 -37.940  20.250  1.00  0.00     0.012 C 
ENDROOT
BRANCH   1   2
ATOM      2  C   UNL     1      39.508 -38.315  20.066  1.00  0.00     0.016 C 
ATOM      3  C   UNL     1      38.621 -37.466  20.985  1.00  0.00     0.013 C 
BRANCH   2   4
ATOM      4  C   UNL     1      39.256 -39.794  20.299  1.00  0.00    -0.045 A 
ATOM      5  C   UNL     1      38.510 -43.991  21.000  1.00  0.00     0.044 C 
ATOM      6  C   UNL     1      38.740 -42.530  20.746  1.00  0.00    -0.051 A 
ATOM      7  C   UNL     1      38.520 -41.593  21.765  1.00  0.00     0.004 A 
ATOM      8  C   UNL     1      39.241 -42.098  19.510  1.00  0.00     0.004 A 
ATOM      9  C   UNL     1      38.770 -40.235  21.543  1.00  0.00     0.004 A 
ATOM     10  C   UNL     1      39.491 -40.741  19.285  1.00  0.00     0.004 A 
ENDBRANCH   2   4
ENDBRANCH   1   2
BRANCH   1  11
ATOM     11  C   UNL     1      41.238 -36.875  21.335  1.00  0.00     0.028 C 
BRANCH  11  12
ATOM     12  C   UNL     1      42.499 -37.138  22.125  1.00  0.00    -0.028 C 
ATOM     13  C   UNL     1      42.542 -37.783  23.311  1.00  0.00    -0.080 C 
ATOM     14  C   UNL     1      43.874 -37.932  23.998  1.00  0.00     0.039 C 
ATOM     15  C   UNL     1      41.306 -38.371  23.949  1.00  0.00     0.039 C 
ENDBRANCH  11  12
ENDBRANCH   1  11
TORSDOF 4
ENDMDL
MODEL 2
REMARK VINA RESULT:    -5.008      2.204      6.229
REMARK INTER + INTRA:          -7.068
REMARK INTER:                  -6.418
REMARK INTRA:                  -0.649
REMARK UNBOUND:                -0.888
REMARK SMILES CC(C)=CCC[C@H](C)c1ccc(C)cc1
REMARK SMILES IDX 6 1 7 2 8 3 9 4 13 5 12 6 11 7 14 8 10 9 15 10 5 11 4 12
REMARK SMILES IDX 2 13 1 14 3 15
REMARK H PARENT
REMARK Flexibility Score: inf
ROOT
ATOM      1  C   UNL     1      38.735 -43.912  21.416  1.00  0.00     0.012 C 
ENDROOT
BRANCH   1   2
ATOM      2  C   UNL     1      38.719 -43.121  20.086  1.00  0.00     0.016 C 
ATOM      3  C   UNL     1      39.721 -43.717  19.090  1.00  0.00     0.013 C 
BRANCH   2   4
ATOM      4  C   UNL     1      38.993 -41.641  20.297  1.00  0.00    -0.045 A 
ATOM      5  C   UNL     1      39.775 -37.429  20.847  1.00  0.00     0.044 C 
ATOM      6  C   UNL     1      39.475 -38.886  20.646  1.00  0.00    -0.051 A 
ATOM      7  C   UNL     1      39.792 -39.511  19.432  1.00  0.00     0.004 A 
ATOM      8  C   UNL     1      38.939 -39.647  21.693  1.00  0.00     0.004 A 
ATOM      9  C   UNL     1      39.548 -40.876  19.256  1.00  0.00     0.004 A 
ATOM     10  C   UNL     1      38.693 -41.012  21.519  1.00  0.00     0.004 A 
ENDBRANCH   2   4
ENDBRANCH   1   2
BRANCH   1  11
ATOM     11  C   UNL     1      37.349 -44.424  21.846  1.00  0.00     0.028 C 
BRANCH  11  12
ATOM     12  C   UNL     1      37.391 -45.144  23.173  1.00  0.00    -0.028 C 
ATOM     13  C   UNL     1      37.349 -44.536  24.379  1.00  0.00    -0.080 C 
ATOM     14  C   UNL     1      37.441 -45.391  25.617  1.00  0.00     0.039 C 
ATOM     15  C   UNL     1      37.192 -43.041  24.518  1.00  0.00     0.039 C 
ENDBRANCH  11  12
ENDBRANCH   1  11
TORSDOF 4
ENDMDL
MODEL 3
REMARK VINA RESULT:    -5.003      1.116      1.899
REMARK INTER + INTRA:          -7.061
REMARK INTER:                  -6.337
REMARK INTRA:                  -0.724
REMARK UNBOUND:                -0.888
REMARK SMILES CC(C)=CCC[C@H](C)c1ccc(C)cc1
REMARK SMILES IDX 6 1 7 2 8 3 9 4 13 5 12 6 11 7 14 8 10 9 15 10 5 11 4 12
REMARK SMILES IDX 2 13 1 14 3 15
REMARK H PARENT
REMARK Flexibility Score: inf
ROOT
ATOM      1  C   UNL     1      39.669 -38.859  23.570  1.00  0.00     0.012 C 
ENDROOT
BRANCH   1   2
ATOM      2  C   UNL     1      39.099 -38.623  22.151  1.00  0.00     0.016 C 
ATOM      3  C   UNL     1      37.690 -38.020  22.227  1.00  0.00     0.013 C 
BRANCH   2   4
ATOM      4  C   UNL     1      39.089 -39.894  21.318  1.00  0.00    -0.045 A 
ATOM      5  C   UNL     1      39.033 -43.526  18.982  1.00  0.00     0.044 C 
ATOM      6  C   UNL     1      39.025 -42.258  19.784  1.00  0.00    -0.051 A 
ATOM      7  C   UNL     1      38.600 -42.270  21.120  1.00  0.00     0.004 A 
ATOM      8  C   UNL     1      39.504 -41.066  19.224  1.00  0.00     0.004 A 
ATOM      9  C   UNL     1      38.627 -41.097  21.879  1.00  0.00     0.004 A 
ATOM     10  C   UNL     1      39.530 -39.891  19.982  1.00  0.00     0.004 A 
ENDBRANCH   2   4
ENDBRANCH   1   2
BRANCH   1  11
ATOM     11  C   UNL     1      40.470 -37.665  24.119  1.00  0.00     0.028 C 
BRANCH  11  12
ATOM     12  C   UNL     1      41.951 -37.955  24.191  1.00  0.00    -0.028 C 
ATOM     13  C   UNL     1      42.844 -37.632  23.230  1.00  0.00    -0.080 C 
ATOM     14  C   UNL     1      44.286 -38.023  23.431  1.00  0.00     0.039 C 
ATOM     15  C   UNL     1      42.445 -36.877  21.985  1.00  0.00     0.039 C 
ENDBRANCH  11  12
ENDBRANCH   1  11
TORSDOF 4
ENDMDL
MODEL 4
REMARK VINA RESULT:    -4.844      0.947      5.590
REMARK INTER + INTRA:          -6.864
REMARK INTER:                  -6.218
REMARK INTRA:                  -0.647
REMARK UNBOUND:                -0.888
REMARK SMILES CC(C)=CCC[C@H](C)c1ccc(C)cc1
REMARK SMILES IDX 6 1 7 2 8 3 9 4 13 5 12 6 11 7 14 8 10 9 15 10 5 11 4 12
REMARK SMILES IDX 2 13 1 14 3 15
REMARK H PARENT
REMARK Flexibility Score: inf
ROOT
ATOM      1  C   UNL     1      39.929 -39.375  19.498  1.00  0.00     0.012 C 
ENDROOT
BRANCH   1   2
ATOM      2  C   UNL     1      39.331 -38.646  20.725  1.00  0.00     0.016 C 
ATOM      3  C   UNL     1      38.484 -37.447  20.282  1.00  0.00     0.013 C 
BRANCH   2   4
ATOM      4  C   UNL     1      40.402 -38.207  21.709  1.00  0.00    -0.045 A 
ATOM      5  C   UNL     1      43.433 -36.992  24.536  1.00  0.00     0.044 C 
ATOM      6  C   UNL     1      42.397 -37.438  23.547  1.00  0.00    -0.051 A 
ATOM      7  C   UNL     1      41.307 -38.213  23.969  1.00  0.00     0.004 A 
ATOM      8  C   UNL     1      42.474 -37.030  22.209  1.00  0.00     0.004 A 
ATOM      9  C   UNL     1      40.320 -38.599  23.056  1.00  0.00     0.004 A 
ATOM     10  C   UNL     1      41.489 -37.416  21.295  1.00  0.00     0.004 A 
ENDBRANCH   2   4
ENDBRANCH   1   2
BRANCH   1  11
ATOM     11  C   UNL     1      39.181 -40.667  19.123  1.00  0.00     0.028 C 
BRANCH  11  12
ATOM     12  C   UNL     1      38.947 -41.559  20.320  1.00  0.00    -0.028 C 
ATOM     13  C   UNL     1      38.908 -42.909  20.276  1.00  0.00    -0.080 C 
ATOM     14  C   UNL     1      38.624 -43.660  21.551  1.00  0.00     0.039 C 
ATOM     15  C   UNL     1      39.162 -43.677  19.001  1.00  0.00     0.039 C 
ENDBRANCH  11  12
ENDBRANCH   1  11
TORSDOF 4
ENDMDL
MODEL 5
REMARK VINA RESULT:    -4.712      9.178     11.142
REMARK INTER + INTRA:          -6.702
REMARK INTER:                  -5.241
REMARK INTRA:                  -1.461
REMARK UNBOUND:                -0.888
REMARK SMILES CC(C)=CCC[C@H](C)c1ccc(C)cc1
REMARK SMILES IDX 6 1 7 2 8 3 9 4 13 5 12 6 11 7 14 8 10 9 15 10 5 11 4 12
REMARK SMILES IDX 2 13 1 14 3 15
REMARK H PARENT
REMARK Flexibility Score: inf
ROOT
ATOM      1  C   UNL     1      44.160 -43.717  32.051  1.00  0.00     0.012 C 
ENDROOT
BRANCH   1   2
ATOM      2  C   UNL     1      44.190 -44.381  30.654  1.00  0.00     0.016 C 
ATOM      3  C   UNL     1      44.974 -43.515  29.660  1.00  0.00     0.013 C 
BRANCH   2   4
ATOM      4  C   UNL     1      42.795 -44.667  30.125  1.00  0.00    -0.045 A 
ATOM      5  C   UNL     1      38.840 -45.459  28.580  1.00  0.00     0.044 C 
ATOM      6  C   UNL     1      40.225 -45.205  29.098  1.00  0.00    -0.051 A 
ATOM      7  C   UNL     1      41.026 -44.213  28.515  1.00  0.00     0.004 A 
ATOM      8  C   UNL     1      40.703 -45.911  30.210  1.00  0.00     0.004 A 
ATOM      9  C   UNL     1      42.303 -43.950  29.020  1.00  0.00     0.004 A 
ATOM     10  C   UNL     1      41.980 -45.650  30.716  1.00  0.00     0.004 A 
ENDBRANCH   2   4
ENDBRANCH   1   2
BRANCH   1  11
ATOM     11  C   UNL     1      43.139 -42.572  32.169  1.00  0.00     0.028 C 
BRANCH  11  12
ATOM     12  C   UNL     1      42.072 -42.860  33.199  1.00  0.00    -0.028 C 
ATOM     13  C   UNL     1      40.744 -42.746  32.982  1.00  0.00    -0.080 C 
ATOM     14  C   UNL     1      39.804 -43.032  34.125  1.00  0.00     0.039 C 
ATOM     15  C   UNL     1      40.181 -42.366  31.634  1.00  0.00     0.039 C 
ENDBRANCH  11  12
ENDBRANCH   1  11
TORSDOF 4
ENDMDL
MODEL 6
REMARK VINA RESULT:    -4.433     10.260     11.913
REMARK INTER + INTRA:          -6.358
REMARK INTER:                  -5.331
REMARK INTRA:                  -1.026
REMARK UNBOUND:                -0.888
REMARK SMILES CC(C)=CCC[C@H](C)c1ccc(C)cc1
REMARK SMILES IDX 6 1 7 2 8 3 9 4 13 5 12 6 11 7 14 8 10 9 15 10 5 11 4 12
REMARK SMILES IDX 2 13 1 14 3 15
REMARK H PARENT
REMARK Flexibility Score: inf
ROOT
ATOM      1  C   UNL     1      42.584 -44.161  29.658  1.00  0.00     0.012 C 
ENDROOT
BRANCH   1   2
ATOM      2  C   UNL     1      42.037 -45.437  30.343  1.00  0.00     0.016 C 
ATOM      3  C   UNL     1      41.608 -46.471  29.296  1.00  0.00     0.013 C 
BRANCH   2   4
ATOM      4  C   UNL     1      40.889 -45.132  31.291  1.00  0.00    -0.045 A 
ATOM      5  C   UNL     1      37.618 -44.312  33.990  1.00  0.00     0.044 C 
ATOM      6  C   UNL     1      38.771 -44.606  33.076  1.00  0.00    -0.051 A 
ATOM      7  C   UNL     1      38.865 -45.850  32.436  1.00  0.00     0.004 A 
ATOM      8  C   UNL     1      39.726 -43.618  32.802  1.00  0.00     0.004 A 
ATOM      9  C   UNL     1      39.918 -46.114  31.555  1.00  0.00     0.004 A 
ATOM     10  C   UNL     1      40.781 -43.879  31.923  1.00  0.00     0.004 A 
ENDBRANCH   2   4
ENDBRANCH   1   2
BRANCH   1  11
ATOM     11  C   UNL     1      44.056 -43.863  29.995  1.00  0.00     0.028 C 
BRANCH  11  12
ATOM     12  C   UNL     1      44.328 -43.934  31.479  1.00  0.00    -0.028 C 
ATOM     13  C   UNL     1      44.267 -42.881  32.323  1.00  0.00    -0.080 C 
ATOM     14  C   UNL     1      44.605 -43.104  33.775  1.00  0.00     0.039 C 
ATOM     15  C   UNL     1      43.850 -41.505  31.860  1.00  0.00     0.039 C 
ENDBRANCH  11  12
ENDBRANCH   1  11
TORSDOF 4
ENDMDL
MODEL 7
REMARK VINA RESULT:    -4.417      9.803     12.462
REMARK INTER + INTRA:          -6.339
REMARK INTER:                  -5.355
REMARK INTRA:                  -0.983
REMARK UNBOUND:                -0.888
REMARK SMILES CC(C)=CCC[C@H](C)c1ccc(C)cc1
REMARK SMILES IDX 6 1 7 2 8 3 9 4 13 5 12 6 11 7 14 8 10 9 15 10 5 11 4 12
REMARK SMILES IDX 2 13 1 14 3 15
REMARK H PARENT
REMARK Flexibility Score: inf
ROOT
ATOM      1  C   UNL     1      42.364 -42.836  33.140  1.00  0.00     0.012 C 
ENDROOT
BRANCH   1   2
ATOM      2  C   UNL     1      43.869 -42.665  32.823  1.00  0.00     0.016 C 
ATOM      3  C   UNL     1      44.717 -42.911  34.077  1.00  0.00     0.013 C 
BRANCH   2   4
ATOM      4  C   UNL     1      44.179 -41.302  32.229  1.00  0.00    -0.045 A 
ATOM      5  C   UNL     1      45.061 -37.405  30.586  1.00  0.00     0.044 C 
ATOM      6  C   UNL     1      44.783 -38.761  31.167  1.00  0.00    -0.051 A 
ATOM      7  C   UNL     1      44.252 -38.879  32.459  1.00  0.00     0.004 A 
ATOM      8  C   UNL     1      44.990 -39.915  30.399  1.00  0.00     0.004 A 
ATOM      9  C   UNL     1      43.957 -40.139  32.989  1.00  0.00     0.004 A 
ATOM     10  C   UNL     1      44.697 -41.176  30.927  1.00  0.00     0.004 A 
ENDBRANCH   2   4
ENDBRANCH   1   2
BRANCH   1  11
ATOM     11  C   UNL     1      41.485 -43.006  31.887  1.00  0.00     0.028 C 
BRANCH  11  12
ATOM     12  C   UNL     1      41.464 -44.434  31.393  1.00  0.00    -0.028 C 
ATOM     13  C   UNL     1      42.081 -44.868  30.273  1.00  0.00    -0.080 C 
ATOM     14  C   UNL     1      41.935 -46.318  29.890  1.00  0.00     0.039 C 
ATOM     15  C   UNL     1      42.923 -43.954  29.415  1.00  0.00     0.039 C 
ENDBRANCH  11  12
ENDBRANCH   1  11
TORSDOF 4
ENDMDL
MODEL 8
REMARK VINA RESULT:    -4.407      8.976     10.680
REMARK INTER + INTRA:          -6.325
REMARK INTER:                  -5.580
REMARK INTRA:                  -0.745
REMARK UNBOUND:                -0.888
REMARK SMILES CC(C)=CCC[C@H](C)c1ccc(C)cc1
REMARK SMILES IDX 6 1 7 2 8 3 9 4 13 5 12 6 11 7 14 8 10 9 15 10 5 11 4 12
REMARK SMILES IDX 2 13 1 14 3 15
REMARK H PARENT
REMARK Flexibility Score: inf
ROOT
ATOM      1  C   UNL     1      43.925 -43.577  32.025  1.00  0.00     0.012 C 
ENDROOT
BRANCH   1   2
ATOM      2  C   UNL     1      44.016 -44.400  30.718  1.00  0.00     0.016 C 
ATOM      3  C   UNL     1      44.911 -43.691  29.694  1.00  0.00     0.013 C 
BRANCH   2   4
ATOM      4  C   UNL     1      42.647 -44.683  30.122  1.00  0.00    -0.045 A 
ATOM      5  C   UNL     1      38.770 -45.468  28.389  1.00  0.00     0.044 C 
ATOM      6  C   UNL     1      40.129 -45.217  28.974  1.00  0.00    -0.051 A 
ATOM      7  C   UNL     1      40.971 -44.248  28.411  1.00  0.00     0.004 A 
ATOM      8  C   UNL     1      40.539 -45.902  30.126  1.00  0.00     0.004 A 
ATOM      9  C   UNL     1      42.223 -43.987  28.977  1.00  0.00     0.004 A 
ATOM     10  C   UNL     1      41.791 -45.643  30.693  1.00  0.00     0.004 A 
ENDBRANCH   2   4
ENDBRANCH   1   2
BRANCH   1  11
ATOM     11  C   UNL     1      42.866 -42.461  31.980  1.00  0.00     0.028 C 
BRANCH  11  12
ATOM     12  C   UNL     1      43.276 -41.250  32.784  1.00  0.00    -0.028 C 
ATOM     13  C   UNL     1      43.998 -40.215  32.300  1.00  0.00    -0.080 C 
ATOM     14  C   UNL     1      44.363 -39.094  33.240  1.00  0.00     0.039 C 
ATOM     15  C   UNL     1      44.425 -40.142  30.854  1.00  0.00     0.039 C 
ENDBRANCH  11  12
ENDBRANCH   1  11
TORSDOF 4
ENDMDL
MODEL 9
REMARK VINA RESULT:    -4.286      9.052     11.466
REMARK INTER + INTRA:          -6.176
REMARK INTER:                  -4.854
REMARK INTRA:                  -1.323
REMARK UNBOUND:                -0.888
REMARK SMILES CC(C)=CCC[C@H](C)c1ccc(C)cc1
REMARK SMILES IDX 6 1 7 2 8 3 9 4 13 5 12 6 11 7 14 8 10 9 15 10 5 11 4 12
REMARK SMILES IDX 2 13 1 14 3 15
REMARK H PARENT
REMARK Flexibility Score: inf
ROOT
ATOM      1  C   UNL     1      42.874 -41.322  34.026  1.00  0.00     0.012 C 
ENDROOT
BRANCH   1   2
ATOM      2  C   UNL     1      43.241 -42.794  33.720  1.00  0.00     0.016 C 
ATOM      3  C   UNL     1      44.755 -43.009  33.838  1.00  0.00     0.013 C 
BRANCH   2   4
ATOM      4  C   UNL     1      42.746 -43.236  32.353  1.00  0.00    -0.045 A 
ATOM      5  C   UNL     1      41.302 -44.462  28.472  1.00  0.00     0.044 C 
ATOM      6  C   UNL     1      41.814 -44.011  29.808  1.00  0.00    -0.051 A 
ATOM      7  C   UNL     1      40.979 -43.298  30.680  1.00  0.00     0.004 A 
ATOM      8  C   UNL     1      43.108 -44.355  30.221  1.00  0.00     0.004 A 
ATOM      9  C   UNL     1      41.443 -42.909  31.940  1.00  0.00     0.004 A 
ATOM     10  C   UNL     1      43.574 -43.966  31.481  1.00  0.00     0.004 A 
ENDBRANCH   2   4
ENDBRANCH   1   2
BRANCH   1  11
ATOM     11  C   UNL     1      44.007 -40.327  33.720  1.00  0.00     0.028 C 
BRANCH  11  12
ATOM     12  C   UNL     1      43.633 -39.353  32.628  1.00  0.00    -0.028 C 
ATOM     13  C   UNL     1      44.030 -39.453  31.340  1.00  0.00    -0.080 C 
ATOM     14  C   UNL     1      43.606 -38.379  30.373  1.00  0.00     0.039 C 
ATOM     15  C   UNL     1      44.859 -40.614  30.845  1.00  0.00     0.039 C 
ENDBRANCH  11  12
ENDBRANCH   1  11
TORSDOF 4
ENDMDL
