MODEL 1
REMARK VINA RESULT:    -3.411      0.000      0.000
REMARK INTER + INTRA:          -3.710
REMARK INTER:                  -3.710
REMARK INTRA:                   0.000
REMARK UNBOUND:                 0.000
REMARK SMILES [NH3+]CC(=O)[O-]
REMARK SMILES IDX 2 1 1 2 3 6 4 7 5 8
REMARK H PARENT 1 3 1 4 1 5
REMARK Flexibility Score: inf
ROOT
ATOM      1  C   UNL     1      65.420  28.278  36.109  1.00  0.00     0.312 C 
ENDROOT
BRANCH   1   2
ATOM      2  N   UNL     1      65.000  29.583  36.614  1.00  0.00    -0.353 N 
ATOM      3  H   UNL     1      64.506  29.455  37.527  1.00  0.00     0.344 HD
ATOM      4  H   UNL     1      65.835  30.196  36.764  1.00  0.00     0.344 HD
ATOM      5  H   UNL     1      64.346  30.037  35.936  1.00  0.00     0.344 HD
ENDBRANCH   1   2
BRANCH   1   6
ATOM      6  C   UNL     1      64.238  27.378  35.921  1.00  0.00     0.096 C 
ATOM      7  O   UNL     1      63.090  27.868  35.754  1.00  0.00    -0.544 OA
ATOM      8  O   UNL     1      64.397  26.000  35.981  1.00  0.00    -0.544 OA
ENDBRANCH   1   6
TORSDOF 2
ENDMDL
MODEL 2
REMARK VINA RESULT:    -3.372      1.418      1.701
REMARK INTER + INTRA:          -3.667
REMARK INTER:                  -3.667
REMARK INTRA:                   0.000
REMARK UNBOUND:                 0.000
REMARK SMILES [NH3+]CC(=O)[O-]
REMARK SMILES IDX 2 1 1 2 3 6 4 7 5 8
REMARK H PARENT 1 3 1 4 1 5
REMARK Flexibility Score: inf
ROOT
ATOM      1  C   UNL     1      64.299  28.826  36.179  1.00  0.00     0.312 C 
ENDROOT
BRANCH   1   2
ATOM      2  N   UNL     1      65.017  29.866  36.913  1.00  0.00    -0.353 N 
ATOM      3  H   UNL     1      64.685  30.804  36.592  1.00  0.00     0.344 HD
ATOM      4  H   UNL     1      64.833  29.774  37.939  1.00  0.00     0.344 HD
ATOM      5  H   UNL     1      66.045  29.790  36.730  1.00  0.00     0.344 HD
ENDBRANCH   1   2
BRANCH   1   6
ATOM      6  C   UNL     1      65.193  27.657  35.908  1.00  0.00     0.096 C 
ATOM      7  O   UNL     1      66.444  27.788  35.971  1.00  0.00    -0.544 OA
ATOM      8  O   UNL     1      64.646  26.435  35.536  1.00  0.00    -0.544 OA
ENDBRANCH   1   6
TORSDOF 2
ENDMDL
MODEL 3
REMARK VINA RESULT:    -3.326      2.550      2.553
REMARK INTER + INTRA:          -3.617
REMARK INTER:                  -3.617
REMARK INTRA:                   0.000
REMARK UNBOUND:                 0.000
REMARK SMILES [NH3+]CC(=O)[O-]
REMARK SMILES IDX 2 1 1 2 3 6 4 7 5 8
REMARK H PARENT 1 3 1 4 1 5
REMARK Flexibility Score: inf
ROOT
ATOM      1  C   UNL     1      66.469  26.534  36.004  1.00  0.00     0.312 C 
ENDROOT
BRANCH   1   2
ATOM      2  N   UNL     1      67.168  25.257  36.129  1.00  0.00    -0.353 N 
ATOM      3  H   UNL     1      66.652  24.529  35.582  1.00  0.00     0.344 HD
ATOM      4  H   UNL     1      68.139  25.340  35.750  1.00  0.00     0.344 HD
ATOM      5  H   UNL     1      67.204  24.964  37.132  1.00  0.00     0.344 HD
ENDBRANCH   1   2
BRANCH   1   6
ATOM      6  C   UNL     1      64.992  26.319  35.884  1.00  0.00     0.096 C 
ATOM      7  O   UNL     1      64.285  27.134  35.234  1.00  0.00    -0.544 OA
ATOM      8  O   UNL     1      64.390  25.249  36.532  1.00  0.00    -0.544 OA
ENDBRANCH   1   6
TORSDOF 2
ENDMDL
MODEL 4
REMARK VINA RESULT:    -3.304      2.201      2.386
REMARK INTER + INTRA:          -3.594
REMARK INTER:                  -3.594
REMARK INTRA:                   0.000
REMARK UNBOUND:                 0.000
REMARK SMILES [NH3+]CC(=O)[O-]
REMARK SMILES IDX 2 1 1 2 3 6 4 7 5 8
REMARK H PARENT 1 3 1 4 1 5
REMARK Flexibility Score: inf
ROOT
ATOM      1  C   UNL     1      63.973  27.977  35.846  1.00  0.00     0.312 C 
ENDROOT
BRANCH   1   2
ATOM      2  N   UNL     1      62.802  28.586  36.473  1.00  0.00    -0.353 N 
ATOM      3  H   UNL     1      62.559  28.052  37.338  1.00  0.00     0.344 HD
ATOM      4  H   UNL     1      63.009  29.578  36.733  1.00  0.00     0.344 HD
ATOM      5  H   UNL     1      61.987  28.556  35.817  1.00  0.00     0.344 HD
ENDBRANCH   1   2
BRANCH   1   6
ATOM      6  C   UNL     1      65.234  28.560  36.403  1.00  0.00     0.096 C 
ATOM      7  O   UNL     1      65.184  29.540  37.192  1.00  0.00    -0.544 OA
ATOM      8  O   UNL     1      66.467  28.053  36.011  1.00  0.00    -0.544 OA
ENDBRANCH   1   6
TORSDOF 2
ENDMDL
MODEL 5
REMARK VINA RESULT:    -3.296      3.721      4.148
REMARK INTER + INTRA:          -3.585
REMARK INTER:                  -3.585
REMARK INTRA:                   0.000
REMARK UNBOUND:                 0.000
REMARK SMILES [NH3+]CC(=O)[O-]
REMARK SMILES IDX 2 1 1 2 3 6 4 7 5 8
REMARK H PARENT 1 3 1 4 1 5
REMARK Flexibility Score: inf
ROOT
ATOM      1  C   UNL     1      66.477  26.836  36.063  1.00  0.00     0.312 C 
ENDROOT
BRANCH   1   2
ATOM      2  N   UNL     1      65.497  25.834  36.478  1.00  0.00    -0.353 N 
ATOM      3  H   UNL     1      64.664  25.887  35.848  1.00  0.00     0.344 HD
ATOM      4  H   UNL     1      65.912  24.876  36.412  1.00  0.00     0.344 HD
ATOM      5  H   UNL     1      65.190  26.018  37.461  1.00  0.00     0.344 HD
ENDBRANCH   1   2
BRANCH   1   6
ATOM      6  C   UNL     1      67.852  26.247  36.026  1.00  0.00     0.096 C 
ATOM      7  O   UNL     1      68.019  25.048  35.678  1.00  0.00    -0.544 OA
ATOM      8  O   UNL     1      68.944  27.007  36.425  1.00  0.00    -0.544 OA
ENDBRANCH   1   6
TORSDOF 2
ENDMDL
MODEL 6
REMARK VINA RESULT:    -3.269      2.583      3.060
REMARK INTER + INTRA:          -3.555
REMARK INTER:                  -3.555
REMARK INTRA:                   0.000
REMARK UNBOUND:                 0.000
REMARK SMILES [NH3+]CC(=O)[O-]
REMARK SMILES IDX 2 1 1 2 3 6 4 7 5 8
REMARK H PARENT 1 3 1 4 1 5
REMARK Flexibility Score: inf
ROOT
ATOM      1  C   UNL     1      64.651  26.944  35.950  1.00  0.00     0.312 C 
ENDROOT
BRANCH   1   2
ATOM      2  N   UNL     1      64.901  25.662  36.606  1.00  0.00    -0.353 N 
ATOM      3  H   UNL     1      65.903  25.617  36.901  1.00  0.00     0.344 HD
ATOM      4  H   UNL     1      64.293  25.567  37.452  1.00  0.00     0.344 HD
ATOM      5  H   UNL     1      64.707  24.876  35.943  1.00  0.00     0.344 HD
ENDBRANCH   1   2
BRANCH   1   6
ATOM      6  C   UNL     1      65.704  27.942  36.322  1.00  0.00     0.096 C 
ATOM      7  O   UNL     1      66.918  27.695  36.094  1.00  0.00    -0.544 OA
ATOM      8  O   UNL     1      65.349  29.120  36.965  1.00  0.00    -0.544 OA
ENDBRANCH   1   6
TORSDOF 2
ENDMDL
MODEL 7
REMARK VINA RESULT:    -3.169     14.709     15.089
REMARK INTER + INTRA:          -3.447
REMARK INTER:                  -3.447
REMARK INTRA:                   0.000
REMARK UNBOUND:                 0.000
REMARK SMILES [NH3+]CC(=O)[O-]
REMARK SMILES IDX 2 1 1 2 3 6 4 7 5 8
REMARK H PARENT 1 3 1 4 1 5
REMARK Flexibility Score: inf
ROOT
ATOM      1  C   UNL     1      60.400  14.291  30.353  1.00  0.00     0.312 C 
ENDROOT
BRANCH   1   2
ATOM      2  N   UNL     1      60.403  15.285  29.282  1.00  0.00    -0.353 N 
ATOM      3  H   UNL     1      60.336  16.241  29.702  1.00  0.00     0.344 HD
ATOM      4  H   UNL     1      61.290  15.218  28.732  1.00  0.00     0.344 HD
ATOM      5  H   UNL     1      59.583  15.135  28.650  1.00  0.00     0.344 HD
ENDBRANCH   1   2
BRANCH   1   6
ATOM      6  C   UNL     1      59.231  14.499  31.265  1.00  0.00     0.096 C 
ATOM      7  O   UNL     1      58.095  14.057  30.950  1.00  0.00    -0.544 OA
ATOM      8  O   UNL     1      59.386  15.226  32.439  1.00  0.00    -0.544 OA
ENDBRANCH   1   6
TORSDOF 2
ENDMDL
MODEL 8
REMARK VINA RESULT:    -3.148     15.213     15.585
REMARK INTER + INTRA:          -3.424
REMARK INTER:                  -3.424
REMARK INTRA:                   0.000
REMARK UNBOUND:                 0.000
REMARK SMILES [NH3+]CC(=O)[O-]
REMARK SMILES IDX 2 1 1 2 3 6 4 7 5 8
REMARK H PARENT 1 3 1 4 1 5
REMARK Flexibility Score: inf
ROOT
ATOM      1  C   UNL     1      60.185  15.143  30.535  1.00  0.00     0.312 C 
ENDROOT
BRANCH   1   2
ATOM      2  N   UNL     1      60.570  15.161  29.125  1.00  0.00    -0.353 N 
ATOM      3  H   UNL     1      61.212  14.358  28.934  1.00  0.00     0.344 HD
ATOM      4  H   UNL     1      59.721  15.067  28.520  1.00  0.00     0.344 HD
ATOM      5  H   UNL     1      61.067  16.053  28.899  1.00  0.00     0.344 HD
ENDBRANCH   1   2
BRANCH   1   6
ATOM      6  C   UNL     1      59.366  13.929  30.845  1.00  0.00     0.096 C 
ATOM      7  O   UNL     1      59.907  12.792  30.880  1.00  0.00    -0.544 OA
ATOM      8  O   UNL     1      57.997  14.047  31.044  1.00  0.00    -0.544 OA
ENDBRANCH   1   6
TORSDOF 2
ENDMDL
MODEL 9
REMARK VINA RESULT:    -3.106     11.596     11.878
REMARK INTER + INTRA:          -3.378
REMARK INTER:                  -3.378
REMARK INTRA:                   0.000
REMARK UNBOUND:                 0.000
REMARK SMILES [NH3+]CC(=O)[O-]
REMARK SMILES IDX 2 1 1 2 3 6 4 7 5 8
REMARK H PARENT 1 3 1 4 1 5
REMARK Flexibility Score: inf
ROOT
ATOM      1  C   UNL     1      67.625  17.427  30.004  1.00  0.00     0.312 C 
ENDROOT
BRANCH   1   2
ATOM      2  N   UNL     1      67.679  17.470  28.544  1.00  0.00    -0.353 N 
ATOM      3  H   UNL     1      67.974  18.426  28.239  1.00  0.00     0.344 HD
ATOM      4  H   UNL     1      68.372  16.771  28.189  1.00  0.00     0.344 HD
ATOM      5  H   UNL     1      66.734  17.264  28.144  1.00  0.00     0.344 HD
ENDBRANCH   1   2
BRANCH   1   6
ATOM      6  C   UNL     1      68.039  18.742  30.587  1.00  0.00     0.096 C 
ATOM      7  O   UNL     1      67.831  19.810  29.952  1.00  0.00    -0.544 OA
ATOM      8  O   UNL     1      68.701  18.784  31.807  1.00  0.00    -0.544 OA
ENDBRANCH   1   6
TORSDOF 2
ENDMDL
