MODEL 1
REMARK VINA RESULT:    -3.650      0.000      0.000
REMARK INTER + INTRA:          -7.924
REMARK INTER:                  -6.637
REMARK INTRA:                  -1.288
REMARK UNBOUND:                -1.288
REMARK SMILES CCCCCCCCCCCCCC[C@H](C)C(=O)[O-]
REMARK SMILES IDX 9 1 10 2 11 3 12 4 13 5 14 6 15 7 16 8 17 9 18 10 19 11 8 12
REMARK SMILES IDX 7 13 6 14 5 15 4 16 3 17 2 18 1 19
REMARK H PARENT
REMARK Flexibility Score: inf
ROOT
ATOM      1  C   UNL     1       3.467   1.713  -9.250  1.00  0.00     0.000 C 
ENDROOT
BRANCH   1   2
ATOM      2  C   UNL     1       3.247   3.233  -9.371  1.00  0.00     0.000 C 
BRANCH   2   3
ATOM      3  C   UNL     1       1.782   3.664  -9.576  1.00  0.00     0.000 C 
BRANCH   3   4
ATOM      4  C   UNL     1       0.808   2.527  -9.946  1.00  0.00     0.000 C 
BRANCH   4   5
ATOM      5  C   UNL     1      -0.091   2.038  -8.795  1.00  0.00     0.001 C 
BRANCH   5   6
ATOM      6  C   UNL     1      -0.459   0.538  -8.825  1.00  0.00     0.009 C 
BRANCH   6   7
ATOM      7  C   UNL     1       0.591  -0.453  -8.256  1.00  0.00     0.032 C 
ATOM      8  C   UNL     1       1.060  -1.491  -9.287  1.00  0.00     0.014 C 
BRANCH   7   9
ATOM      9  C   UNL     1       0.142  -1.092  -6.965  1.00  0.00     0.044 C 
ATOM     10  O   UNL     1      -0.842  -0.613  -6.342  1.00  0.00    -0.550 OA
ATOM     11  O   UNL     1       0.810  -2.192  -6.436  1.00  0.00    -0.550 OA
ENDBRANCH   7   9
ENDBRANCH   6   7
ENDBRANCH   5   6
ENDBRANCH   4   5
ENDBRANCH   3   4
ENDBRANCH   2   3
ENDBRANCH   1   2
BRANCH   1  12
ATOM     12  C   UNL     1       4.803   1.356  -8.583  1.00  0.00     0.000 C 
BRANCH  12  13
ATOM     13  C   UNL     1       4.719  -0.009  -7.883  1.00  0.00    -0.000 C 
BRANCH  13  14
ATOM     14  C   UNL     1       5.786  -0.191  -6.787  1.00  0.00    -0.000 C 
BRANCH  14  15
ATOM     15  C   UNL     1       5.990   1.022  -5.862  1.00  0.00    -0.000 C 
BRANCH  15  16
ATOM     16  C   UNL     1       6.014   0.642  -4.371  1.00  0.00    -0.000 C 
BRANCH  16  17
ATOM     17  C   UNL     1       5.200  -0.628  -4.064  1.00  0.00    -0.000 C 
BRANCH  17  18
ATOM     18  C   UNL     1       6.015  -1.802  -3.491  1.00  0.00    -0.003 C 
ATOM     19  C   UNL     1       5.240  -2.626  -2.464  1.00  0.00     0.004 C 
ENDBRANCH  17  18
ENDBRANCH  16  17
ENDBRANCH  15  16
ENDBRANCH  14  15
ENDBRANCH  13  14
ENDBRANCH  12  13
ENDBRANCH   1  12
TORSDOF 14
ENDMDL
MODEL 2
REMARK VINA RESULT:    -3.553      1.456      2.373
REMARK INTER + INTRA:          -7.748
REMARK INTER:                  -6.767
REMARK INTRA:                  -0.981
REMARK UNBOUND:                -1.288
REMARK SMILES CCCCCCCCCCCCCC[C@H](C)C(=O)[O-]
REMARK SMILES IDX 9 1 10 2 11 3 12 4 13 5 14 6 15 7 16 8 17 9 18 10 19 11 8 12
REMARK SMILES IDX 7 13 6 14 5 15 4 16 3 17 2 18 1 19
REMARK H PARENT
REMARK Flexibility Score: inf
ROOT
ATOM      1  C   UNL     1       4.039   3.479  -9.316  1.00  0.00     0.000 C 
ENDROOT
BRANCH   1   2
ATOM      2  C   UNL     1       2.635   4.092  -9.470  1.00  0.00     0.000 C 
BRANCH   2   3
ATOM      3  C   UNL     1       1.530   3.096  -9.874  1.00  0.00     0.000 C 
BRANCH   3   4
ATOM      4  C   UNL     1       0.129   3.406  -9.310  1.00  0.00     0.000 C 
BRANCH   4   5
ATOM      5  C   UNL     1      -0.812   2.191  -9.195  1.00  0.00     0.001 C 
BRANCH   5   6
ATOM      6  C   UNL     1      -0.167   0.897  -8.649  1.00  0.00     0.009 C 
BRANCH   6   7
ATOM      7  C   UNL     1      -1.116  -0.300  -8.380  1.00  0.00     0.032 C 
ATOM      8  C   UNL     1      -2.565  -0.029  -8.810  1.00  0.00     0.014 C 
BRANCH   7   9
ATOM      9  C   UNL     1      -1.025  -0.802  -6.960  1.00  0.00     0.044 C 
ATOM     10  O   UNL     1       0.104  -0.989  -6.436  1.00  0.00    -0.550 OA
ATOM     11  O   UNL     1      -2.170  -1.082  -6.221  1.00  0.00    -0.550 OA
ENDBRANCH   7   9
ENDBRANCH   6   7
ENDBRANCH   5   6
ENDBRANCH   4   5
ENDBRANCH   3   4
ENDBRANCH   2   3
ENDBRANCH   1   2
BRANCH   1  12
ATOM     12  C   UNL     1       4.013   1.946  -9.229  1.00  0.00     0.000 C 
BRANCH  12  13
ATOM     13  C   UNL     1       5.250   1.417  -8.489  1.00  0.00    -0.000 C 
BRANCH  13  14
ATOM     14  C   UNL     1       5.000   0.073  -7.779  1.00  0.00    -0.000 C 
BRANCH  14  15
ATOM     15  C   UNL     1       6.144  -0.410  -6.868  1.00  0.00    -0.000 C 
BRANCH  15  16
ATOM     16  C   UNL     1       5.736  -0.496  -5.388  1.00  0.00    -0.000 C 
BRANCH  16  17
ATOM     17  C   UNL     1       5.700   0.879  -4.695  1.00  0.00    -0.000 C 
BRANCH  17  18
ATOM     18  C   UNL     1       6.903   1.792  -4.996  1.00  0.00    -0.003 C 
ATOM     19  C   UNL     1       6.913   3.068  -4.156  1.00  0.00     0.004 C 
ENDBRANCH  17  18
ENDBRANCH  16  17
ENDBRANCH  15  16
ENDBRANCH  14  15
ENDBRANCH  13  14
ENDBRANCH  12  13
ENDBRANCH   1  12
TORSDOF 14
ENDMDL
MODEL 3
REMARK VINA RESULT:    -3.516      6.810     10.312
REMARK INTER + INTRA:          -7.682
REMARK INTER:                  -4.793
REMARK INTRA:                  -2.889
REMARK UNBOUND:                -1.288
REMARK SMILES CCCCCCCCCCCCCC[C@H](C)C(=O)[O-]
REMARK SMILES IDX 9 1 10 2 11 3 12 4 13 5 14 6 15 7 16 8 17 9 18 10 19 11 8 12
REMARK SMILES IDX 7 13 6 14 5 15 4 16 3 17 2 18 1 19
REMARK H PARENT
REMARK Flexibility Score: inf
ROOT
ATOM      1  C   UNL     1      -7.416  -2.209  -4.366  1.00  0.00     0.000 C 
ENDROOT
BRANCH   1   2
ATOM      2  C   UNL     1      -7.774  -3.618  -4.874  1.00  0.00     0.000 C 
BRANCH   2   3
ATOM      3  C   UNL     1      -7.519  -3.854  -6.375  1.00  0.00     0.000 C 
BRANCH   3   4
ATOM      4  C   UNL     1      -6.101  -4.346  -6.731  1.00  0.00     0.000 C 
BRANCH   4   5
ATOM      5  C   UNL     1      -5.204  -3.304  -7.425  1.00  0.00     0.001 C 
BRANCH   5   6
ATOM      6  C   UNL     1      -3.768  -3.180  -6.867  1.00  0.00     0.009 C 
BRANCH   6   7
ATOM      7  C   UNL     1      -3.350  -1.796  -6.305  1.00  0.00     0.032 C 
ATOM      8  C   UNL     1      -4.476  -0.753  -6.373  1.00  0.00     0.014 C 
BRANCH   7   9
ATOM      9  C   UNL     1      -2.065  -1.290  -6.912  1.00  0.00     0.044 C 
ATOM     10  O   UNL     1      -1.873  -1.406  -8.151  1.00  0.00    -0.550 OA
ATOM     11  O   UNL     1      -1.075  -0.714  -6.124  1.00  0.00    -0.550 OA
ENDBRANCH   7   9
ENDBRANCH   6   7
ENDBRANCH   5   6
ENDBRANCH   4   5
ENDBRANCH   3   4
ENDBRANCH   2   3
ENDBRANCH   1   2
BRANCH   1  12
ATOM     12  C   UNL     1      -6.744  -2.226  -2.985  1.00  0.00     0.000 C 
BRANCH  12  13
ATOM     13  C   UNL     1      -5.214  -2.213  -3.119  1.00  0.00    -0.000 C 
BRANCH  13  14
ATOM     14  C   UNL     1      -4.541  -3.436  -2.468  1.00  0.00    -0.000 C 
BRANCH  14  15
ATOM     15  C   UNL     1      -3.913  -4.440  -3.452  1.00  0.00    -0.000 C 
BRANCH  15  16
ATOM     16  C   UNL     1      -4.813  -5.658  -3.721  1.00  0.00    -0.000 C 
BRANCH  16  17
ATOM     17  C   UNL     1      -5.736  -5.995  -2.536  1.00  0.00    -0.000 C 
BRANCH  17  18
ATOM     18  C   UNL     1      -7.099  -6.598  -2.921  1.00  0.00    -0.003 C 
ATOM     19  C   UNL     1      -7.087  -7.283  -4.287  1.00  0.00     0.004 C 
ENDBRANCH  17  18
ENDBRANCH  16  17
ENDBRANCH  15  16
ENDBRANCH  14  15
ENDBRANCH  13  14
ENDBRANCH  12  13
ENDBRANCH   1  12
TORSDOF 14
ENDMDL
MODEL 4
REMARK VINA RESULT:    -3.472      1.288      2.328
REMARK INTER + INTRA:          -7.601
REMARK INTER:                  -5.847
REMARK INTRA:                  -1.754
REMARK UNBOUND:                -1.288
REMARK SMILES CCCCCCCCCCCCCC[C@H](C)C(=O)[O-]
REMARK SMILES IDX 9 1 10 2 11 3 12 4 13 5 14 6 15 7 16 8 17 9 18 10 19 11 8 12
REMARK SMILES IDX 7 13 6 14 5 15 4 16 3 17 2 18 1 19
REMARK H PARENT
REMARK Flexibility Score: inf
ROOT
ATOM      1  C   UNL     1       3.684   0.486  -9.095  1.00  0.00     0.000 C 
ENDROOT
BRANCH   1   2
ATOM      2  C   UNL     1       4.091   1.971  -9.100  1.00  0.00     0.000 C 
BRANCH   2   3
ATOM      3  C   UNL     1       2.956   2.956  -9.439  1.00  0.00     0.000 C 
BRANCH   3   4
ATOM      4  C   UNL     1       1.667   2.310  -9.985  1.00  0.00     0.000 C 
BRANCH   4   5
ATOM      5  C   UNL     1       0.428   2.463  -9.083  1.00  0.00     0.001 C 
BRANCH   5   6
ATOM      6  C   UNL     1      -0.552   1.268  -9.087  1.00  0.00     0.009 C 
BRANCH   6   7
ATOM      7  C   UNL     1      -0.059  -0.046  -8.426  1.00  0.00     0.032 C 
ATOM      8  C   UNL     1       0.250  -1.154  -9.444  1.00  0.00     0.014 C 
BRANCH   7   9
ATOM      9  C   UNL     1      -0.978  -0.520  -7.327  1.00  0.00     0.044 C 
ATOM     10  O   UNL     1      -0.529  -0.668  -6.160  1.00  0.00    -0.550 OA
ATOM     11  O   UNL     1      -2.313  -0.818  -7.582  1.00  0.00    -0.550 OA
ENDBRANCH   7   9
ENDBRANCH   6   7
ENDBRANCH   5   6
ENDBRANCH   4   5
ENDBRANCH   3   4
ENDBRANCH   2   3
ENDBRANCH   1   2
BRANCH   1  12
ATOM     12  C   UNL     1       4.191  -0.267  -7.857  1.00  0.00     0.000 C 
BRANCH  12  13
ATOM     13  C   UNL     1       3.229  -1.401  -7.472  1.00  0.00    -0.000 C 
BRANCH  13  14
ATOM     14  C   UNL     1       3.556  -2.032  -6.106  1.00  0.00    -0.000 C 
BRANCH  14  15
ATOM     15  C   UNL     1       4.997  -1.813  -5.610  1.00  0.00    -0.000 C 
BRANCH  15  16
ATOM     16  C   UNL     1       5.071  -0.926  -4.355  1.00  0.00    -0.000 C 
BRANCH  16  17
ATOM     17  C   UNL     1       6.282   0.026  -4.365  1.00  0.00    -0.000 C 
BRANCH  17  18
ATOM     18  C   UNL     1       6.057   1.358  -5.102  1.00  0.00    -0.003 C 
ATOM     19  C   UNL     1       7.180   1.700  -6.080  1.00  0.00     0.004 C 
ENDBRANCH  17  18
ENDBRANCH  16  17
ENDBRANCH  15  16
ENDBRANCH  14  15
ENDBRANCH  13  14
ENDBRANCH  12  13
ENDBRANCH   1  12
TORSDOF 14
ENDMDL
MODEL 5
REMARK VINA RESULT:    -3.470      5.071      7.323
REMARK INTER + INTRA:          -7.598
REMARK INTER:                  -6.467
REMARK INTRA:                  -1.130
REMARK UNBOUND:                -1.288
REMARK SMILES CCCCCCCCCCCCCC[C@H](C)C(=O)[O-]
REMARK SMILES IDX 9 1 10 2 11 3 12 4 13 5 14 6 15 7 16 8 17 9 18 10 19 11 8 12
REMARK SMILES IDX 7 13 6 14 5 15 4 16 3 17 2 18 1 19
REMARK H PARENT
REMARK Flexibility Score: inf
ROOT
ATOM      1  C   UNL     1       7.574   4.615  -3.217  1.00  0.00     0.000 C 
ENDROOT
BRANCH   1   2
ATOM      2  C   UNL     1       6.773   3.807  -4.255  1.00  0.00     0.000 C 
BRANCH   2   3
ATOM      3  C   UNL     1       6.838   2.277  -4.081  1.00  0.00     0.000 C 
BRANCH   3   4
ATOM      4  C   UNL     1       6.832   1.466  -5.392  1.00  0.00     0.000 C 
BRANCH   4   5
ATOM      5  C   UNL     1       5.685   0.447  -5.523  1.00  0.00     0.001 C 
BRANCH   5   6
ATOM      6  C   UNL     1       5.266  -0.260  -4.214  1.00  0.00     0.009 C 
BRANCH   6   7
ATOM      7  C   UNL     1       4.627  -1.666  -4.350  1.00  0.00     0.032 C 
ATOM      8  C   UNL     1       4.204  -2.001  -5.788  1.00  0.00     0.014 C 
BRANCH   7   9
ATOM      9  C   UNL     1       3.512  -1.892  -3.359  1.00  0.00     0.044 C 
ATOM     10  O   UNL     1       3.734  -1.754  -2.128  1.00  0.00    -0.550 OA
ATOM     11  O   UNL     1       2.241  -2.271  -3.779  1.00  0.00    -0.550 OA
ENDBRANCH   7   9
ENDBRANCH   6   7
ENDBRANCH   5   6
ENDBRANCH   4   5
ENDBRANCH   3   4
ENDBRANCH   2   3
ENDBRANCH   1   2
BRANCH   1  12
ATOM     12  C   UNL     1       6.965   5.997  -2.939  1.00  0.00     0.000 C 
BRANCH  12  13
ATOM     13  C   UNL     1       5.433   5.916  -2.861  1.00  0.00    -0.000 C 
BRANCH  13  14
ATOM     14  C   UNL     1       4.841   6.773  -1.726  1.00  0.00    -0.000 C 
BRANCH  14  15
ATOM     15  C   UNL     1       5.410   6.489  -0.324  1.00  0.00    -0.000 C 
BRANCH  15  16
ATOM     16  C   UNL     1       6.347   7.600   0.180  1.00  0.00    -0.000 C 
BRANCH  16  17
ATOM     17  C   UNL     1       7.543   7.058   0.984  1.00  0.00    -0.000 C 
BRANCH  17  18
ATOM     18  C   UNL     1       7.739   5.533   0.912  1.00  0.00    -0.003 C 
ATOM     19  C   UNL     1       9.016   5.125   0.178  1.00  0.00     0.004 C 
ENDBRANCH  17  18
ENDBRANCH  16  17
ENDBRANCH  15  16
ENDBRANCH  14  15
ENDBRANCH  13  14
ENDBRANCH  12  13
ENDBRANCH   1  12
TORSDOF 14
ENDMDL
MODEL 6
REMARK VINA RESULT:    -3.426      4.280      6.885
REMARK INTER + INTRA:          -7.517
REMARK INTER:                  -5.852
REMARK INTRA:                  -1.666
REMARK UNBOUND:                -1.288
REMARK SMILES CCCCCCCCCCCCCC[C@H](C)C(=O)[O-]
REMARK SMILES IDX 9 1 10 2 11 3 12 4 13 5 14 6 15 7 16 8 17 9 18 10 19 11 8 12
REMARK SMILES IDX 7 13 6 14 5 15 4 16 3 17 2 18 1 19
REMARK H PARENT
REMARK Flexibility Score: inf
ROOT
ATOM      1  C   UNL     1       9.894   0.540  -3.397  1.00  0.00     0.000 C 
ENDROOT
BRANCH   1   2
ATOM      2  C   UNL     1       8.506  -0.021  -3.759  1.00  0.00     0.000 C 
BRANCH   2   3
ATOM      3  C   UNL     1       7.711   0.816  -4.782  1.00  0.00     0.000 C 
BRANCH   3   4
ATOM      4  C   UNL     1       6.182   0.808  -4.590  1.00  0.00     0.000 C 
BRANCH   4   5
ATOM      5  C   UNL     1       5.387   0.118  -5.715  1.00  0.00     0.001 C 
BRANCH   5   6
ATOM      6  C   UNL     1       4.759  -1.246  -5.350  1.00  0.00     0.009 C 
BRANCH   6   7
ATOM      7  C   UNL     1       4.857  -1.690  -3.867  1.00  0.00     0.032 C 
ATOM      8  C   UNL     1       5.767  -2.910  -3.662  1.00  0.00     0.014 C 
BRANCH   7   9
ATOM      9  C   UNL     1       3.503  -1.872  -3.228  1.00  0.00     0.044 C 
ATOM     10  O   UNL     1       3.329  -1.529  -2.029  1.00  0.00    -0.550 OA
ATOM     11  O   UNL     1       2.444  -2.433  -3.933  1.00  0.00    -0.550 OA
ENDBRANCH   7   9
ENDBRANCH   6   7
ENDBRANCH   5   6
ENDBRANCH   4   5
ENDBRANCH   3   4
ENDBRANCH   2   3
ENDBRANCH   1   2
BRANCH   1  12
ATOM     12  C   UNL     1       9.980   2.065  -3.560  1.00  0.00     0.000 C 
BRANCH  12  13
ATOM     13  C   UNL     1       9.593   2.778  -2.256  1.00  0.00    -0.000 C 
BRANCH  13  14
ATOM     14  C   UNL     1       9.029   4.192  -2.486  1.00  0.00    -0.000 C 
BRANCH  14  15
ATOM     15  C   UNL     1       8.275   4.390  -3.814  1.00  0.00    -0.000 C 
BRANCH  15  16
ATOM     16  C   UNL     1       6.748   4.291  -3.656  1.00  0.00    -0.000 C 
BRANCH  16  17
ATOM     17  C   UNL     1       6.097   5.632  -3.270  1.00  0.00    -0.000 C 
BRANCH  17  18
ATOM     18  C   UNL     1       5.191   5.584  -2.027  1.00  0.00    -0.003 C 
ATOM     19  C   UNL     1       5.907   6.006  -0.744  1.00  0.00     0.004 C 
ENDBRANCH  17  18
ENDBRANCH  16  17
ENDBRANCH  15  16
ENDBRANCH  14  15
ENDBRANCH  13  14
ENDBRANCH  12  13
ENDBRANCH   1  12
TORSDOF 14
ENDMDL
MODEL 7
REMARK VINA RESULT:    -3.396      9.621     10.915
REMARK INTER + INTRA:          -7.463
REMARK INTER:                  -5.867
REMARK INTRA:                  -1.596
REMARK UNBOUND:                -1.288
REMARK SMILES CCCCCCCCCCCCCC[C@H](C)C(=O)[O-]
REMARK SMILES IDX 9 1 10 2 11 3 12 4 13 5 14 6 15 7 16 8 17 9 18 10 19 11 8 12
REMARK SMILES IDX 7 13 6 14 5 15 4 16 3 17 2 18 1 19
REMARK H PARENT
REMARK Flexibility Score: inf
ROOT
ATOM      1  C   UNL     1       3.292   7.875   0.755  1.00  0.00     0.000 C 
ENDROOT
BRANCH   1   2
ATOM      2  C   UNL     1       2.022   8.344   0.022  1.00  0.00     0.000 C 
BRANCH   2   3
ATOM      3  C   UNL     1       0.738   7.569   0.383  1.00  0.00     0.000 C 
BRANCH   3   4
ATOM      4  C   UNL     1      -0.581   8.288   0.038  1.00  0.00     0.000 C 
BRANCH   4   5
ATOM      5  C   UNL     1      -1.847   7.654   0.644  1.00  0.00     0.001 C 
BRANCH   5   6
ATOM      6  C   UNL     1      -1.715   6.175   1.071  1.00  0.00     0.009 C 
BRANCH   6   7
ATOM      7  C   UNL     1      -3.027   5.354   1.173  1.00  0.00     0.032 C 
ATOM      8  C   UNL     1      -3.986   5.600  -0.001  1.00  0.00     0.014 C 
BRANCH   7   9
ATOM      9  C   UNL     1      -3.707   5.515   2.510  1.00  0.00     0.044 C 
ATOM     10  O   UNL     1      -3.062   5.293   3.568  1.00  0.00    -0.550 OA
ATOM     11  O   UNL     1      -5.045   5.886   2.597  1.00  0.00    -0.550 OA
ENDBRANCH   7   9
ENDBRANCH   6   7
ENDBRANCH   5   6
ENDBRANCH   4   5
ENDBRANCH   3   4
ENDBRANCH   2   3
ENDBRANCH   1   2
BRANCH   1  12
ATOM     12  C   UNL     1       4.428   8.906   0.697  1.00  0.00     0.000 C 
BRANCH  12  13
ATOM     13  C   UNL     1       5.759   8.236   0.325  1.00  0.00    -0.000 C 
BRANCH  13  14
ATOM     14  C   UNL     1       5.622   6.723   0.072  1.00  0.00    -0.000 C 
BRANCH  14  15
ATOM     15  C   UNL     1       6.284   6.211  -1.220  1.00  0.00    -0.000 C 
BRANCH  15  16
ATOM     16  C   UNL     1       5.279   5.575  -2.197  1.00  0.00    -0.000 C 
BRANCH  16  17
ATOM     17  C   UNL     1       4.176   6.552  -2.642  1.00  0.00    -0.000 C 
BRANCH  17  18
ATOM     18  C   UNL     1       4.664   7.752  -3.473  1.00  0.00    -0.003 C 
ATOM     19  C   UNL     1       4.022   9.074  -3.054  1.00  0.00     0.004 C 
ENDBRANCH  17  18
ENDBRANCH  16  17
ENDBRANCH  15  16
ENDBRANCH  14  15
ENDBRANCH  13  14
ENDBRANCH  12  13
ENDBRANCH   1  12
TORSDOF 14
ENDMDL
MODEL 8
REMARK VINA RESULT:    -3.392      1.564      5.801
REMARK INTER + INTRA:          -7.455
REMARK INTER:                  -5.860
REMARK INTRA:                  -1.595
REMARK UNBOUND:                -1.288
REMARK SMILES CCCCCCCCCCCCCC[C@H](C)C(=O)[O-]
REMARK SMILES IDX 9 1 10 2 11 3 12 4 13 5 14 6 15 7 16 8 17 9 18 10 19 11 8 12
REMARK SMILES IDX 7 13 6 14 5 15 4 16 3 17 2 18 1 19
REMARK H PARENT
REMARK Flexibility Score: inf
ROOT
ATOM      1  C   UNL     1       3.972   1.853  -9.482  1.00  0.00     0.000 C 
ENDROOT
BRANCH   1   2
ATOM      2  C   UNL     1       4.866   1.291  -8.361  1.00  0.00     0.000 C 
BRANCH   2   3
ATOM      3  C   UNL     1       4.428  -0.079  -7.804  1.00  0.00     0.000 C 
BRANCH   3   4
ATOM      4  C   UNL     1       5.579  -1.036  -7.437  1.00  0.00     0.000 C 
BRANCH   4   5
ATOM      5  C   UNL     1       6.099  -0.907  -5.993  1.00  0.00     0.001 C 
BRANCH   5   6
ATOM      6  C   UNL     1       5.058  -0.450  -4.946  1.00  0.00     0.009 C 
BRANCH   6   7
ATOM      7  C   UNL     1       4.805  -1.400  -3.747  1.00  0.00     0.032 C 
ATOM      8  C   UNL     1       6.081  -2.095  -3.248  1.00  0.00     0.014 C 
BRANCH   7   9
ATOM      9  C   UNL     1       3.688  -2.379  -4.010  1.00  0.00     0.044 C 
ATOM     10  O   UNL     1       3.912  -3.412  -4.694  1.00  0.00    -0.550 OA
ATOM     11  O   UNL     1       2.403  -2.152  -3.527  1.00  0.00    -0.550 OA
ENDBRANCH   7   9
ENDBRANCH   6   7
ENDBRANCH   5   6
ENDBRANCH   4   5
ENDBRANCH   3   4
ENDBRANCH   2   3
ENDBRANCH   1   2
BRANCH   1  12
ATOM     12  C   UNL     1       3.644   3.341  -9.292  1.00  0.00     0.000 C 
BRANCH  12  13
ATOM     13  C   UNL     1       2.149   3.607  -9.521  1.00  0.00    -0.000 C 
BRANCH  13  14
ATOM     14  C   UNL     1       1.344   2.323  -9.797  1.00  0.00    -0.000 C 
BRANCH  14  15
ATOM     15  C   UNL     1       0.020   2.199  -9.021  1.00  0.00    -0.000 C 
BRANCH  15  16
ATOM     16  C   UNL     1      -0.304   0.751  -8.616  1.00  0.00    -0.000 C 
BRANCH  16  17
ATOM     17  C   UNL     1       0.897  -0.199  -8.775  1.00  0.00    -0.000 C 
BRANCH  17  18
ATOM     18  C   UNL     1       0.674  -1.627  -8.245  1.00  0.00    -0.003 C 
ATOM     19  C   UNL     1       1.199  -1.828  -6.824  1.00  0.00     0.004 C 
ENDBRANCH  17  18
ENDBRANCH  16  17
ENDBRANCH  15  16
ENDBRANCH  14  15
ENDBRANCH  13  14
ENDBRANCH  12  13
ENDBRANCH   1  12
TORSDOF 14
ENDMDL
MODEL 9
REMARK VINA RESULT:    -3.366      3.713      5.645
REMARK INTER + INTRA:          -7.408
REMARK INTER:                  -5.338
REMARK INTRA:                  -2.070
REMARK UNBOUND:                -1.288
REMARK SMILES CCCCCCCCCCCCCC[C@H](C)C(=O)[O-]
REMARK SMILES IDX 9 1 10 2 11 3 12 4 13 5 14 6 15 7 16 8 17 9 18 10 19 11 8 12
REMARK SMILES IDX 7 13 6 14 5 15 4 16 3 17 2 18 1 19
REMARK H PARENT
REMARK Flexibility Score: inf
ROOT
ATOM      1  C   UNL     1       8.991   1.908  -7.176  1.00  0.00     0.000 C 
ENDROOT
BRANCH   1   2
ATOM      2  C   UNL     1       7.874   1.022  -7.760  1.00  0.00     0.000 C 
BRANCH   2   3
ATOM      3  C   UNL     1       6.474   1.666  -7.777  1.00  0.00     0.000 C 
BRANCH   3   4
ATOM      4  C   UNL     1       5.412   0.951  -6.919  1.00  0.00     0.000 C 
BRANCH   4   5
ATOM      5  C   UNL     1       5.877  -0.367  -6.271  1.00  0.00     0.001 C 
BRANCH   5   6
ATOM      6  C   UNL     1       5.291  -0.668  -4.873  1.00  0.00     0.009 C 
BRANCH   6   7
ATOM      7  C   UNL     1       4.504  -1.995  -4.712  1.00  0.00     0.032 C 
ATOM      8  C   UNL     1       4.008  -2.568  -6.048  1.00  0.00     0.014 C 
BRANCH   7   9
ATOM      9  C   UNL     1       3.400  -1.892  -3.689  1.00  0.00     0.044 C 
ATOM     10  O   UNL     1       3.651  -1.429  -2.546  1.00  0.00    -0.550 OA
ATOM     11  O   UNL     1       2.108  -2.318  -3.979  1.00  0.00    -0.550 OA
ENDBRANCH   7   9
ENDBRANCH   6   7
ENDBRANCH   5   6
ENDBRANCH   4   5
ENDBRANCH   3   4
ENDBRANCH   2   3
ENDBRANCH   1   2
BRANCH   1  12
ATOM     12  C   UNL     1       9.548   1.368  -5.851  1.00  0.00     0.000 C 
BRANCH  12  13
ATOM     13  C   UNL     1       9.211   2.313  -4.689  1.00  0.00    -0.000 C 
BRANCH  13  14
ATOM     14  C   UNL     1       7.924   1.917  -3.942  1.00  0.00    -0.000 C 
BRANCH  14  15
ATOM     15  C   UNL     1       6.742   2.890  -4.108  1.00  0.00    -0.000 C 
BRANCH  15  16
ATOM     16  C   UNL     1       7.122   4.168  -4.875  1.00  0.00    -0.000 C 
BRANCH  16  17
ATOM     17  C   UNL     1       6.836   5.453  -4.075  1.00  0.00    -0.000 C 
BRANCH  17  18
ATOM     18  C   UNL     1       6.211   5.232  -2.687  1.00  0.00    -0.003 C 
ATOM     19  C   UNL     1       4.834   5.878  -2.538  1.00  0.00     0.004 C 
ENDBRANCH  17  18
ENDBRANCH  16  17
ENDBRANCH  15  16
ENDBRANCH  14  15
ENDBRANCH  13  14
ENDBRANCH  12  13
ENDBRANCH   1  12
TORSDOF 14
ENDMDL
