MODEL 1
REMARK VINA RESULT:    -3.617      0.000      0.000
REMARK INTER + INTRA:          -4.457
REMARK INTER:                  -4.146
REMARK INTRA:                  -0.311
REMARK UNBOUND:                -0.311
REMARK SMILES O=C1C[C@@H](c2ccc(O)cc2)Oc2cc(O)cc(O)c21
REMARK SMILES IDX 3 1 4 2 12 3 13 4 14 5 15 6 17 7 18 8 20 9 2 10 1 11 5 12
REMARK SMILES IDX 6 13 11 14 7 15 10 16 8 17 9 18 19 20 16 22
REMARK H PARENT 9 19 19 21 16 23
REMARK Flexibility Score: inf
ROOT
ATOM      1  C   UNL     1       4.902  -4.534  15.485  1.00  0.00     0.131 C 
ATOM      2  C   UNL     1       3.923  -4.250  14.334  1.00  0.00     0.211 C 
ATOM      3  O   UNL     1       4.051  -5.241  13.310  1.00  0.00    -0.484 OA
ATOM      4  C   UNL     1       4.183  -6.603  13.606  1.00  0.00     0.138 A 
ATOM      5  C   UNL     1       3.985  -7.547  12.595  1.00  0.00     0.093 A 
ATOM      6  C   UNL     1       4.088  -8.914  12.879  1.00  0.00     0.123 A 
ATOM      7  C   UNL     1       4.398  -9.333  14.177  1.00  0.00     0.093 A 
ATOM      8  C   UNL     1       4.617  -8.394  15.196  1.00  0.00     0.133 A 
ATOM      9  C   UNL     1       4.516  -7.016  14.910  1.00  0.00     0.102 A 
ATOM     10  C   UNL     1       4.784  -5.965  15.923  1.00  0.00     0.174 C 
ATOM     11  O   UNL     1       4.966  -6.258  17.135  1.00  0.00    -0.294 OA
ENDROOT
BRANCH   2  12
ATOM     12  C   UNL     1       4.158  -2.875  13.758  1.00  0.00    -0.007 A 
ATOM     13  C   UNL     1       3.880  -2.619  12.405  1.00  0.00     0.011 A 
ATOM     14  C   UNL     1       4.601  -1.822  14.578  1.00  0.00     0.011 A 
ATOM     15  C   UNL     1       4.067  -1.338  11.875  1.00  0.00     0.046 A 
ATOM     16  C   UNL     1       4.787  -0.543  14.046  1.00  0.00     0.046 A 
ATOM     17  C   UNL     1       4.523  -0.297  12.695  1.00  0.00     0.115 A 
BRANCH  17  18
ATOM     18  O   UNL     1       4.712   0.982  12.179  1.00  0.00    -0.508 OA
ATOM     19  H   UNL     1       4.045   1.400  11.540  1.00  0.00     0.293 HD
ENDBRANCH  17  18
ENDBRANCH   2  12
BRANCH   8  20
ATOM     20  O   UNL     1       4.942  -8.834  16.479  1.00  0.00    -0.507 OA
ATOM     21  H   UNL     1       4.566  -9.695  16.858  1.00  0.00     0.293 HD
ENDBRANCH   8  20
BRANCH   6  22
ATOM     22  O   UNL     1       3.884  -9.863  11.881  1.00  0.00    -0.508 OA
ATOM     23  H   UNL     1       4.657 -10.375  11.470  1.00  0.00     0.293 HD
ENDBRANCH   6  22
TORSDOF 4
ENDMDL
MODEL 2
REMARK VINA RESULT:    -3.292     17.568     19.747
REMARK INTER + INTRA:          -4.085
REMARK INTER:                  -3.802
REMARK INTRA:                  -0.283
REMARK UNBOUND:                -0.311
REMARK SMILES O=C1C[C@@H](c2ccc(O)cc2)Oc2cc(O)cc(O)c21
REMARK SMILES IDX 3 1 4 2 12 3 13 4 14 5 15 6 17 7 18 8 20 9 2 10 1 11 5 12
REMARK SMILES IDX 6 13 11 14 7 15 10 16 8 17 9 18 19 20 16 22
REMARK H PARENT 9 19 19 21 16 23
REMARK Flexibility Score: inf
ROOT
ATOM      1  C   UNL     1      10.841 -13.045  28.250  1.00  0.00     0.131 C 
ATOM      2  C   UNL     1      11.959 -13.493  29.205  1.00  0.00     0.211 C 
ATOM      3  O   UNL     1      12.671 -12.361  29.711  1.00  0.00    -0.484 OA
ATOM      4  C   UNL     1      12.015 -11.197  30.129  1.00  0.00     0.138 A 
ATOM      5  C   UNL     1      12.706 -10.259  30.901  1.00  0.00     0.093 A 
ATOM      6  C   UNL     1      12.059  -9.101  31.348  1.00  0.00     0.123 A 
ATOM      7  C   UNL     1      10.719  -8.881  31.015  1.00  0.00     0.093 A 
ATOM      8  C   UNL     1      10.019  -9.806  30.224  1.00  0.00     0.133 A 
ATOM      9  C   UNL     1      10.672 -10.971  29.771  1.00  0.00     0.102 A 
ATOM     10  C   UNL     1      10.014 -11.969  28.891  1.00  0.00     0.174 C 
ATOM     11  O   UNL     1       8.783 -11.897  28.631  1.00  0.00    -0.294 OA
ENDROOT
BRANCH   2  12
ATOM     12  C   UNL     1      12.911 -14.436  28.511  1.00  0.00    -0.007 A 
ATOM     13  C   UNL     1      13.257 -15.659  29.108  1.00  0.00     0.011 A 
ATOM     14  C   UNL     1      13.417 -14.130  27.234  1.00  0.00     0.011 A 
ATOM     15  C   UNL     1      14.115 -16.549  28.454  1.00  0.00     0.046 A 
ATOM     16  C   UNL     1      14.274 -15.021  26.582  1.00  0.00     0.046 A 
ATOM     17  C   UNL     1      14.627 -16.231  27.189  1.00  0.00     0.115 A 
BRANCH  17  18
ATOM     18  O   UNL     1      15.482 -17.108  26.527  1.00  0.00    -0.508 OA
ATOM     19  H   UNL     1      15.352 -18.113  26.578  1.00  0.00     0.293 HD
ENDBRANCH  17  18
ENDBRANCH   2  12
BRANCH   8  20
ATOM     20  O   UNL     1       8.689  -9.558  29.889  1.00  0.00    -0.507 OA
ATOM     21  H   UNL     1       7.978 -10.276  29.962  1.00  0.00     0.293 HD
ENDBRANCH   8  20
BRANCH   6  22
ATOM     22  O   UNL     1      12.736  -8.165  32.125  1.00  0.00    -0.508 OA
ATOM     23  H   UNL     1      12.991  -8.360  33.087  1.00  0.00     0.293 HD
ENDBRANCH   6  22
TORSDOF 4
ENDMDL
MODEL 3
REMARK VINA RESULT:    -2.999     17.262     19.454
REMARK INTER + INTRA:          -3.749
REMARK INTER:                  -3.466
REMARK INTRA:                  -0.283
REMARK UNBOUND:                -0.311
REMARK SMILES O=C1C[C@@H](c2ccc(O)cc2)Oc2cc(O)cc(O)c21
REMARK SMILES IDX 3 1 4 2 12 3 13 4 14 5 15 6 17 7 18 8 20 9 2 10 1 11 5 12
REMARK SMILES IDX 6 13 11 14 7 15 10 16 8 17 9 18 19 20 16 22
REMARK H PARENT 9 19 19 21 16 23
REMARK Flexibility Score: inf
ROOT
ATOM      1  C   UNL     1      13.701 -12.032  30.013  1.00  0.00     0.131 C 
ATOM      2  C   UNL     1      13.190 -12.218  28.575  1.00  0.00     0.211 C 
ATOM      3  O   UNL     1      11.759 -12.198  28.544  1.00  0.00    -0.484 OA
ATOM      4  C   UNL     1      11.013 -11.275  29.286  1.00  0.00     0.138 A 
ATOM      5  C   UNL     1       9.662 -11.084  28.984  1.00  0.00     0.093 A 
ATOM      6  C   UNL     1       8.907 -10.146  29.699  1.00  0.00     0.123 A 
ATOM      7  C   UNL     1       9.506  -9.405  30.722  1.00  0.00     0.093 A 
ATOM      8  C   UNL     1      10.857  -9.601  31.047  1.00  0.00     0.133 A 
ATOM      9  C   UNL     1      11.618 -10.547  30.329  1.00  0.00     0.102 A 
ATOM     10  C   UNL     1      13.036 -10.845  30.648  1.00  0.00     0.174 C 
ATOM     11  O   UNL     1      13.676 -10.151  31.483  1.00  0.00    -0.294 OA
ENDROOT
BRANCH   2  12
ATOM     12  C   UNL     1      13.703 -13.509  27.987  1.00  0.00    -0.007 A 
ATOM     13  C   UNL     1      13.610 -14.706  28.717  1.00  0.00     0.011 A 
ATOM     14  C   UNL     1      14.226 -13.542  26.681  1.00  0.00     0.011 A 
ATOM     15  C   UNL     1      14.056 -15.910  28.162  1.00  0.00     0.046 A 
ATOM     16  C   UNL     1      14.671 -14.747  26.129  1.00  0.00     0.046 A 
ATOM     17  C   UNL     1      14.589 -15.933  26.867  1.00  0.00     0.115 A 
BRANCH  17  18
ATOM     18  O   UNL     1      15.036 -17.125  26.303  1.00  0.00    -0.508 OA
ATOM     19  H   UNL     1      14.421 -17.924  26.198  1.00  0.00     0.293 HD
ENDBRANCH  17  18
ENDBRANCH   2  12
BRANCH   8  20
ATOM     20  O   UNL     1      11.430  -8.863  32.083  1.00  0.00    -0.507 OA
ATOM     21  H   UNL     1      11.671  -9.290  32.970  1.00  0.00     0.293 HD
ENDBRANCH   8  20
BRANCH   6  22
ATOM     22  O   UNL     1       7.562  -9.942  29.400  1.00  0.00    -0.508 OA
ATOM     23  H   UNL     1       7.069  -9.115  29.717  1.00  0.00     0.293 HD
ENDBRANCH   6  22
TORSDOF 4
ENDMDL
MODEL 4
REMARK VINA RESULT:    -2.908      1.195      1.626
REMARK INTER + INTRA:          -3.645
REMARK INTER:                  -3.331
REMARK INTRA:                  -0.314
REMARK UNBOUND:                -0.311
REMARK SMILES O=C1C[C@@H](c2ccc(O)cc2)Oc2cc(O)cc(O)c21
REMARK SMILES IDX 3 1 4 2 12 3 13 4 14 5 15 6 17 7 18 8 20 9 2 10 1 11 5 12
REMARK SMILES IDX 6 13 11 14 7 15 10 16 8 17 9 18 19 20 16 22
REMARK H PARENT 9 19 19 21 16 23
REMARK Flexibility Score: inf
ROOT
ATOM      1  C   UNL     1       4.863  -6.135  15.515  1.00  0.00     0.131 C 
ATOM      2  C   UNL     1       3.882  -5.887  14.359  1.00  0.00     0.211 C 
ATOM      3  O   UNL     1       4.061  -6.866  13.330  1.00  0.00    -0.484 OA
ATOM      4  C   UNL     1       4.249  -8.223  13.620  1.00  0.00     0.138 A 
ATOM      5  C   UNL     1       4.099  -9.168  12.603  1.00  0.00     0.093 A 
ATOM      6  C   UNL     1       4.259 -10.532  12.880  1.00  0.00     0.123 A 
ATOM      7  C   UNL     1       4.576 -10.945  14.177  1.00  0.00     0.093 A 
ATOM      8  C   UNL     1       4.748 -10.003  15.203  1.00  0.00     0.133 A 
ATOM      9  C   UNL     1       4.590  -8.629  14.925  1.00  0.00     0.102 A 
ATOM     10  C   UNL     1       4.803  -7.573  15.945  1.00  0.00     0.174 C 
ATOM     11  O   UNL     1       4.989  -7.865  17.156  1.00  0.00    -0.294 OA
ENDROOT
BRANCH   2  12
ATOM     12  C   UNL     1       4.061  -4.501  13.792  1.00  0.00    -0.007 A 
ATOM     13  C   UNL     1       4.013  -4.292  12.403  1.00  0.00     0.011 A 
ATOM     14  C   UNL     1       4.222  -3.394  14.645  1.00  0.00     0.011 A 
ATOM     15  C   UNL     1       4.148  -3.004  11.876  1.00  0.00     0.046 A 
ATOM     16  C   UNL     1       4.356  -2.108  14.115  1.00  0.00     0.046 A 
ATOM     17  C   UNL     1       4.322  -1.908  12.731  1.00  0.00     0.115 A 
BRANCH  17  18
ATOM     18  O   UNL     1       4.457  -0.621  12.219  1.00  0.00    -0.508 OA
ATOM     19  H   UNL     1       3.953  -0.325  11.390  1.00  0.00     0.293 HD
ENDBRANCH  17  18
ENDBRANCH   2  12
BRANCH   8  20
ATOM     20  O   UNL     1       5.081 -10.436  16.487  1.00  0.00    -0.507 OA
ATOM     21  H   UNL     1       5.973 -10.873  16.686  1.00  0.00     0.293 HD
ENDBRANCH   8  20
BRANCH   6  22
ATOM     22  O   UNL     1       4.104 -11.483  11.875  1.00  0.00    -0.508 OA
ATOM     23  H   UNL     1       3.541 -12.314  12.015  1.00  0.00     0.293 HD
ENDBRANCH   6  22
TORSDOF 4
ENDMDL
MODEL 5
REMARK VINA RESULT:    -1.773     16.824     19.365
REMARK INTER + INTRA:          -2.343
REMARK INTER:                  -2.055
REMARK INTRA:                  -0.288
REMARK UNBOUND:                -0.311
REMARK SMILES O=C1C[C@@H](c2ccc(O)cc2)Oc2cc(O)cc(O)c21
REMARK SMILES IDX 3 1 4 2 12 3 13 4 14 5 15 6 17 7 18 8 20 9 2 10 1 11 5 12
REMARK SMILES IDX 6 13 11 14 7 15 10 16 8 17 9 18 19 20 16 22
REMARK H PARENT 9 19 19 21 16 23
REMARK Flexibility Score: inf
ROOT
ATOM      1  C   UNL     1      12.032 -13.404  27.379  1.00  0.00     0.131 C 
ATOM      2  C   UNL     1      12.192 -12.646  28.706  1.00  0.00     0.211 C 
ATOM      3  O   UNL     1      12.384 -13.562  29.789  1.00  0.00    -0.484 OA
ATOM      4  C   UNL     1      13.225 -14.677  29.678  1.00  0.00     0.138 A 
ATOM      5  C   UNL     1      13.627 -15.350  30.834  1.00  0.00     0.093 A 
ATOM      6  C   UNL     1      14.487 -16.451  30.744  1.00  0.00     0.123 A 
ATOM      7  C   UNL     1      14.938 -16.881  29.493  1.00  0.00     0.093 A 
ATOM      8  C   UNL     1      14.526 -16.224  28.322  1.00  0.00     0.133 A 
ATOM      9  C   UNL     1      13.657 -15.117  28.412  1.00  0.00     0.102 A 
ATOM     10  C   UNL     1      13.140 -14.404  27.217  1.00  0.00     0.174 C 
ATOM     11  O   UNL     1      13.577 -14.662  26.064  1.00  0.00    -0.294 OA
ENDROOT
BRANCH   2  12
ATOM     12  C   UNL     1      10.991 -11.773  28.974  1.00  0.00    -0.007 A 
ATOM     13  C   UNL     1       9.803 -11.963  28.250  1.00  0.00     0.011 A 
ATOM     14  C   UNL     1      11.027 -10.798  29.988  1.00  0.00     0.011 A 
ATOM     15  C   UNL     1       8.678 -11.177  28.517  1.00  0.00     0.046 A 
ATOM     16  C   UNL     1       9.901 -10.014  30.253  1.00  0.00     0.046 A 
ATOM     17  C   UNL     1       8.725 -10.198  29.519  1.00  0.00     0.115 A 
BRANCH  17  18
ATOM     18  O   UNL     1       7.612  -9.409  29.794  1.00  0.00    -0.508 OA
ATOM     19  H   UNL     1       6.677  -9.701  29.531  1.00  0.00     0.293 HD
ENDBRANCH  17  18
ENDBRANCH   2  12
BRANCH   8  20
ATOM     20  O   UNL     1      14.974 -16.681  27.083  1.00  0.00    -0.507 OA
ATOM     21  H   UNL     1      14.480 -16.464  26.225  1.00  0.00     0.293 HD
ENDBRANCH   8  20
BRANCH   6  22
ATOM     22  O   UNL     1      14.900 -17.124  31.891  1.00  0.00    -0.508 OA
ATOM     23  H   UNL     1      14.609 -18.076  32.081  1.00  0.00     0.293 HD
ENDBRANCH   6  22
TORSDOF 4
ENDMDL
