MODEL 1
REMARK VINA RESULT:    -5.681      0.000      0.000
REMARK INTER + INTRA:          -6.014
REMARK INTER:                  -6.014
REMARK INTRA:                   0.000
REMARK UNBOUND:                 0.000
REMARK SMILES Cc1cc(O)c(C)c(C)c1O
REMARK SMILES IDX 1 1 2 2 3 3 4 4 6 5 8 6 10 7 9 8 7 9 11 10 5 12
REMARK H PARENT 11 11 5 13
REMARK Flexibility Score: inf
ROOT
ATOM      1  C   UNL     1      17.486  43.627   8.818  1.00  0.00     0.048 C 
ATOM      2  C   UNL     1      16.834  43.978   7.508  1.00  0.00    -0.005 A 
ATOM      3  C   UNL     1      17.266  43.343   6.339  1.00  0.00     0.053 A 
ATOM      4  C   UNL     1      16.699  43.645   5.103  1.00  0.00     0.119 A 
ATOM      5  C   UNL     1      15.682  44.624   5.007  1.00  0.00    -0.003 A 
ATOM      6  C   UNL     1      15.190  45.229   6.195  1.00  0.00    -0.002 A 
ATOM      7  C   UNL     1      15.788  44.922   7.439  1.00  0.00     0.121 A 
ATOM      8  C   UNL     1      14.049  46.221   6.145  1.00  0.00     0.049 C 
ATOM      9  C   UNL     1      15.125  44.980   3.645  1.00  0.00     0.049 C 
ENDROOT
BRANCH   7  10
ATOM     10  O   UNL     1      15.328  45.565   8.596  1.00  0.00    -0.507 OA
ATOM     11  H   UNL     1      15.803  45.516   9.488  1.00  0.00     0.293 HD
ENDBRANCH   7  10
BRANCH   4  12
ATOM     12  O   UNL     1      17.168  42.944   3.987  1.00  0.00    -0.508 OA
ATOM     13  H   UNL     1      16.567  42.435   3.353  1.00  0.00     0.293 HD
ENDBRANCH   4  12
TORSDOF 2
ENDMDL
MODEL 2
REMARK VINA RESULT:    -5.400      1.221      3.186
REMARK INTER + INTRA:          -5.716
REMARK INTER:                  -5.716
REMARK INTRA:                   0.000
REMARK UNBOUND:                 0.000
REMARK SMILES Cc1cc(O)c(C)c(C)c1O
REMARK SMILES IDX 1 1 2 2 3 3 4 4 6 5 8 6 10 7 9 8 7 9 11 10 5 12
REMARK H PARENT 11 11 5 13
REMARK Flexibility Score: inf
ROOT
ATOM      1  C   UNL     1      13.328  45.977   4.111  1.00  0.00     0.048 C 
ATOM      2  C   UNL     1      14.518  45.378   4.811  1.00  0.00    -0.005 A 
ATOM      3  C   UNL     1      15.451  44.647   4.068  1.00  0.00     0.053 A 
ATOM      4  C   UNL     1      16.562  44.065   4.676  1.00  0.00     0.119 A 
ATOM      5  C   UNL     1      16.753  44.188   6.072  1.00  0.00    -0.003 A 
ATOM      6  C   UNL     1      15.848  44.982   6.828  1.00  0.00    -0.002 A 
ATOM      7  C   UNL     1      14.718  45.552   6.196  1.00  0.00     0.121 A 
ATOM      8  C   UNL     1      16.063  45.205   8.309  1.00  0.00     0.049 C 
ATOM      9  C   UNL     1      17.933  43.496   6.719  1.00  0.00     0.049 C 
ENDROOT
BRANCH   7  10
ATOM     10  O   UNL     1      13.806  46.287   6.963  1.00  0.00    -0.507 OA
ATOM     11  H   UNL     1      12.833  46.406   6.713  1.00  0.00     0.293 HD
ENDBRANCH   7  10
BRANCH   4  12
ATOM     12  O   UNL     1      17.461  43.376   3.857  1.00  0.00    -0.508 OA
ATOM     13  H   UNL     1      17.594  43.580   2.875  1.00  0.00     0.293 HD
ENDBRANCH   4  12
TORSDOF 2
ENDMDL
MODEL 3
REMARK VINA RESULT:    -5.335      2.706      5.271
REMARK INTER + INTRA:          -5.647
REMARK INTER:                  -5.647
REMARK INTRA:                   0.000
REMARK UNBOUND:                 0.000
REMARK SMILES Cc1cc(O)c(C)c(C)c1O
REMARK SMILES IDX 1 1 2 2 3 3 4 4 6 5 8 6 10 7 9 8 7 9 11 10 5 12
REMARK H PARENT 11 11 5 13
REMARK Flexibility Score: inf
ROOT
ATOM      1  C   UNL     1      10.282  47.523   5.516  1.00  0.00     0.048 C 
ATOM      2  C   UNL     1      11.625  46.873   5.716  1.00  0.00    -0.005 A 
ATOM      3  C   UNL     1      12.125  46.724   7.014  1.00  0.00     0.053 A 
ATOM      4  C   UNL     1      13.368  46.139   7.245  1.00  0.00     0.119 A 
ATOM      5  C   UNL     1      14.161  45.701   6.159  1.00  0.00    -0.003 A 
ATOM      6  C   UNL     1      13.637  45.787   4.840  1.00  0.00    -0.002 A 
ATOM      7  C   UNL     1      12.380  46.398   4.623  1.00  0.00     0.121 A 
ATOM      8  C   UNL     1      14.418  45.257   3.659  1.00  0.00     0.049 C 
ATOM      9  C   UNL     1      15.534  45.125   6.431  1.00  0.00     0.049 C 
ENDROOT
BRANCH   7  10
ATOM     10  O   UNL     1      11.899  46.525   3.314  1.00  0.00    -0.507 OA
ATOM     11  H   UNL     1      10.915  46.526   3.077  1.00  0.00     0.293 HD
ENDBRANCH   7  10
BRANCH   4  12
ATOM     12  O   UNL     1      13.781  46.001   8.574  1.00  0.00    -0.508 OA
ATOM     13  H   UNL     1      13.530  46.649   9.309  1.00  0.00     0.293 HD
ENDBRANCH   4  12
TORSDOF 2
ENDMDL
MODEL 4
REMARK VINA RESULT:    -5.326      1.325      3.332
REMARK INTER + INTRA:          -5.637
REMARK INTER:                  -5.637
REMARK INTRA:                   0.000
REMARK UNBOUND:                 0.000
REMARK SMILES Cc1cc(O)c(C)c(C)c1O
REMARK SMILES IDX 1 1 2 2 3 3 4 4 6 5 8 6 10 7 9 8 7 9 11 10 5 12
REMARK H PARENT 11 11 5 13
REMARK Flexibility Score: inf
ROOT
ATOM      1  C   UNL     1      16.365  41.953   7.728  1.00  0.00     0.048 C 
ATOM      2  C   UNL     1      15.686  43.174   7.170  1.00  0.00    -0.005 A 
ATOM      3  C   UNL     1      15.008  44.035   8.039  1.00  0.00     0.053 A 
ATOM      4  C   UNL     1      14.356  45.171   7.565  1.00  0.00     0.119 A 
ATOM      5  C   UNL     1      14.350  45.462   6.180  1.00  0.00    -0.003 A 
ATOM      6  C   UNL     1      15.088  44.630   5.295  1.00  0.00    -0.002 A 
ATOM      7  C   UNL     1      15.732  43.473   5.792  1.00  0.00     0.121 A 
ATOM      8  C   UNL     1      15.174  44.952   3.820  1.00  0.00     0.049 C 
ATOM      9  C   UNL     1      13.582  46.667   5.682  1.00  0.00     0.049 C 
ENDROOT
BRANCH   7  10
ATOM     10  O   UNL     1      16.411  42.633   4.901  1.00  0.00    -0.507 OA
ATOM     11  H   UNL     1      16.462  42.801   3.904  1.00  0.00     0.293 HD
ENDBRANCH   7  10
BRANCH   4  12
ATOM     12  O   UNL     1      13.727  45.996   8.503  1.00  0.00    -0.508 OA
ATOM     13  H   UNL     1      13.947  46.976   8.624  1.00  0.00     0.293 HD
ENDBRANCH   4  12
TORSDOF 2
ENDMDL
MODEL 5
REMARK VINA RESULT:    -5.286      1.334      4.349
REMARK INTER + INTRA:          -5.595
REMARK INTER:                  -5.595
REMARK INTRA:                   0.000
REMARK UNBOUND:                 0.000
REMARK SMILES Cc1cc(O)c(C)c(C)c1O
REMARK SMILES IDX 1 1 2 2 3 3 4 4 6 5 8 6 10 7 9 8 7 9 11 10 5 12
REMARK H PARENT 11 11 5 13
REMARK Flexibility Score: inf
ROOT
ATOM      1  C   UNL     1      12.932  46.009   4.207  1.00  0.00     0.048 C 
ATOM      2  C   UNL     1      14.093  45.436   4.974  1.00  0.00    -0.005 A 
ATOM      3  C   UNL     1      14.245  45.761   6.326  1.00  0.00     0.053 A 
ATOM      4  C   UNL     1      15.311  45.263   7.072  1.00  0.00     0.119 A 
ATOM      5  C   UNL     1      16.278  44.429   6.462  1.00  0.00    -0.003 A 
ATOM      6  C   UNL     1      16.099  44.039   5.107  1.00  0.00    -0.002 A 
ATOM      7  C   UNL     1      15.020  44.568   4.361  1.00  0.00     0.121 A 
ATOM      8  C   UNL     1      17.066  43.085   4.441  1.00  0.00     0.049 C 
ATOM      9  C   UNL     1      17.460  43.950   7.277  1.00  0.00     0.049 C 
ENDROOT
BRANCH   7  10
ATOM     10  O   UNL     1      14.887  44.217   3.012  1.00  0.00    -0.507 OA
ATOM     11  H   UNL     1      15.520  43.590   2.532  1.00  0.00     0.293 HD
ENDBRANCH   7  10
BRANCH   4  12
ATOM     12  O   UNL     1      15.374  45.613   8.425  1.00  0.00    -0.508 OA
ATOM     13  H   UNL     1      14.623  46.077   8.919  1.00  0.00     0.293 HD
ENDBRANCH   4  12
TORSDOF 2
ENDMDL
MODEL 6
REMARK VINA RESULT:    -5.275      1.479      3.597
REMARK INTER + INTRA:          -5.583
REMARK INTER:                  -5.583
REMARK INTRA:                   0.000
REMARK UNBOUND:                 0.000
REMARK SMILES Cc1cc(O)c(C)c(C)c1O
REMARK SMILES IDX 1 1 2 2 3 3 4 4 6 5 8 6 10 7 9 8 7 9 11 10 5 12
REMARK H PARENT 11 11 5 13
REMARK Flexibility Score: inf
ROOT
ATOM      1  C   UNL     1      17.132  43.360   4.509  1.00  0.00     0.048 C 
ATOM      2  C   UNL     1      16.055  44.168   5.182  1.00  0.00    -0.005 A 
ATOM      3  C   UNL     1      16.198  44.505   6.532  1.00  0.00     0.053 A 
ATOM      4  C   UNL     1      15.221  45.242   7.199  1.00  0.00     0.119 A 
ATOM      5  C   UNL     1      14.048  45.645   6.519  1.00  0.00    -0.003 A 
ATOM      6  C   UNL     1      13.920  45.365   5.131  1.00  0.00    -0.002 A 
ATOM      7  C   UNL     1      14.915  44.603   4.475  1.00  0.00     0.121 A 
ATOM      8  C   UNL     1      12.719  45.850   4.350  1.00  0.00     0.049 C 
ATOM      9  C   UNL     1      12.973  46.391   7.280  1.00  0.00     0.049 C 
ENDROOT
BRANCH   7  10
ATOM     10  O   UNL     1      14.751  44.289   3.120  1.00  0.00    -0.507 OA
ATOM     11  H   UNL     1      14.991  43.390   2.722  1.00  0.00     0.293 HD
ENDBRANCH   7  10
BRANCH   4  12
ATOM     12  O   UNL     1      15.454  45.562   8.540  1.00  0.00    -0.508 OA
ATOM     13  H   UNL     1      15.429  46.505   8.903  1.00  0.00     0.293 HD
ENDBRANCH   4  12
TORSDOF 2
ENDMDL
MODEL 7
REMARK VINA RESULT:    -5.252      1.665      3.158
REMARK INTER + INTRA:          -5.559
REMARK INTER:                  -5.559
REMARK INTRA:                   0.000
REMARK UNBOUND:                 0.000
REMARK SMILES Cc1cc(O)c(C)c(C)c1O
REMARK SMILES IDX 1 1 2 2 3 3 4 4 6 5 8 6 10 7 9 8 7 9 11 10 5 12
REMARK H PARENT 11 11 5 13
REMARK Flexibility Score: inf
ROOT
ATOM      1  C   UNL     1      12.835  45.916   8.127  1.00  0.00     0.048 C 
ATOM      2  C   UNL     1      13.959  45.234   7.394  1.00  0.00    -0.005 A 
ATOM      3  C   UNL     1      14.293  45.664   6.105  1.00  0.00     0.053 A 
ATOM      4  C   UNL     1      15.318  45.054   5.385  1.00  0.00     0.119 A 
ATOM      5  C   UNL     1      16.029  43.966   5.943  1.00  0.00    -0.003 A 
ATOM      6  C   UNL     1      15.743  43.562   7.275  1.00  0.00    -0.002 A 
ATOM      7  C   UNL     1      14.688  44.182   7.985  1.00  0.00     0.121 A 
ATOM      8  C   UNL     1      16.535  42.456   7.938  1.00  0.00     0.049 C 
ATOM      9  C   UNL     1      17.097  43.280   5.118  1.00  0.00     0.049 C 
ENDROOT
BRANCH   7  10
ATOM     10  O   UNL     1      14.382  43.738   9.278  1.00  0.00    -0.507 OA
ATOM     11  H   UNL     1      13.554  43.202   9.503  1.00  0.00     0.293 HD
ENDBRANCH   7  10
BRANCH   4  12
ATOM     12  O   UNL     1      15.609  45.563   4.115  1.00  0.00    -0.508 OA
ATOM     13  H   UNL     1      15.566  46.546   3.883  1.00  0.00     0.293 HD
ENDBRANCH   4  12
TORSDOF 2
ENDMDL
MODEL 8
REMARK VINA RESULT:    -5.149      1.756      1.832
REMARK INTER + INTRA:          -5.450
REMARK INTER:                  -5.450
REMARK INTRA:                   0.000
REMARK UNBOUND:                 0.000
REMARK SMILES Cc1cc(O)c(C)c(C)c1O
REMARK SMILES IDX 1 1 2 2 3 3 4 4 6 5 8 6 10 7 9 8 7 9 11 10 5 12
REMARK H PARENT 11 11 5 13
REMARK Flexibility Score: inf
ROOT
ATOM      1  C   UNL     1      16.408  41.522   8.617  1.00  0.00     0.048 C 
ATOM      2  C   UNL     1      15.750  42.534   7.718  1.00  0.00    -0.005 A 
ATOM      3  C   UNL     1      15.992  42.483   6.341  1.00  0.00     0.053 A 
ATOM      4  C   UNL     1      15.414  43.406   5.472  1.00  0.00     0.119 A 
ATOM      5  C   UNL     1      14.581  44.432   5.977  1.00  0.00    -0.003 A 
ATOM      6  C   UNL     1      14.276  44.456   7.365  1.00  0.00    -0.002 A 
ATOM      7  C   UNL     1      14.884  43.521   8.234  1.00  0.00     0.121 A 
ATOM      8  C   UNL     1      13.326  45.488   7.932  1.00  0.00     0.049 C 
ATOM      9  C   UNL     1      14.014  45.460   5.022  1.00  0.00     0.049 C 
ENDROOT
BRANCH   7  10
ATOM     10  O   UNL     1      14.616  43.588   9.607  1.00  0.00    -0.507 OA
ATOM     11  H   UNL     1      15.272  43.949  10.287  1.00  0.00     0.293 HD
ENDBRANCH   7  10
BRANCH   4  12
ATOM     12  O   UNL     1      15.684  43.267   4.107  1.00  0.00    -0.508 OA
ATOM     13  H   UNL     1      15.396  42.468   3.558  1.00  0.00     0.293 HD
ENDBRANCH   4  12
TORSDOF 2
ENDMDL
MODEL 9
REMARK VINA RESULT:    -5.122      2.111      3.674
REMARK INTER + INTRA:          -5.421
REMARK INTER:                  -5.421
REMARK INTRA:                   0.000
REMARK UNBOUND:                 0.000
REMARK SMILES Cc1cc(O)c(C)c(C)c1O
REMARK SMILES IDX 1 1 2 2 3 3 4 4 6 5 8 6 10 7 9 8 7 9 11 10 5 12
REMARK H PARENT 11 11 5 13
REMARK Flexibility Score: inf
ROOT
ATOM      1  C   UNL     1      16.759  43.176   4.124  1.00  0.00     0.048 C 
ATOM      2  C   UNL     1      15.813  43.801   5.114  1.00  0.00    -0.005 A 
ATOM      3  C   UNL     1      15.261  45.055   4.832  1.00  0.00     0.053 A 
ATOM      4  C   UNL     1      14.390  45.677   5.724  1.00  0.00     0.119 A 
ATOM      5  C   UNL     1      14.065  45.053   6.951  1.00  0.00    -0.003 A 
ATOM      6  C   UNL     1      14.569  43.751   7.222  1.00  0.00    -0.002 A 
ATOM      7  C   UNL     1      15.464  43.142   6.311  1.00  0.00     0.121 A 
ATOM      8  C   UNL     1      14.181  43.017   8.486  1.00  0.00     0.049 C 
ATOM      9  C   UNL     1      13.166  45.775   7.932  1.00  0.00     0.049 C 
ENDROOT
BRANCH   7  10
ATOM     10  O   UNL     1      15.994  41.882   6.615  1.00  0.00    -0.507 OA
ATOM     11  H   UNL     1      16.865  41.536   6.233  1.00  0.00     0.293 HD
ENDBRANCH   7  10
BRANCH   4  12
ATOM     12  O   UNL     1      13.858  46.915   5.353  1.00  0.00    -0.508 OA
ATOM     13  H   UNL     1      14.360  47.597   4.799  1.00  0.00     0.293 HD
ENDBRANCH   4  12
TORSDOF 2
ENDMDL
