MODEL 1
REMARK VINA RESULT:     8.705      0.000      0.000
REMARK INTER + INTRA:          20.411
REMARK INTER:                  21.937
REMARK INTRA:                  -1.527
REMARK UNBOUND:                -1.527
REMARK SMILES CCCCCCCCCCCCCCCCCCCCCCCCCCCC(=O)[O-]
REMARK SMILES IDX 15 1 16 2 17 3 18 4 19 5 20 6 21 7 22 8 23 9 24 10 25 11
REMARK SMILES IDX 26 12 27 13 28 14 29 15 30 16 14 17 13 18 12 19 11 20 10 21
REMARK SMILES IDX 9 22 8 23 7 24 6 25 5 26 4 27 3 28 2 29 1 30
REMARK H PARENT
REMARK Flexibility Score: inf
ROOT
ATOM      1  C   UNL     1      13.844  16.768  -7.643  1.00  0.00     0.000 C 
ENDROOT
BRANCH   1   2
ATOM      2  C   UNL     1      13.913  17.454  -6.268  1.00  0.00     0.000 C 
BRANCH   2   3
ATOM      3  C   UNL     1      12.520  17.752  -5.682  1.00  0.00     0.000 C 
BRANCH   3   4
ATOM      4  C   UNL     1      11.511  16.590  -5.783  1.00  0.00     0.000 C 
BRANCH   4   5
ATOM      5  C   UNL     1      11.403  15.708  -4.523  1.00  0.00     0.000 C 
BRANCH   5   6
ATOM      6  C   UNL     1      10.781  14.316  -4.754  1.00  0.00     0.000 C 
BRANCH   6   7
ATOM      7  C   UNL     1      11.074  13.286  -3.649  1.00  0.00     0.000 C 
BRANCH   7   8
ATOM      8  C   UNL     1      10.583  13.745  -2.266  1.00  0.00     0.000 C 
BRANCH   8   9
ATOM      9  C   UNL     1      11.690  13.702  -1.201  1.00  0.00     0.000 C 
BRANCH   9  10
ATOM     10  C   UNL     1      11.157  13.276   0.178  1.00  0.00     0.000 C 
BRANCH  10  11
ATOM     11  C   UNL     1      12.125  13.618   1.322  1.00  0.00     0.000 C 
BRANCH  11  12
ATOM     12  C   UNL     1      11.684  14.853   2.124  1.00  0.00     0.006 C 
BRANCH  12  13
ATOM     13  C   UNL     1      10.274  15.300   1.721  1.00  0.00     0.053 C 
BRANCH  13  14
ATOM     14  C   UNL     1      10.204  16.790   1.592  1.00  0.00     0.041 C 
ATOM     15  O   UNL     1       9.096  17.383   1.693  1.00  0.00    -0.550 OA
ATOM     16  O   UNL     1      11.357  17.525   1.350  1.00  0.00    -0.550 OA
ENDBRANCH  13  14
ENDBRANCH  12  13
ENDBRANCH  11  12
ENDBRANCH  10  11
ENDBRANCH   9  10
ENDBRANCH   8   9
ENDBRANCH   7   8
ENDBRANCH   6   7
ENDBRANCH   5   6
ENDBRANCH   4   5
ENDBRANCH   3   4
ENDBRANCH   2   3
ENDBRANCH   1   2
BRANCH   1  17
ATOM     17  C   UNL     1      15.147  16.036  -8.000  1.00  0.00     0.000 C 
BRANCH  17  18
ATOM     18  C   UNL     1      14.929  14.929  -9.050  1.00  0.00     0.000 C 
BRANCH  18  19
ATOM     19  C   UNL     1      14.994  15.456 -10.491  1.00  0.00     0.000 C 
BRANCH  19  20
ATOM     20  C   UNL     1      14.521  14.418 -11.524  1.00  0.00     0.000 C 
BRANCH  20  21
ATOM     21  C   UNL     1      15.258  14.549 -12.867  1.00  0.00     0.000 C 
BRANCH  21  22
ATOM     22  C   UNL     1      16.289  15.691 -12.868  1.00  0.00    -0.000 C 
BRANCH  22  23
ATOM     23  C   UNL     1      17.644  15.272 -13.469  1.00  0.00    -0.000 C 
BRANCH  23  24
ATOM     24  C   UNL     1      18.870  15.983 -12.864  1.00  0.00    -0.000 C 
BRANCH  24  25
ATOM     25  C   UNL     1      18.734  17.511 -12.705  1.00  0.00    -0.000 C 
BRANCH  25  26
ATOM     26  C   UNL     1      18.125  17.947 -11.357  1.00  0.00    -0.000 C 
BRANCH  26  27
ATOM     27  C   UNL     1      17.725  19.431 -11.337  1.00  0.00    -0.000 C 
BRANCH  27  28
ATOM     28  C   UNL     1      18.173  20.188 -12.599  1.00  0.00    -0.000 C 
BRANCH  28  29
ATOM     29  C   UNL     1      19.009  21.449 -12.296  1.00  0.00    -0.003 C 
ATOM     30  C   UNL     1      20.507  21.208 -12.485  1.00  0.00     0.004 C 
ENDBRANCH  28  29
ENDBRANCH  27  28
ENDBRANCH  26  27
ENDBRANCH  25  26
ENDBRANCH  24  25
ENDBRANCH  23  24
ENDBRANCH  22  23
ENDBRANCH  21  22
ENDBRANCH  20  21
ENDBRANCH  19  20
ENDBRANCH  18  19
ENDBRANCH  17  18
ENDBRANCH   1  17
TORSDOF 26
ENDMDL
MODEL 2
REMARK VINA RESULT:     8.850      4.552     12.899
REMARK INTER + INTRA:          20.776
REMARK INTER:                  21.198
REMARK INTRA:                  -0.422
REMARK UNBOUND:                -1.527
REMARK SMILES CCCCCCCCCCCCCCCCCCCCCCCCCCCC(=O)[O-]
REMARK SMILES IDX 15 1 16 2 17 3 18 4 19 5 20 6 21 7 22 8 23 9 24 10 25 11
REMARK SMILES IDX 26 12 27 13 28 14 29 15 30 16 14 17 13 18 12 19 11 20 10 21
REMARK SMILES IDX 9 22 8 23 7 24 6 25 5 26 4 27 3 28 2 29 1 30
REMARK H PARENT
REMARK Flexibility Score: inf
ROOT
ATOM      1  C   UNL     1      13.338  17.476  -6.142  1.00  0.00     0.000 C 
ENDROOT
BRANCH   1   2
ATOM      2  C   UNL     1      13.316  16.595  -7.402  1.00  0.00     0.000 C 
BRANCH   2   3
ATOM      3  C   UNL     1      14.638  15.836  -7.620  1.00  0.00     0.000 C 
BRANCH   3   4
ATOM      4  C   UNL     1      15.275  16.028  -9.011  1.00  0.00     0.000 C 
BRANCH   4   5
ATOM      5  C   UNL     1      14.402  15.575 -10.198  1.00  0.00     0.000 C 
BRANCH   5   6
ATOM      6  C   UNL     1      15.169  14.879 -11.341  1.00  0.00     0.000 C 
BRANCH   6   7
ATOM      7  C   UNL     1      15.661  15.821 -12.454  1.00  0.00     0.000 C 
BRANCH   7   8
ATOM      8  C   UNL     1      16.517  15.098 -13.507  1.00  0.00     0.000 C 
BRANCH   8   9
ATOM      9  C   UNL     1      17.987  15.546 -13.483  1.00  0.00     0.000 C 
BRANCH   9  10
ATOM     10  C   UNL     1      18.342  16.316 -12.199  1.00  0.00     0.000 C 
BRANCH  10  11
ATOM     11  C   UNL     1      18.267  17.841 -12.380  1.00  0.00     0.000 C 
BRANCH  11  12
ATOM     12  C   UNL     1      17.779  18.566 -11.116  1.00  0.00     0.006 C 
BRANCH  12  13
ATOM     13  C   UNL     1      17.963  20.083 -11.242  1.00  0.00     0.053 C 
BRANCH  13  14
ATOM     14  C   UNL     1      18.577  20.438 -12.560  1.00  0.00     0.041 C 
ATOM     15  O   UNL     1      17.905  20.337 -13.621  1.00  0.00    -0.550 OA
ATOM     16  O   UNL     1      19.895  20.875 -12.620  1.00  0.00    -0.550 OA
ENDBRANCH  13  14
ENDBRANCH  12  13
ENDBRANCH  11  12
ENDBRANCH  10  11
ENDBRANCH   9  10
ENDBRANCH   8   9
ENDBRANCH   7   8
ENDBRANCH   6   7
ENDBRANCH   5   6
ENDBRANCH   4   5
ENDBRANCH   3   4
ENDBRANCH   2   3
ENDBRANCH   1   2
BRANCH   1  17
ATOM     17  C   UNL     1      12.268  17.066  -5.119  1.00  0.00     0.000 C 
BRANCH  17  18
ATOM     18  C   UNL     1      11.619  15.710  -5.461  1.00  0.00     0.000 C 
BRANCH  18  19
ATOM     19  C   UNL     1      10.470  15.345  -4.509  1.00  0.00     0.000 C 
BRANCH  19  20
ATOM     20  C   UNL     1      10.822  14.175  -3.575  1.00  0.00     0.000 C 
BRANCH  20  21
ATOM     21  C   UNL     1      11.348  14.652  -2.210  1.00  0.00     0.000 C 
BRANCH  21  22
ATOM     22  C   UNL     1      11.879  13.498  -1.343  1.00  0.00    -0.000 C 
BRANCH  22  23
ATOM     23  C   UNL     1      10.932  13.135  -0.184  1.00  0.00    -0.000 C 
BRANCH  23  24
ATOM     24  C   UNL     1      11.422  13.562   1.213  1.00  0.00    -0.000 C 
BRANCH  24  25
ATOM     25  C   UNL     1      10.348  14.193   2.123  1.00  0.00    -0.000 C 
BRANCH  25  26
ATOM     26  C   UNL     1       9.208  14.891   1.352  1.00  0.00    -0.000 C 
BRANCH  26  27
ATOM     27  C   UNL     1       9.263  16.424   1.467  1.00  0.00    -0.000 C 
BRANCH  27  28
ATOM     28  C   UNL     1      10.541  17.023   0.854  1.00  0.00    -0.000 C 
BRANCH  28  29
ATOM     29  C   UNL     1      11.619  17.374   1.900  1.00  0.00    -0.003 C 
ATOM     30  C   UNL     1      12.606  16.227   2.122  1.00  0.00     0.004 C 
ENDBRANCH  28  29
ENDBRANCH  27  28
ENDBRANCH  26  27
ENDBRANCH  25  26
ENDBRANCH  24  25
ENDBRANCH  23  24
ENDBRANCH  22  23
ENDBRANCH  21  22
ENDBRANCH  20  21
ENDBRANCH  19  20
ENDBRANCH  18  19
ENDBRANCH  17  18
ENDBRANCH   1  17
TORSDOF 26
ENDMDL
MODEL 3
REMARK VINA RESULT:     9.331      0.888      1.770
REMARK INTER + INTRA:          21.987
REMARK INTER:                  23.814
REMARK INTRA:                  -1.827
REMARK UNBOUND:                -1.527
REMARK SMILES CCCCCCCCCCCCCCCCCCCCCCCCCCCC(=O)[O-]
REMARK SMILES IDX 15 1 16 2 17 3 18 4 19 5 20 6 21 7 22 8 23 9 24 10 25 11
REMARK SMILES IDX 26 12 27 13 28 14 29 15 30 16 14 17 13 18 12 19 11 20 10 21
REMARK SMILES IDX 9 22 8 23 7 24 6 25 5 26 4 27 3 28 2 29 1 30
REMARK H PARENT
REMARK Flexibility Score: inf
ROOT
ATOM      1  C   UNL     1      15.029  16.174  -8.448  1.00  0.00     0.000 C 
ENDROOT
BRANCH   1   2
ATOM      2  C   UNL     1      14.102  16.155  -7.222  1.00  0.00     0.000 C 
BRANCH   2   3
ATOM      3  C   UNL     1      13.695  17.567  -6.762  1.00  0.00     0.000 C 
BRANCH   3   4
ATOM      4  C   UNL     1      12.403  17.630  -5.924  1.00  0.00     0.000 C 
BRANCH   4   5
ATOM      5  C   UNL     1      12.245  16.504  -4.883  1.00  0.00     0.000 C 
BRANCH   5   6
ATOM      6  C   UNL     1      11.039  15.570  -5.113  1.00  0.00     0.000 C 
BRANCH   6   7
ATOM      7  C   UNL     1      11.007  14.324  -4.210  1.00  0.00     0.000 C 
BRANCH   7   8
ATOM      8  C   UNL     1      10.762  14.669  -2.732  1.00  0.00     0.000 C 
BRANCH   8   9
ATOM      9  C   UNL     1      10.243  13.470  -1.922  1.00  0.00     0.000 C 
BRANCH   9  10
ATOM     10  C   UNL     1      10.191  13.764  -0.412  1.00  0.00     0.000 C 
BRANCH  10  11
ATOM     11  C   UNL     1      11.577  14.054   0.185  1.00  0.00     0.000 C 
BRANCH  11  12
ATOM     12  C   UNL     1      11.511  14.484   1.659  1.00  0.00     0.006 C 
BRANCH  12  13
ATOM     13  C   UNL     1      10.221  15.259   1.952  1.00  0.00     0.053 C 
BRANCH  13  14
ATOM     14  C   UNL     1      10.383  16.710   1.621  1.00  0.00     0.041 C 
ATOM     15  O   UNL     1      11.532  17.225   1.577  1.00  0.00    -0.550 OA
ATOM     16  O   UNL     1       9.266  17.497   1.370  1.00  0.00    -0.550 OA
ENDBRANCH  13  14
ENDBRANCH  12  13
ENDBRANCH  11  12
ENDBRANCH  10  11
ENDBRANCH   9  10
ENDBRANCH   8   9
ENDBRANCH   7   8
ENDBRANCH   6   7
ENDBRANCH   5   6
ENDBRANCH   4   5
ENDBRANCH   3   4
ENDBRANCH   2   3
ENDBRANCH   1   2
BRANCH   1  17
ATOM     17  C   UNL     1      14.455  15.379  -9.631  1.00  0.00     0.000 C 
BRANCH  17  18
ATOM     18  C   UNL     1      15.238  15.622 -10.936  1.00  0.00     0.000 C 
BRANCH  18  19
ATOM     19  C   UNL     1      14.986  14.535 -11.992  1.00  0.00     0.000 C 
BRANCH  19  20
ATOM     20  C   UNL     1      15.779  14.773 -13.289  1.00  0.00     0.000 C 
BRANCH  20  21
ATOM     21  C   UNL     1      17.149  14.075 -13.274  1.00  0.00     0.000 C 
BRANCH  21  22
ATOM     22  C   UNL     1      18.312  15.045 -13.543  1.00  0.00    -0.000 C 
BRANCH  22  23
ATOM     23  C   UNL     1      17.924  16.519 -13.319  1.00  0.00    -0.000 C 
BRANCH  23  24
ATOM     24  C   UNL     1      18.577  17.183 -12.092  1.00  0.00    -0.000 C 
BRANCH  24  25
ATOM     25  C   UNL     1      17.606  17.926 -11.151  1.00  0.00    -0.000 C 
BRANCH  25  26
ATOM     26  C   UNL     1      18.030  19.374 -10.831  1.00  0.00    -0.000 C 
BRANCH  26  27
ATOM     27  C   UNL     1      19.208  19.854 -11.696  1.00  0.00    -0.000 C 
BRANCH  27  28
ATOM     28  C   UNL     1      18.776  20.826 -12.808  1.00  0.00    -0.000 C 
BRANCH  28  29
ATOM     29  C   UNL     1      17.780  20.208 -13.811  1.00  0.00    -0.003 C 
ATOM     30  C   UNL     1      16.356  20.725 -13.605  1.00  0.00     0.004 C 
ENDBRANCH  28  29
ENDBRANCH  27  28
ENDBRANCH  26  27
ENDBRANCH  25  26
ENDBRANCH  24  25
ENDBRANCH  23  24
ENDBRANCH  22  23
ENDBRANCH  21  22
ENDBRANCH  20  21
ENDBRANCH  19  20
ENDBRANCH  18  19
ENDBRANCH  17  18
ENDBRANCH   1  17
TORSDOF 26
ENDMDL
MODEL 4
REMARK VINA RESULT:     9.540      4.452     13.001
REMARK INTER + INTRA:          22.513
REMARK INTER:                  23.804
REMARK INTRA:                  -1.290
REMARK UNBOUND:                -1.527
REMARK SMILES CCCCCCCCCCCCCCCCCCCCCCCCCCCC(=O)[O-]
REMARK SMILES IDX 15 1 16 2 17 3 18 4 19 5 20 6 21 7 22 8 23 9 24 10 25 11
REMARK SMILES IDX 26 12 27 13 28 14 29 15 30 16 14 17 13 18 12 19 11 20 10 21
REMARK SMILES IDX 9 22 8 23 7 24 6 25 5 26 4 27 3 28 2 29 1 30
REMARK H PARENT
REMARK Flexibility Score: inf
ROOT
ATOM      1  C   UNL     1      13.351  16.367  -7.577  1.00  0.00     0.000 C 
ENDROOT
BRANCH   1   2
ATOM      2  C   UNL     1      14.743  15.788  -7.881  1.00  0.00     0.000 C 
BRANCH   2   3
ATOM      3  C   UNL     1      15.139  15.938  -9.361  1.00  0.00     0.000 C 
BRANCH   3   4
ATOM      4  C   UNL     1      14.102  15.403 -10.368  1.00  0.00     0.000 C 
BRANCH   4   5
ATOM      5  C   UNL     1      14.357  13.966 -10.867  1.00  0.00     0.000 C 
BRANCH   5   6
ATOM      6  C   UNL     1      15.277  13.859 -12.100  1.00  0.00     0.000 C 
BRANCH   6   7
ATOM      7  C   UNL     1      15.614  15.203 -12.772  1.00  0.00     0.000 C 
BRANCH   7   8
ATOM      8  C   UNL     1      16.856  15.119 -13.675  1.00  0.00     0.000 C 
BRANCH   8   9
ATOM      9  C   UNL     1      18.142  15.552 -12.953  1.00  0.00     0.000 C 
BRANCH   9  10
ATOM     10  C   UNL     1      18.288  17.082 -12.890  1.00  0.00     0.000 C 
BRANCH  10  11
ATOM     11  C   UNL     1      18.501  17.601 -11.459  1.00  0.00     0.000 C 
BRANCH  11  12
ATOM     12  C   UNL     1      18.159  19.092 -11.309  1.00  0.00     0.006 C 
BRANCH  12  13
ATOM     13  C   UNL     1      19.092  19.962 -12.159  1.00  0.00     0.053 C 
BRANCH  13  14
ATOM     14  C   UNL     1      18.311  20.947 -12.971  1.00  0.00     0.041 C 
ATOM     15  O   UNL     1      18.741  22.121 -13.127  1.00  0.00    -0.550 OA
ATOM     16  O   UNL     1      17.104  20.574 -13.549  1.00  0.00    -0.550 OA
ENDBRANCH  13  14
ENDBRANCH  12  13
ENDBRANCH  11  12
ENDBRANCH  10  11
ENDBRANCH   9  10
ENDBRANCH   8   9
ENDBRANCH   7   8
ENDBRANCH   6   7
ENDBRANCH   5   6
ENDBRANCH   4   5
ENDBRANCH   3   4
ENDBRANCH   2   3
ENDBRANCH   1   2
BRANCH   1  17
ATOM     17  C   UNL     1      13.363  17.327  -6.377  1.00  0.00     0.000 C 
BRANCH  17  18
ATOM     18  C   UNL     1      12.338  16.930  -5.298  1.00  0.00     0.000 C 
BRANCH  18  19
ATOM     19  C   UNL     1      11.675  15.572  -5.578  1.00  0.00     0.000 C 
BRANCH  19  20
ATOM     20  C   UNL     1      10.537  15.254  -4.593  1.00  0.00     0.000 C 
BRANCH  20  21
ATOM     21  C   UNL     1      11.010  14.390  -3.411  1.00  0.00     0.000 C 
BRANCH  21  22
ATOM     22  C   UNL     1      10.232  14.682  -2.116  1.00  0.00    -0.000 C 
BRANCH  22  23
ATOM     23  C   UNL     1      10.416  13.587  -1.049  1.00  0.00    -0.000 C 
BRANCH  23  24
ATOM     24  C   UNL     1      11.759  13.631  -0.296  1.00  0.00    -0.000 C 
BRANCH  24  25
ATOM     25  C   UNL     1      11.663  13.461   1.234  1.00  0.00    -0.000 C 
BRANCH  25  26
ATOM     26  C   UNL     1      10.833  14.557   1.933  1.00  0.00    -0.000 C 
BRANCH  26  27
ATOM     27  C   UNL     1       9.341  14.500   1.567  1.00  0.00    -0.000 C 
BRANCH  27  28
ATOM     28  C   UNL     1       8.543  15.693   2.122  1.00  0.00    -0.000 C 
BRANCH  28  29
ATOM     29  C   UNL     1       9.325  17.022   2.092  1.00  0.00    -0.003 C 
ATOM     30  C   UNL     1       9.348  17.650   0.699  1.00  0.00     0.004 C 
ENDBRANCH  28  29
ENDBRANCH  27  28
ENDBRANCH  26  27
ENDBRANCH  25  26
ENDBRANCH  24  25
ENDBRANCH  23  24
ENDBRANCH  22  23
ENDBRANCH  21  22
ENDBRANCH  20  21
ENDBRANCH  19  20
ENDBRANCH  18  19
ENDBRANCH  17  18
ENDBRANCH   1  17
TORSDOF 26
ENDMDL
MODEL 5
REMARK VINA RESULT:    10.049      4.478     13.263
REMARK INTER + INTRA:          23.795
REMARK INTER:                  23.845
REMARK INTRA:                  -0.050
REMARK UNBOUND:                -1.527
REMARK SMILES CCCCCCCCCCCCCCCCCCCCCCCCCCCC(=O)[O-]
REMARK SMILES IDX 15 1 16 2 17 3 18 4 19 5 20 6 21 7 22 8 23 9 24 10 25 11
REMARK SMILES IDX 26 12 27 13 28 14 29 15 30 16 14 17 13 18 12 19 11 20 10 21
REMARK SMILES IDX 9 22 8 23 7 24 6 25 5 26 4 27 3 28 2 29 1 30
REMARK H PARENT
REMARK Flexibility Score: inf
ROOT
ATOM      1  C   UNL     1      12.947  18.231  -6.130  1.00  0.00     0.000 C 
ENDROOT
BRANCH   1   2
ATOM      2  C   UNL     1      14.109  17.712  -6.993  1.00  0.00     0.000 C 
BRANCH   2   3
ATOM      3  C   UNL     1      13.894  16.263  -7.469  1.00  0.00     0.000 C 
BRANCH   3   4
ATOM      4  C   UNL     1      15.161  15.557  -7.993  1.00  0.00     0.000 C 
BRANCH   4   5
ATOM      5  C   UNL     1      15.534  15.887  -9.453  1.00  0.00     0.000 C 
BRANCH   5   6
ATOM      6  C   UNL     1      14.479  15.480 -10.502  1.00  0.00     0.000 C 
BRANCH   6   7
ATOM      7  C   UNL     1      15.005  14.572 -11.627  1.00  0.00     0.000 C 
BRANCH   7   8
ATOM      8  C   UNL     1      15.373  15.355 -12.898  1.00  0.00     0.000 C 
BRANCH   8   9
ATOM      9  C   UNL     1      16.670  14.850 -13.549  1.00  0.00     0.000 C 
BRANCH   9  10
ATOM     10  C   UNL     1      17.917  15.559 -12.992  1.00  0.00     0.000 C 
BRANCH  10  11
ATOM     11  C   UNL     1      17.885  17.080 -13.210  1.00  0.00     0.000 C 
BRANCH  11  12
ATOM     12  C   UNL     1      17.573  17.859 -11.923  1.00  0.00     0.006 C 
BRANCH  12  13
ATOM     13  C   UNL     1      18.657  18.902 -11.631  1.00  0.00     0.053 C 
BRANCH  13  14
ATOM     14  C   UNL     1      18.561  20.053 -12.584  1.00  0.00     0.041 C 
ATOM     15  O   UNL     1      18.512  19.845 -13.825  1.00  0.00    -0.550 OA
ATOM     16  O   UNL     1      18.533  21.356 -12.103  1.00  0.00    -0.550 OA
ENDBRANCH  13  14
ENDBRANCH  12  13
ENDBRANCH  11  12
ENDBRANCH  10  11
ENDBRANCH   9  10
ENDBRANCH   8   9
ENDBRANCH   7   8
ENDBRANCH   6   7
ENDBRANCH   5   6
ENDBRANCH   4   5
ENDBRANCH   3   4
ENDBRANCH   2   3
ENDBRANCH   1   2
BRANCH   1  17
ATOM     17  C   UNL     1      12.647  17.315  -4.934  1.00  0.00     0.000 C 
BRANCH  17  18
ATOM     18  C   UNL     1      12.016  15.976  -5.364  1.00  0.00     0.000 C 
BRANCH  18  19
ATOM     19  C   UNL     1      10.712  15.666  -4.614  1.00  0.00     0.000 C 
BRANCH  19  20
ATOM     20  C   UNL     1      10.825  14.419  -3.720  1.00  0.00     0.000 C 
BRANCH  20  21
ATOM     21  C   UNL     1      11.300  14.759  -2.297  1.00  0.00     0.000 C 
BRANCH  21  22
ATOM     22  C   UNL     1      11.017  13.629  -1.292  1.00  0.00    -0.000 C 
BRANCH  22  23
ATOM     23  C   UNL     1      12.193  13.376  -0.330  1.00  0.00    -0.000 C 
BRANCH  23  24
ATOM     24  C   UNL     1      12.142  14.177   0.984  1.00  0.00    -0.000 C 
BRANCH  24  25
ATOM     25  C   UNL     1      10.847  14.012   1.806  1.00  0.00    -0.000 C 
BRANCH  25  26
ATOM     26  C   UNL     1       9.602  14.639   1.144  1.00  0.00    -0.000 C 
BRANCH  26  27
ATOM     27  C   UNL     1       8.915  15.684   2.038  1.00  0.00    -0.000 C 
BRANCH  27  28
ATOM     28  C   UNL     1       7.391  15.487   2.124  1.00  0.00    -0.000 C 
BRANCH  28  29
ATOM     29  C   UNL     1       6.856  14.401   1.167  1.00  0.00    -0.003 C 
ATOM     30  C   UNL     1       5.382  14.085   1.417  1.00  0.00     0.004 C 
ENDBRANCH  28  29
ENDBRANCH  27  28
ENDBRANCH  26  27
ENDBRANCH  25  26
ENDBRANCH  24  25
ENDBRANCH  23  24
ENDBRANCH  22  23
ENDBRANCH  21  22
ENDBRANCH  20  21
ENDBRANCH  19  20
ENDBRANCH  18  19
ENDBRANCH  17  18
ENDBRANCH   1  17
TORSDOF 26
ENDMDL
MODEL 6
REMARK VINA RESULT:    10.536      4.193     12.887
REMARK INTER + INTRA:          25.024
REMARK INTER:                  26.716
REMARK INTRA:                  -1.692
REMARK UNBOUND:                -1.527
REMARK SMILES CCCCCCCCCCCCCCCCCCCCCCCCCCCC(=O)[O-]
REMARK SMILES IDX 15 1 16 2 17 3 18 4 19 5 20 6 21 7 22 8 23 9 24 10 25 11
REMARK SMILES IDX 26 12 27 13 28 14 29 15 30 16 14 17 13 18 12 19 11 20 10 21
REMARK SMILES IDX 9 22 8 23 7 24 6 25 5 26 4 27 3 28 2 29 1 30
REMARK H PARENT
REMARK Flexibility Score: inf
ROOT
ATOM      1  C   UNL     1      12.026  17.193  -6.460  1.00  0.00     0.000 C 
ENDROOT
BRANCH   1   2
ATOM      2  C   UNL     1      13.223  17.920  -5.826  1.00  0.00     0.000 C 
BRANCH   2   3
ATOM      3  C   UNL     1      14.574  17.290  -6.213  1.00  0.00     0.000 C 
BRANCH   3   4
ATOM      4  C   UNL     1      14.679  16.831  -7.682  1.00  0.00     0.000 C 
BRANCH   4   5
ATOM      5  C   UNL     1      14.520  15.313  -7.904  1.00  0.00     0.000 C 
BRANCH   5   6
ATOM      6  C   UNL     1      14.416  14.880  -9.380  1.00  0.00     0.000 C 
BRANCH   6   7
ATOM      7  C   UNL     1      15.234  15.736 -10.363  1.00  0.00     0.000 C 
BRANCH   7   8
ATOM      8  C   UNL     1      15.566  14.989 -11.666  1.00  0.00     0.000 C 
BRANCH   8   9
ATOM      9  C   UNL     1      16.015  15.935 -12.792  1.00  0.00     0.000 C 
BRANCH   9  10
ATOM     10  C   UNL     1      17.349  15.499 -13.422  1.00  0.00     0.000 C 
BRANCH  10  11
ATOM     11  C   UNL     1      18.468  16.534 -13.224  1.00  0.00     0.000 C 
BRANCH  11  12
ATOM     12  C   UNL     1      18.000  17.774 -12.445  1.00  0.00     0.006 C 
BRANCH  12  13
ATOM     13  C   UNL     1      18.184  19.050 -13.274  1.00  0.00     0.053 C 
BRANCH  13  14
ATOM     14  C   UNL     1      18.698  20.170 -12.424  1.00  0.00     0.041 C 
ATOM     15  O   UNL     1      19.789  20.732 -12.708  1.00  0.00    -0.550 OA
ATOM     16  O   UNL     1      17.978  20.589 -11.312  1.00  0.00    -0.550 OA
ENDBRANCH  13  14
ENDBRANCH  12  13
ENDBRANCH  11  12
ENDBRANCH  10  11
ENDBRANCH   9  10
ENDBRANCH   8   9
ENDBRANCH   7   8
ENDBRANCH   6   7
ENDBRANCH   5   6
ENDBRANCH   4   5
ENDBRANCH   3   4
ENDBRANCH   2   3
ENDBRANCH   1   2
BRANCH   1  17
ATOM     17  C   UNL     1      11.122  16.525  -5.412  1.00  0.00     0.000 C 
BRANCH  17  18
ATOM     18  C   UNL     1      11.421  15.022  -5.252  1.00  0.00     0.000 C 
BRANCH  18  19
ATOM     19  C   UNL     1      10.451  14.323  -4.287  1.00  0.00     0.000 C 
BRANCH  19  20
ATOM     20  C   UNL     1      11.167  13.690  -3.081  1.00  0.00     0.000 C 
BRANCH  20  21
ATOM     21  C   UNL     1      10.382  13.873  -1.771  1.00  0.00     0.000 C 
BRANCH  21  22
ATOM     22  C   UNL     1      11.290  14.221  -0.579  1.00  0.00    -0.000 C 
BRANCH  22  23
ATOM     23  C   UNL     1      11.013  13.347   0.658  1.00  0.00    -0.000 C 
BRANCH  23  24
ATOM     24  C   UNL     1      10.486  14.112   1.888  1.00  0.00    -0.000 C 
BRANCH  24  25
ATOM     25  C   UNL     1       9.037  14.626   1.773  1.00  0.00    -0.000 C 
BRANCH  25  26
ATOM     26  C   UNL     1       8.873  16.119   2.124  1.00  0.00    -0.000 C 
BRANCH  26  27
ATOM     27  C   UNL     1       9.559  17.048   1.108  1.00  0.00    -0.000 C 
BRANCH  27  28
ATOM     28  C   UNL     1      10.756  17.807   1.706  1.00  0.00    -0.000 C 
BRANCH  28  29
ATOM     29  C   UNL     1      11.994  16.916   1.940  1.00  0.00    -0.003 C 
ATOM     30  C   UNL     1      13.271  17.735   2.125  1.00  0.00     0.004 C 
ENDBRANCH  28  29
ENDBRANCH  27  28
ENDBRANCH  26  27
ENDBRANCH  25  26
ENDBRANCH  24  25
ENDBRANCH  23  24
ENDBRANCH  22  23
ENDBRANCH  21  22
ENDBRANCH  20  21
ENDBRANCH  19  20
ENDBRANCH  18  19
ENDBRANCH  17  18
ENDBRANCH   1  17
TORSDOF 26
ENDMDL
