MODEL 1
REMARK VINA RESULT:    -4.206      0.000      0.000
REMARK INTER + INTRA:          -5.339
REMARK INTER:                  -5.190
REMARK INTRA:                  -0.150
REMARK UNBOUND:                -0.150
REMARK SMILES CCCCC=CC(C)=O
REMARK SMILES IDX 4 1 3 2 2 3 1 4 5 5 6 6 7 7 9 8 8 9
REMARK H PARENT
REMARK Flexibility Score: inf
ROOT
ATOM      1  C   UNL     1     117.664 164.909 120.677  1.00  0.00     0.027 C 
ENDROOT
BRANCH   1   2
ATOM      2  C   UNL     1     117.006 164.702 119.305  1.00  0.00     0.004 C 
BRANCH   2   3
ATOM      3  C   UNL     1     116.183 165.923 118.867  1.00  0.00    -0.003 C 
ATOM      4  C   UNL     1     116.623 166.419 117.492  1.00  0.00     0.004 C 
ENDBRANCH   2   3
ENDBRANCH   1   2
BRANCH   1   5
ATOM      5  C   UNL     1     116.875 165.842 121.554  1.00  0.00    -0.023 C 
ATOM      6  C   UNL     1     115.944 165.385 122.399  1.00  0.00     0.042 C 
BRANCH   6   7
ATOM      7  C   UNL     1     115.143 166.264 123.276  1.00  0.00     0.152 C 
ATOM      8  O   UNL     1     114.730 167.361 122.815  1.00  0.00    -0.295 OA
ATOM      9  C   UNL     1     114.804 165.898 124.689  1.00  0.00     0.093 C 
ENDBRANCH   6   7
ENDBRANCH   1   5
TORSDOF 4
ENDMDL
MODEL 2
REMARK VINA RESULT:    -4.023     13.048     14.380
REMARK INTER + INTRA:          -5.114
REMARK INTER:                  -4.980
REMARK INTRA:                  -0.134
REMARK UNBOUND:                -0.150
REMARK SMILES CCCCC=CC(C)=O
REMARK SMILES IDX 4 1 3 2 2 3 1 4 5 5 6 6 7 7 9 8 8 9
REMARK H PARENT
REMARK Flexibility Score: inf
ROOT
ATOM      1  C   UNL     1     115.107 179.450 124.286  1.00  0.00     0.027 C 
ENDROOT
BRANCH   1   2
ATOM      2  C   UNL     1     114.383 179.216 125.620  1.00  0.00     0.004 C 
BRANCH   2   3
ATOM      3  C   UNL     1     114.621 180.361 126.617  1.00  0.00    -0.003 C 
ATOM      4  C   UNL     1     113.336 180.724 127.355  1.00  0.00     0.004 C 
ENDBRANCH   2   3
ENDBRANCH   1   2
BRANCH   1   5
ATOM      5  C   UNL     1     116.332 178.591 124.142  1.00  0.00    -0.023 C 
ATOM      6  C   UNL     1     117.415 178.787 124.904  1.00  0.00     0.042 C 
BRANCH   6   7
ATOM      7  C   UNL     1     118.641 177.970 124.795  1.00  0.00     0.152 C 
ATOM      8  O   UNL     1     119.474 178.250 123.892  1.00  0.00    -0.295 OA
ATOM      9  C   UNL     1     118.930 176.825 125.718  1.00  0.00     0.093 C 
ENDBRANCH   6   7
ENDBRANCH   1   5
TORSDOF 4
ENDMDL
MODEL 3
REMARK VINA RESULT:    -3.972     13.257     14.386
REMARK INTER + INTRA:          -5.050
REMARK INTER:                  -4.781
REMARK INTRA:                  -0.269
REMARK UNBOUND:                -0.150
REMARK SMILES CCCCC=CC(C)=O
REMARK SMILES IDX 4 1 3 2 2 3 1 4 5 5 6 6 7 7 9 8 8 9
REMARK H PARENT
REMARK Flexibility Score: inf
ROOT
ATOM      1  C   UNL     1     116.512 177.766 125.696  1.00  0.00     0.027 C 
ENDROOT
BRANCH   1   2
ATOM      2  C   UNL     1     115.801 178.561 124.592  1.00  0.00     0.004 C 
BRANCH   2   3
ATOM      3  C   UNL     1     114.556 179.293 125.116  1.00  0.00    -0.003 C 
ATOM      4  C   UNL     1     114.792 179.845 126.519  1.00  0.00     0.004 C 
ENDBRANCH   2   3
ENDBRANCH   1   2
BRANCH   1   5
ATOM      5  C   UNL     1     118.005 177.942 125.657  1.00  0.00    -0.023 C 
ATOM      6  C   UNL     1     118.563 179.057 125.171  1.00  0.00     0.042 C 
BRANCH   6   7
ATOM      7  C   UNL     1     120.024 179.271 125.109  1.00  0.00     0.152 C 
ATOM      8  O   UNL     1     120.583 179.290 123.981  1.00  0.00    -0.295 OA
ATOM      9  C   UNL     1     120.860 179.468 126.337  1.00  0.00     0.093 C 
ENDBRANCH   6   7
ENDBRANCH   1   5
TORSDOF 4
ENDMDL
MODEL 4
REMARK VINA RESULT:    -3.971     13.557     13.833
REMARK INTER + INTRA:          -5.050
REMARK INTER:                  -4.872
REMARK INTRA:                  -0.178
REMARK UNBOUND:                -0.150
REMARK SMILES CCCCC=CC(C)=O
REMARK SMILES IDX 4 1 3 2 2 3 1 4 5 5 6 6 7 7 9 8 8 9
REMARK H PARENT
REMARK Flexibility Score: inf
ROOT
ATOM      1  C   UNL     1     123.617 176.983 123.508  1.00  0.00     0.027 C 
ENDROOT
BRANCH   1   2
ATOM      2  C   UNL     1     124.425 177.244 122.228  1.00  0.00     0.004 C 
BRANCH   2   3
ATOM      3  C   UNL     1     123.544 177.760 121.081  1.00  0.00    -0.003 C 
ATOM      4  C   UNL     1     124.092 177.323 119.726  1.00  0.00     0.004 C 
ENDBRANCH   2   3
ENDBRANCH   1   2
BRANCH   1   5
ATOM      5  C   UNL     1     122.264 177.638 123.473  1.00  0.00    -0.023 C 
ATOM      6  C   UNL     1     121.720 178.174 124.571  1.00  0.00     0.042 C 
BRANCH   6   7
ATOM      7  C   UNL     1     120.393 178.825 124.584  1.00  0.00     0.152 C 
ATOM      8  O   UNL     1     119.476 178.337 123.870  1.00  0.00    -0.295 OA
ATOM      9  C   UNL     1     120.099 180.038 125.413  1.00  0.00     0.093 C 
ENDBRANCH   6   7
ENDBRANCH   1   5
TORSDOF 4
ENDMDL
MODEL 5
REMARK VINA RESULT:    -3.962     13.747     14.756
REMARK INTER + INTRA:          -5.038
REMARK INTER:                  -4.847
REMARK INTRA:                  -0.191
REMARK UNBOUND:                -0.150
REMARK SMILES CCCCC=CC(C)=O
REMARK SMILES IDX 4 1 3 2 2 3 1 4 5 5 6 6 7 7 9 8 8 9
REMARK H PARENT
REMARK Flexibility Score: inf
ROOT
ATOM      1  C   UNL     1     120.758 179.593 126.144  1.00  0.00     0.027 C 
ENDROOT
BRANCH   1   2
ATOM      2  C   UNL     1     120.702 178.875 127.501  1.00  0.00     0.004 C 
BRANCH   2   3
ATOM      3  C   UNL     1     122.103 178.606 128.072  1.00  0.00    -0.003 C 
ATOM      4  C   UNL     1     123.183 179.232 127.195  1.00  0.00     0.004 C 
ENDBRANCH   2   3
ENDBRANCH   1   2
BRANCH   1   5
ATOM      5  C   UNL     1     119.433 179.576 125.434  1.00  0.00    -0.023 C 
ATOM      6  C   UNL     1     118.644 178.496 125.455  1.00  0.00     0.042 C 
BRANCH   6   7
ATOM      7  C   UNL     1     117.337 178.434 124.769  1.00  0.00     0.152 C 
ATOM      8  O   UNL     1     117.312 178.501 123.511  1.00  0.00    -0.295 OA
ATOM      9  C   UNL     1     116.043 178.293 125.512  1.00  0.00     0.093 C 
ENDBRANCH   6   7
ENDBRANCH   1   5
TORSDOF 4
ENDMDL
MODEL 6
REMARK VINA RESULT:    -3.907     12.860     13.845
REMARK INTER + INTRA:          -4.971
REMARK INTER:                  -4.708
REMARK INTRA:                  -0.263
REMARK UNBOUND:                -0.150
REMARK SMILES CCCCC=CC(C)=O
REMARK SMILES IDX 4 1 3 2 2 3 1 4 5 5 6 6 7 7 9 8 8 9
REMARK H PARENT
REMARK Flexibility Score: inf
ROOT
ATOM      1  C   UNL     1     118.183 176.998 126.232  1.00  0.00     0.027 C 
ENDROOT
BRANCH   1   2
ATOM      2  C   UNL     1     119.347 177.588 125.422  1.00  0.00     0.004 C 
BRANCH   2   3
ATOM      3  C   UNL     1     120.110 178.665 126.207  1.00  0.00    -0.003 C 
ATOM      4  C   UNL     1     120.139 179.986 125.444  1.00  0.00     0.004 C 
ENDBRANCH   2   3
ENDBRANCH   1   2
BRANCH   1   5
ATOM      5  C   UNL     1     116.895 177.741 126.007  1.00  0.00    -0.023 C 
ATOM      6  C   UNL     1     116.702 178.486 124.913  1.00  0.00     0.042 C 
BRANCH   6   7
ATOM      7  C   UNL     1     115.455 179.236 124.653  1.00  0.00     0.152 C 
ATOM      8  O   UNL     1     115.337 179.848 123.558  1.00  0.00    -0.295 OA
ATOM      9  C   UNL     1     114.329 179.292 125.640  1.00  0.00     0.093 C 
ENDBRANCH   6   7
ENDBRANCH   1   5
TORSDOF 4
ENDMDL
MODEL 7
REMARK VINA RESULT:    -3.878     14.018     14.354
REMARK INTER + INTRA:          -4.934
REMARK INTER:                  -4.764
REMARK INTRA:                  -0.170
REMARK UNBOUND:                -0.150
REMARK SMILES CCCCC=CC(C)=O
REMARK SMILES IDX 4 1 3 2 2 3 1 4 5 5 6 6 7 7 9 8 8 9
REMARK H PARENT
REMARK Flexibility Score: inf
ROOT
ATOM      1  C   UNL     1     124.966 176.570 123.139  1.00  0.00     0.027 C 
ENDROOT
BRANCH   1   2
ATOM      2  C   UNL     1     125.070 177.508 121.928  1.00  0.00     0.004 C 
BRANCH   2   3
ATOM      3  C   UNL     1     123.698 177.808 121.307  1.00  0.00    -0.003 C 
ATOM      4  C   UNL     1     123.677 177.459 119.822  1.00  0.00     0.004 C 
ENDBRANCH   2   3
ENDBRANCH   1   2
BRANCH   1   5
ATOM      5  C   UNL     1     123.891 176.995 124.101  1.00  0.00    -0.023 C 
ATOM      6  C   UNL     1     124.184 177.657 125.226  1.00  0.00     0.042 C 
BRANCH   6   7
ATOM      7  C   UNL     1     123.161 178.091 126.200  1.00  0.00     0.152 C 
ATOM      8  O   UNL     1     121.970 177.716 126.032  1.00  0.00    -0.295 OA
ATOM      9  C   UNL     1     123.488 178.956 127.379  1.00  0.00     0.093 C 
ENDBRANCH   6   7
ENDBRANCH   1   5
TORSDOF 4
ENDMDL
MODEL 8
REMARK VINA RESULT:    -3.873     14.133     15.162
REMARK INTER + INTRA:          -4.929
REMARK INTER:                  -4.779
REMARK INTRA:                  -0.149
REMARK UNBOUND:                -0.150
REMARK SMILES CCCCC=CC(C)=O
REMARK SMILES IDX 4 1 3 2 2 3 1 4 5 5 6 6 7 7 9 8 8 9
REMARK H PARENT
REMARK Flexibility Score: inf
ROOT
ATOM      1  C   UNL     1     122.589 176.820 124.715  1.00  0.00     0.027 C 
ENDROOT
BRANCH   1   2
ATOM      2  C   UNL     1     122.433 178.038 125.638  1.00  0.00     0.004 C 
BRANCH   2   3
ATOM      3  C   UNL     1     123.747 178.402 126.344  1.00  0.00    -0.003 C 
ATOM      4  C   UNL     1     123.511 179.418 127.457  1.00  0.00     0.004 C 
ENDBRANCH   2   3
ENDBRANCH   1   2
BRANCH   1   5
ATOM      5  C   UNL     1     123.628 177.039 123.651  1.00  0.00    -0.023 C 
ATOM      6  C   UNL     1     123.287 177.355 122.396  1.00  0.00     0.042 C 
BRANCH   6   7
ATOM      7  C   UNL     1     124.274 177.575 121.319  1.00  0.00     0.152 C 
ATOM      8  O   UNL     1     125.458 177.866 121.636  1.00  0.00    -0.295 OA
ATOM      9  C   UNL     1     123.919 177.462 119.867  1.00  0.00     0.093 C 
ENDBRANCH   6   7
ENDBRANCH   1   5
TORSDOF 4
ENDMDL
MODEL 9
REMARK VINA RESULT:    -3.833     14.114     15.006
REMARK INTER + INTRA:          -4.879
REMARK INTER:                  -4.714
REMARK INTRA:                  -0.164
REMARK UNBOUND:                -0.150
REMARK SMILES CCCCC=CC(C)=O
REMARK SMILES IDX 4 1 3 2 2 3 1 4 5 5 6 6 7 7 9 8 8 9
REMARK H PARENT
REMARK Flexibility Score: inf
ROOT
ATOM      1  C   UNL     1     119.333 179.728 125.403  1.00  0.00     0.027 C 
ENDROOT
BRANCH   1   2
ATOM      2  C   UNL     1     118.702 178.345 125.182  1.00  0.00     0.004 C 
BRANCH   2   3
ATOM      3  C   UNL     1     117.253 178.442 124.684  1.00  0.00    -0.003 C 
ATOM      4  C   UNL     1     116.265 178.079 125.788  1.00  0.00     0.004 C 
ENDBRANCH   2   3
ENDBRANCH   1   2
BRANCH   1   5
ATOM      5  C   UNL     1     120.661 179.646 126.102  1.00  0.00    -0.023 C 
ATOM      6  C   UNL     1     120.809 178.960 127.242  1.00  0.00     0.042 C 
BRANCH   6   7
ATOM      7  C   UNL     1     122.094 178.856 127.964  1.00  0.00     0.152 C 
ATOM      8  O   UNL     1     122.097 178.352 129.118  1.00  0.00    -0.295 OA
ATOM      9  C   UNL     1     123.389 179.323 127.373  1.00  0.00     0.093 C 
ENDBRANCH   6   7
ENDBRANCH   1   5
TORSDOF 4
ENDMDL
