MODEL 1
REMARK VINA RESULT:    -3.651      0.000      0.000
REMARK INTER + INTRA:          -4.568
REMARK INTER:                  -4.292
REMARK INTRA:                  -0.276
REMARK UNBOUND:                -0.276
REMARK SMILES O=C([O-])C=Cc1ccc(O)c(O)c1
REMARK SMILES IDX 6 1 13 2 7 3 11 4 8 5 9 6 5 7 4 8 2 9 1 10 3 11 12 12 10 14
REMARK H PARENT 12 13 10 15
REMARK Flexibility Score: inf
ROOT
ATOM      1  C   UNL     1       0.820  22.278   3.576  1.00  0.00    -0.022 A 
ATOM      2  C   UNL     1       1.272  23.552   3.190  1.00  0.00     0.058 A 
ATOM      3  C   UNL     1      -0.549  21.985   3.511  1.00  0.00     0.012 A 
ATOM      4  C   UNL     1       0.356  24.539   2.793  1.00  0.00     0.157 A 
ATOM      5  C   UNL     1      -1.462  22.967   3.116  1.00  0.00     0.051 A 
ATOM      6  C   UNL     1      -1.014  24.246   2.761  1.00  0.00     0.157 A 
ENDROOT
BRANCH   1   7
ATOM      7  C   UNL     1       1.771  21.209   3.945  1.00  0.00     0.010 C 
ATOM      8  C   UNL     1       2.378  21.086   5.136  1.00  0.00     0.025 C 
BRANCH   8   9
ATOM      9  C   UNL     1       2.063  21.876   6.342  1.00  0.00     0.064 C 
ATOM     10  O   UNL     1       1.173  21.467   7.131  1.00  0.00    -0.545 OA
ATOM     11  O   UNL     1       2.676  23.098   6.590  1.00  0.00    -0.545 OA
ENDBRANCH   8   9
ENDBRANCH   1   7
BRANCH   4  12
ATOM     12  O   UNL     1       0.802  25.807   2.427  1.00  0.00    -0.504 OA
ATOM     13  H   UNL     1       0.685  26.607   3.038  1.00  0.00     0.293 HD
ENDBRANCH   4  12
BRANCH   6  14
ATOM     14  O   UNL     1      -1.922  25.230   2.371  1.00  0.00    -0.504 OA
ATOM     15  H   UNL     1      -2.914  25.037   2.304  1.00  0.00     0.293 HD
ENDBRANCH   6  14
TORSDOF 4
ENDMDL
MODEL 2
REMARK VINA RESULT:    -3.195      1.255      1.789
REMARK INTER + INTRA:          -4.031
REMARK INTER:                  -3.773
REMARK INTRA:                  -0.258
REMARK UNBOUND:                -0.276
REMARK SMILES O=C([O-])C=Cc1ccc(O)c(O)c1
REMARK SMILES IDX 6 1 13 2 7 3 11 4 8 5 9 6 5 7 4 8 2 9 1 10 3 11 12 12 10 14
REMARK H PARENT 12 13 10 15
REMARK Flexibility Score: inf
ROOT
ATOM      1  C   UNL     1       0.976  22.906   3.259  1.00  0.00    -0.022 A 
ATOM      2  C   UNL     1       0.206  24.076   3.141  1.00  0.00     0.058 A 
ATOM      3  C   UNL     1       0.426  21.679   2.866  1.00  0.00     0.012 A 
ATOM      4  C   UNL     1      -1.119  24.009   2.685  1.00  0.00     0.157 A 
ATOM      5  C   UNL     1      -0.893  21.610   2.411  1.00  0.00     0.051 A 
ATOM      6  C   UNL     1      -1.671  22.773   2.324  1.00  0.00     0.157 A 
ENDROOT
BRANCH   1   7
ATOM      7  C   UNL     1       2.390  22.961   3.686  1.00  0.00     0.010 C 
ATOM      8  C   UNL     1       2.830  22.782   4.941  1.00  0.00     0.025 C 
BRANCH   8   9
ATOM      9  C   UNL     1       2.011  22.315   6.076  1.00  0.00     0.064 C 
ATOM     10  O   UNL     1       1.358  23.154   6.750  1.00  0.00    -0.545 OA
ATOM     11  O   UNL     1       2.000  20.981   6.464  1.00  0.00    -0.545 OA
ENDBRANCH   8   9
ENDBRANCH   1   7
BRANCH   4  12
ATOM     12  O   UNL     1      -1.889  25.166   2.585  1.00  0.00    -0.504 OA
ATOM     13  H   UNL     1      -2.578  25.408   3.289  1.00  0.00     0.293 HD
ENDBRANCH   4  12
BRANCH   6  14
ATOM     14  O   UNL     1      -2.989  22.709   1.875  1.00  0.00    -0.504 OA
ATOM     15  H   UNL     1      -3.233  22.926   0.916  1.00  0.00     0.293 HD
ENDBRANCH   6  14
TORSDOF 4
ENDMDL
MODEL 3
REMARK VINA RESULT:    -3.134      0.852      2.104
REMARK INTER + INTRA:          -3.960
REMARK INTER:                  -3.689
REMARK INTRA:                  -0.270
REMARK UNBOUND:                -0.276
REMARK SMILES O=C([O-])C=Cc1ccc(O)c(O)c1
REMARK SMILES IDX 6 1 13 2 7 3 11 4 8 5 9 6 5 7 4 8 2 9 1 10 3 11 12 12 10 14
REMARK H PARENT 12 13 10 15
REMARK Flexibility Score: inf
ROOT
ATOM      1  C   UNL     1       1.068  22.438   3.237  1.00  0.00    -0.022 A 
ATOM      2  C   UNL     1      -0.287  22.066   3.231  1.00  0.00     0.058 A 
ATOM      3  C   UNL     1       1.420  23.757   2.920  1.00  0.00     0.012 A 
ATOM      4  C   UNL     1      -1.275  22.990   2.858  1.00  0.00     0.157 A 
ATOM      5  C   UNL     1       0.438  24.679   2.548  1.00  0.00     0.051 A 
ATOM      6  C   UNL     1      -0.910  24.298   2.512  1.00  0.00     0.157 A 
ENDROOT
BRANCH   1   7
ATOM      7  C   UNL     1       2.118  21.496   3.678  1.00  0.00     0.010 C 
ATOM      8  C   UNL     1       2.650  21.448   4.910  1.00  0.00     0.025 C 
BRANCH   8   9
ATOM      9  C   UNL     1       2.155  22.188   6.086  1.00  0.00     0.064 C 
ATOM     10  O   UNL     1       2.777  23.209   6.477  1.00  0.00    -0.545 OA
ATOM     11  O   UNL     1       1.058  21.745   6.815  1.00  0.00    -0.545 OA
ENDBRANCH   8   9
ENDBRANCH   1   7
BRANCH   4  12
ATOM     12  O   UNL     1      -2.617  22.617   2.834  1.00  0.00    -0.504 OA
ATOM     13  H   UNL     1      -3.164  22.550   3.684  1.00  0.00     0.293 HD
ENDBRANCH   4  12
BRANCH   6  14
ATOM     14  O   UNL     1      -1.893  25.213   2.138  1.00  0.00    -0.504 OA
ATOM     15  H   UNL     1      -2.877  24.971   2.156  1.00  0.00     0.293 HD
ENDBRANCH   6  14
TORSDOF 4
ENDMDL
MODEL 4
REMARK VINA RESULT:    -3.116      1.817      2.228
REMARK INTER + INTRA:          -3.938
REMARK INTER:                  -3.665
REMARK INTRA:                  -0.274
REMARK UNBOUND:                -0.276
REMARK SMILES O=C([O-])C=Cc1ccc(O)c(O)c1
REMARK SMILES IDX 6 1 13 2 7 3 11 4 8 5 9 6 5 7 4 8 2 9 1 10 3 11 12 12 10 14
REMARK H PARENT 12 13 10 15
REMARK Flexibility Score: inf
ROOT
ATOM      1  C   UNL     1      -0.210  22.776   5.223  1.00  0.00    -0.022 A 
ATOM      2  C   UNL     1      -0.451  23.945   4.481  1.00  0.00     0.058 A 
ATOM      3  C   UNL     1      -0.788  21.568   4.809  1.00  0.00     0.012 A 
ATOM      4  C   UNL     1      -1.304  23.916   3.368  1.00  0.00     0.157 A 
ATOM      5  C   UNL     1      -1.637  21.537   3.701  1.00  0.00     0.051 A 
ATOM      6  C   UNL     1      -1.902  22.709   2.980  1.00  0.00     0.157 A 
ENDROOT
BRANCH   1   7
ATOM      7  C   UNL     1       0.726  22.775   6.367  1.00  0.00     0.010 C 
ATOM      8  C   UNL     1       2.048  22.554   6.287  1.00  0.00     0.025 C 
BRANCH   8   9
ATOM      9  C   UNL     1       2.826  22.462   5.038  1.00  0.00     0.064 C 
ATOM     10  O   UNL     1       3.004  21.337   4.504  1.00  0.00    -0.545 OA
ATOM     11  O   UNL     1       3.429  23.580   4.474  1.00  0.00    -0.545 OA
ENDBRANCH   8   9
ENDBRANCH   1   7
BRANCH   4  12
ATOM     12  O   UNL     1      -1.557  25.078   2.642  1.00  0.00    -0.504 OA
ATOM     13  H   UNL     1      -1.870  25.044   1.679  1.00  0.00     0.293 HD
ENDBRANCH   4  12
BRANCH   6  14
ATOM     14  O   UNL     1      -2.752  22.683   1.875  1.00  0.00    -0.504 OA
ATOM     15  H   UNL     1      -3.289  23.497   1.601  1.00  0.00     0.293 HD
ENDBRANCH   6  14
TORSDOF 4
ENDMDL
MODEL 5
REMARK VINA RESULT:    -3.091      2.656      5.118
REMARK INTER + INTRA:          -3.909
REMARK INTER:                  -3.622
REMARK INTRA:                  -0.286
REMARK UNBOUND:                -0.276
REMARK SMILES O=C([O-])C=Cc1ccc(O)c(O)c1
REMARK SMILES IDX 6 1 13 2 7 3 11 4 8 5 9 6 5 7 4 8 2 9 1 10 3 11 12 12 10 14
REMARK H PARENT 12 13 10 15
REMARK Flexibility Score: inf
ROOT
ATOM      1  C   UNL     1       3.133  22.259   5.252  1.00  0.00    -0.022 A 
ATOM      2  C   UNL     1       3.717  22.082   6.518  1.00  0.00     0.058 A 
ATOM      3  C   UNL     1       3.545  23.331   4.449  1.00  0.00     0.012 A 
ATOM      4  C   UNL     1       4.663  23.000   6.997  1.00  0.00     0.157 A 
ATOM      5  C   UNL     1       4.488  24.246   4.923  1.00  0.00     0.051 A 
ATOM      6  C   UNL     1       5.046  24.087   6.199  1.00  0.00     0.157 A 
ENDROOT
BRANCH   1   7
ATOM      7  C   UNL     1       2.175  21.274   4.707  1.00  0.00     0.010 C 
ATOM      8  C   UNL     1       0.852  21.269   4.938  1.00  0.00     0.025 C 
BRANCH   8   9
ATOM      9  C   UNL     1       0.097  22.342   5.612  1.00  0.00     0.064 C 
ATOM     10  O   UNL     1      -0.140  22.247   6.844  1.00  0.00    -0.545 OA
ATOM     11  O   UNL     1      -0.422  23.420   4.905  1.00  0.00    -0.545 OA
ENDBRANCH   8   9
ENDBRANCH   1   7
BRANCH   4  12
ATOM     12  O   UNL     1       5.229  22.836   8.259  1.00  0.00    -0.504 OA
ATOM     13  H   UNL     1       4.679  22.936   9.104  1.00  0.00     0.293 HD
ENDBRANCH   4  12
BRANCH   6  14
ATOM     14  O   UNL     1       5.984  25.000   6.679  1.00  0.00    -0.504 OA
ATOM     15  H   UNL     1       6.683  24.732   7.360  1.00  0.00     0.293 HD
ENDBRANCH   6  14
TORSDOF 4
ENDMDL
MODEL 6
REMARK VINA RESULT:    -3.049     23.684     24.726
REMARK INTER + INTRA:          -3.860
REMARK INTER:                  -3.574
REMARK INTRA:                  -0.286
REMARK UNBOUND:                -0.276
REMARK SMILES O=C([O-])C=Cc1ccc(O)c(O)c1
REMARK SMILES IDX 6 1 13 2 7 3 11 4 8 5 9 6 5 7 4 8 2 9 1 10 3 11 12 12 10 14
REMARK H PARENT 12 13 10 15
REMARK Flexibility Score: inf
ROOT
ATOM      1  C   UNL     1     -10.714  40.460  18.365  1.00  0.00    -0.022 A 
ATOM      2  C   UNL     1     -11.438  40.426  17.161  1.00  0.00     0.058 A 
ATOM      3  C   UNL     1      -9.331  40.235  18.343  1.00  0.00     0.012 A 
ATOM      4  C   UNL     1     -10.792  40.115  15.954  1.00  0.00     0.157 A 
ATOM      5  C   UNL     1      -8.687  39.925  17.142  1.00  0.00     0.051 A 
ATOM      6  C   UNL     1      -9.415  39.860  15.946  1.00  0.00     0.157 A 
ENDROOT
BRANCH   1   7
ATOM      7  C   UNL     1     -11.364  40.838  19.638  1.00  0.00     0.010 C 
ATOM      8  C   UNL     1     -12.030  40.000  20.448  1.00  0.00     0.025 C 
BRANCH   8   9
ATOM      9  C   UNL     1     -12.070  38.531  20.314  1.00  0.00     0.064 C 
ATOM     10  O   UNL     1     -13.124  37.979  19.905  1.00  0.00    -0.545 OA
ATOM     11  O   UNL     1     -10.995  37.737  20.696  1.00  0.00    -0.545 OA
ENDBRANCH   8   9
ENDBRANCH   1   7
BRANCH   4  12
ATOM     12  O   UNL     1     -11.512  40.063  14.763  1.00  0.00    -0.504 OA
ATOM     13  H   UNL     1     -12.006  40.873  14.405  1.00  0.00     0.293 HD
ENDBRANCH   4  12
BRANCH   6  14
ATOM     14  O   UNL     1      -8.776  39.548  14.747  1.00  0.00    -0.504 OA
ATOM     15  H   UNL     1      -8.676  40.232  14.007  1.00  0.00     0.293 HD
ENDBRANCH   6  14
TORSDOF 4
ENDMDL
MODEL 7
REMARK VINA RESULT:    -3.025      2.615      3.526
REMARK INTER + INTRA:          -3.832
REMARK INTER:                  -3.553
REMARK INTRA:                  -0.279
REMARK UNBOUND:                -0.276
REMARK SMILES O=C([O-])C=Cc1ccc(O)c(O)c1
REMARK SMILES IDX 6 1 13 2 7 3 11 4 8 5 9 6 5 7 4 8 2 9 1 10 3 11 12 12 10 14
REMARK H PARENT 12 13 10 15
REMARK Flexibility Score: inf
ROOT
ATOM      1  C   UNL     1       2.464  23.396   3.047  1.00  0.00    -0.022 A 
ATOM      2  C   UNL     1       3.761  23.795   3.411  1.00  0.00     0.058 A 
ATOM      3  C   UNL     1       1.681  24.247   2.254  1.00  0.00     0.012 A 
ATOM      4  C   UNL     1       4.249  25.054   3.031  1.00  0.00     0.157 A 
ATOM      5  C   UNL     1       2.165  25.501   1.875  1.00  0.00     0.051 A 
ATOM      6  C   UNL     1       3.447  25.911   2.265  1.00  0.00     0.157 A 
ENDROOT
BRANCH   1   7
ATOM      7  C   UNL     1       1.951  22.053   3.390  1.00  0.00     0.010 C 
ATOM      8  C   UNL     1       1.236  21.752   4.485  1.00  0.00     0.025 C 
BRANCH   8   9
ATOM      9  C   UNL     1       0.675  22.731   5.436  1.00  0.00     0.064 C 
ATOM     10  O   UNL     1      -0.411  23.304   5.161  1.00  0.00    -0.545 OA
ATOM     11  O   UNL     1       1.353  23.088   6.596  1.00  0.00    -0.545 OA
ENDBRANCH   8   9
ENDBRANCH   1   7
BRANCH   4  12
ATOM     12  O   UNL     1       5.529  25.458   3.408  1.00  0.00    -0.504 OA
ATOM     13  H   UNL     1       6.357  25.081   2.961  1.00  0.00     0.293 HD
ENDBRANCH   4  12
BRANCH   6  14
ATOM     14  O   UNL     1       3.933  27.163   1.893  1.00  0.00    -0.504 OA
ATOM     15  H   UNL     1       3.350  27.991   1.934  1.00  0.00     0.293 HD
ENDBRANCH   6  14
TORSDOF 4
ENDMDL
MODEL 8
REMARK VINA RESULT:    -2.949      2.197      4.852
REMARK INTER + INTRA:          -3.742
REMARK INTER:                  -3.456
REMARK INTRA:                  -0.286
REMARK UNBOUND:                -0.276
REMARK SMILES O=C([O-])C=Cc1ccc(O)c(O)c1
REMARK SMILES IDX 6 1 13 2 7 3 11 4 8 5 9 6 5 7 4 8 2 9 1 10 3 11 12 12 10 14
REMARK H PARENT 12 13 10 15
REMARK Flexibility Score: inf
ROOT
ATOM      1  C   UNL     1       2.504  21.844   5.015  1.00  0.00    -0.022 A 
ATOM      2  C   UNL     1       3.216  23.047   4.868  1.00  0.00     0.058 A 
ATOM      3  C   UNL     1       2.663  21.090   6.185  1.00  0.00     0.012 A 
ATOM      4  C   UNL     1       4.117  23.463   5.860  1.00  0.00     0.157 A 
ATOM      5  C   UNL     1       3.560  21.503   7.174  1.00  0.00     0.051 A 
ATOM      6  C   UNL     1       4.293  22.687   7.013  1.00  0.00     0.157 A 
ENDROOT
BRANCH   1   7
ATOM      7  C   UNL     1       1.511  21.415   4.008  1.00  0.00     0.010 C 
ATOM      8  C   UNL     1       0.201  21.703   4.039  1.00  0.00     0.025 C 
BRANCH   8   9
ATOM      9  C   UNL     1      -0.446  22.649   4.968  1.00  0.00     0.064 C 
ATOM     10  O   UNL     1      -0.590  23.850   4.623  1.00  0.00    -0.545 OA
ATOM     11  O   UNL     1      -0.835  22.261   6.245  1.00  0.00    -0.545 OA
ENDBRANCH   8   9
ENDBRANCH   1   7
BRANCH   4  12
ATOM     12  O   UNL     1       4.836  24.647   5.707  1.00  0.00    -0.504 OA
ATOM     13  H   UNL     1       5.812  24.713   5.972  1.00  0.00     0.293 HD
ENDBRANCH   4  12
BRANCH   6  14
ATOM     14  O   UNL     1       5.192  23.101   7.995  1.00  0.00    -0.504 OA
ATOM     15  H   UNL     1       5.087  23.991   8.467  1.00  0.00     0.293 HD
ENDBRANCH   6  14
TORSDOF 4
ENDMDL
MODEL 9
REMARK VINA RESULT:    -2.915     24.244     25.114
REMARK INTER + INTRA:          -3.702
REMARK INTER:                  -3.425
REMARK INTRA:                  -0.277
REMARK UNBOUND:                -0.276
REMARK SMILES O=C([O-])C=Cc1ccc(O)c(O)c1
REMARK SMILES IDX 6 1 13 2 7 3 11 4 8 5 9 6 5 7 4 8 2 9 1 10 3 11 12 12 10 14
REMARK H PARENT 12 13 10 15
REMARK Flexibility Score: inf
ROOT
ATOM      1  C   UNL     1     -10.332  39.780  20.095  1.00  0.00    -0.022 A 
ATOM      2  C   UNL     1     -10.124  39.548  18.725  1.00  0.00     0.058 A 
ATOM      3  C   UNL     1      -9.229  40.013  20.928  1.00  0.00     0.012 A 
ATOM      4  C   UNL     1      -8.822  39.495  18.204  1.00  0.00     0.157 A 
ATOM      5  C   UNL     1      -7.932  39.961  20.412  1.00  0.00     0.051 A 
ATOM      6  C   UNL     1      -7.724  39.698  19.051  1.00  0.00     0.157 A 
ENDROOT
BRANCH   1   7
ATOM      7  C   UNL     1     -11.696  39.892  20.654  1.00  0.00     0.010 C 
ATOM      8  C   UNL     1     -12.473  38.860  21.018  1.00  0.00     0.025 C 
BRANCH   8   9
ATOM      9  C   UNL     1     -12.041  37.452  21.104  1.00  0.00     0.064 C 
ATOM     10  O   UNL     1     -12.486  36.620  20.272  1.00  0.00    -0.545 OA
ATOM     11  O   UNL     1     -11.209  37.009  22.125  1.00  0.00    -0.545 OA
ENDBRANCH   8   9
ENDBRANCH   1   7
BRANCH   4  12
ATOM     12  O   UNL     1      -8.614  39.247  16.849  1.00  0.00    -0.504 OA
ATOM     13  H   UNL     1      -9.153  39.721  16.134  1.00  0.00     0.293 HD
ENDBRANCH   4  12
BRANCH   6  14
ATOM     14  O   UNL     1      -6.431  39.642  18.532  1.00  0.00    -0.504 OA
ATOM     15  H   UNL     1      -5.733  40.336  18.773  1.00  0.00     0.293 HD
ENDBRANCH   6  14
TORSDOF 4
ENDMDL
