MODEL 1
REMARK VINA RESULT:    -6.474      0.000      0.000
REMARK INTER + INTRA:          -8.686
REMARK INTER:                  -8.177
REMARK INTRA:                  -0.510
REMARK UNBOUND:                -0.510
REMARK SMILES Oc1cc(O)cc(CCc2ccccc2O)c1
REMARK SMILES IDX 9 1 10 2 12 3 13 4 11 5 14 6 15 7 16 8 8 10 7 11 6 12 17 13
REMARK SMILES IDX 4 14 2 15 3 16 5 17 1 19
REMARK H PARENT 16 9 5 18 1 20
REMARK Flexibility Score: inf
ROOT
ATOM      1  C   UNL     1       7.615   6.991  -4.475  1.00  0.00     0.044 C 
ENDROOT
BRANCH   1   2
ATOM      2  C   UNL     1       7.153   6.153  -3.310  1.00  0.00    -0.006 A 
ATOM      3  C   UNL     1       6.414   4.005  -2.439  1.00  0.00     0.001 A 
ATOM      4  C   UNL     1       6.357   4.542  -1.152  1.00  0.00     0.004 A 
ATOM      5  C   UNL     1       6.815   4.804  -3.514  1.00  0.00     0.007 A 
ATOM      6  C   UNL     1       6.704   5.878  -0.934  1.00  0.00     0.046 A 
ATOM      7  C   UNL     1       7.109   6.687  -2.006  1.00  0.00     0.118 A 
BRANCH   7   8
ATOM      8  O   UNL     1       7.468   8.015  -1.779  1.00  0.00    -0.508 OA
ATOM      9  H   UNL     1       8.439   8.306  -1.753  1.00  0.00     0.293 HD
ENDBRANCH   7   8
ENDBRANCH   1   2
BRANCH   1  10
ATOM     10  C   UNL     1       9.048   6.623  -4.870  1.00  0.00     0.040 C 
BRANCH  10  11
ATOM     11  C   UNL     1       9.082   6.042  -6.258  1.00  0.00    -0.040 A 
ATOM     12  C   UNL     1       9.424   6.850  -7.355  1.00  0.00     0.050 A 
ATOM     13  C   UNL     1       8.715   4.703  -6.475  1.00  0.00     0.050 A 
ATOM     14  C   UNL     1       9.423   6.318  -8.652  1.00  0.00     0.119 A 
ATOM     15  C   UNL     1       8.715   4.172  -7.771  1.00  0.00     0.119 A 
ATOM     16  C   UNL     1       9.071   4.980  -8.856  1.00  0.00     0.092 A 
BRANCH  14  17
ATOM     17  O   UNL     1       9.768   7.112  -9.743  1.00  0.00    -0.508 OA
ATOM     18  H   UNL     1      10.127   6.708 -10.601  1.00  0.00     0.293 HD
ENDBRANCH  14  17
BRANCH  15  19
ATOM     19  O   UNL     1       8.359   2.843  -7.994  1.00  0.00    -0.508 OA
ATOM     20  H   UNL     1       8.960   2.215  -8.517  1.00  0.00     0.293 HD
ENDBRANCH  15  19
ENDBRANCH  10  11
ENDBRANCH   1  10
TORSDOF 6
ENDMDL
MODEL 2
REMARK VINA RESULT:    -6.466      0.092      2.032
REMARK INTER + INTRA:          -8.677
REMARK INTER:                  -8.162
REMARK INTRA:                  -0.515
REMARK UNBOUND:                -0.510
REMARK SMILES Oc1cc(O)cc(CCc2ccccc2O)c1
REMARK SMILES IDX 9 1 10 2 12 3 13 4 11 5 14 6 15 7 16 8 8 10 7 11 6 12 17 13
REMARK SMILES IDX 4 14 2 15 3 16 5 17 1 19
REMARK H PARENT 16 9 5 18 1 20
REMARK Flexibility Score: inf
ROOT
ATOM      1  C   UNL     1       7.604   7.039  -4.397  1.00  0.00     0.044 C 
ENDROOT
BRANCH   1   2
ATOM      2  C   UNL     1       7.140   6.210  -3.225  1.00  0.00    -0.006 A 
ATOM      3  C   UNL     1       6.418   4.066  -2.334  1.00  0.00     0.001 A 
ATOM      4  C   UNL     1       6.343   4.618  -1.054  1.00  0.00     0.004 A 
ATOM      5  C   UNL     1       6.819   4.855  -3.415  1.00  0.00     0.007 A 
ATOM      6  C   UNL     1       6.673   5.960  -0.850  1.00  0.00     0.046 A 
ATOM      7  C   UNL     1       7.079   6.760  -1.929  1.00  0.00     0.118 A 
BRANCH   7   8
ATOM      8  O   UNL     1       7.422   8.095  -1.715  1.00  0.00    -0.508 OA
ATOM      9  H   UNL     1       6.721   8.827  -1.688  1.00  0.00     0.293 HD
ENDBRANCH   7   8
ENDBRANCH   1   2
BRANCH   1  10
ATOM     10  C   UNL     1       9.020   6.636  -4.816  1.00  0.00     0.040 C 
BRANCH  10  11
ATOM     11  C   UNL     1       9.019   6.075  -6.213  1.00  0.00    -0.040 A 
ATOM     12  C   UNL     1       8.674   4.732  -6.436  1.00  0.00     0.050 A 
ATOM     13  C   UNL     1       9.418   6.874  -7.297  1.00  0.00     0.050 A 
ATOM     14  C   UNL     1       8.705   4.200  -7.733  1.00  0.00     0.119 A 
ATOM     15  C   UNL     1       9.449   6.343  -8.593  1.00  0.00     0.119 A 
ATOM     16  C   UNL     1       9.090   5.008  -8.808  1.00  0.00     0.092 A 
BRANCH  14  17
ATOM     17  O   UNL     1       8.358   2.871  -7.962  1.00  0.00    -0.508 OA
ATOM     18  H   UNL     1       7.390   2.578  -8.024  1.00  0.00     0.293 HD
ENDBRANCH  14  17
BRANCH  15  19
ATOM     19  O   UNL     1       9.838   7.130  -9.675  1.00  0.00    -0.508 OA
ATOM     20  H   UNL     1       9.969   6.733 -10.599  1.00  0.00     0.293 HD
ENDBRANCH  15  19
ENDBRANCH  10  11
ENDBRANCH   1  10
TORSDOF 6
ENDMDL
MODEL 3
REMARK VINA RESULT:    -6.223      1.272      1.739
REMARK INTER + INTRA:          -8.369
REMARK INTER:                  -7.891
REMARK INTRA:                  -0.478
REMARK UNBOUND:                -0.510
REMARK SMILES Oc1cc(O)cc(CCc2ccccc2O)c1
REMARK SMILES IDX 9 1 10 2 12 3 13 4 11 5 14 6 15 7 16 8 8 10 7 11 6 12 17 13
REMARK SMILES IDX 4 14 2 15 3 16 5 17 1 19
REMARK H PARENT 16 9 5 18 1 20
REMARK Flexibility Score: inf
ROOT
ATOM      1  C   UNL     1       7.073   6.326  -4.370  1.00  0.00     0.044 C 
ENDROOT
BRANCH   1   2
ATOM      2  C   UNL     1       6.935   5.894  -2.932  1.00  0.00    -0.006 A 
ATOM      3  C   UNL     1       6.823   6.478  -0.573  1.00  0.00     0.001 A 
ATOM      4  C   UNL     1       6.608   5.138  -0.247  1.00  0.00     0.004 A 
ATOM      5  C   UNL     1       6.981   6.857  -1.909  1.00  0.00     0.007 A 
ATOM      6  C   UNL     1       6.546   4.173  -1.256  1.00  0.00     0.046 A 
ATOM      7  C   UNL     1       6.702   4.544  -2.600  1.00  0.00     0.118 A 
BRANCH   7   8
ATOM      8  O   UNL     1       6.624   3.578  -3.603  1.00  0.00    -0.508 OA
ATOM      9  H   UNL     1       5.918   3.621  -4.329  1.00  0.00     0.293 HD
ENDBRANCH   7   8
ENDBRANCH   1   2
BRANCH   1  10
ATOM     10  C   UNL     1       8.549   6.466  -4.752  1.00  0.00     0.040 C 
BRANCH  10  11
ATOM     11  C   UNL     1       8.791   5.928  -6.137  1.00  0.00    -0.040 A 
ATOM     12  C   UNL     1       9.248   6.778  -7.156  1.00  0.00     0.050 A 
ATOM     13  C   UNL     1       8.505   4.585  -6.435  1.00  0.00     0.050 A 
ATOM     14  C   UNL     1       9.442   6.286  -8.455  1.00  0.00     0.119 A 
ATOM     15  C   UNL     1       8.699   4.092  -7.732  1.00  0.00     0.119 A 
ATOM     16  C   UNL     1       9.169   4.944  -8.738  1.00  0.00     0.092 A 
BRANCH  14  17
ATOM     17  O   UNL     1       9.902   7.123  -9.469  1.00  0.00    -0.508 OA
ATOM     18  H   UNL     1      10.828   7.534  -9.438  1.00  0.00     0.293 HD
ENDBRANCH  14  17
BRANCH  15  19
ATOM     19  O   UNL     1       8.425   2.761  -8.035  1.00  0.00    -0.508 OA
ATOM     20  H   UNL     1       8.724   2.007  -7.425  1.00  0.00     0.293 HD
ENDBRANCH  15  19
ENDBRANCH  10  11
ENDBRANCH   1  10
TORSDOF 6
ENDMDL
MODEL 4
REMARK VINA RESULT:    -6.059      1.477      6.577
REMARK INTER + INTRA:          -8.162
REMARK INTER:                  -7.737
REMARK INTRA:                  -0.425
REMARK UNBOUND:                -0.510
REMARK SMILES Oc1cc(O)cc(CCc2ccccc2O)c1
REMARK SMILES IDX 9 1 10 2 12 3 13 4 11 5 14 6 15 7 16 8 8 10 7 11 6 12 17 13
REMARK SMILES IDX 4 14 2 15 3 16 5 17 1 19
REMARK H PARENT 16 9 5 18 1 20
REMARK Flexibility Score: inf
ROOT
ATOM      1  C   UNL     1       8.487   5.573  -5.469  1.00  0.00     0.044 C 
ENDROOT
BRANCH   1   2
ATOM      2  C   UNL     1       8.815   5.721  -6.933  1.00  0.00    -0.006 A 
ATOM      3  C   UNL     1       9.526   7.127  -8.786  1.00  0.00     0.001 A 
ATOM      4  C   UNL     1       9.504   6.021  -9.639  1.00  0.00     0.004 A 
ATOM      5  C   UNL     1       9.188   6.978  -7.438  1.00  0.00     0.007 A 
ATOM      6  C   UNL     1       9.149   4.763  -9.145  1.00  0.00     0.046 A 
ATOM      7  C   UNL     1       8.810   4.604  -7.793  1.00  0.00     0.118 A 
BRANCH   7   8
ATOM      8  O   UNL     1       8.471   3.343  -7.304  1.00  0.00    -0.508 OA
ATOM      9  H   UNL     1       7.852   3.229  -6.509  1.00  0.00     0.293 HD
ENDBRANCH   7   8
ENDBRANCH   1   2
BRANCH   1  10
ATOM     10  C   UNL     1       8.248   6.942  -4.828  1.00  0.00     0.040 C 
BRANCH  10  11
ATOM     11  C   UNL     1       7.591   6.790  -3.483  1.00  0.00    -0.040 A 
ATOM     12  C   UNL     1       7.328   7.919  -2.691  1.00  0.00     0.050 A 
ATOM     13  C   UNL     1       7.289   5.512  -2.983  1.00  0.00     0.050 A 
ATOM     14  C   UNL     1       6.745   7.775  -1.424  1.00  0.00     0.119 A 
ATOM     15  C   UNL     1       6.707   5.367  -1.716  1.00  0.00     0.119 A 
ATOM     16  C   UNL     1       6.435   6.500  -0.941  1.00  0.00     0.092 A 
BRANCH  14  17
ATOM     17  O   UNL     1       6.476   8.892  -0.636  1.00  0.00    -0.508 OA
ATOM     18  H   UNL     1       5.609   9.409  -0.729  1.00  0.00     0.293 HD
ENDBRANCH  14  17
BRANCH  15  19
ATOM     19  O   UNL     1       6.398   4.104  -1.217  1.00  0.00    -0.508 OA
ATOM     20  H   UNL     1       6.167   3.333  -1.833  1.00  0.00     0.293 HD
ENDBRANCH  15  19
ENDBRANCH  10  11
ENDBRANCH   1  10
TORSDOF 6
ENDMDL
MODEL 5
REMARK VINA RESULT:    -6.047      1.508      6.837
REMARK INTER + INTRA:          -8.148
REMARK INTER:                  -7.723
REMARK INTRA:                  -0.425
REMARK UNBOUND:                -0.510
REMARK SMILES Oc1cc(O)cc(CCc2ccccc2O)c1
REMARK SMILES IDX 9 1 10 2 12 3 13 4 11 5 14 6 15 7 16 8 8 10 7 11 6 12 17 13
REMARK SMILES IDX 4 14 2 15 3 16 5 17 1 19
REMARK H PARENT 16 9 5 18 1 20
REMARK Flexibility Score: inf
ROOT
ATOM      1  C   UNL     1       8.469   5.583  -5.415  1.00  0.00     0.044 C 
ENDROOT
BRANCH   1   2
ATOM      2  C   UNL     1       8.794   5.702  -6.883  1.00  0.00    -0.006 A 
ATOM      3  C   UNL     1       9.491   7.071  -8.769  1.00  0.00     0.001 A 
ATOM      4  C   UNL     1       9.477   5.947  -9.596  1.00  0.00     0.004 A 
ATOM      5  C   UNL     1       9.157   6.950  -7.417  1.00  0.00     0.007 A 
ATOM      6  C   UNL     1       9.133   4.697  -9.074  1.00  0.00     0.046 A 
ATOM      7  C   UNL     1       8.797   4.566  -7.718  1.00  0.00     0.118 A 
BRANCH   7   8
ATOM      8  O   UNL     1       8.469   3.313  -7.201  1.00  0.00    -0.508 OA
ATOM      9  H   UNL     1       7.802   3.208  -6.444  1.00  0.00     0.293 HD
ENDBRANCH   7   8
ENDBRANCH   1   2
BRANCH   1  10
ATOM     10  C   UNL     1       8.221   6.965  -4.805  1.00  0.00     0.040 C 
BRANCH  10  11
ATOM     11  C   UNL     1       7.613   6.837  -3.434  1.00  0.00    -0.040 A 
ATOM     12  C   UNL     1       7.274   5.573  -2.926  1.00  0.00     0.050 A 
ATOM     13  C   UNL     1       7.326   7.984  -2.676  1.00  0.00     0.050 A 
ATOM     14  C   UNL     1       6.677   5.454  -1.663  1.00  0.00     0.119 A 
ATOM     15  C   UNL     1       6.729   7.867  -1.414  1.00  0.00     0.119 A 
ATOM     16  C   UNL     1       6.408   6.602  -0.910  1.00  0.00     0.092 A 
BRANCH  14  17
ATOM     17  O   UNL     1       6.344   4.203  -1.150  1.00  0.00    -0.508 OA
ATOM     18  H   UNL     1       5.944   4.098  -0.225  1.00  0.00     0.293 HD
ENDBRANCH  14  17
BRANCH  15  19
ATOM     19  O   UNL     1       6.447   9.000  -0.654  1.00  0.00    -0.508 OA
ATOM     20  H   UNL     1       5.894   8.944   0.194  1.00  0.00     0.293 HD
ENDBRANCH  15  19
ENDBRANCH  10  11
ENDBRANCH   1  10
TORSDOF 6
ENDMDL
MODEL 6
REMARK VINA RESULT:    -5.893      1.693      2.903
REMARK INTER + INTRA:          -7.953
REMARK INTER:                  -7.563
REMARK INTRA:                  -0.389
REMARK UNBOUND:                -0.510
REMARK SMILES Oc1cc(O)cc(CCc2ccccc2O)c1
REMARK SMILES IDX 9 1 10 2 12 3 13 4 11 5 14 6 15 7 16 8 8 10 7 11 6 12 17 13
REMARK SMILES IDX 4 14 2 15 3 16 5 17 1 19
REMARK H PARENT 16 9 5 18 1 20
REMARK Flexibility Score: inf
ROOT
ATOM      1  C   UNL     1       7.352   6.076  -4.341  1.00  0.00     0.044 C 
ENDROOT
BRANCH   1   2
ATOM      2  C   UNL     1       7.031   5.726  -2.910  1.00  0.00    -0.006 A 
ATOM      3  C   UNL     1       6.724   6.430  -0.602  1.00  0.00     0.001 A 
ATOM      4  C   UNL     1       6.366   5.128  -0.248  1.00  0.00     0.004 A 
ATOM      5  C   UNL     1       7.050   6.731  -1.927  1.00  0.00     0.007 A 
ATOM      6  C   UNL     1       6.329   4.123  -1.218  1.00  0.00     0.046 A 
ATOM      7  C   UNL     1       6.654   4.416  -2.552  1.00  0.00     0.118 A 
BRANCH   7   8
ATOM      8  O   UNL     1       6.600   3.412  -3.518  1.00  0.00    -0.508 OA
ATOM      9  H   UNL     1       7.179   2.582  -3.455  1.00  0.00     0.293 HD
ENDBRANCH   7   8
ENDBRANCH   1   2
BRANCH   1  10
ATOM     10  C   UNL     1       8.749   6.694  -4.445  1.00  0.00     0.040 C 
BRANCH  10  11
ATOM     11  C   UNL     1       9.165   6.824  -5.885  1.00  0.00    -0.040 A 
ATOM     12  C   UNL     1       8.908   5.784  -6.793  1.00  0.00     0.050 A 
ATOM     13  C   UNL     1       9.865   7.962  -6.321  1.00  0.00     0.050 A 
ATOM     14  C   UNL     1       9.324   5.891  -8.128  1.00  0.00     0.119 A 
ATOM     15  C   UNL     1      10.281   8.069  -7.654  1.00  0.00     0.119 A 
ATOM     16  C   UNL     1      10.007   7.034  -8.554  1.00  0.00     0.092 A 
BRANCH  14  17
ATOM     17  O   UNL     1       9.066   4.865  -9.035  1.00  0.00    -0.508 OA
ATOM     18  H   UNL     1       8.619   4.003  -8.747  1.00  0.00     0.293 HD
ENDBRANCH  14  17
BRANCH  15  19
ATOM     19  O   UNL     1      10.969   9.197  -8.095  1.00  0.00    -0.508 OA
ATOM     20  H   UNL     1      11.705   9.131  -8.789  1.00  0.00     0.293 HD
ENDBRANCH  15  19
ENDBRANCH  10  11
ENDBRANCH   1  10
TORSDOF 6
ENDMDL
MODEL 7
REMARK VINA RESULT:    -5.694      1.732      2.986
REMARK INTER + INTRA:          -7.702
REMARK INTER:                  -7.252
REMARK INTRA:                  -0.450
REMARK UNBOUND:                -0.510
REMARK SMILES Oc1cc(O)cc(CCc2ccccc2O)c1
REMARK SMILES IDX 9 1 10 2 12 3 13 4 11 5 14 6 15 7 16 8 8 10 7 11 6 12 17 13
REMARK SMILES IDX 4 14 2 15 3 16 5 17 1 19
REMARK H PARENT 16 9 5 18 1 20
REMARK Flexibility Score: inf
ROOT
ATOM      1  C   UNL     1       7.227   6.704  -3.030  1.00  0.00     0.044 C 
ENDROOT
BRANCH   1   2
ATOM      2  C   UNL     1       6.943   5.694  -1.947  1.00  0.00    -0.006 A 
ATOM      3  C   UNL     1       6.550   3.385  -1.288  1.00  0.00     0.001 A 
ATOM      4  C   UNL     1       6.486   3.774   0.051  1.00  0.00     0.004 A 
ATOM      5  C   UNL     1       6.783   4.339  -2.284  1.00  0.00     0.007 A 
ATOM      6  C   UNL     1       6.658   5.116   0.400  1.00  0.00     0.046 A 
ATOM      7  C   UNL     1       6.893   6.080  -0.592  1.00  0.00     0.118 A 
BRANCH   7   8
ATOM      8  O   UNL     1       7.079   7.415  -0.235  1.00  0.00    -0.508 OA
ATOM      9  H   UNL     1       7.773   7.690   0.451  1.00  0.00     0.293 HD
ENDBRANCH   7   8
ENDBRANCH   1   2
BRANCH   1  10
ATOM     10  C   UNL     1       7.542   6.001  -4.354  1.00  0.00     0.040 C 
BRANCH  10  11
ATOM     11  C   UNL     1       8.535   6.800  -5.154  1.00  0.00    -0.040 A 
ATOM     12  C   UNL     1       8.840   6.433  -6.474  1.00  0.00     0.050 A 
ATOM     13  C   UNL     1       9.207   7.886  -4.567  1.00  0.00     0.050 A 
ATOM     14  C   UNL     1       9.790   7.157  -7.209  1.00  0.00     0.119 A 
ATOM     15  C   UNL     1      10.157   8.610  -5.301  1.00  0.00     0.119 A 
ATOM     16  C   UNL     1      10.443   8.244  -6.620  1.00  0.00     0.092 A 
BRANCH  14  17
ATOM     17  O   UNL     1      10.092   6.801  -8.521  1.00  0.00    -0.508 OA
ATOM     18  H   UNL     1      10.095   7.484  -9.269  1.00  0.00     0.293 HD
ENDBRANCH  14  17
BRANCH  15  19
ATOM     19  O   UNL     1      10.822   9.691  -4.729  1.00  0.00    -0.508 OA
ATOM     20  H   UNL     1      11.652   9.561  -4.160  1.00  0.00     0.293 HD
ENDBRANCH  15  19
ENDBRANCH  10  11
ENDBRANCH   1  10
TORSDOF 6
ENDMDL
MODEL 8
REMARK VINA RESULT:    -5.660      1.666      2.563
REMARK INTER + INTRA:          -7.659
REMARK INTER:                  -7.210
REMARK INTRA:                  -0.449
REMARK UNBOUND:                -0.510
REMARK SMILES Oc1cc(O)cc(CCc2ccccc2O)c1
REMARK SMILES IDX 9 1 10 2 12 3 13 4 11 5 14 6 15 7 16 8 8 10 7 11 6 12 17 13
REMARK SMILES IDX 4 14 2 15 3 16 5 17 1 19
REMARK H PARENT 16 9 5 18 1 20
REMARK Flexibility Score: inf
ROOT
ATOM      1  C   UNL     1       7.311   6.775  -3.438  1.00  0.00     0.044 C 
ENDROOT
BRANCH   1   2
ATOM      2  C   UNL     1       6.986   5.868  -2.278  1.00  0.00    -0.006 A 
ATOM      3  C   UNL     1       6.556   3.630  -1.427  1.00  0.00     0.001 A 
ATOM      4  C   UNL     1       6.452   4.138  -0.131  1.00  0.00     0.004 A 
ATOM      5  C   UNL     1       6.827   4.489  -2.496  1.00  0.00     0.007 A 
ATOM      6  C   UNL     1       6.623   5.505   0.102  1.00  0.00     0.046 A 
ATOM      7  C   UNL     1       6.897   6.375  -0.965  1.00  0.00     0.118 A 
BRANCH   7   8
ATOM      8  O   UNL     1       7.081   7.736  -0.724  1.00  0.00    -0.508 OA
ATOM      9  H   UNL     1       6.479   8.250  -0.091  1.00  0.00     0.293 HD
ENDBRANCH   7   8
ENDBRANCH   1   2
BRANCH   1  10
ATOM     10  C   UNL     1       7.728   5.956  -4.662  1.00  0.00     0.040 C 
BRANCH  10  11
ATOM     11  C   UNL     1       8.734   6.713  -5.487  1.00  0.00    -0.040 A 
ATOM     12  C   UNL     1       9.471   7.764  -4.917  1.00  0.00     0.050 A 
ATOM     13  C   UNL     1       8.902   6.414  -6.850  1.00  0.00     0.050 A 
ATOM     14  C   UNL     1      10.384   8.491  -5.693  1.00  0.00     0.119 A 
ATOM     15  C   UNL     1       9.814   7.140  -7.626  1.00  0.00     0.119 A 
ATOM     16  C   UNL     1      10.554   8.176  -7.045  1.00  0.00     0.092 A 
BRANCH  14  17
ATOM     17  O   UNL     1      11.122   9.530  -5.132  1.00  0.00    -0.508 OA
ATOM     18  H   UNL     1      11.497  10.282  -5.699  1.00  0.00     0.293 HD
ENDBRANCH  14  17
BRANCH  15  19
ATOM     19  O   UNL     1       9.992   6.845  -8.976  1.00  0.00    -0.508 OA
ATOM     20  H   UNL     1      10.637   7.372  -9.553  1.00  0.00     0.293 HD
ENDBRANCH  15  19
ENDBRANCH  10  11
ENDBRANCH   1  10
TORSDOF 6
ENDMDL
MODEL 9
REMARK VINA RESULT:    -5.590      2.069      6.480
REMARK INTER + INTRA:          -7.570
REMARK INTER:                  -7.121
REMARK INTRA:                  -0.448
REMARK UNBOUND:                -0.510
REMARK SMILES Oc1cc(O)cc(CCc2ccccc2O)c1
REMARK SMILES IDX 9 1 10 2 12 3 13 4 11 5 14 6 15 7 16 8 8 10 7 11 6 12 17 13
REMARK SMILES IDX 4 14 2 15 3 16 5 17 1 19
REMARK H PARENT 16 9 5 18 1 20
REMARK Flexibility Score: inf
ROOT
ATOM      1  C   UNL     1       8.962   5.238  -6.817  1.00  0.00     0.044 C 
ENDROOT
BRANCH   1   2
ATOM      2  C   UNL     1       8.959   4.954  -8.298  1.00  0.00    -0.006 A 
ATOM      3  C   UNL     1       9.275   5.735 -10.580  1.00  0.00     0.001 A 
ATOM      4  C   UNL     1       9.034   4.447 -11.059  1.00  0.00     0.004 A 
ATOM      5  C   UNL     1       9.244   5.989  -9.206  1.00  0.00     0.007 A 
ATOM      6  C   UNL     1       8.764   3.406 -10.167  1.00  0.00     0.046 A 
ATOM      7  C   UNL     1       8.731   3.651  -8.785  1.00  0.00     0.118 A 
BRANCH   7   8
ATOM      8  O   UNL     1       8.477   2.605  -7.899  1.00  0.00    -0.508 OA
ATOM      9  H   UNL     1       8.650   2.696  -6.904  1.00  0.00     0.293 HD
ENDBRANCH   7   8
ENDBRANCH   1   2
BRANCH   1  10
ATOM     10  C   UNL     1       9.589   6.605  -6.532  1.00  0.00     0.040 C 
BRANCH  10  11
ATOM     11  C   UNL     1       9.065   7.168  -5.238  1.00  0.00    -0.040 A 
ATOM     12  C   UNL     1       9.543   8.396  -4.754  1.00  0.00     0.050 A 
ATOM     13  C   UNL     1       8.136   6.441  -4.474  1.00  0.00     0.050 A 
ATOM     14  C   UNL     1       9.080   8.904  -3.532  1.00  0.00     0.119 A 
ATOM     15  C   UNL     1       7.672   6.948  -3.253  1.00  0.00     0.119 A 
ATOM     16  C   UNL     1       8.144   8.180  -2.787  1.00  0.00     0.092 A 
BRANCH  14  17
ATOM     17  O   UNL     1       9.546  10.125  -3.050  1.00  0.00    -0.508 OA
ATOM     18  H   UNL     1       9.358  10.427  -2.101  1.00  0.00     0.293 HD
ENDBRANCH  14  17
BRANCH  15  19
ATOM     19  O   UNL     1       6.746   6.237  -2.494  1.00  0.00    -0.508 OA
ATOM     20  H   UNL     1       6.286   5.410  -2.859  1.00  0.00     0.293 HD
ENDBRANCH  15  19
ENDBRANCH  10  11
ENDBRANCH   1  10
TORSDOF 6
ENDMDL
