MODEL 1
REMARK VINA RESULT:    -4.393      0.000      0.000
REMARK INTER + INTRA:          -7.031
REMARK INTER:                  -6.705
REMARK INTRA:                  -0.326
REMARK UNBOUND:                -0.326
REMARK SMILES CC1=CCC[C@@H](C)C(=O)C[C@H](C(C)C)C(=O)C1
REMARK SMILES IDX 8 1 9 2 6 3 7 4 5 5 4 6 3 7 2 8 1 9 10 11 11 12 15 13 16 14
REMARK SMILES IDX 17 15 12 17 13 18 14 19
REMARK H PARENT
REMARK Flexibility Score: 70.00
ROOT
ATOM      1  C   UNL     1      14.391 -33.028  20.815  1.00  0.00     0.136 C 
ATOM      2  O   UNL     1      13.936 -33.198  19.692  1.00  0.00    -0.299 OA
ENDROOT
BRANCH   1   3
ATOM      3  C   UNL     1      14.018 -31.788  21.595  1.00  0.00     0.053 C 
ATOM      4  C   UNL     1      12.762 -31.144  20.996  1.00  0.00     0.016 C 
BRANCH   3   5
ATOM      5  C   UNL     1      15.183 -30.781  21.634  1.00  0.00     0.015 C 
BRANCH   5   6
ATOM      6  C   UNL     1      15.578 -30.378  23.072  1.00  0.00     0.028 C 
BRANCH   6   7
ATOM      7  C   UNL     1      17.072 -30.468  23.283  1.00  0.00    -0.028 C 
ATOM      8  C   UNL     1      17.791 -31.572  23.602  1.00  0.00    -0.070 CG0
ATOM      9  C   UNL     1      19.276 -31.396  23.807  1.00  0.00     0.039 C 
ATOM     10  G   UNL     1      17.213 -32.970  23.742  1.00  0.00     0.000 G0
ENDBRANCH   6   7
ENDBRANCH   5   6
ENDBRANCH   3   5
ENDBRANCH   1   3
BRANCH   1  11
ATOM     11  C   UNL     1      15.265 -34.085  21.452  1.00  0.00     0.087 C 
BRANCH  11  12
ATOM     12  C   UNL     1      16.780 -33.835  21.256  1.00  0.00     0.066 C 
BRANCH  12  13
ATOM     13  C   UNL     1      17.573 -33.848  22.557  1.00  0.00     0.140 C 
ATOM     14  O   UNL     1      18.505 -34.634  22.657  1.00  0.00    -0.299 OA
BRANCH  13  15
ATOM     15  C   UNL     1      17.221 -32.992  23.753  1.00  0.00     0.106 CG0
ATOM     16  G   UNL     1      17.800 -31.593  23.616  1.00  0.00     0.000 G0
ENDBRANCH  13  15
ENDBRANCH  12  13
BRANCH  12  17
ATOM     17  C   UNL     1      17.392 -34.760  20.159  1.00  0.00    -0.006 C 
ATOM     18  C   UNL     1      17.593 -34.072  18.799  1.00  0.00     0.008 C 
ATOM     19  C   UNL     1      16.560 -36.039  19.979  1.00  0.00     0.008 C 
ENDBRANCH  12  17
ENDBRANCH  11  12
ENDBRANCH   1  11
TORSDOF 1
ENDMDL
MODEL 2
REMARK VINA RESULT:    -4.179      2.292      4.404
REMARK INTER + INTRA:          -6.705
REMARK INTER:                  -6.666
REMARK INTRA:                  -0.038
REMARK UNBOUND:                -0.326
REMARK SMILES CC1=CCC[C@@H](C)C(=O)C[C@H](C(C)C)C(=O)C1
REMARK SMILES IDX 8 1 9 2 6 3 7 4 5 5 4 6 3 7 2 8 1 9 10 11 11 12 15 13 16 14
REMARK SMILES IDX 17 15 12 17 13 18 14 19
REMARK H PARENT
REMARK Flexibility Score: 70.00
ROOT
ATOM      1  C   UNL     1      16.623 -29.811  21.966  1.00  0.00     0.136 C 
ATOM      2  O   UNL     1      16.220 -28.803  21.402  1.00  0.00    -0.299 OA
ENDROOT
BRANCH   1   3
ATOM      3  C   UNL     1      17.953 -30.412  21.568  1.00  0.00     0.053 C 
ATOM      4  C   UNL     1      18.896 -29.316  21.057  1.00  0.00     0.016 C 
BRANCH   3   5
ATOM      5  C   UNL     1      17.774 -31.516  20.510  1.00  0.00     0.015 C 
BRANCH   5   6
ATOM      6  C   UNL     1      18.605 -32.781  20.817  1.00  0.00     0.028 C 
BRANCH   6   7
ATOM      7  C   UNL     1      18.588 -33.112  22.292  1.00  0.00    -0.028 C 
ATOM      8  C   UNL     1      17.524 -33.511  23.031  1.00  0.00    -0.070 CG0
ATOM      9  C   UNL     1      17.752 -33.737  24.506  1.00  0.00     0.039 C 
ATOM     10  G   UNL     1      16.133 -33.770  22.477  1.00  0.00     0.000 G0
ENDBRANCH   6   7
ENDBRANCH   5   6
ENDBRANCH   3   5
ENDBRANCH   1   3
BRANCH   1  11
ATOM     11  C   UNL     1      15.833 -30.418  23.103  1.00  0.00     0.087 C 
BRANCH  11  12
ATOM     12  C   UNL     1      14.788 -31.462  22.643  1.00  0.00     0.066 C 
BRANCH  12  13
ATOM     13  C   UNL     1      15.088 -32.877  23.122  1.00  0.00     0.140 C 
ATOM     14  O   UNL     1      14.503 -33.286  24.115  1.00  0.00    -0.299 OA
BRANCH  13  15
ATOM     15  C   UNL     1      16.125 -33.770  22.477  1.00  0.00     0.106 CG0
ATOM     16  G   UNL     1      17.510 -33.497  23.040  1.00  0.00     0.000 G0
ENDBRANCH  13  15
ENDBRANCH  12  13
BRANCH  12  17
ATOM     17  C   UNL     1      13.327 -31.011  22.952  1.00  0.00    -0.006 C 
ATOM     18  C   UNL     1      12.415 -30.945  21.716  1.00  0.00     0.008 C 
ATOM     19  C   UNL     1      13.304 -29.663  23.689  1.00  0.00     0.008 C 
ENDBRANCH  12  17
ENDBRANCH  11  12
ENDBRANCH   1  11
TORSDOF 1
ENDMDL
MODEL 3
REMARK VINA RESULT:    -4.015      1.862      3.897
REMARK INTER + INTRA:          -6.453
REMARK INTER:                  -6.342
REMARK INTRA:                  -0.111
REMARK UNBOUND:                -0.326
REMARK SMILES CC1=CCC[C@@H](C)C(=O)C[C@H](C(C)C)C(=O)C1
REMARK SMILES IDX 8 1 9 2 6 3 7 4 5 5 4 6 3 7 2 8 1 9 10 11 11 12 15 13 16 14
REMARK SMILES IDX 17 15 12 17 13 18 14 19
REMARK H PARENT
REMARK Flexibility Score: 70.00
ROOT
ATOM      1  C   UNL     1      19.078 -32.617  21.134  1.00  0.00     0.136 C 
ATOM      2  O   UNL     1      19.791 -33.279  21.877  1.00  0.00    -0.299 OA
ENDROOT
BRANCH   1   3
ATOM      3  C   UNL     1      19.327 -31.134  20.982  1.00  0.00     0.053 C 
ATOM      4  C   UNL     1      20.043 -30.587  22.222  1.00  0.00     0.016 C 
BRANCH   3   5
ATOM      5  C   UNL     1      18.014 -30.369  20.727  1.00  0.00     0.015 C 
BRANCH   5   6
ATOM      6  C   UNL     1      17.124 -30.271  21.985  1.00  0.00     0.028 C 
BRANCH   6   7
ATOM      7  C   UNL     1      15.657 -30.366  21.637  1.00  0.00    -0.028 C 
ATOM      8  C   UNL     1      14.852 -31.450  21.763  1.00  0.00    -0.070 CG0
ATOM      9  C   UNL     1      13.422 -31.308  21.300  1.00  0.00     0.039 C 
ATOM     10  G   UNL     1      15.280 -32.781  22.358  1.00  0.00     0.000 G0
ENDBRANCH   6   7
ENDBRANCH   5   6
ENDBRANCH   3   5
ENDBRANCH   1   3
BRANCH   1  11
ATOM     11  C   UNL     1      17.996 -33.288  20.318  1.00  0.00     0.087 C 
BRANCH  11  12
ATOM     12  C   UNL     1      17.117 -34.263  21.137  1.00  0.00     0.066 C 
BRANCH  12  13
ATOM     13  C   UNL     1      15.682 -33.783  21.320  1.00  0.00     0.140 C 
ATOM     14  O   UNL     1      14.836 -34.180  20.531  1.00  0.00    -0.299 OA
BRANCH  13  15
ATOM     15  C   UNL     1      15.269 -32.786  22.380  1.00  0.00     0.106 CG0
ATOM     16  G   UNL     1      14.846 -31.467  21.756  1.00  0.00     0.000 G0
ENDBRANCH  13  15
ENDBRANCH  12  13
BRANCH  12  17
ATOM     17  C   UNL     1      17.207 -35.726  20.605  1.00  0.00    -0.006 C 
ATOM     18  C   UNL     1      18.131 -36.638  21.429  1.00  0.00     0.008 C 
ATOM     19  C   UNL     1      17.628 -35.759  19.127  1.00  0.00     0.008 C 
ENDBRANCH  12  17
ENDBRANCH  11  12
ENDBRANCH   1  11
TORSDOF 1
ENDMDL
MODEL 4
REMARK VINA RESULT:    -3.830      1.985      4.084
REMARK INTER + INTRA:          -6.172
REMARK INTER:                  -5.846
REMARK INTRA:                  -0.326
REMARK UNBOUND:                -0.326
REMARK SMILES CC1=CCC[C@@H](C)C(=O)C[C@H](C(C)C)C(=O)C1
REMARK SMILES IDX 8 1 9 2 6 3 7 4 5 5 4 6 3 7 2 8 1 9 10 11 11 12 15 13 16 14
REMARK SMILES IDX 17 15 12 17 13 18 14 19
REMARK H PARENT
REMARK Flexibility Score: 70.00
ROOT
ATOM      1  C   UNL     1      18.034 -34.447  21.232  1.00  0.00     0.136 C 
ATOM      2  O   UNL     1      19.025 -35.149  21.081  1.00  0.00    -0.299 OA
ENDROOT
BRANCH   1   3
ATOM      3  C   UNL     1      17.768 -33.311  20.271  1.00  0.00     0.053 C 
ATOM      4  C   UNL     1      17.966 -33.783  18.825  1.00  0.00     0.016 C 
BRANCH   3   5
ATOM      5  C   UNL     1      18.665 -32.097  20.577  1.00  0.00     0.015 C 
BRANCH   5   6
ATOM      6  C   UNL     1      17.893 -30.930  21.229  1.00  0.00     0.028 C 
BRANCH   6   7
ATOM      7  C   UNL     1      16.405 -31.046  20.990  1.00  0.00    -0.028 C 
ATOM      8  C   UNL     1      15.446 -31.324  21.906  1.00  0.00    -0.070 CG0
ATOM      9  C   UNL     1      14.024 -31.434  21.410  1.00  0.00     0.039 C 
ATOM     10  G   UNL     1      15.697 -31.507  23.394  1.00  0.00     0.000 G0
ENDBRANCH   6   7
ENDBRANCH   5   6
ENDBRANCH   3   5
ENDBRANCH   1   3
BRANCH   1  11
ATOM     11  C   UNL     1      17.041 -34.755  22.330  1.00  0.00     0.087 C 
BRANCH  11  12
ATOM     12  C   UNL     1      17.117 -33.775  23.525  1.00  0.00     0.066 C 
BRANCH  12  13
ATOM     13  C   UNL     1      15.831 -32.990  23.753  1.00  0.00     0.140 C 
ATOM     14  O   UNL     1      14.858 -33.591  24.186  1.00  0.00    -0.299 OA
BRANCH  13  15
ATOM     15  C   UNL     1      15.679 -31.527  23.403  1.00  0.00     0.106 CG0
ATOM     16  G   UNL     1      15.431 -31.342  21.915  1.00  0.00     0.000 G0
ENDBRANCH  13  15
ENDBRANCH  12  13
BRANCH  12  17
ATOM     17  C   UNL     1      17.648 -34.466  24.819  1.00  0.00    -0.006 C 
ATOM     18  C   UNL     1      18.783 -33.700  25.519  1.00  0.00     0.008 C 
ATOM     19  C   UNL     1      18.089 -35.911  24.541  1.00  0.00     0.008 C 
ENDBRANCH  12  17
ENDBRANCH  11  12
ENDBRANCH   1  11
TORSDOF 1
ENDMDL
MODEL 5
REMARK VINA RESULT:    -3.827      1.930      4.026
REMARK INTER + INTRA:          -6.167
REMARK INTER:                  -5.790
REMARK INTRA:                  -0.376
REMARK UNBOUND:                -0.326
REMARK SMILES CC1=CCC[C@@H](C)C(=O)C[C@H](C(C)C)C(=O)C1
REMARK SMILES IDX 8 1 9 2 6 3 7 4 5 5 4 6 3 7 2 8 1 9 10 11 11 12 15 13 16 14
REMARK SMILES IDX 17 15 12 17 13 18 14 19
REMARK H PARENT
REMARK Flexibility Score: 70.00
ROOT
ATOM      1  C   UNL     1      15.612 -33.215  20.612  1.00  0.00     0.136 C 
ATOM      2  O   UNL     1      14.821 -34.148  20.618  1.00  0.00    -0.299 OA
ENDROOT
BRANCH   1   3
ATOM      3  C   UNL     1      17.022 -33.431  20.112  1.00  0.00     0.053 C 
ATOM      4  C   UNL     1      16.997 -34.004  18.690  1.00  0.00     0.016 C 
BRANCH   3   5
ATOM      5  C   UNL     1      17.817 -34.351  21.058  1.00  0.00     0.015 C 
BRANCH   5   6
ATOM      6  C   UNL     1      18.415 -33.596  22.266  1.00  0.00     0.028 C 
BRANCH   6   7
ATOM      7  C   UNL     1      19.090 -32.313  21.840  1.00  0.00    -0.028 C 
ATOM      8  C   UNL     1      18.825 -31.060  22.284  1.00  0.00    -0.070 CG0
ATOM      9  C   UNL     1      19.608 -29.926  21.667  1.00  0.00     0.039 C 
ATOM     10  G   UNL     1      17.818 -30.722  23.371  1.00  0.00     0.000 G0
ENDBRANCH   6   7
ENDBRANCH   5   6
ENDBRANCH   3   5
ENDBRANCH   1   3
BRANCH   1  11
ATOM     11  C   UNL     1      15.166 -31.833  21.036  1.00  0.00     0.087 C 
BRANCH  11  12
ATOM     12  C   UNL     1      15.409 -31.537  22.535  1.00  0.00     0.066 C 
BRANCH  12  13
ATOM     13  C   UNL     1      16.437 -30.438  22.781  1.00  0.00     0.140 C 
ATOM     14  O   UNL     1      16.161 -29.301  22.425  1.00  0.00    -0.299 OA
BRANCH  13  15
ATOM     15  C   UNL     1      17.805 -30.698  23.372  1.00  0.00     0.106 CG0
ATOM     16  G   UNL     1      18.814 -31.039  22.289  1.00  0.00     0.000 G0
ENDBRANCH  13  15
ENDBRANCH  12  13
BRANCH  12  17
ATOM     17  C   UNL     1      14.077 -31.311  23.315  1.00  0.00    -0.006 C 
ATOM     18  C   UNL     1      13.712 -32.453  24.277  1.00  0.00     0.008 C 
ATOM     19  C   UNL     1      12.907 -31.044  22.356  1.00  0.00     0.008 C 
ENDBRANCH  12  17
ENDBRANCH  11  12
ENDBRANCH   1  11
TORSDOF 1
ENDMDL
MODEL 6
REMARK VINA RESULT:    -3.808      2.267      4.293
REMARK INTER + INTRA:          -6.138
REMARK INTER:                  -6.253
REMARK INTRA:                   0.115
REMARK UNBOUND:                -0.326
REMARK SMILES CC1=CCC[C@@H](C)C(=O)C[C@H](C(C)C)C(=O)C1
REMARK SMILES IDX 8 1 9 2 6 3 7 4 5 5 4 6 3 7 2 8 1 9 10 11 11 12 15 13 16 14
REMARK SMILES IDX 17 15 12 17 13 18 14 19
REMARK H PARENT
REMARK Flexibility Score: 70.00
ROOT
ATOM      1  C   UNL     1      15.855 -30.604  21.993  1.00  0.00     0.136 C 
ATOM      2  O   UNL     1      16.144 -29.590  22.614  1.00  0.00    -0.299 OA
ENDROOT
BRANCH   1   3
ATOM      3  C   UNL     1      14.486 -31.222  22.163  1.00  0.00     0.053 C 
ATOM      4  C   UNL     1      13.901 -30.846  23.529  1.00  0.00     0.016 C 
BRANCH   3   5
ATOM      5  C   UNL     1      14.538 -32.752  21.994  1.00  0.00     0.015 C 
BRANCH   5   6
ATOM      6  C   UNL     1      14.312 -33.202  20.534  1.00  0.00     0.028 C 
BRANCH   6   7
ATOM      7  C   UNL     1      14.920 -34.561  20.271  1.00  0.00    -0.028 C 
ATOM      8  C   UNL     1      16.171 -34.827  19.822  1.00  0.00    -0.070 CG0
ATOM      9  C   UNL     1      16.531 -36.274  19.591  1.00  0.00     0.039 C 
ATOM     10  G   UNL     1      17.239 -33.777  19.561  1.00  0.00     0.000 G0
ENDBRANCH   6   7
ENDBRANCH   5   6
ENDBRANCH   3   5
ENDBRANCH   1   3
BRANCH   1  11
ATOM     11  C   UNL     1      16.833 -31.198  21.005  1.00  0.00     0.087 C 
BRANCH  11  12
ATOM     12  C   UNL     1      17.824 -32.201  21.643  1.00  0.00     0.066 C 
BRANCH  12  13
ATOM     13  C   UNL     1      18.003 -33.480  20.834  1.00  0.00     0.140 C 
ATOM     14  O   UNL     1      18.859 -34.276  21.196  1.00  0.00    -0.299 OA
BRANCH  13  15
ATOM     15  C   UNL     1      17.228 -33.778  19.570  1.00  0.00     0.106 CG0
ATOM     16  G   UNL     1      16.157 -34.827  19.819  1.00  0.00     0.000 G0
ENDBRANCH  13  15
ENDBRANCH  12  13
BRANCH  12  17
ATOM     17  C   UNL     1      19.178 -31.528  22.028  1.00  0.00    -0.006 C 
ATOM     18  C   UNL     1      19.317 -31.208  23.526  1.00  0.00     0.008 C 
ATOM     19  C   UNL     1      19.425 -30.258  21.199  1.00  0.00     0.008 C 
ENDBRANCH  12  17
ENDBRANCH  11  12
ENDBRANCH   1  11
TORSDOF 1
ENDMDL
MODEL 7
REMARK VINA RESULT:    -3.797      1.630      2.081
REMARK INTER + INTRA:          -6.121
REMARK INTER:                  -5.743
REMARK INTRA:                  -0.378
REMARK UNBOUND:                -0.326
REMARK SMILES CC1=CCC[C@@H](C)C(=O)C[C@H](C(C)C)C(=O)C1
REMARK SMILES IDX 8 1 9 2 6 3 7 4 5 5 4 6 3 7 2 8 1 9 10 11 11 12 15 13 16 14
REMARK SMILES IDX 17 15 12 17 13 18 14 19
REMARK H PARENT
REMARK Flexibility Score: 70.00
ROOT
ATOM      1  C   UNL     1      15.815 -33.061  22.117  1.00  0.00     0.136 C 
ATOM      2  O   UNL     1      15.232 -32.724  21.094  1.00  0.00    -0.299 OA
ENDROOT
BRANCH   1   3
ATOM      3  C   UNL     1      15.690 -32.215  23.363  1.00  0.00     0.053 C 
ATOM      4  C   UNL     1      14.285 -31.609  23.453  1.00  0.00     0.016 C 
BRANCH   3   5
ATOM      5  C   UNL     1      16.764 -31.111  23.400  1.00  0.00     0.015 C 
BRANCH   5   6
ATOM      6  C   UNL     1      17.882 -31.396  24.427  1.00  0.00     0.028 C 
BRANCH   6   7
ATOM      7  C   UNL     1      19.239 -31.469  23.765  1.00  0.00    -0.028 C 
ATOM      8  C   UNL     1      19.933 -32.586  23.437  1.00  0.00    -0.070 CG0
ATOM      9  C   UNL     1      21.299 -32.397  22.822  1.00  0.00     0.039 C 
ATOM     10  G   UNL     1      19.424 -34.006  23.619  1.00  0.00     0.000 G0
ENDBRANCH   6   7
ENDBRANCH   5   6
ENDBRANCH   3   5
ENDBRANCH   1   3
BRANCH   1  11
ATOM     11  C   UNL     1      16.599 -34.353  22.158  1.00  0.00     0.087 C 
BRANCH  11  12
ATOM     12  C   UNL     1      17.952 -34.280  21.409  1.00  0.00     0.066 C 
BRANCH  12  13
ATOM     13  C   UNL     1      19.148 -34.659  22.274  1.00  0.00     0.140 C 
ATOM     14  O   UNL     1      19.873 -35.566  21.890  1.00  0.00    -0.299 OA
BRANCH  13  15
ATOM     15  C   UNL     1      19.440 -34.019  23.613  1.00  0.00     0.106 CG0
ATOM     16  G   UNL     1      19.916 -32.586  23.444  1.00  0.00     0.000 G0
ENDBRANCH  13  15
ENDBRANCH  12  13
BRANCH  12  17
ATOM     17  C   UNL     1      17.915 -35.045  20.050  1.00  0.00    -0.006 C 
ATOM     18  C   UNL     1      17.712 -34.138  18.825  1.00  0.00     0.008 C 
ATOM     19  C   UNL     1      16.849 -36.152  20.061  1.00  0.00     0.008 C 
ENDBRANCH  12  17
ENDBRANCH  11  12
ENDBRANCH   1  11
TORSDOF 1
ENDMDL
MODEL 8
REMARK VINA RESULT:    -3.687      1.675      4.031
REMARK INTER + INTRA:          -5.953
REMARK INTER:                  -5.894
REMARK INTRA:                  -0.058
REMARK UNBOUND:                -0.326
REMARK SMILES CC1=CCC[C@@H](C)C(=O)C[C@H](C(C)C)C(=O)C1
REMARK SMILES IDX 8 1 9 2 6 3 7 4 5 5 4 6 3 7 2 8 1 9 10 11 11 12 15 13 16 14
REMARK SMILES IDX 17 15 12 17 13 18 14 19
REMARK H PARENT
REMARK Flexibility Score: 70.00
ROOT
ATOM      1  C   UNL     1      15.870 -33.516  20.177  1.00  0.00     0.136 C 
ATOM      2  O   UNL     1      14.661 -33.561  19.994  1.00  0.00    -0.299 OA
ENDROOT
BRANCH   1   3
ATOM      3  C   UNL     1      16.761 -34.567  19.555  1.00  0.00     0.053 C 
ATOM      4  C   UNL     1      16.172 -35.964  19.784  1.00  0.00     0.016 C 
BRANCH   3   5
ATOM      5  C   UNL     1      18.196 -34.483  20.109  1.00  0.00     0.015 C 
BRANCH   5   6
ATOM      6  C   UNL     1      18.486 -35.550  21.187  1.00  0.00     0.028 C 
BRANCH   6   7
ATOM      7  C   UNL     1      19.334 -34.992  22.307  1.00  0.00    -0.028 C 
ATOM      8  C   UNL     1      18.907 -34.324  23.406  1.00  0.00    -0.070 CG0
ATOM      9  C   UNL     1      19.959 -33.822  24.365  1.00  0.00     0.039 C 
ATOM     10  G   UNL     1      17.449 -34.068  23.751  1.00  0.00     0.000 G0
ENDBRANCH   6   7
ENDBRANCH   5   6
ENDBRANCH   3   5
ENDBRANCH   1   3
BRANCH   1  11
ATOM     11  C   UNL     1      16.482 -32.377  20.960  1.00  0.00     0.087 C 
BRANCH  11  12
ATOM     12  C   UNL     1      15.971 -32.284  22.418  1.00  0.00     0.066 C 
BRANCH  12  13
ATOM     13  C   UNL     1      17.026 -32.644  23.458  1.00  0.00     0.140 C 
ATOM     14  O   UNL     1      17.607 -31.732  24.029  1.00  0.00    -0.299 OA
BRANCH  13  15
ATOM     15  C   UNL     1      17.439 -34.067  23.763  1.00  0.00     0.106 CG0
ATOM     16  G   UNL     1      18.892 -34.308  23.388  1.00  0.00     0.000 G0
ENDBRANCH  13  15
ENDBRANCH  12  13
BRANCH  12  17
ATOM     17  C   UNL     1      15.266 -30.923  22.710  1.00  0.00    -0.006 C 
ATOM     18  C   UNL     1      14.004 -31.043  23.580  1.00  0.00     0.008 C 
ATOM     19  C   UNL     1      14.932 -30.177  21.408  1.00  0.00     0.008 C 
ENDBRANCH  12  17
ENDBRANCH  11  12
ENDBRANCH   1  11
TORSDOF 1
ENDMDL
MODEL 9
REMARK VINA RESULT:    -3.580      2.057      4.096
REMARK INTER + INTRA:          -5.790
REMARK INTER:                  -5.524
REMARK INTRA:                  -0.266
REMARK UNBOUND:                -0.326
REMARK SMILES CC1=CCC[C@@H](C)C(=O)C[C@H](C(C)C)C(=O)C1
REMARK SMILES IDX 8 1 9 2 6 3 7 4 5 5 4 6 3 7 2 8 1 9 10 11 11 12 15 13 16 14
REMARK SMILES IDX 17 15 12 17 13 18 14 19
REMARK H PARENT
REMARK Flexibility Score: 70.00
ROOT
ATOM      1  C   UNL     1      17.856 -35.415  21.515  1.00  0.00     0.136 C 
ATOM      2  O   UNL     1      18.994 -35.310  21.079  1.00  0.00    -0.299 OA
ENDROOT
BRANCH   1   3
ATOM      3  C   UNL     1      16.705 -35.631  20.559  1.00  0.00     0.053 C 
ATOM      4  C   UNL     1      17.167 -36.455  19.351  1.00  0.00     0.016 C 
BRANCH   3   5
ATOM      5  C   UNL     1      16.095 -34.291  20.105  1.00  0.00     0.015 C 
BRANCH   5   6
ATOM      6  C   UNL     1      15.059 -33.735  21.106  1.00  0.00     0.028 C 
BRANCH   6   7
ATOM      7  C   UNL     1      15.473 -32.383  21.640  1.00  0.00    -0.028 C 
ATOM      8  C   UNL     1      15.829 -32.076  22.912  1.00  0.00    -0.070 CG0
ATOM      9  C   UNL     1      16.157 -30.634  23.211  1.00  0.00     0.039 C 
ATOM     10  G   UNL     1      15.944 -33.083  24.045  1.00  0.00     0.000 G0
ENDBRANCH   6   7
ENDBRANCH   5   6
ENDBRANCH   3   5
ENDBRANCH   1   3
BRANCH   1  11
ATOM     11  C   UNL     1      17.605 -35.401  23.006  1.00  0.00     0.087 C 
BRANCH  11  12
ATOM     12  C   UNL     1      18.337 -34.256  23.746  1.00  0.00     0.066 C 
BRANCH  12  13
ATOM     13  C   UNL     1      17.396 -33.285  24.449  1.00  0.00     0.140 C 
ATOM     14  O   UNL     1      17.815 -32.683  25.428  1.00  0.00    -0.299 OA
BRANCH  13  15
ATOM     15  C   UNL     1      15.953 -33.084  24.040  1.00  0.00     0.106 CG0
ATOM     16  G   UNL     1      15.840 -32.076  22.909  1.00  0.00     0.000 G0
ENDBRANCH  13  15
ENDBRANCH  12  13
BRANCH  12  17
ATOM     17  C   UNL     1      19.473 -34.785  24.674  1.00  0.00    -0.006 C 
ATOM     18  C   UNL     1      20.832 -34.947  23.975  1.00  0.00     0.008 C 
ATOM     19  C   UNL     1      19.073 -36.108  25.347  1.00  0.00     0.008 C 
ENDBRANCH  12  17
ENDBRANCH  11  12
ENDBRANCH   1  11
TORSDOF 1
ENDMDL
