MODEL 1
REMARK VINA RESULT:    -3.186      0.000      0.000
REMARK INTER + INTRA:          -6.992
REMARK INTER:                  -5.420
REMARK INTRA:                  -1.572
REMARK UNBOUND:                -1.572
REMARK SMILES CCCCCCCCCCCCCC(=O)[O-]
REMARK SMILES IDX 8 1 9 2 10 3 11 4 12 5 13 6 14 7 15 8 16 9 7 10 6 11 5 12
REMARK SMILES IDX 4 13 3 14 2 15 1 16
REMARK H PARENT
REMARK Flexibility Score: inf
ROOT
ATOM      1  C   UNL     1       5.745  69.808  23.381  1.00  0.00     0.000 C 
ENDROOT
BRANCH   1   2
ATOM      2  C   UNL     1       4.511  68.892  23.496  1.00  0.00     0.000 C 
BRANCH   2   3
ATOM      3  C   UNL     1       3.578  68.949  22.268  1.00  0.00     0.000 C 
BRANCH   3   4
ATOM      4  C   UNL     1       4.267  69.577  21.043  1.00  0.00     0.000 C 
BRANCH   4   5
ATOM      5  C   UNL     1       3.325  69.710  19.836  1.00  0.00     0.006 C 
BRANCH   5   6
ATOM      6  C   UNL     1       3.307  71.128  19.253  1.00  0.00     0.053 C 
BRANCH   6   7
ATOM      7  C   UNL     1       1.899  71.586  19.039  1.00  0.00     0.041 C 
ATOM      8  O   UNL     1       1.553  72.749  19.372  1.00  0.00    -0.550 OA
ATOM      9  O   UNL     1       0.981  70.744  18.425  1.00  0.00    -0.550 OA
ENDBRANCH   6   7
ENDBRANCH   5   6
ENDBRANCH   4   5
ENDBRANCH   3   4
ENDBRANCH   2   3
ENDBRANCH   1   2
BRANCH   1  10
ATOM     10  C   UNL     1       7.094  69.094  23.568  1.00  0.00     0.000 C 
BRANCH  10  11
ATOM     11  C   UNL     1       7.293  67.935  22.575  1.00  0.00    -0.000 C 
BRANCH  11  12
ATOM     12  C   UNL     1       7.381  66.570  23.275  1.00  0.00    -0.000 C 
BRANCH  12  13
ATOM     13  C   UNL     1       6.724  65.444  22.458  1.00  0.00    -0.000 C 
BRANCH  13  14
ATOM     14  C   UNL     1       5.240  65.241  22.834  1.00  0.00    -0.000 C 
BRANCH  14  15
ATOM     15  C   UNL     1       4.273  65.473  21.661  1.00  0.00    -0.003 C 
ATOM     16  C   UNL     1       4.965  66.014  20.412  1.00  0.00     0.004 C 
ENDBRANCH  14  15
ENDBRANCH  13  14
ENDBRANCH  12  13
ENDBRANCH  11  12
ENDBRANCH  10  11
ENDBRANCH   1  10
TORSDOF 12
ENDMDL
MODEL 2
REMARK VINA RESULT:    -2.983     13.008     15.387
REMARK INTER + INTRA:          -6.647
REMARK INTER:                  -5.243
REMARK INTRA:                  -1.404
REMARK UNBOUND:                -1.572
REMARK SMILES CCCCCCCCCCCCCC(=O)[O-]
REMARK SMILES IDX 8 1 9 2 10 3 11 4 12 5 13 6 14 7 15 8 16 9 7 10 6 11 5 12
REMARK SMILES IDX 4 13 3 14 2 15 1 16
REMARK H PARENT
REMARK Flexibility Score: inf
ROOT
ATOM      1  C   UNL     1       5.688  67.080   5.000  1.00  0.00     0.000 C 
ENDROOT
BRANCH   1   2
ATOM      2  C   UNL     1       4.353  66.344   4.777  1.00  0.00     0.000 C 
BRANCH   2   3
ATOM      3  C   UNL     1       3.144  67.034   5.443  1.00  0.00     0.000 C 
BRANCH   3   4
ATOM      4  C   UNL     1       2.347  66.072   6.342  1.00  0.00     0.000 C 
BRANCH   4   5
ATOM      5  C   UNL     1       3.249  65.247   7.274  1.00  0.00     0.006 C 
BRANCH   5   6
ATOM      6  C   UNL     1       2.512  64.753   8.524  1.00  0.00     0.053 C 
BRANCH   6   7
ATOM      7  C   UNL     1       2.154  63.307   8.382  1.00  0.00     0.041 C 
ATOM      8  O   UNL     1       1.215  62.959   7.620  1.00  0.00    -0.550 OA
ATOM      9  O   UNL     1       2.891  62.340   9.053  1.00  0.00    -0.550 OA
ENDBRANCH   6   7
ENDBRANCH   5   6
ENDBRANCH   4   5
ENDBRANCH   3   4
ENDBRANCH   2   3
ENDBRANCH   1   2
BRANCH   1  10
ATOM     10  C   UNL     1       5.547  68.554   5.416  1.00  0.00     0.000 C 
BRANCH  10  11
ATOM     11  C   UNL     1       6.856  69.139   5.977  1.00  0.00    -0.000 C 
BRANCH  11  12
ATOM     12  C   UNL     1       6.623  70.025   7.210  1.00  0.00    -0.000 C 
BRANCH  12  13
ATOM     13  C   UNL     1       5.153  70.456   7.359  1.00  0.00    -0.000 C 
BRANCH  13  14
ATOM     14  C   UNL     1       4.556  70.032   8.718  1.00  0.00    -0.000 C 
BRANCH  14  15
ATOM     15  C   UNL     1       3.680  68.771   8.636  1.00  0.00    -0.003 C 
ATOM     16  C   UNL     1       3.431  68.126   9.998  1.00  0.00     0.004 C 
ENDBRANCH  14  15
ENDBRANCH  13  14
ENDBRANCH  12  13
ENDBRANCH  11  12
ENDBRANCH  10  11
ENDBRANCH   1  10
TORSDOF 12
ENDMDL
MODEL 3
REMARK VINA RESULT:    -2.962      6.001      8.681
REMARK INTER + INTRA:          -6.611
REMARK INTER:                  -5.583
REMARK INTRA:                  -1.029
REMARK UNBOUND:                -1.572
REMARK SMILES CCCCCCCCCCCCCC(=O)[O-]
REMARK SMILES IDX 8 1 9 2 10 3 11 4 12 5 13 6 14 7 15 8 16 9 7 10 6 11 5 12
REMARK SMILES IDX 4 13 3 14 2 15 1 16
REMARK H PARENT
REMARK Flexibility Score: inf
ROOT
ATOM      1  C   UNL     1       1.199  68.952  14.838  1.00  0.00     0.000 C 
ENDROOT
BRANCH   1   2
ATOM      2  C   UNL     1       1.317  68.689  13.324  1.00  0.00     0.000 C 
BRANCH   2   3
ATOM      3  C   UNL     1       0.629  69.762  12.452  1.00  0.00     0.000 C 
BRANCH   3   4
ATOM      4  C   UNL     1       1.645  70.626  11.685  1.00  0.00     0.000 C 
BRANCH   4   5
ATOM      5  C   UNL     1       1.937  71.962  12.388  1.00  0.00     0.006 C 
BRANCH   5   6
ATOM      6  C   UNL     1       3.419  72.353  12.320  1.00  0.00     0.053 C 
BRANCH   6   7
ATOM      7  C   UNL     1       3.599  73.560  11.454  1.00  0.00     0.041 C 
ATOM      8  O   UNL     1       2.964  73.665  10.373  1.00  0.00    -0.550 OA
ATOM      9  O   UNL     1       4.432  74.592  11.866  1.00  0.00    -0.550 OA
ENDBRANCH   6   7
ENDBRANCH   5   6
ENDBRANCH   4   5
ENDBRANCH   3   4
ENDBRANCH   2   3
ENDBRANCH   1   2
BRANCH   1  10
ATOM     10  C   UNL     1       2.240  69.933  15.403  1.00  0.00     0.000 C 
BRANCH  10  11
ATOM     11  C   UNL     1       2.921  69.405  16.678  1.00  0.00    -0.000 C 
BRANCH  11  12
ATOM     12  C   UNL     1       1.923  69.158  17.819  1.00  0.00    -0.000 C 
BRANCH  12  13
ATOM     13  C   UNL     1       1.112  70.416  18.178  1.00  0.00    -0.000 C 
BRANCH  13  14
ATOM     14  C   UNL     1       1.680  71.142  19.416  1.00  0.00    -0.000 C 
BRANCH  14  15
ATOM     15  C   UNL     1       1.938  72.640  19.184  1.00  0.00    -0.003 C 
ATOM     16  C   UNL     1       3.005  72.907  18.125  1.00  0.00     0.004 C 
ENDBRANCH  14  15
ENDBRANCH  13  14
ENDBRANCH  12  13
ENDBRANCH  11  12
ENDBRANCH  10  11
ENDBRANCH   1  10
TORSDOF 12
ENDMDL
MODEL 4
REMARK VINA RESULT:    -2.960     14.156     16.206
REMARK INTER + INTRA:          -6.608
REMARK INTER:                  -5.382
REMARK INTRA:                  -1.226
REMARK UNBOUND:                -1.572
REMARK SMILES CCCCCCCCCCCCCC(=O)[O-]
REMARK SMILES IDX 8 1 9 2 10 3 11 4 12 5 13 6 14 7 15 8 16 9 7 10 6 11 5 12
REMARK SMILES IDX 4 13 3 14 2 15 1 16
REMARK H PARENT
REMARK Flexibility Score: inf
ROOT
ATOM      1  C   UNL     1       4.579  66.466   5.545  1.00  0.00     0.000 C 
ENDROOT
BRANCH   1   2
ATOM      2  C   UNL     1       3.058  66.652   5.378  1.00  0.00     0.000 C 
BRANCH   2   3
ATOM      3  C   UNL     1       2.346  67.132   6.661  1.00  0.00     0.000 C 
BRANCH   3   4
ATOM      4  C   UNL     1       1.459  66.038   7.279  1.00  0.00     0.000 C 
BRANCH   4   5
ATOM      5  C   UNL     1       2.125  65.339   8.475  1.00  0.00     0.006 C 
BRANCH   5   6
ATOM      6  C   UNL     1       3.038  64.183   8.051  1.00  0.00     0.053 C 
BRANCH   6   7
ATOM      7  C   UNL     1       2.493  62.880   8.545  1.00  0.00     0.041 C 
ATOM      8  O   UNL     1       3.107  62.230   9.429  1.00  0.00    -0.550 OA
ATOM      9  O   UNL     1       1.279  62.408   8.063  1.00  0.00    -0.550 OA
ENDBRANCH   6   7
ENDBRANCH   5   6
ENDBRANCH   4   5
ENDBRANCH   3   4
ENDBRANCH   2   3
ENDBRANCH   1   2
BRANCH   1  10
ATOM     10  C   UNL     1       5.353  66.290   4.227  1.00  0.00     0.000 C 
BRANCH  10  11
ATOM     11  C   UNL     1       6.333  67.445   3.957  1.00  0.00    -0.000 C 
BRANCH  11  12
ATOM     12  C   UNL     1       6.694  68.221   5.233  1.00  0.00    -0.000 C 
BRANCH  12  13
ATOM     13  C   UNL     1       7.138  69.665   4.941  1.00  0.00    -0.000 C 
BRANCH  13  14
ATOM     14  C   UNL     1       6.248  70.704   5.656  1.00  0.00    -0.000 C 
BRANCH  14  15
ATOM     15  C   UNL     1       4.780  70.266   5.790  1.00  0.00    -0.003 C 
ATOM     16  C   UNL     1       4.285  70.265   7.235  1.00  0.00     0.004 C 
ENDBRANCH  14  15
ENDBRANCH  13  14
ENDBRANCH  12  13
ENDBRANCH  11  12
ENDBRANCH  10  11
ENDBRANCH   1  10
TORSDOF 12
ENDMDL
MODEL 5
REMARK VINA RESULT:    -2.948      1.317      3.237
REMARK INTER + INTRA:          -6.587
REMARK INTER:                  -5.375
REMARK INTRA:                  -1.212
REMARK UNBOUND:                -1.572
REMARK SMILES CCCCCCCCCCCCCC(=O)[O-]
REMARK SMILES IDX 8 1 9 2 10 3 11 4 12 5 13 6 14 7 15 8 16 9 7 10 6 11 5 12
REMARK SMILES IDX 4 13 3 14 2 15 1 16
REMARK H PARENT
REMARK Flexibility Score: inf
ROOT
ATOM      1  C   UNL     1       2.559  65.942  21.757  1.00  0.00     0.000 C 
ENDROOT
BRANCH   1   2
ATOM      2  C   UNL     1       2.570  67.035  20.670  1.00  0.00     0.000 C 
BRANCH   2   3
ATOM      3  C   UNL     1       2.447  68.468  21.230  1.00  0.00     0.000 C 
BRANCH   3   4
ATOM      4  C   UNL     1       3.308  69.474  20.447  1.00  0.00     0.000 C 
BRANCH   4   5
ATOM      5  C   UNL     1       2.465  70.507  19.681  1.00  0.00     0.006 C 
BRANCH   5   6
ATOM      6  C   UNL     1       3.321  71.590  19.013  1.00  0.00     0.053 C 
BRANCH   6   7
ATOM      7  C   UNL     1       2.496  72.807  18.734  1.00  0.00     0.041 C 
ATOM      8  O   UNL     1       1.396  72.975  19.321  1.00  0.00    -0.550 OA
ATOM      9  O   UNL     1       2.967  73.780  17.862  1.00  0.00    -0.550 OA
ENDBRANCH   6   7
ENDBRANCH   5   6
ENDBRANCH   4   5
ENDBRANCH   3   4
ENDBRANCH   2   3
ENDBRANCH   1   2
BRANCH   1  10
ATOM     10  C   UNL     1       3.600  66.135  22.873  1.00  0.00     0.000 C 
BRANCH  10  11
ATOM     11  C   UNL     1       4.825  65.219  22.704  1.00  0.00    -0.000 C 
BRANCH  11  12
ATOM     12  C   UNL     1       6.152  65.968  22.902  1.00  0.00    -0.000 C 
BRANCH  12  13
ATOM     13  C   UNL     1       6.125  67.385  22.303  1.00  0.00    -0.000 C 
BRANCH  13  14
ATOM     14  C   UNL     1       7.206  68.299  22.919  1.00  0.00    -0.000 C 
BRANCH  14  15
ATOM     15  C   UNL     1       6.640  69.590  23.533  1.00  0.00    -0.003 C 
ATOM     16  C   UNL     1       5.117  69.578  23.655  1.00  0.00     0.004 C 
ENDBRANCH  14  15
ENDBRANCH  13  14
ENDBRANCH  12  13
ENDBRANCH  11  12
ENDBRANCH  10  11
ENDBRANCH   1  10
TORSDOF 12
ENDMDL
MODEL 6
REMARK VINA RESULT:    -2.917      2.898      3.576
REMARK INTER + INTRA:          -6.536
REMARK INTER:                  -5.905
REMARK INTRA:                  -0.631
REMARK UNBOUND:                -1.572
REMARK SMILES CCCCCCCCCCCCCC(=O)[O-]
REMARK SMILES IDX 8 1 9 2 10 3 11 4 12 5 13 6 14 7 15 8 16 9 7 10 6 11 5 12
REMARK SMILES IDX 4 13 3 14 2 15 1 16
REMARK H PARENT
REMARK Flexibility Score: inf
ROOT
ATOM      1  C   UNL     1       5.489  66.852  20.824  1.00  0.00     0.000 C 
ENDROOT
BRANCH   1   2
ATOM      2  C   UNL     1       6.020  67.967  21.745  1.00  0.00     0.000 C 
BRANCH   2   3
ATOM      3  C   UNL     1       5.048  69.155  21.905  1.00  0.00     0.000 C 
BRANCH   3   4
ATOM      4  C   UNL     1       3.936  69.145  20.841  1.00  0.00     0.000 C 
BRANCH   4   5
ATOM      5  C   UNL     1       3.914  70.427  19.993  1.00  0.00     0.006 C 
BRANCH   5   6
ATOM      6  C   UNL     1       2.581  70.628  19.261  1.00  0.00     0.053 C 
BRANCH   6   7
ATOM      7  C   UNL     1       2.371  72.077  18.951  1.00  0.00     0.041 C 
ATOM      8  O   UNL     1       1.392  72.695  19.444  1.00  0.00    -0.550 OA
ATOM      9  O   UNL     1       3.285  72.756  18.156  1.00  0.00    -0.550 OA
ENDBRANCH   6   7
ENDBRANCH   5   6
ENDBRANCH   4   5
ENDBRANCH   3   4
ENDBRANCH   2   3
ENDBRANCH   1   2
BRANCH   1  10
ATOM     10  C   UNL     1       6.570  65.910  20.265  1.00  0.00     0.000 C 
BRANCH  10  11
ATOM     11  C   UNL     1       7.935  66.106  20.948  1.00  0.00    -0.000 C 
BRANCH  11  12
ATOM     12  C   UNL     1       9.112  65.814  20.004  1.00  0.00    -0.000 C 
BRANCH  12  13
ATOM     13  C   UNL     1       8.738  64.834  18.879  1.00  0.00    -0.000 C 
BRANCH  13  14
ATOM     14  C   UNL     1       9.280  63.412  19.140  1.00  0.00    -0.000 C 
BRANCH  14  15
ATOM     15  C   UNL     1       9.137  62.470  17.933  1.00  0.00    -0.003 C 
ATOM     16  C   UNL     1       7.737  62.484  17.324  1.00  0.00     0.004 C 
ENDBRANCH  14  15
ENDBRANCH  13  14
ENDBRANCH  12  13
ENDBRANCH  11  12
ENDBRANCH  10  11
ENDBRANCH   1  10
TORSDOF 12
ENDMDL
MODEL 7
REMARK VINA RESULT:    -2.915     14.307     16.303
REMARK INTER + INTRA:          -6.532
REMARK INTER:                  -5.784
REMARK INTRA:                  -0.748
REMARK UNBOUND:                -1.572
REMARK SMILES CCCCCCCCCCCCCC(=O)[O-]
REMARK SMILES IDX 8 1 9 2 10 3 11 4 12 5 13 6 14 7 15 8 16 9 7 10 6 11 5 12
REMARK SMILES IDX 4 13 3 14 2 15 1 16
REMARK H PARENT
REMARK Flexibility Score: inf
ROOT
ATOM      1  C   UNL     1       5.670  67.528   5.205  1.00  0.00     0.000 C 
ENDROOT
BRANCH   1   2
ATOM      2  C   UNL     1       4.706  66.327   5.254  1.00  0.00     0.000 C 
BRANCH   2   3
ATOM      3  C   UNL     1       3.227  66.708   5.029  1.00  0.00     0.000 C 
BRANCH   3   4
ATOM      4  C   UNL     1       2.342  66.340   6.233  1.00  0.00     0.000 C 
BRANCH   4   5
ATOM      5  C   UNL     1       3.014  65.329   7.176  1.00  0.00     0.006 C 
BRANCH   5   6
ATOM      6  C   UNL     1       2.074  64.842   8.287  1.00  0.00     0.053 C 
BRANCH   6   7
ATOM      7  C   UNL     1       2.148  63.354   8.415  1.00  0.00     0.041 C 
ATOM      8  O   UNL     1       1.257  62.628   7.902  1.00  0.00    -0.550 OA
ATOM      9  O   UNL     1       3.227  62.765   9.061  1.00  0.00    -0.550 OA
ENDBRANCH   6   7
ENDBRANCH   5   6
ENDBRANCH   4   5
ENDBRANCH   3   4
ENDBRANCH   2   3
ENDBRANCH   1   2
BRANCH   1  10
ATOM     10  C   UNL     1       6.862  67.356   4.247  1.00  0.00     0.000 C 
BRANCH  10  11
ATOM     11  C   UNL     1       7.677  68.650   4.079  1.00  0.00    -0.000 C 
BRANCH  11  12
ATOM     12  C   UNL     1       9.136  68.490   4.533  1.00  0.00    -0.000 C 
BRANCH  12  13
ATOM     13  C   UNL     1       9.608  69.653   5.425  1.00  0.00    -0.000 C 
BRANCH  13  14
ATOM     14  C   UNL     1       9.605  69.277   6.922  1.00  0.00    -0.000 C 
BRANCH  14  15
ATOM     15  C   UNL     1       8.542  70.028   7.741  1.00  0.00    -0.003 C 
ATOM     16  C   UNL     1       7.742  71.028   6.910  1.00  0.00     0.004 C 
ENDBRANCH  14  15
ENDBRANCH  13  14
ENDBRANCH  12  13
ENDBRANCH  11  12
ENDBRANCH  10  11
ENDBRANCH   1  10
TORSDOF 12
ENDMDL
MODEL 8
REMARK VINA RESULT:    -2.887      5.657      9.556
REMARK INTER + INTRA:          -6.485
REMARK INTER:                  -5.542
REMARK INTRA:                  -0.943
REMARK UNBOUND:                -1.572
REMARK SMILES CCCCCCCCCCCCCC(=O)[O-]
REMARK SMILES IDX 8 1 9 2 10 3 11 4 12 5 13 6 14 7 15 8 16 9 7 10 6 11 5 12
REMARK SMILES IDX 4 13 3 14 2 15 1 16
REMARK H PARENT
REMARK Flexibility Score: inf
ROOT
ATOM      1  C   UNL     1       1.155  69.500  13.901  1.00  0.00     0.000 C 
ENDROOT
BRANCH   1   2
ATOM      2  C   UNL     1       1.757  68.731  15.093  1.00  0.00     0.000 C 
BRANCH   2   3
ATOM      3  C   UNL     1       1.448  69.369  16.464  1.00  0.00     0.000 C 
BRANCH   3   4
ATOM      4  C   UNL     1       2.587  70.281  16.952  1.00  0.00     0.000 C 
BRANCH   4   5
ATOM      5  C   UNL     1       2.698  70.323  18.484  1.00  0.00     0.006 C 
BRANCH   5   6
ATOM      6  C   UNL     1       3.381  71.599  18.993  1.00  0.00     0.053 C 
BRANCH   6   7
ATOM      7  C   UNL     1       2.500  72.787  18.764  1.00  0.00     0.041 C 
ATOM      8  O   UNL     1       1.399  72.885  19.366  1.00  0.00    -0.550 OA
ATOM      9  O   UNL     1       2.919  73.810  17.924  1.00  0.00    -0.550 OA
ENDBRANCH   6   7
ENDBRANCH   5   6
ENDBRANCH   4   5
ENDBRANCH   3   4
ENDBRANCH   2   3
ENDBRANCH   1   2
BRANCH   1  10
ATOM     10  C   UNL     1       2.187  70.038  12.895  1.00  0.00     0.000 C 
BRANCH  10  11
ATOM     11  C   UNL     1       3.020  71.200  13.466  1.00  0.00    -0.000 C 
BRANCH  11  12
ATOM     12  C   UNL     1       3.625  72.086  12.366  1.00  0.00    -0.000 C 
BRANCH  12  13
ATOM     13  C   UNL     1       2.630  73.136  11.839  1.00  0.00    -0.000 C 
BRANCH  13  14
ATOM     14  C   UNL     1       2.780  73.371  10.321  1.00  0.00    -0.000 C 
BRANCH  14  15
ATOM     15  C   UNL     1       1.990  72.368   9.464  1.00  0.00    -0.003 C 
ATOM     16  C   UNL     1       0.631  72.009  10.062  1.00  0.00     0.004 C 
ENDBRANCH  14  15
ENDBRANCH  13  14
ENDBRANCH  12  13
ENDBRANCH  11  12
ENDBRANCH  10  11
ENDBRANCH   1  10
TORSDOF 12
ENDMDL
MODEL 9
REMARK VINA RESULT:    -2.820      5.739      8.819
REMARK INTER + INTRA:          -6.370
REMARK INTER:                  -4.624
REMARK INTRA:                  -1.746
REMARK UNBOUND:                -1.572
REMARK SMILES CCCCCCCCCCCCCC(=O)[O-]
REMARK SMILES IDX 8 1 9 2 10 3 11 4 12 5 13 6 14 7 15 8 16 9 7 10 6 11 5 12
REMARK SMILES IDX 4 13 3 14 2 15 1 16
REMARK H PARENT
REMARK Flexibility Score: inf
ROOT
ATOM      1  C   UNL     1       3.398  67.541  13.659  1.00  0.00     0.000 C 
ENDROOT
BRANCH   1   2
ATOM      2  C   UNL     1       3.457  68.112  15.089  1.00  0.00     0.000 C 
BRANCH   2   3
ATOM      3  C   UNL     1       2.087  68.149  15.800  1.00  0.00     0.000 C 
BRANCH   3   4
ATOM      4  C   UNL     1       1.633  69.586  16.112  1.00  0.00     0.000 C 
BRANCH   4   5
ATOM      5  C   UNL     1       2.500  70.263  17.185  1.00  0.00     0.006 C 
BRANCH   5   6
ATOM      6  C   UNL     1       1.679  70.762  18.380  1.00  0.00     0.053 C 
BRANCH   6   7
ATOM      7  C   UNL     1       2.170  72.103  18.826  1.00  0.00     0.041 C 
ATOM      8  O   UNL     1       3.371  72.431  18.642  1.00  0.00    -0.550 OA
ATOM      9  O   UNL     1       1.289  73.009  19.401  1.00  0.00    -0.550 OA
ENDBRANCH   6   7
ENDBRANCH   5   6
ENDBRANCH   4   5
ENDBRANCH   3   4
ENDBRANCH   2   3
ENDBRANCH   1   2
BRANCH   1  10
ATOM     10  C   UNL     1       2.034  67.688  12.963  1.00  0.00     0.000 C 
BRANCH  10  11
ATOM     11  C   UNL     1       2.141  68.370  11.588  1.00  0.00    -0.000 C 
BRANCH  11  12
ATOM     12  C   UNL     1       1.189  69.568  11.450  1.00  0.00    -0.000 C 
BRANCH  12  13
ATOM     13  C   UNL     1       1.113  70.414  12.733  1.00  0.00    -0.000 C 
BRANCH  13  14
ATOM     14  C   UNL     1       2.000  71.675  12.654  1.00  0.00    -0.000 C 
BRANCH  14  15
ATOM     15  C   UNL     1       3.270  71.587  13.517  1.00  0.00    -0.003 C 
ATOM     16  C   UNL     1       4.458  70.979  12.774  1.00  0.00     0.004 C 
ENDBRANCH  14  15
ENDBRANCH  13  14
ENDBRANCH  12  13
ENDBRANCH  11  12
ENDBRANCH  10  11
ENDBRANCH   1  10
TORSDOF 12
ENDMDL
