MODEL 1
REMARK VINA RESULT:    -6.160      0.000      0.000
REMARK INTER + INTRA:          -7.529
REMARK INTER:                  -7.241
REMARK INTRA:                  -0.289
REMARK UNBOUND:                -0.289
REMARK SMILES O=c1c(O)c(-c2ccc(O)cc2)oc2cc(O)cc(O)c12
REMARK SMILES IDX 5 1 3 2 2 3 1 4 21 5 19 6 18 7 16 8 15 9 14 10 13 11 6 12
REMARK SMILES IDX 7 13 8 14 9 15 12 16 11 17 10 18 4 20 20 22 17 24
REMARK H PARENT 10 19 4 21 20 23 17 25
REMARK Flexibility Score: inf
ROOT
ATOM      1  C   UNL     1      10.406  -6.182  -9.068  1.00  0.00     0.180 A 
ATOM      2  C   UNL     1       9.842  -7.447  -9.306  1.00  0.00     0.208 A 
ATOM      3  C   UNL     1       8.926  -7.969  -8.379  1.00  0.00     0.238 A 
ATOM      4  O   UNL     1       8.465  -9.125  -8.570  1.00  0.00    -0.285 OA
ATOM      5  C   UNL     1       8.575  -7.214  -7.234  1.00  0.00     0.111 A 
ATOM      6  C   UNL     1       7.628  -7.629  -6.249  1.00  0.00     0.134 A 
ATOM      7  C   UNL     1       7.455  -6.861  -5.091  1.00  0.00     0.093 A 
ATOM      8  C   UNL     1       8.147  -5.661  -4.913  1.00  0.00     0.123 A 
ATOM      9  C   UNL     1       9.029  -5.218  -5.896  1.00  0.00     0.094 A 
ATOM     10  C   UNL     1       9.250  -5.981  -7.045  1.00  0.00     0.146 A 
ATOM     11  O   UNL     1      10.107  -5.527  -7.952  1.00  0.00    -0.452 OA
ENDROOT
BRANCH   1  12
ATOM     12  C   UNL     1      11.359  -5.555 -10.012  1.00  0.00     0.021 A 
ATOM     13  C   UNL     1      10.925  -4.656 -11.004  1.00  0.00     0.016 A 
ATOM     14  C   UNL     1      11.847  -4.058 -11.869  1.00  0.00     0.047 A 
ATOM     15  C   UNL     1      13.214  -4.337 -11.744  1.00  0.00     0.115 A 
ATOM     16  C   UNL     1      12.734  -5.813  -9.881  1.00  0.00     0.016 A 
ATOM     17  C   UNL     1      13.654  -5.214 -10.747  1.00  0.00     0.047 A 
BRANCH  15  18
ATOM     18  O   UNL     1      14.140  -3.748 -12.600  1.00  0.00    -0.508 OA
ATOM     19  H   UNL     1      14.734  -2.985 -12.294  1.00  0.00     0.293 HD
ENDBRANCH  15  18
ENDBRANCH   1  12
BRANCH   2  20
ATOM     20  O   UNL     1      10.220  -8.185 -10.432  1.00  0.00    -0.502 OA
ATOM     21  H   UNL     1      10.227  -9.199 -10.441  1.00  0.00     0.293 HD
ENDBRANCH   2  20
BRANCH   6  22
ATOM     22  O   UNL     1       6.819  -8.762  -6.373  1.00  0.00    -0.507 OA
ATOM     23  H   UNL     1       6.585  -9.209  -7.247  1.00  0.00     0.293 HD
ENDBRANCH   6  22
BRANCH   8  24
ATOM     24  O   UNL     1       7.957  -4.894  -3.765  1.00  0.00    -0.508 OA
ATOM     25  H   UNL     1       8.132  -3.896  -3.759  1.00  0.00     0.293 HD
ENDBRANCH   8  24
TORSDOF 5
ENDMDL
MODEL 2
REMARK VINA RESULT:    -6.108     13.767     15.827
REMARK INTER + INTRA:          -7.468
REMARK INTER:                  -7.414
REMARK INTRA:                  -0.053
REMARK UNBOUND:                -0.289
REMARK SMILES O=c1c(O)c(-c2ccc(O)cc2)oc2cc(O)cc(O)c12
REMARK SMILES IDX 5 1 3 2 2 3 1 4 21 5 19 6 18 7 16 8 15 9 14 10 13 11 6 12
REMARK SMILES IDX 7 13 8 14 9 15 12 16 11 17 10 18 4 20 20 22 17 24
REMARK H PARENT 10 19 4 21 20 23 17 25
REMARK Flexibility Score: inf
ROOT
ATOM      1  C   UNL     1      20.728   0.379 -17.619  1.00  0.00     0.180 A 
ATOM      2  C   UNL     1      19.500   0.302 -16.941  1.00  0.00     0.208 A 
ATOM      3  C   UNL     1      19.449   0.647 -15.581  1.00  0.00     0.238 A 
ATOM      4  O   UNL     1      18.357   0.524 -14.967  1.00  0.00    -0.285 OA
ATOM      5  C   UNL     1      20.623   1.080 -14.921  1.00  0.00     0.111 A 
ATOM      6  C   UNL     1      20.679   1.493 -13.554  1.00  0.00     0.134 A 
ATOM      7  C   UNL     1      21.920   1.777 -12.970  1.00  0.00     0.093 A 
ATOM      8  C   UNL     1      23.098   1.727 -13.719  1.00  0.00     0.123 A 
ATOM      9  C   UNL     1      23.046   1.383 -15.067  1.00  0.00     0.094 A 
ATOM     10  C   UNL     1      21.828   1.059 -15.670  1.00  0.00     0.146 A 
ATOM     11  O   UNL     1      21.825   0.726 -16.955  1.00  0.00    -0.452 OA
ENDROOT
BRANCH   1  12
ATOM     12  C   UNL     1      20.856   0.056 -19.058  1.00  0.00     0.021 A 
ATOM     13  C   UNL     1      21.352   0.996 -19.981  1.00  0.00     0.016 A 
ATOM     14  C   UNL     1      21.485   0.659 -21.331  1.00  0.00     0.047 A 
ATOM     15  C   UNL     1      21.140  -0.624 -21.775  1.00  0.00     0.115 A 
ATOM     16  C   UNL     1      20.531  -1.235 -19.509  1.00  0.00     0.016 A 
ATOM     17  C   UNL     1      20.665  -1.568 -20.860  1.00  0.00     0.047 A 
BRANCH  15  18
ATOM     18  O   UNL     1      21.268  -0.969 -23.117  1.00  0.00    -0.508 OA
ATOM     19  H   UNL     1      22.178  -1.087 -23.550  1.00  0.00     0.293 HD
ENDBRANCH  15  18
ENDBRANCH   1  12
BRANCH   2  20
ATOM     20  O   UNL     1      18.356  -0.150 -17.608  1.00  0.00    -0.502 OA
ATOM     21  H   UNL     1      17.573  -0.569 -17.121  1.00  0.00     0.293 HD
ENDBRANCH   2  20
BRANCH   6  22
ATOM     22  O   UNL     1      19.553   1.664 -12.745  1.00  0.00    -0.507 OA
ATOM     23  H   UNL     1      18.640   1.934 -13.079  1.00  0.00     0.293 HD
ENDBRANCH   6  22
BRANCH   8  24
ATOM     24  O   UNL     1      24.326   2.027 -13.133  1.00  0.00    -0.508 OA
ATOM     25  H   UNL     1      25.195   1.674 -13.515  1.00  0.00     0.293 HD
ENDBRANCH   8  24
TORSDOF 5
ENDMDL
MODEL 3
REMARK VINA RESULT:    -6.033      8.983     12.675
REMARK INTER + INTRA:          -7.379
REMARK INTER:                  -7.181
REMARK INTRA:                  -0.198
REMARK UNBOUND:                -0.289
REMARK SMILES O=c1c(O)c(-c2ccc(O)cc2)oc2cc(O)cc(O)c12
REMARK SMILES IDX 5 1 3 2 2 3 1 4 21 5 19 6 18 7 16 8 15 9 14 10 13 11 6 12
REMARK SMILES IDX 7 13 8 14 9 15 12 16 11 17 10 18 4 20 20 22 17 24
REMARK H PARENT 10 19 4 21 20 23 17 25
REMARK Flexibility Score: inf
ROOT
ATOM      1  C   UNL     1      18.556  -0.998 -16.690  1.00  0.00     0.180 A 
ATOM      2  C   UNL     1      17.913  -0.150 -15.771  1.00  0.00     0.208 A 
ATOM      3  C   UNL     1      17.171  -0.719 -14.723  1.00  0.00     0.238 A 
ATOM      4  O   UNL     1      16.553   0.044 -13.937  1.00  0.00    -0.285 OA
ATOM      5  C   UNL     1      17.094  -2.127 -14.599  1.00  0.00     0.111 A 
ATOM      6  C   UNL     1      16.403  -2.811 -13.553  1.00  0.00     0.134 A 
ATOM      7  C   UNL     1      16.284  -4.206 -13.602  1.00  0.00     0.093 A 
ATOM      8  C   UNL     1      16.885  -4.945 -14.623  1.00  0.00     0.123 A 
ATOM      9  C   UNL     1      17.611  -4.290 -15.615  1.00  0.00     0.094 A 
ATOM     10  C   UNL     1      17.718  -2.898 -15.613  1.00  0.00     0.146 A 
ATOM     11  O   UNL     1      18.411  -2.314 -16.584  1.00  0.00    -0.452 OA
ENDROOT
BRANCH   1  12
ATOM     12  C   UNL     1      19.376  -0.473 -17.805  1.00  0.00     0.021 A 
ATOM     13  C   UNL     1      20.604   0.174 -17.571  1.00  0.00     0.016 A 
ATOM     14  C   UNL     1      21.373   0.640 -18.642  1.00  0.00     0.047 A 
ATOM     15  C   UNL     1      20.933   0.453 -19.959  1.00  0.00     0.115 A 
ATOM     16  C   UNL     1      18.953  -0.674 -19.130  1.00  0.00     0.016 A 
ATOM     17  C   UNL     1      19.724  -0.206 -20.198  1.00  0.00     0.047 A 
BRANCH  15  18
ATOM     18  O   UNL     1      21.690   0.914 -21.033  1.00  0.00    -0.508 OA
ATOM     19  H   UNL     1      22.259   0.285 -21.588  1.00  0.00     0.293 HD
ENDBRANCH  15  18
ENDBRANCH   1  12
BRANCH   2  20
ATOM     20  O   UNL     1      17.983   1.237 -15.926  1.00  0.00    -0.502 OA
ATOM     21  H   UNL     1      18.779   1.698 -16.353  1.00  0.00     0.293 HD
ENDBRANCH   2  20
BRANCH   6  22
ATOM     22  O   UNL     1      15.846  -2.176 -12.440  1.00  0.00    -0.507 OA
ATOM     23  H   UNL     1      14.921  -2.354 -12.079  1.00  0.00     0.293 HD
ENDBRANCH   6  22
BRANCH   8  24
ATOM     24  O   UNL     1      16.775  -6.334 -14.655  1.00  0.00    -0.508 OA
ATOM     25  H   UNL     1      16.928  -6.857 -15.509  1.00  0.00     0.293 HD
ENDBRANCH   8  24
TORSDOF 5
ENDMDL
MODEL 4
REMARK VINA RESULT:    -5.976     12.457     15.497
REMARK INTER + INTRA:          -7.312
REMARK INTER:                  -7.221
REMARK INTRA:                  -0.091
REMARK UNBOUND:                -0.289
REMARK SMILES O=c1c(O)c(-c2ccc(O)cc2)oc2cc(O)cc(O)c12
REMARK SMILES IDX 5 1 3 2 2 3 1 4 21 5 19 6 18 7 16 8 15 9 14 10 13 11 6 12
REMARK SMILES IDX 7 13 8 14 9 15 12 16 11 17 10 18 4 20 20 22 17 24
REMARK H PARENT 10 19 4 21 20 23 17 25
REMARK Flexibility Score: inf
ROOT
ATOM      1  C   UNL     1      20.863   0.575 -17.486  1.00  0.00     0.180 A 
ATOM      2  C   UNL     1      22.030   0.912 -16.779  1.00  0.00     0.208 A 
ATOM      3  C   UNL     1      21.926   1.266 -15.424  1.00  0.00     0.238 A 
ATOM      4  O   UNL     1      22.967   1.618 -14.810  1.00  0.00    -0.285 OA
ATOM      5  C   UNL     1      20.660   1.263 -14.790  1.00  0.00     0.111 A 
ATOM      6  C   UNL     1      20.444   1.565 -13.411  1.00  0.00     0.134 A 
ATOM      7  C   UNL     1      19.134   1.659 -12.923  1.00  0.00     0.093 A 
ATOM      8  C   UNL     1      18.038   1.397 -13.747  1.00  0.00     0.123 A 
ATOM      9  C   UNL     1      18.242   1.043 -15.078  1.00  0.00     0.094 A 
ATOM     10  C   UNL     1      19.534   0.977 -15.604  1.00  0.00     0.146 A 
ATOM     11  O   UNL     1      19.683   0.645 -16.881  1.00  0.00    -0.452 OA
ENDROOT
BRANCH   1  12
ATOM     12  C   UNL     1      20.896   0.167 -18.909  1.00  0.00     0.021 A 
ATOM     13  C   UNL     1      21.373   1.034 -19.910  1.00  0.00     0.016 A 
ATOM     14  C   UNL     1      21.417   0.617 -21.244  1.00  0.00     0.047 A 
ATOM     15  C   UNL     1      20.998  -0.673 -21.594  1.00  0.00     0.115 A 
ATOM     16  C   UNL     1      20.497  -1.132 -19.266  1.00  0.00     0.016 A 
ATOM     17  C   UNL     1      20.541  -1.545 -20.601  1.00  0.00     0.047 A 
BRANCH  15  18
ATOM     18  O   UNL     1      21.036  -1.098 -22.919  1.00  0.00    -0.508 OA
ATOM     19  H   UNL     1      21.244  -0.456 -23.675  1.00  0.00     0.293 HD
ENDBRANCH  15  18
ENDBRANCH   1  12
BRANCH   2  20
ATOM     20  O   UNL     1      23.267   0.930 -17.430  1.00  0.00    -0.502 OA
ATOM     21  H   UNL     1      23.350   0.920 -18.440  1.00  0.00     0.293 HD
ENDBRANCH   2  20
BRANCH   6  22
ATOM     22  O   UNL     1      21.472   1.754 -12.483  1.00  0.00    -0.507 OA
ATOM     23  H   UNL     1      22.148   2.502 -12.518  1.00  0.00     0.293 HD
ENDBRANCH   6  22
BRANCH   8  24
ATOM     24  O   UNL     1      16.739   1.476 -13.249  1.00  0.00    -0.508 OA
ATOM     25  H   UNL     1      16.044   0.771 -13.465  1.00  0.00     0.293 HD
ENDBRANCH   8  24
TORSDOF 5
ENDMDL
MODEL 5
REMARK VINA RESULT:    -5.927      8.990     15.109
REMARK INTER + INTRA:          -7.255
REMARK INTER:                  -6.973
REMARK INTRA:                  -0.282
REMARK UNBOUND:                -0.289
REMARK SMILES O=c1c(O)c(-c2ccc(O)cc2)oc2cc(O)cc(O)c12
REMARK SMILES IDX 5 1 3 2 2 3 1 4 21 5 19 6 18 7 16 8 15 9 14 10 13 11 6 12
REMARK SMILES IDX 7 13 8 14 9 15 12 16 11 17 10 18 4 20 20 22 17 24
REMARK H PARENT 10 19 4 21 20 23 17 25
REMARK Flexibility Score: inf
ROOT
ATOM      1  C   UNL     1      18.364  -0.330 -16.146  1.00  0.00     0.180 A 
ATOM      2  C   UNL     1      19.448   0.420 -15.658  1.00  0.00     0.208 A 
ATOM      3  C   UNL     1      20.478   0.783 -16.541  1.00  0.00     0.238 A 
ATOM      4  O   UNL     1      21.471   1.407 -16.086  1.00  0.00    -0.285 OA
ATOM      5  C   UNL     1      20.403   0.406 -17.903  1.00  0.00     0.111 A 
ATOM      6  C   UNL     1      21.370   0.754 -18.895  1.00  0.00     0.134 A 
ATOM      7  C   UNL     1      21.261   0.216 -20.183  1.00  0.00     0.093 A 
ATOM      8  C   UNL     1      20.185  -0.603 -20.533  1.00  0.00     0.123 A 
ATOM      9  C   UNL     1      19.206  -0.900 -19.589  1.00  0.00     0.094 A 
ATOM     10  C   UNL     1      19.306  -0.409 -18.286  1.00  0.00     0.146 A 
ATOM     11  O   UNL     1      18.355  -0.724 -17.414  1.00  0.00    -0.452 OA
ENDROOT
BRANCH   1  12
ATOM     12  C   UNL     1      17.230  -0.728 -15.282  1.00  0.00     0.021 A 
ATOM     13  C   UNL     1      17.208  -1.973 -14.626  1.00  0.00     0.016 A 
ATOM     14  C   UNL     1      16.137  -2.316 -13.796  1.00  0.00     0.047 A 
ATOM     15  C   UNL     1      15.082  -1.416 -13.599  1.00  0.00     0.115 A 
ATOM     16  C   UNL     1      16.177   0.177 -15.062  1.00  0.00     0.016 A 
ATOM     17  C   UNL     1      15.107  -0.170 -14.232  1.00  0.00     0.047 A 
BRANCH  15  18
ATOM     18  O   UNL     1      14.009  -1.749 -12.775  1.00  0.00    -0.508 OA
ATOM     19  H   UNL     1      13.593  -1.070 -12.148  1.00  0.00     0.293 HD
ENDBRANCH  15  18
ENDBRANCH   1  12
BRANCH   2  20
ATOM     20  O   UNL     1      19.513   0.762 -14.304  1.00  0.00    -0.502 OA
ATOM     21  H   UNL     1      18.828   1.364 -13.861  1.00  0.00     0.293 HD
ENDBRANCH   2  20
BRANCH   6  22
ATOM     22  O   UNL     1      22.430   1.637 -18.674  1.00  0.00    -0.507 OA
ATOM     23  H   UNL     1      23.400   1.366 -18.607  1.00  0.00     0.293 HD
ENDBRANCH   6  22
BRANCH   8  24
ATOM     24  O   UNL     1      20.076  -1.121 -21.823  1.00  0.00    -0.508 OA
ATOM     25  H   UNL     1      19.917  -2.109 -21.985  1.00  0.00     0.293 HD
ENDBRANCH   8  24
TORSDOF 5
ENDMDL
MODEL 6
REMARK VINA RESULT:    -5.828      2.488      4.261
REMARK INTER + INTRA:          -7.139
REMARK INTER:                  -6.912
REMARK INTRA:                  -0.227
REMARK UNBOUND:                -0.289
REMARK SMILES O=c1c(O)c(-c2ccc(O)cc2)oc2cc(O)cc(O)c12
REMARK SMILES IDX 5 1 3 2 2 3 1 4 21 5 19 6 18 7 16 8 15 9 14 10 13 11 6 12
REMARK SMILES IDX 7 13 8 14 9 15 12 16 11 17 10 18 4 20 20 22 17 24
REMARK H PARENT 10 19 4 21 20 23 17 25
REMARK Flexibility Score: inf
ROOT
ATOM      1  C   UNL     1      11.034  -6.056 -10.764  1.00  0.00     0.180 A 
ATOM      2  C   UNL     1      10.801  -6.344  -9.409  1.00  0.00     0.208 A 
ATOM      3  C   UNL     1       9.704  -7.150  -9.063  1.00  0.00     0.238 A 
ATOM      4  O   UNL     1       9.469  -7.359  -7.844  1.00  0.00    -0.285 OA
ATOM      5  C   UNL     1       8.864  -7.669 -10.077  1.00  0.00     0.111 A 
ATOM      6  C   UNL     1       7.747  -8.528  -9.843  1.00  0.00     0.134 A 
ATOM      7  C   UNL     1       6.909  -8.875 -10.910  1.00  0.00     0.093 A 
ATOM      8  C   UNL     1       7.184  -8.448 -12.211  1.00  0.00     0.123 A 
ATOM      9  C   UNL     1       8.304  -7.658 -12.457  1.00  0.00     0.094 A 
ATOM     10  C   UNL     1       9.139  -7.265 -11.409  1.00  0.00     0.146 A 
ATOM     11  O   UNL     1      10.190  -6.504 -11.687  1.00  0.00    -0.452 OA
ENDROOT
BRANCH   1  12
ATOM     12  C   UNL     1      12.184  -5.236 -11.208  1.00  0.00     0.021 A 
ATOM     13  C   UNL     1      13.500  -5.733 -11.168  1.00  0.00     0.016 A 
ATOM     14  C   UNL     1      14.567  -4.948 -11.616  1.00  0.00     0.047 A 
ATOM     15  C   UNL     1      14.332  -3.664 -12.122  1.00  0.00     0.115 A 
ATOM     16  C   UNL     1      11.956  -3.954 -11.737  1.00  0.00     0.016 A 
ATOM     17  C   UNL     1      13.025  -3.171 -12.183  1.00  0.00     0.047 A 
BRANCH  15  18
ATOM     18  O   UNL     1      15.387  -2.873 -12.570  1.00  0.00    -0.508 OA
ATOM     19  H   UNL     1      15.501  -1.915 -12.258  1.00  0.00     0.293 HD
ENDBRANCH  15  18
ENDBRANCH   1  12
BRANCH   2  20
ATOM     20  O   UNL     1      11.630  -5.803  -8.422  1.00  0.00    -0.502 OA
ATOM     21  H   UNL     1      11.870  -4.818  -8.393  1.00  0.00     0.293 HD
ENDBRANCH   2  20
BRANCH   6  22
ATOM     22  O   UNL     1       7.438  -9.085  -8.599  1.00  0.00    -0.507 OA
ATOM     23  H   UNL     1       6.517  -9.383  -8.315  1.00  0.00     0.293 HD
ENDBRANCH   6  22
BRANCH   8  24
ATOM     24  O   UNL     1       6.353  -8.811 -13.269  1.00  0.00    -0.508 OA
ATOM     25  H   UNL     1       5.432  -9.202 -13.109  1.00  0.00     0.293 HD
ENDBRANCH   8  24
TORSDOF 5
ENDMDL
MODEL 7
REMARK VINA RESULT:    -5.778      8.576     11.889
REMARK INTER + INTRA:          -7.080
REMARK INTER:                  -6.787
REMARK INTRA:                  -0.293
REMARK UNBOUND:                -0.289
REMARK SMILES O=c1c(O)c(-c2ccc(O)cc2)oc2cc(O)cc(O)c12
REMARK SMILES IDX 5 1 3 2 2 3 1 4 21 5 19 6 18 7 16 8 15 9 14 10 13 11 6 12
REMARK SMILES IDX 7 13 8 14 9 15 12 16 11 17 10 18 4 20 20 22 17 24
REMARK H PARENT 10 19 4 21 20 23 17 25
REMARK Flexibility Score: inf
ROOT
ATOM      1  C   UNL     1      18.930  -1.739  -8.053  1.00  0.00     0.180 A 
ATOM      2  C   UNL     1      18.856  -2.444  -6.839  1.00  0.00     0.208 A 
ATOM      3  C   UNL     1      20.043  -2.889  -6.236  1.00  0.00     0.238 A 
ATOM      4  O   UNL     1      19.966  -3.565  -5.177  1.00  0.00    -0.285 OA
ATOM      5  C   UNL     1      21.289  -2.611  -6.846  1.00  0.00     0.111 A 
ATOM      6  C   UNL     1      22.558  -2.980  -6.303  1.00  0.00     0.134 A 
ATOM      7  C   UNL     1      23.719  -2.769  -7.057  1.00  0.00     0.093 A 
ATOM      8  C   UNL     1      23.664  -2.144  -8.304  1.00  0.00     0.123 A 
ATOM      9  C   UNL     1      22.438  -1.727  -8.816  1.00  0.00     0.094 A 
ATOM     10  C   UNL     1      21.258  -1.956  -8.104  1.00  0.00     0.146 A 
ATOM     11  O   UNL     1      20.109  -1.552  -8.633  1.00  0.00    -0.452 OA
ENDROOT
BRANCH   1  12
ATOM     12  C   UNL     1      17.724  -1.216  -8.735  1.00  0.00     0.021 A 
ATOM     13  C   UNL     1      17.258   0.091  -8.502  1.00  0.00     0.016 A 
ATOM     14  C   UNL     1      16.131   0.571  -9.177  1.00  0.00     0.047 A 
ATOM     15  C   UNL     1      15.465  -0.243 -10.102  1.00  0.00     0.115 A 
ATOM     16  C   UNL     1      17.061  -2.018  -9.680  1.00  0.00     0.016 A 
ATOM     17  C   UNL     1      15.934  -1.536 -10.352  1.00  0.00     0.047 A 
BRANCH  15  18
ATOM     18  O   UNL     1      14.341   0.224 -10.778  1.00  0.00    -0.508 OA
ATOM     19  H   UNL     1      14.377   1.058 -11.353  1.00  0.00     0.293 HD
ENDBRANCH  15  18
ENDBRANCH   1  12
BRANCH   2  20
ATOM     20  O   UNL     1      17.612  -2.726  -6.265  1.00  0.00    -0.502 OA
ATOM     21  H   UNL     1      17.468  -2.746  -5.262  1.00  0.00     0.293 HD
ENDBRANCH   2  20
BRANCH   6  22
ATOM     22  O   UNL     1      22.731  -3.526  -5.028  1.00  0.00    -0.507 OA
ATOM     23  H   UNL     1      22.714  -2.998  -4.169  1.00  0.00     0.293 HD
ENDBRANCH   6  22
BRANCH   8  24
ATOM     24  O   UNL     1      24.827  -1.923  -9.041  1.00  0.00    -0.508 OA
ATOM     25  H   UNL     1      25.105  -0.991  -9.325  1.00  0.00     0.293 HD
ENDBRANCH   8  24
TORSDOF 5
ENDMDL
MODEL 8
REMARK VINA RESULT:    -5.597      7.336     11.171
REMARK INTER + INTRA:          -6.867
REMARK INTER:                  -6.699
REMARK INTRA:                  -0.167
REMARK UNBOUND:                -0.289
REMARK SMILES O=c1c(O)c(-c2ccc(O)cc2)oc2cc(O)cc(O)c12
REMARK SMILES IDX 5 1 3 2 2 3 1 4 21 5 19 6 18 7 16 8 15 9 14 10 13 11 6 12
REMARK SMILES IDX 7 13 8 14 9 15 12 16 11 17 10 18 4 20 20 22 17 24
REMARK H PARENT 10 19 4 21 20 23 17 25
REMARK Flexibility Score: inf
ROOT
ATOM      1  C   UNL     1      17.350  -0.516 -15.260  1.00  0.00     0.180 A 
ATOM      2  C   UNL     1      16.427   0.461 -14.848  1.00  0.00     0.208 A 
ATOM      3  C   UNL     1      15.357   0.081 -14.022  1.00  0.00     0.238 A 
ATOM      4  O   UNL     1      14.504   0.949 -13.701  1.00  0.00    -0.285 OA
ATOM      5  C   UNL     1      15.233  -1.266 -13.605  1.00  0.00     0.111 A 
ATOM      6  C   UNL     1      14.211  -1.754 -12.735  1.00  0.00     0.134 A 
ATOM      7  C   UNL     1      14.109  -3.130 -12.495  1.00  0.00     0.093 A 
ATOM      8  C   UNL     1      15.031  -4.027 -13.039  1.00  0.00     0.123 A 
ATOM      9  C   UNL     1      16.066  -3.553 -13.841  1.00  0.00     0.094 A 
ATOM     10  C   UNL     1      16.173  -2.190 -14.129  1.00  0.00     0.146 A 
ATOM     11  O   UNL     1      17.169  -1.783 -14.906  1.00  0.00    -0.452 OA
ENDROOT
BRANCH   1  12
ATOM     12  C   UNL     1      18.517  -0.187 -16.110  1.00  0.00     0.021 A 
ATOM     13  C   UNL     1      19.553   0.644 -15.646  1.00  0.00     0.016 A 
ATOM     14  C   UNL     1      20.656   0.920 -16.459  1.00  0.00     0.047 A 
ATOM     15  C   UNL     1      20.747   0.359 -17.739  1.00  0.00     0.115 A 
ATOM     16  C   UNL     1      18.626  -0.763 -17.388  1.00  0.00     0.016 A 
ATOM     17  C   UNL     1      19.730  -0.484 -18.198  1.00  0.00     0.047 A 
BRANCH  15  18
ATOM     18  O   UNL     1      21.840   0.627 -18.557  1.00  0.00    -0.508 OA
ATOM     19  H   UNL     1      22.217  -0.073 -19.185  1.00  0.00     0.293 HD
ENDBRANCH  15  18
ENDBRANCH   1  12
BRANCH   2  20
ATOM     20  O   UNL     1      16.555   1.781 -15.290  1.00  0.00    -0.502 OA
ATOM     21  H   UNL     1      17.384   2.336 -15.112  1.00  0.00     0.293 HD
ENDBRANCH   2  20
BRANCH   6  22
ATOM     22  O   UNL     1      13.297  -0.934 -12.067  1.00  0.00    -0.507 OA
ATOM     23  H   UNL     1      12.381  -0.693 -12.413  1.00  0.00     0.293 HD
ENDBRANCH   6  22
BRANCH   8  24
ATOM     24  O   UNL     1      14.931  -5.393 -12.781  1.00  0.00    -0.508 OA
ATOM     25  H   UNL     1      15.753  -5.962 -12.618  1.00  0.00     0.293 HD
ENDBRANCH   8  24
TORSDOF 5
ENDMDL
MODEL 9
REMARK VINA RESULT:    -5.455      7.821      9.100
REMARK INTER + INTRA:          -6.701
REMARK INTER:                  -6.416
REMARK INTRA:                  -0.285
REMARK UNBOUND:                -0.289
REMARK SMILES O=c1c(O)c(-c2ccc(O)cc2)oc2cc(O)cc(O)c12
REMARK SMILES IDX 5 1 3 2 2 3 1 4 21 5 19 6 18 7 16 8 15 9 14 10 13 11 6 12
REMARK SMILES IDX 7 13 8 14 9 15 12 16 11 17 10 18 4 20 20 22 17 24
REMARK H PARENT 10 19 4 21 20 23 17 25
REMARK Flexibility Score: inf
ROOT
ATOM      1  C   UNL     1      15.716  -1.201 -11.580  1.00  0.00     0.180 A 
ATOM      2  C   UNL     1      15.681  -2.584 -11.331  1.00  0.00     0.208 A 
ATOM      3  C   UNL     1      16.345  -3.091 -10.203  1.00  0.00     0.238 A 
ATOM      4  O   UNL     1      16.354  -4.335 -10.016  1.00  0.00    -0.285 OA
ATOM      5  C   UNL     1      17.023  -2.207  -9.330  1.00  0.00     0.111 A 
ATOM      6  C   UNL     1      17.697  -2.607  -8.135  1.00  0.00     0.134 A 
ATOM      7  C   UNL     1      18.445  -1.665  -7.417  1.00  0.00     0.093 A 
ATOM      8  C   UNL     1      18.490  -0.327  -7.814  1.00  0.00     0.123 A 
ATOM      9  C   UNL     1      17.788   0.084  -8.944  1.00  0.00     0.094 A 
ATOM     10  C   UNL     1      17.063  -0.839  -9.702  1.00  0.00     0.146 A 
ATOM     11  O   UNL     1      16.416  -0.407 -10.778  1.00  0.00    -0.452 OA
ENDROOT
BRANCH   1  12
ATOM     12  C   UNL     1      15.019  -0.590 -12.734  1.00  0.00     0.021 A 
ATOM     13  C   UNL     1      13.644  -0.294 -12.689  1.00  0.00     0.016 A 
ATOM     14  C   UNL     1      13.013   0.305 -13.783  1.00  0.00     0.047 A 
ATOM     15  C   UNL     1      13.749   0.630 -14.929  1.00  0.00     0.115 A 
ATOM     16  C   UNL     1      15.754  -0.241 -13.881  1.00  0.00     0.016 A 
ATOM     17  C   UNL     1      15.119   0.357 -14.973  1.00  0.00     0.047 A 
BRANCH  15  18
ATOM     18  O   UNL     1      13.130   1.226 -16.025  1.00  0.00    -0.508 OA
ATOM     19  H   UNL     1      13.548   1.200 -16.948  1.00  0.00     0.293 HD
ENDBRANCH  15  18
ENDBRANCH   1  12
BRANCH   2  20
ATOM     20  O   UNL     1      15.024  -3.441 -12.219  1.00  0.00    -0.502 OA
ATOM     21  H   UNL     1      15.474  -4.252 -12.627  1.00  0.00     0.293 HD
ENDBRANCH   2  20
BRANCH   6  22
ATOM     22  O   UNL     1      17.640  -3.897  -7.602  1.00  0.00    -0.507 OA
ATOM     23  H   UNL     1      17.758  -4.122  -6.625  1.00  0.00     0.293 HD
ENDBRANCH   6  22
BRANCH   8  24
ATOM     24  O   UNL     1      19.224   0.606  -7.084  1.00  0.00    -0.508 OA
ATOM     25  H   UNL     1      18.785   1.424  -6.677  1.00  0.00     0.293 HD
ENDBRANCH   8  24
TORSDOF 5
ENDMDL
