MODEL 1
REMARK VINA RESULT:    35.238      0.000      0.000
REMARK INTER + INTRA:          41.106
REMARK INTER:                  41.418
REMARK INTRA:                  -0.312
REMARK UNBOUND:                -0.312
REMARK SMILES O=c1cc(-c2ccc(O)c(O)c2)oc2cc(O)cc(O)c12
REMARK SMILES IDX 4 1 3 2 2 3 1 4 21 5 19 6 18 7 16 8 15 9 14 10 13 11 5 12
REMARK SMILES IDX 6 13 7 14 8 15 12 16 10 17 9 18 11 20 20 22 17 24
REMARK H PARENT 9 19 11 21 20 23 17 25
REMARK Flexibility Score: inf
ROOT
ATOM      1  C   UNL     1      21.919  15.218   2.081  1.00  0.00     0.138 A 
ATOM      2  C   UNL     1      21.014  14.408   2.780  1.00  0.00     0.100 A 
ATOM      3  C   UNL     1      19.651  14.710   2.749  1.00  0.00     0.197 A 
ATOM      4  O   UNL     1      18.871  14.002   3.436  1.00  0.00    -0.289 OA
ATOM      5  C   UNL     1      19.192  15.811   1.988  1.00  0.00     0.107 A 
ATOM      6  C   UNL     1      17.823  16.189   1.851  1.00  0.00     0.134 A 
ATOM      7  C   UNL     1      17.498  17.367   1.167  1.00  0.00     0.093 A 
ATOM      8  C   UNL     1      18.484  18.147   0.565  1.00  0.00     0.123 A 
ATOM      9  C   UNL     1      19.822  17.758   0.647  1.00  0.00     0.094 A 
ATOM     10  C   UNL     1      20.181  16.607   1.352  1.00  0.00     0.146 A 
ATOM     11  O   UNL     1      21.468  16.279   1.419  1.00  0.00    -0.456 OA
ENDROOT
BRANCH   1  12
ATOM     12  C   UNL     1      23.378  14.942   2.079  1.00  0.00     0.021 A 
ATOM     13  C   UNL     1      23.979  14.131   3.059  1.00  0.00     0.016 A 
ATOM     14  C   UNL     1      25.353  13.879   3.027  1.00  0.00     0.051 A 
ATOM     15  C   UNL     1      26.149  14.425   2.012  1.00  0.00     0.157 A 
ATOM     16  C   UNL     1      24.182  15.476   1.055  1.00  0.00     0.062 A 
ATOM     17  C   UNL     1      25.558  15.226   1.020  1.00  0.00     0.158 A 
BRANCH  15  18
ATOM     18  O   UNL     1      27.520  14.174   1.983  1.00  0.00    -0.504 OA
ATOM     19  H   UNL     1      28.178  14.762   2.482  1.00  0.00     0.293 HD
ENDBRANCH  15  18
BRANCH  17  20
ATOM     20  O   UNL     1      26.322  15.782  -0.006  1.00  0.00    -0.504 OA
ATOM     21  H   UNL     1      26.595  15.250  -0.823  1.00  0.00     0.293 HD
ENDBRANCH  17  20
ENDBRANCH   1  12
BRANCH   6  22
ATOM     22  O   UNL     1      16.751  15.437   2.342  1.00  0.00    -0.507 OA
ATOM     23  H   UNL     1      15.802  15.768   2.415  1.00  0.00     0.293 HD
ENDBRANCH   6  22
BRANCH   8  24
ATOM     24  O   UNL     1      18.122  19.305  -0.120  1.00  0.00    -0.508 OA
ATOM     25  H   UNL     1      17.545  20.018   0.311  1.00  0.00     0.293 HD
ENDBRANCH   8  24
TORSDOF 5
ENDMDL
