MODEL 1
REMARK VINA RESULT:    -5.757      0.000      0.000
REMARK INTER + INTRA:          -6.515
REMARK INTER:                  -6.430
REMARK INTRA:                  -0.085
REMARK UNBOUND:                -0.085
REMARK SMILES CCc1ccc(O)cc1O
REMARK SMILES IDX 3 1 9 2 8 3 6 4 5 5 4 6 2 7 1 8 10 9 7 11
REMARK H PARENT 10 10 7 12
REMARK Flexibility Score: inf
ROOT
ATOM      1  C   UNL     1       7.759   7.831  79.870  1.00  0.00    -0.006 A 
ATOM      2  C   UNL     1       9.066   7.823  79.321  1.00  0.00     0.122 A 
ATOM      3  C   UNL     1       9.708   6.602  79.080  1.00  0.00     0.092 A 
ATOM      4  C   UNL     1       9.069   5.392  79.360  1.00  0.00     0.119 A 
ATOM      5  C   UNL     1       7.773   5.396  79.884  1.00  0.00     0.047 A 
ATOM      6  C   UNL     1       7.121   6.605  80.133  1.00  0.00     0.011 A 
ENDROOT
BRANCH   1   7
ATOM      7  C   UNL     1       7.009   9.114  80.142  1.00  0.00     0.036 C 
ATOM      8  C   UNL     1       6.297   9.055  81.491  1.00  0.00     0.009 C 
ENDBRANCH   1   7
BRANCH   2   9
ATOM      9  O   UNL     1       9.751   8.997  78.999  1.00  0.00    -0.508 OA
ATOM     10  H   UNL     1      10.758   9.081  79.021  1.00  0.00     0.293 HD
ENDBRANCH   2   9
BRANCH   4  11
ATOM     11  O   UNL     1       9.730   4.191  79.110  1.00  0.00    -0.508 OA
ATOM     12  H   UNL     1       9.537   3.643  78.281  1.00  0.00     0.293 HD
ENDBRANCH   4  11
TORSDOF 3
ENDMDL
MODEL 2
REMARK VINA RESULT:    -5.260      1.491      2.621
REMARK INTER + INTRA:          -5.960
REMARK INTER:                  -5.875
REMARK INTRA:                  -0.085
REMARK UNBOUND:                -0.085
REMARK SMILES CCc1ccc(O)cc1O
REMARK SMILES IDX 3 1 9 2 8 3 6 4 5 5 4 6 2 7 1 8 10 9 7 11
REMARK H PARENT 10 10 7 12
REMARK Flexibility Score: inf
ROOT
ATOM      1  C   UNL     1       7.192   7.741  80.451  1.00  0.00    -0.006 A 
ATOM      2  C   UNL     1       7.599   6.539  79.819  1.00  0.00     0.122 A 
ATOM      3  C   UNL     1       8.880   6.448  79.263  1.00  0.00     0.092 A 
ATOM      4  C   UNL     1       9.769   7.523  79.337  1.00  0.00     0.119 A 
ATOM      5  C   UNL     1       9.378   8.704  79.976  1.00  0.00     0.047 A 
ATOM      6  C   UNL     1       8.102   8.811  80.532  1.00  0.00     0.011 A 
ENDROOT
BRANCH   1   7
ATOM      7  C   UNL     1       5.827   7.898  81.080  1.00  0.00     0.036 C 
ATOM      8  C   UNL     1       5.791   9.108  82.010  1.00  0.00     0.009 C 
ENDBRANCH   1   7
BRANCH   2   9
ATOM      9  O   UNL     1       6.766   5.421  79.731  1.00  0.00    -0.508 OA
ATOM     10  H   UNL     1       6.582   4.798  80.505  1.00  0.00     0.293 HD
ENDBRANCH   2   9
BRANCH   4  11
ATOM     11  O   UNL     1      11.039   7.406  78.777  1.00  0.00    -0.508 OA
ATOM     12  H   UNL     1      11.851   7.826  79.213  1.00  0.00     0.293 HD
ENDBRANCH   4  11
TORSDOF 3
ENDMDL
MODEL 3
REMARK VINA RESULT:    -5.254      1.901      4.134
REMARK INTER + INTRA:          -5.953
REMARK INTER:                  -5.869
REMARK INTRA:                  -0.084
REMARK UNBOUND:                -0.085
REMARK SMILES CCc1ccc(O)cc1O
REMARK SMILES IDX 3 1 9 2 8 3 6 4 5 5 4 6 2 7 1 8 10 9 7 11
REMARK H PARENT 10 10 7 12
REMARK Flexibility Score: inf
ROOT
ATOM      1  C   UNL     1       8.401   6.705  79.779  1.00  0.00    -0.006 A 
ATOM      2  C   UNL     1       7.411   7.592  80.274  1.00  0.00     0.122 A 
ATOM      3  C   UNL     1       7.665   8.969  80.299  1.00  0.00     0.092 A 
ATOM      4  C   UNL     1       8.877   9.480  79.827  1.00  0.00     0.119 A 
ATOM      5  C   UNL     1       9.847   8.610  79.321  1.00  0.00     0.047 A 
ATOM      6  C   UNL     1       9.610   7.234  79.293  1.00  0.00     0.011 A 
ENDROOT
BRANCH   1   7
ATOM      7  C   UNL     1       8.183   5.211  79.715  1.00  0.00     0.036 C 
ATOM      8  C   UNL     1       9.489   4.459  79.956  1.00  0.00     0.009 C 
ENDBRANCH   1   7
BRANCH   2   9
ATOM      9  O   UNL     1       6.172   7.147  80.739  1.00  0.00    -0.508 OA
ATOM     10  H   UNL     1       6.053   6.326  81.317  1.00  0.00     0.293 HD
ENDBRANCH   2   9
BRANCH   4  11
ATOM     11  O   UNL     1       9.103  10.854  79.862  1.00  0.00    -0.508 OA
ATOM     12  H   UNL     1       9.393  11.364  79.036  1.00  0.00     0.293 HD
ENDBRANCH   4  11
TORSDOF 3
ENDMDL
MODEL 4
REMARK VINA RESULT:    -5.231      1.621      4.405
REMARK INTER + INTRA:          -5.927
REMARK INTER:                  -5.843
REMARK INTRA:                  -0.085
REMARK UNBOUND:                -0.085
REMARK SMILES CCc1ccc(O)cc1O
REMARK SMILES IDX 3 1 9 2 8 3 6 4 5 5 4 6 2 7 1 8 10 9 7 11
REMARK H PARENT 10 10 7 12
REMARK Flexibility Score: inf
ROOT
ATOM      1  C   UNL     1       9.365   5.465  79.628  1.00  0.00    -0.006 A 
ATOM      2  C   UNL     1       7.974   5.560  79.885  1.00  0.00     0.122 A 
ATOM      3  C   UNL     1       7.333   6.800  79.770  1.00  0.00     0.092 A 
ATOM      4  C   UNL     1       8.045   7.940  79.390  1.00  0.00     0.119 A 
ATOM      5  C   UNL     1       9.413   7.845  79.118  1.00  0.00     0.047 A 
ATOM      6  C   UNL     1      10.067   6.617  79.232  1.00  0.00     0.011 A 
ENDROOT
BRANCH   1   7
ATOM      7  C   UNL     1      10.112   4.155  79.725  1.00  0.00     0.036 C 
ATOM      8  C   UNL     1      11.621   4.384  79.697  1.00  0.00     0.009 C 
ENDBRANCH   1   7
BRANCH   2   9
ATOM      9  O   UNL     1       7.201   4.455  80.248  1.00  0.00    -0.508 OA
ATOM     10  H   UNL     1       6.730   4.370  81.138  1.00  0.00     0.293 HD
ENDBRANCH   2   9
BRANCH   4  11
ATOM     11  O   UNL     1       7.382   9.160  79.281  1.00  0.00    -0.508 OA
ATOM     12  H   UNL     1       6.529   9.254  78.744  1.00  0.00     0.293 HD
ENDBRANCH   4  11
TORSDOF 3
ENDMDL
MODEL 5
REMARK VINA RESULT:    -5.219      1.927      2.527
REMARK INTER + INTRA:          -5.914
REMARK INTER:                  -5.820
REMARK INTRA:                  -0.095
REMARK UNBOUND:                -0.085
REMARK SMILES CCc1ccc(O)cc1O
REMARK SMILES IDX 3 1 9 2 8 3 6 4 5 5 4 6 2 7 1 8 10 9 7 11
REMARK H PARENT 10 10 7 12
REMARK Flexibility Score: inf
ROOT
ATOM      1  C   UNL     1       9.166   8.730  80.053  1.00  0.00    -0.006 A 
ATOM      2  C   UNL     1       9.604   7.557  79.389  1.00  0.00     0.122 A 
ATOM      3  C   UNL     1       8.737   6.463  79.272  1.00  0.00     0.092 A 
ATOM      4  C   UNL     1       7.441   6.520  79.790  1.00  0.00     0.119 A 
ATOM      5  C   UNL     1       7.000   7.682  80.430  1.00  0.00     0.047 A 
ATOM      6  C   UNL     1       7.854   8.780  80.557  1.00  0.00     0.011 A 
ENDROOT
BRANCH   1   7
ATOM      7  C   UNL     1      10.049   9.947  80.202  1.00  0.00     0.036 C 
ATOM      8  C   UNL     1       9.482  11.130  79.422  1.00  0.00     0.009 C 
ENDBRANCH   1   7
BRANCH   2   9
ATOM      9  O   UNL     1      10.879   7.443  78.830  1.00  0.00    -0.508 OA
ATOM     10  H   UNL     1      11.498   8.229  78.686  1.00  0.00     0.293 HD
ENDBRANCH   2   9
BRANCH   4  11
ATOM     11  O   UNL     1       6.599   5.418  79.660  1.00  0.00    -0.508 OA
ATOM     12  H   UNL     1       6.957   4.471  79.687  1.00  0.00     0.293 HD
ENDBRANCH   4  11
TORSDOF 3
ENDMDL
MODEL 6
REMARK VINA RESULT:    -5.113      1.667      2.386
REMARK INTER + INTRA:          -5.796
REMARK INTER:                  -5.711
REMARK INTRA:                  -0.085
REMARK UNBOUND:                -0.085
REMARK SMILES CCc1ccc(O)cc1O
REMARK SMILES IDX 3 1 9 2 8 3 6 4 5 5 4 6 2 7 1 8 10 9 7 11
REMARK H PARENT 10 10 7 12
REMARK Flexibility Score: inf
ROOT
ATOM      1  C   UNL     1       8.238   7.766  79.642  1.00  0.00    -0.006 A 
ATOM      2  C   UNL     1       7.409   6.674  80.003  1.00  0.00     0.122 A 
ATOM      3  C   UNL     1       7.920   5.371  79.959  1.00  0.00     0.092 A 
ATOM      4  C   UNL     1       9.244   5.137  79.578  1.00  0.00     0.119 A 
ATOM      5  C   UNL     1      10.070   6.213  79.239  1.00  0.00     0.047 A 
ATOM      6  C   UNL     1       9.573   7.517  79.275  1.00  0.00     0.011 A 
ENDROOT
BRANCH   1   7
ATOM      7  C   UNL     1       7.748   9.195  79.680  1.00  0.00     0.036 C 
ATOM      8  C   UNL     1       8.919  10.173  79.684  1.00  0.00     0.009 C 
ENDBRANCH   1   7
BRANCH   2   9
ATOM      9  O   UNL     1       6.084   6.843  80.412  1.00  0.00    -0.508 OA
ATOM     10  H   UNL     1       5.288   6.702  79.805  1.00  0.00     0.293 HD
ENDBRANCH   2   9
BRANCH   4  11
ATOM     11  O   UNL     1       9.729   3.832  79.544  1.00  0.00    -0.508 OA
ATOM     12  H   UNL     1      10.715   3.630  79.654  1.00  0.00     0.293 HD
ENDBRANCH   4  11
TORSDOF 3
ENDMDL
MODEL 7
REMARK VINA RESULT:    -5.047      1.597      3.721
REMARK INTER + INTRA:          -5.722
REMARK INTER:                  -5.624
REMARK INTRA:                  -0.099
REMARK UNBOUND:                -0.085
REMARK SMILES CCc1ccc(O)cc1O
REMARK SMILES IDX 3 1 9 2 8 3 6 4 5 5 4 6 2 7 1 8 10 9 7 11
REMARK H PARENT 10 10 7 12
REMARK Flexibility Score: inf
ROOT
ATOM      1  C   UNL     1       8.402   6.690  79.551  1.00  0.00    -0.006 A 
ATOM      2  C   UNL     1       9.040   7.955  79.594  1.00  0.00     0.122 A 
ATOM      3  C   UNL     1       8.367   9.053  80.145  1.00  0.00     0.092 A 
ATOM      4  C   UNL     1       7.079   8.911  80.667  1.00  0.00     0.119 A 
ATOM      5  C   UNL     1       6.453   7.661  80.642  1.00  0.00     0.047 A 
ATOM      6  C   UNL     1       7.111   6.559  80.093  1.00  0.00     0.011 A 
ENDROOT
BRANCH   1   7
ATOM      7  C   UNL     1       9.080   5.466  78.980  1.00  0.00     0.036 C 
ATOM      8  C   UNL     1       9.463   4.488  80.087  1.00  0.00     0.009 C 
ENDBRANCH   1   7
BRANCH   2   9
ATOM      9  O   UNL     1      10.335   8.158  79.109  1.00  0.00    -0.508 OA
ATOM     10  H   UNL     1      11.024   7.424  79.031  1.00  0.00     0.293 HD
ENDBRANCH   2   9
BRANCH   4  11
ATOM     11  O   UNL     1       6.431  10.018  81.210  1.00  0.00    -0.508 OA
ATOM     12  H   UNL     1       6.193  10.063  82.193  1.00  0.00     0.293 HD
ENDBRANCH   4  11
TORSDOF 3
ENDMDL
MODEL 8
REMARK VINA RESULT:    -4.505      2.074      4.332
REMARK INTER + INTRA:          -5.117
REMARK INTER:                  -5.033
REMARK INTRA:                  -0.084
REMARK UNBOUND:                -0.085
REMARK SMILES CCc1ccc(O)cc1O
REMARK SMILES IDX 3 1 9 2 8 3 6 4 5 5 4 6 2 7 1 8 10 9 7 11
REMARK H PARENT 10 10 7 12
REMARK Flexibility Score: inf
ROOT
ATOM      1  C   UNL     1       8.466   7.342  79.685  1.00  0.00    -0.006 A 
ATOM      2  C   UNL     1       7.183   6.852  80.034  1.00  0.00     0.122 A 
ATOM      3  C   UNL     1       6.299   7.670  80.749  1.00  0.00     0.092 A 
ATOM      4  C   UNL     1       6.663   8.970  81.110  1.00  0.00     0.119 A 
ATOM      5  C   UNL     1       7.922   9.463  80.752  1.00  0.00     0.047 A 
ATOM      6  C   UNL     1       8.814   8.657  80.041  1.00  0.00     0.011 A 
ENDROOT
BRANCH   1   7
ATOM      7  C   UNL     1       9.460   6.513  78.905  1.00  0.00     0.036 C 
ATOM      8  C   UNL     1      10.891   6.859  79.303  1.00  0.00     0.009 C 
ENDBRANCH   1   7
BRANCH   2   9
ATOM      9  O   UNL     1       6.750   5.570  79.685  1.00  0.00    -0.508 OA
ATOM     10  H   UNL     1       5.821   5.222  79.876  1.00  0.00     0.293 HD
ENDBRANCH   2   9
BRANCH   4  11
ATOM     11  O   UNL     1       5.766   9.763  81.820  1.00  0.00    -0.508 OA
ATOM     12  H   UNL     1       5.838   9.876  82.824  1.00  0.00     0.293 HD
ENDBRANCH   4  11
TORSDOF 3
ENDMDL
MODEL 9
REMARK VINA RESULT:    -4.473      9.582     10.630
REMARK INTER + INTRA:          -5.081
REMARK INTER:                  -4.996
REMARK INTRA:                  -0.085
REMARK UNBOUND:                -0.085
REMARK SMILES CCc1ccc(O)cc1O
REMARK SMILES IDX 3 1 9 2 8 3 6 4 5 5 4 6 2 7 1 8 10 9 7 11
REMARK H PARENT 10 10 7 12
REMARK Flexibility Score: inf
ROOT
ATOM      1  C   UNL     1       1.897   4.668  86.632  1.00  0.00    -0.006 A 
ATOM      2  C   UNL     1       1.067   4.316  87.726  1.00  0.00     0.122 A 
ATOM      3  C   UNL     1       1.342   3.155  88.459  1.00  0.00     0.092 A 
ATOM      4  C   UNL     1       2.435   2.348  88.133  1.00  0.00     0.119 A 
ATOM      5  C   UNL     1       3.265   2.701  87.066  1.00  0.00     0.047 A 
ATOM      6  C   UNL     1       3.002   3.854  86.324  1.00  0.00     0.011 A 
ENDROOT
BRANCH   1   7
ATOM      7  C   UNL     1       1.659   5.914  85.810  1.00  0.00     0.036 C 
ATOM      8  C   UNL     1       2.972   6.459  85.253  1.00  0.00     0.009 C 
ENDBRANCH   1   7
BRANCH   2   9
ATOM      9  O   UNL     1      -0.027   5.092  88.117  1.00  0.00    -0.508 OA
ATOM     10  H   UNL     1      -0.928   5.057  87.662  1.00  0.00     0.293 HD
ENDBRANCH   2   9
BRANCH   4  11
ATOM     11  O   UNL     1       2.687   1.198  88.878  1.00  0.00    -0.508 OA
ATOM     12  H   UNL     1       2.586   0.274  88.477  1.00  0.00     0.293 HD
ENDBRANCH   4  11
TORSDOF 3
ENDMDL
