MODEL 1
REMARK VINA RESULT:     7.322      0.000      0.000
REMARK INTER + INTRA:           7.322
REMARK INTER:                   7.322
REMARK INTRA:                   0.000
REMARK UNBOUND:                 0.000
REMARK SMILES C=C1CCC[C@]2(C)CC(=O)C(=C(C)C)C[C@@H]12
REMARK SMILES IDX 13 1 12 2 11 3 15 4 16 5 2 6 1 7 3 8 4 9 5 10 6 11 8 12 9 13
REMARK SMILES IDX 10 14 7 15 14 16
REMARK H PARENT
REMARK Flexibility Score: inf
ROOT
ATOM      1  C   UNL     1       3.804  -7.034 -24.515  1.00  0.00     0.039 C 
ATOM      2  C   UNL     1       5.058  -6.199 -24.393  1.00  0.00    -0.070 C 
ATOM      3  C   UNL     1       6.112  -6.609 -23.627  1.00  0.00    -0.006 C 
ATOM      4  C   UNL     1       6.058  -7.917 -22.848  1.00  0.00     0.047 C 
ATOM      5  C   UNL     1       6.899  -7.875 -21.548  1.00  0.00     0.025 C 
ATOM      6  C   UNL     1       6.915  -9.175 -20.743  1.00  0.00    -0.073 C 
ATOM      7  C   UNL     1       6.267 -10.298 -21.110  1.00  0.00     0.008 C 
ATOM      8  C   UNL     1       7.679  -9.144 -19.441  1.00  0.00     0.031 C 
ATOM      9  C   UNL     1       9.106  -8.639 -19.671  1.00  0.00     0.005 C 
ATOM     10  C   UNL     1       9.120  -7.308 -20.442  1.00  0.00     0.008 C 
ATOM     11  C   UNL     1       8.358  -7.380 -21.799  1.00  0.00    -0.018 C 
ATOM     12  C   UNL     1       8.300  -5.952 -22.395  1.00  0.00     0.088 C 
ATOM     13  C   UNL     1       7.413  -5.879 -23.605  1.00  0.00     0.159 C 
ATOM     14  O   UNL     1       7.800  -5.201 -24.595  1.00  0.00    -0.295 OA
ATOM     15  C   UNL     1       9.125  -8.313 -22.777  1.00  0.00     0.012 C 
ATOM     16  C   UNL     1       5.072  -4.876 -25.125  1.00  0.00     0.039 C 
ENDROOT
TORSDOF 0
ENDMDL
