MODEL 1
REMARK VINA RESULT:    -5.829      0.000      0.000
REMARK INTER + INTRA:          -5.829
REMARK INTER:                  -5.829
REMARK INTRA:                   0.000
REMARK UNBOUND:                 0.000
REMARK SMILES C=C1c2ccccc2-c2ccccc21
REMARK SMILES IDX 1 1 2 2 3 3 4 4 5 5 6 6 7 7 8 8 9 9 10 10 11 11 12 12 13 13
REMARK SMILES IDX 14 14
REMARK H PARENT
REMARK Flexibility Score: inf
ROOT
ATOM      1  C   UNL     1      -5.412 -14.042   0.874  1.00  0.00     0.018 C 
ATOM      2  C   UNL     1      -6.372 -14.892   0.513  1.00  0.00    -0.017 C 
ATOM      3  C   UNL     1      -7.248 -15.674   1.396  1.00  0.00    -0.010 A 
ATOM      4  C   UNL     1      -7.302 -15.728   2.791  1.00  0.00     0.009 A 
ATOM      5  C   UNL     1      -8.252 -16.573   3.389  1.00  0.00     0.001 A 
ATOM      6  C   UNL     1      -9.125 -17.343   2.594  1.00  0.00     0.001 A 
ATOM      7  C   UNL     1      -9.057 -17.278   1.193  1.00  0.00     0.009 A 
ATOM      8  C   UNL     1      -8.107 -16.431   0.619  1.00  0.00    -0.010 A 
ATOM      9  C   UNL     1      -7.815 -16.167  -0.786  1.00  0.00    -0.010 A 
ATOM     10  C   UNL     1      -8.406 -16.685  -1.939  1.00  0.00     0.009 A 
ATOM     11  C   UNL     1      -7.923 -16.251  -3.185  1.00  0.00     0.001 A 
ATOM     12  C   UNL     1      -6.870 -15.316  -3.257  1.00  0.00     0.001 A 
ATOM     13  C   UNL     1      -6.288 -14.806  -2.083  1.00  0.00     0.009 A 
ATOM     14  C   UNL     1      -6.781 -15.248  -0.853  1.00  0.00    -0.010 A 
ENDROOT
TORSDOF 0
ENDMDL
MODEL 2
REMARK VINA RESULT:    -5.776      9.982     11.320
REMARK INTER + INTRA:          -5.776
REMARK INTER:                  -5.776
REMARK INTRA:                   0.000
REMARK UNBOUND:                 0.000
REMARK SMILES C=C1c2ccccc2-c2ccccc21
REMARK SMILES IDX 1 1 2 2 3 3 4 4 5 5 6 6 7 7 8 8 9 9 10 10 11 11 12 12 13 13
REMARK SMILES IDX 14 14
REMARK H PARENT
REMARK Flexibility Score: inf
ROOT
ATOM      1  C   UNL     1      -7.583 -15.097  -9.937  1.00  0.00     0.018 C 
ATOM      2  C   UNL     1      -6.437 -15.703 -10.244  1.00  0.00    -0.017 C 
ATOM      3  C   UNL     1      -6.055 -17.090  -9.945  1.00  0.00    -0.010 A 
ATOM      4  C   UNL     1      -6.765 -18.097  -9.287  1.00  0.00     0.009 A 
ATOM      5  C   UNL     1      -6.154 -19.353  -9.135  1.00  0.00     0.001 A 
ATOM      6  C   UNL     1      -4.857 -19.583  -9.637  1.00  0.00     0.001 A 
ATOM      7  C   UNL     1      -4.157 -18.559 -10.295  1.00  0.00     0.009 A 
ATOM      8  C   UNL     1      -4.781 -17.320 -10.437  1.00  0.00    -0.010 A 
ATOM      9  C   UNL     1      -4.300 -16.094 -11.066  1.00  0.00    -0.010 A 
ATOM     10  C   UNL     1      -3.086 -15.827 -11.699  1.00  0.00     0.009 A 
ATOM     11  C   UNL     1      -2.881 -14.540 -12.226  1.00  0.00     0.001 A 
ATOM     12  C   UNL     1      -3.882 -13.554 -12.113  1.00  0.00     0.001 A 
ATOM     13  C   UNL     1      -5.099 -13.843 -11.471  1.00  0.00     0.009 A 
ATOM     14  C   UNL     1      -5.286 -15.128 -10.953  1.00  0.00    -0.010 A 
ENDROOT
TORSDOF 0
ENDMDL
MODEL 3
REMARK VINA RESULT:    -5.771      9.945     11.795
REMARK INTER + INTRA:          -5.771
REMARK INTER:                  -5.771
REMARK INTRA:                   0.000
REMARK UNBOUND:                 0.000
REMARK SMILES C=C1c2ccccc2-c2ccccc21
REMARK SMILES IDX 1 1 2 2 3 3 4 4 5 5 6 6 7 7 8 8 9 9 10 10 11 11 12 12 13 13
REMARK SMILES IDX 14 14
REMARK H PARENT
REMARK Flexibility Score: inf
ROOT
ATOM      1  C   UNL     1      -7.616 -15.085  -9.958  1.00  0.00     0.018 C 
ATOM      2  C   UNL     1      -6.469 -15.698 -10.244  1.00  0.00    -0.017 C 
ATOM      3  C   UNL     1      -5.310 -15.134 -10.950  1.00  0.00    -0.010 A 
ATOM      4  C   UNL     1      -5.115 -13.858 -11.484  1.00  0.00     0.009 A 
ATOM      5  C   UNL     1      -3.892 -13.580 -12.117  1.00  0.00     0.001 A 
ATOM      6  C   UNL     1      -2.891 -14.569 -12.205  1.00  0.00     0.001 A 
ATOM      7  C   UNL     1      -3.103 -15.847 -11.663  1.00  0.00     0.009 A 
ATOM      8  C   UNL     1      -4.324 -16.103 -11.038  1.00  0.00    -0.010 A 
ATOM      9  C   UNL     1      -4.812 -17.319 -10.396  1.00  0.00    -0.010 A 
ATOM     10  C   UNL     1      -4.192 -18.557 -10.231  1.00  0.00     0.009 A 
ATOM     11  C   UNL     1      -4.900 -19.571  -9.563  1.00  0.00     0.001 A 
ATOM     12  C   UNL     1      -6.202 -19.332  -9.078  1.00  0.00     0.001 A 
ATOM     13  C   UNL     1      -6.810 -18.077  -9.256  1.00  0.00     0.009 A 
ATOM     14  C   UNL     1      -6.091 -17.081  -9.921  1.00  0.00    -0.010 A 
ENDROOT
TORSDOF 0
ENDMDL
MODEL 4
REMARK VINA RESULT:    -5.753      0.041      4.268
REMARK INTER + INTRA:          -5.753
REMARK INTER:                  -5.753
REMARK INTRA:                   0.000
REMARK UNBOUND:                 0.000
REMARK SMILES C=C1c2ccccc2-c2ccccc21
REMARK SMILES IDX 1 1 2 2 3 3 4 4 5 5 6 6 7 7 8 8 9 9 10 10 11 11 12 12 13 13
REMARK SMILES IDX 14 14
REMARK H PARENT
REMARK Flexibility Score: inf
ROOT
ATOM      1  C   UNL     1      -5.378 -14.029   0.875  1.00  0.00     0.018 C 
ATOM      2  C   UNL     1      -6.346 -14.873   0.519  1.00  0.00    -0.017 C 
ATOM      3  C   UNL     1      -6.754 -15.235  -0.845  1.00  0.00    -0.010 A 
ATOM      4  C   UNL     1      -6.255 -14.807  -2.077  1.00  0.00     0.009 A 
ATOM      5  C   UNL     1      -6.838 -15.321  -3.248  1.00  0.00     0.001 A 
ATOM      6  C   UNL     1      -7.899 -16.246  -3.171  1.00  0.00     0.001 A 
ATOM      7  C   UNL     1      -8.389 -16.666  -1.924  1.00  0.00     0.009 A 
ATOM      8  C   UNL     1      -7.796 -16.144  -0.774  1.00  0.00    -0.010 A 
ATOM      9  C   UNL     1      -8.095 -16.397   0.632  1.00  0.00    -0.010 A 
ATOM     10  C   UNL     1      -9.053 -17.229   1.210  1.00  0.00     0.009 A 
ATOM     11  C   UNL     1      -9.125 -17.285   2.612  1.00  0.00     0.001 A 
ATOM     12  C   UNL     1      -8.247 -16.517   3.404  1.00  0.00     0.001 A 
ATOM     13  C   UNL     1      -7.288 -15.683   2.801  1.00  0.00     0.009 A 
ATOM     14  C   UNL     1      -7.230 -15.641   1.406  1.00  0.00    -0.010 A 
ENDROOT
TORSDOF 0
ENDMDL
MODEL 5
REMARK VINA RESULT:    -5.610      0.758      2.769
REMARK INTER + INTRA:          -5.610
REMARK INTER:                  -5.610
REMARK INTRA:                   0.000
REMARK UNBOUND:                 0.000
REMARK SMILES C=C1c2ccccc2-c2ccccc21
REMARK SMILES IDX 1 1 2 2 3 3 4 4 5 5 6 6 7 7 8 8 9 9 10 10 11 11 12 12 13 13
REMARK SMILES IDX 14 14
REMARK H PARENT
REMARK Flexibility Score: inf
ROOT
ATOM      1  C   UNL     1      -9.125 -17.960   0.823  1.00  0.00     0.018 C 
ATOM      2  C   UNL     1      -8.286 -16.970   0.523  1.00  0.00    -0.017 C 
ATOM      3  C   UNL     1      -7.550 -16.111   1.462  1.00  0.00    -0.010 A 
ATOM      4  C   UNL     1      -7.539 -16.108   2.859  1.00  0.00     0.009 A 
ATOM      5  C   UNL     1      -6.733 -15.164   3.516  1.00  0.00     0.001 A 
ATOM      6  C   UNL     1      -5.958 -14.247   2.778  1.00  0.00     0.001 A 
ATOM      7  C   UNL     1      -5.981 -14.263   1.374  1.00  0.00     0.009 A 
ATOM      8  C   UNL     1      -6.787 -15.209   0.740  1.00  0.00    -0.010 A 
ATOM      9  C   UNL     1      -7.004 -15.454  -0.683  1.00  0.00    -0.010 A 
ATOM     10  C   UNL     1      -6.464 -14.811  -1.796  1.00  0.00     0.009 A 
ATOM     11  C   UNL     1      -6.850 -15.256  -3.072  1.00  0.00     0.001 A 
ATOM     12  C   UNL     1      -7.759 -16.325  -3.211  1.00  0.00     0.001 A 
ATOM     13  C   UNL     1      -8.292 -16.960  -2.075  1.00  0.00     0.009 A 
ATOM     14  C   UNL     1      -7.897 -16.505  -0.815  1.00  0.00    -0.010 A 
ENDROOT
TORSDOF 0
ENDMDL
MODEL 6
REMARK VINA RESULT:    -5.559      3.640      5.527
REMARK INTER + INTRA:          -5.559
REMARK INTER:                  -5.559
REMARK INTRA:                   0.000
REMARK UNBOUND:                 0.000
REMARK SMILES C=C1c2ccccc2-c2ccccc21
REMARK SMILES IDX 1 1 2 2 3 3 4 4 5 5 6 6 7 7 8 8 9 9 10 10 11 11 12 12 13 13
REMARK SMILES IDX 14 14
REMARK H PARENT
REMARK Flexibility Score: inf
ROOT
ATOM      1  C   UNL     1      -9.124 -19.037  -3.100  1.00  0.00     0.018 C 
ATOM      2  C   UNL     1      -7.840 -18.842  -2.806  1.00  0.00    -0.017 C 
ATOM      3  C   UNL     1      -7.200 -17.582  -2.404  1.00  0.00    -0.010 A 
ATOM      4  C   UNL     1      -7.748 -16.308  -2.232  1.00  0.00     0.009 A 
ATOM      5  C   UNL     1      -6.897 -15.264  -1.836  1.00  0.00     0.001 A 
ATOM      6  C   UNL     1      -5.524 -15.503  -1.619  1.00  0.00     0.001 A 
ATOM      7  C   UNL     1      -4.989 -16.789  -1.797  1.00  0.00     0.009 A 
ATOM      8  C   UNL     1      -5.851 -17.813  -2.189  1.00  0.00    -0.010 A 
ATOM      9  C   UNL     1      -5.577 -19.223  -2.446  1.00  0.00    -0.010 A 
ATOM     10  C   UNL     1      -4.379 -19.933  -2.366  1.00  0.00     0.009 A 
ATOM     11  C   UNL     1      -4.399 -21.305  -2.670  1.00  0.00     0.001 A 
ATOM     12  C   UNL     1      -5.603 -21.936  -3.044  1.00  0.00     0.001 A 
ATOM     13  C   UNL     1      -6.800 -21.202  -3.119  1.00  0.00     0.009 A 
ATOM     14  C   UNL     1      -6.762 -19.840  -2.812  1.00  0.00    -0.010 A 
ENDROOT
TORSDOF 0
ENDMDL
MODEL 7
REMARK VINA RESULT:    -5.554      1.167      4.258
REMARK INTER + INTRA:          -5.554
REMARK INTER:                  -5.554
REMARK INTRA:                   0.000
REMARK UNBOUND:                 0.000
REMARK SMILES C=C1c2ccccc2-c2ccccc21
REMARK SMILES IDX 1 1 2 2 3 3 4 4 5 5 6 6 7 7 8 8 9 9 10 10 11 11 12 12 13 13
REMARK SMILES IDX 14 14
REMARK H PARENT
REMARK Flexibility Score: inf
ROOT
ATOM      1  C   UNL     1      -4.212 -14.787  -0.235  1.00  0.00     0.018 C 
ATOM      2  C   UNL     1      -5.476 -15.126   0.016  1.00  0.00    -0.017 C 
ATOM      3  C   UNL     1      -6.472 -15.623  -0.943  1.00  0.00    -0.010 A 
ATOM      4  C   UNL     1      -6.359 -15.861  -2.315  1.00  0.00     0.009 A 
ATOM      5  C   UNL     1      -7.485 -16.345  -3.002  1.00  0.00     0.001 A 
ATOM      6  C   UNL     1      -8.695 -16.581  -2.316  1.00  0.00     0.001 A 
ATOM      7  C   UNL     1      -8.791 -16.336  -0.937  1.00  0.00     0.009 A 
ATOM      8  C   UNL     1      -7.661 -15.857  -0.273  1.00  0.00    -0.010 A 
ATOM      9  C   UNL     1      -7.473 -15.519   1.134  1.00  0.00    -0.010 A 
ATOM     10  C   UNL     1      -8.371 -15.584   2.200  1.00  0.00     0.009 A 
ATOM     11  C   UNL     1      -7.920 -15.193   3.472  1.00  0.00     0.001 A 
ATOM     12  C   UNL     1      -6.595 -14.748   3.655  1.00  0.00     0.001 A 
ATOM     13  C   UNL     1      -5.706 -14.690   2.567  1.00  0.00     0.009 A 
ATOM     14  C   UNL     1      -6.170 -15.084   1.310  1.00  0.00    -0.010 A 
ENDROOT
TORSDOF 0
ENDMDL
MODEL 8
REMARK VINA RESULT:    -5.551      1.150      1.543
REMARK INTER + INTRA:          -5.551
REMARK INTER:                  -5.551
REMARK INTRA:                   0.000
REMARK UNBOUND:                 0.000
REMARK SMILES C=C1c2ccccc2-c2ccccc21
REMARK SMILES IDX 1 1 2 2 3 3 4 4 5 5 6 6 7 7 8 8 9 9 10 10 11 11 12 12 13 13
REMARK SMILES IDX 14 14
REMARK H PARENT
REMARK Flexibility Score: inf
ROOT
ATOM      1  C   UNL     1      -4.225 -14.782  -0.160  1.00  0.00     0.018 C 
ATOM      2  C   UNL     1      -5.488 -15.129   0.082  1.00  0.00    -0.017 C 
ATOM      3  C   UNL     1      -6.185 -15.110   1.376  1.00  0.00    -0.010 A 
ATOM      4  C   UNL     1      -5.724 -14.738   2.640  1.00  0.00     0.009 A 
ATOM      5  C   UNL     1      -6.615 -14.817   3.724  1.00  0.00     0.001 A 
ATOM      6  C   UNL     1      -7.939 -15.261   3.531  1.00  0.00     0.001 A 
ATOM      7  C   UNL     1      -8.386 -15.632   2.253  1.00  0.00     0.009 A 
ATOM      8  C   UNL     1      -7.486 -15.545   1.190  1.00  0.00    -0.010 A 
ATOM      9  C   UNL     1      -7.672 -15.860  -0.223  1.00  0.00    -0.010 A 
ATOM     10  C   UNL     1      -8.798 -16.330  -0.897  1.00  0.00     0.009 A 
ATOM     11  C   UNL     1      -8.700 -16.551  -2.282  1.00  0.00     0.001 A 
ATOM     12  C   UNL     1      -7.490 -16.299  -2.961  1.00  0.00     0.001 A 
ATOM     13  C   UNL     1      -6.365 -15.826  -2.263  1.00  0.00     0.009 A 
ATOM     14  C   UNL     1      -6.481 -15.611  -0.887  1.00  0.00    -0.010 A 
ENDROOT
TORSDOF 0
ENDMDL
MODEL 9
REMARK VINA RESULT:    -5.486      9.378     11.091
REMARK INTER + INTRA:          -5.486
REMARK INTER:                  -5.486
REMARK INTRA:                   0.000
REMARK UNBOUND:                 0.000
REMARK SMILES C=C1c2ccccc2-c2ccccc21
REMARK SMILES IDX 1 1 2 2 3 3 4 4 5 5 6 6 7 7 8 8 9 9 10 10 11 11 12 12 13 13
REMARK SMILES IDX 14 14
REMARK H PARENT
REMARK Flexibility Score: inf
ROOT
ATOM      1  C   UNL     1      -3.845 -18.513 -10.781  1.00  0.00     0.018 C 
ATOM      2  C   UNL     1      -4.592 -17.417 -10.652  1.00  0.00    -0.017 C 
ATOM      3  C   UNL     1      -5.901 -17.305  -9.994  1.00  0.00    -0.010 A 
ATOM      4  C   UNL     1      -6.674 -18.278  -9.356  1.00  0.00     0.009 A 
ATOM      5  C   UNL     1      -7.907 -17.893  -8.803  1.00  0.00     0.001 A 
ATOM      6  C   UNL     1      -8.344 -16.555  -8.893  1.00  0.00     0.001 A 
ATOM      7  C   UNL     1      -7.555 -15.590  -9.538  1.00  0.00     0.009 A 
ATOM      8  C   UNL     1      -6.334 -15.992 -10.080  1.00  0.00    -0.010 A 
ATOM      9  C   UNL     1      -5.324 -15.217 -10.794  1.00  0.00    -0.010 A 
ATOM     10  C   UNL     1      -5.302 -13.864 -11.128  1.00  0.00     0.009 A 
ATOM     11  C   UNL     1      -4.188 -13.371 -11.829  1.00  0.00     0.001 A 
ATOM     12  C   UNL     1      -3.127 -14.230 -12.179  1.00  0.00     0.001 A 
ATOM     13  C   UNL     1      -3.168 -15.592 -11.833  1.00  0.00     0.009 A 
ATOM     14  C   UNL     1      -4.283 -16.065 -11.136  1.00  0.00    -0.010 A 
ENDROOT
TORSDOF 0
ENDMDL
