MODEL 1
REMARK VINA RESULT:     1.753      0.000      0.000
REMARK INTER + INTRA:           2.250
REMARK INTER:                   2.983
REMARK INTRA:                  -0.734
REMARK UNBOUND:                -0.734
REMARK SMILES CCCCCCCCCCCCCC(=O)[O-]
REMARK SMILES IDX 8 1 9 2 10 3 11 4 12 5 13 6 14 7 15 8 16 9 7 10 6 11 5 12
REMARK SMILES IDX 4 13 3 14 2 15 1 16
REMARK H PARENT
REMARK Flexibility Score: inf
ROOT
ATOM      1  C   UNL     1     103.660 102.438 102.503  1.00  0.00     0.000 C 
ENDROOT
BRANCH   1   2
ATOM      2  C   UNL     1     103.420 103.932 102.253  1.00  0.00     0.000 C 
BRANCH   2   3
ATOM      3  C   UNL     1     104.702 104.744 102.490  1.00  0.00     0.000 C 
BRANCH   3   4
ATOM      4  C   UNL     1     104.424 106.202 102.897  1.00  0.00     0.000 C 
BRANCH   4   5
ATOM      5  C   UNL     1     104.533 106.487 104.406  1.00  0.00     0.006 C 
BRANCH   5   6
ATOM      6  C   UNL     1     104.834 105.231 105.232  1.00  0.00     0.053 C 
BRANCH   6   7
ATOM      7  C   UNL     1     104.346 105.399 106.636  1.00  0.00     0.041 C 
ATOM      8  O   UNL     1     104.242 106.550 107.138  1.00  0.00    -0.550 OA
ATOM      9  O   UNL     1     103.958 104.289 107.375  1.00  0.00    -0.550 OA
ENDBRANCH   6   7
ENDBRANCH   5   6
ENDBRANCH   4   5
ENDBRANCH   3   4
ENDBRANCH   2   3
ENDBRANCH   1   2
BRANCH   1  10
ATOM     10  C   UNL     1     103.470 101.626 101.214  1.00  0.00     0.000 C 
BRANCH  10  11
ATOM     11  C   UNL     1     103.296 102.518  99.975  1.00  0.00    -0.000 C 
BRANCH  11  12
ATOM     12  C   UNL     1     103.459 101.738  98.658  1.00  0.00    -0.000 C 
BRANCH  12  13
ATOM     13  C   UNL     1     103.706 102.661  97.453  1.00  0.00    -0.000 C 
BRANCH  13  14
ATOM     14  C   UNL     1     103.411 104.138  97.772  1.00  0.00    -0.000 C 
BRANCH  14  15
ATOM     15  C   UNL     1     104.649 105.033  97.607  1.00  0.00    -0.003 C 
ATOM     16  C   UNL     1     104.348 106.508  97.867  1.00  0.00     0.004 C 
ENDBRANCH  14  15
ENDBRANCH  13  14
ENDBRANCH  12  13
ENDBRANCH  11  12
ENDBRANCH  10  11
ENDBRANCH   1  10
TORSDOF 12
ENDMDL
MODEL 2
REMARK VINA RESULT:     1.803      3.264      5.905
REMARK INTER + INTRA:           2.335
REMARK INTER:                   3.112
REMARK INTRA:                  -0.777
REMARK UNBOUND:                -0.734
REMARK SMILES CCCCCCCCCCCCCC(=O)[O-]
REMARK SMILES IDX 8 1 9 2 10 3 11 4 12 5 13 6 14 7 15 8 16 9 7 10 6 11 5 12
REMARK SMILES IDX 4 13 3 14 2 15 1 16
REMARK H PARENT
REMARK Flexibility Score: inf
ROOT
ATOM      1  C   UNL     1     104.412 105.579 107.326  1.00  0.00     0.000 C 
ENDROOT
BRANCH   1   2
ATOM      2  C   UNL     1     104.563 104.099 106.955  1.00  0.00     0.000 C 
BRANCH   2   3
ATOM      3  C   UNL     1     103.275 103.320 107.256  1.00  0.00     0.000 C 
BRANCH   3   4
ATOM      4  C   UNL     1     103.541 101.887 107.754  1.00  0.00     0.000 C 
BRANCH   4   5
ATOM      5  C   UNL     1     103.313 101.670 109.261  1.00  0.00     0.006 C 
BRANCH   5   6
ATOM      6  C   UNL     1     103.155 102.983 110.038  1.00  0.00     0.053 C 
BRANCH   6   7
ATOM      7  C   UNL     1     103.598 102.807 111.456  1.00  0.00     0.041 C 
ATOM      8  O   UNL     1     103.941 103.806 112.142  1.00  0.00    -0.550 OA
ATOM      9  O   UNL     1     103.584 101.545 112.037  1.00  0.00    -0.550 OA
ENDBRANCH   6   7
ENDBRANCH   5   6
ENDBRANCH   4   5
ENDBRANCH   3   4
ENDBRANCH   2   3
ENDBRANCH   1   2
BRANCH   1  10
ATOM     10  C   UNL     1     104.460 106.469 106.075  1.00  0.00     0.000 C 
BRANCH  10  11
ATOM     11  C   UNL     1     104.762 105.674 104.796  1.00  0.00    -0.000 C 
BRANCH  11  12
ATOM     12  C   UNL     1     104.669 106.538 103.527  1.00  0.00    -0.000 C 
BRANCH  12  13
ATOM     13  C   UNL     1     104.193 105.739 102.302  1.00  0.00    -0.000 C 
BRANCH  13  14
ATOM     14  C   UNL     1     104.584 104.253 102.381  1.00  0.00    -0.000 C 
BRANCH  14  15
ATOM     15  C   UNL     1     103.368 103.319 102.269  1.00  0.00    -0.003 C 
ATOM     16  C   UNL     1     103.673 101.895 102.733  1.00  0.00     0.004 C 
ENDBRANCH  14  15
ENDBRANCH  13  14
ENDBRANCH  12  13
ENDBRANCH  11  12
ENDBRANCH  10  11
ENDBRANCH   1  10
TORSDOF 12
ENDMDL
MODEL 3
REMARK VINA RESULT:     1.835      3.181      4.809
REMARK INTER + INTRA:           2.389
REMARK INTER:                   3.016
REMARK INTRA:                  -0.627
REMARK UNBOUND:                -0.734
REMARK SMILES CCCCCCCCCCCCCC(=O)[O-]
REMARK SMILES IDX 8 1 9 2 10 3 11 4 12 5 13 6 14 7 15 8 16 9 7 10 6 11 5 12
REMARK SMILES IDX 4 13 3 14 2 15 1 16
REMARK H PARENT
REMARK Flexibility Score: inf
ROOT
ATOM      1  C   UNL     1     103.627 102.423 107.301  1.00  0.00     0.000 C 
ENDROOT
BRANCH   1   2
ATOM      2  C   UNL     1     103.316 103.910 107.092  1.00  0.00     0.000 C 
BRANCH   2   3
ATOM      3  C   UNL     1     104.594 104.759 107.176  1.00  0.00     0.000 C 
BRANCH   3   4
ATOM      4  C   UNL     1     104.324 106.210 107.615  1.00  0.00     0.000 C 
BRANCH   4   5
ATOM      5  C   UNL     1     104.634 106.510 109.093  1.00  0.00     0.006 C 
BRANCH   5   6
ATOM      6  C   UNL     1     104.811 105.242 109.937  1.00  0.00     0.053 C 
BRANCH   6   7
ATOM      7  C   UNL     1     104.359 105.483 111.342  1.00  0.00     0.041 C 
ATOM      8  O   UNL     1     104.074 104.512 112.092  1.00  0.00    -0.550 OA
ATOM      9  O   UNL     1     104.303 106.778 111.842  1.00  0.00    -0.550 OA
ENDBRANCH   6   7
ENDBRANCH   5   6
ENDBRANCH   4   5
ENDBRANCH   3   4
ENDBRANCH   2   3
ENDBRANCH   1   2
BRANCH   1  10
ATOM     10  C   UNL     1     103.410 101.628 106.006  1.00  0.00     0.000 C 
BRANCH  10  11
ATOM     11  C   UNL     1     103.344 102.528 104.763  1.00  0.00    -0.000 C 
BRANCH  11  12
ATOM     12  C   UNL     1     103.295 101.724 103.453  1.00  0.00    -0.000 C 
BRANCH  12  13
ATOM     13  C   UNL     1     103.811 102.527 102.248  1.00  0.00    -0.000 C 
BRANCH  13  14
ATOM     14  C   UNL     1     103.447 104.020 102.336  1.00  0.00    -0.000 C 
BRANCH  14  15
ATOM     15  C   UNL     1     104.685 104.930 102.304  1.00  0.00    -0.003 C 
ATOM     16  C   UNL     1     104.365 106.375 102.684  1.00  0.00     0.004 C 
ENDBRANCH  14  15
ENDBRANCH  13  14
ENDBRANCH  12  13
ENDBRANCH  11  12
ENDBRANCH  10  11
ENDBRANCH   1  10
TORSDOF 12
ENDMDL
MODEL 4
REMARK VINA RESULT:     1.910      3.807      6.903
REMARK INTER + INTRA:           2.516
REMARK INTER:                   3.205
REMARK INTRA:                  -0.688
REMARK UNBOUND:                -0.734
REMARK SMILES CCCCCCCCCCCCCC(=O)[O-]
REMARK SMILES IDX 8 1 9 2 10 3 11 4 12 5 13 6 14 7 15 8 16 9 7 10 6 11 5 12
REMARK SMILES IDX 4 13 3 14 2 15 1 16
REMARK H PARENT
REMARK Flexibility Score: inf
ROOT
ATOM      1  C   UNL     1     103.655 102.193 102.449  1.00  0.00     0.000 C 
ENDROOT
BRANCH   1   2
ATOM      2  C   UNL     1     103.386 103.697 102.584  1.00  0.00     0.000 C 
BRANCH   2   3
ATOM      3  C   UNL     1     104.671 104.509 102.365  1.00  0.00     0.000 C 
BRANCH   3   4
ATOM      4  C   UNL     1     104.406 106.011 102.162  1.00  0.00     0.000 C 
BRANCH   4   5
ATOM      5  C   UNL     1     104.495 106.496 100.703  1.00  0.00     0.006 C 
BRANCH   5   6
ATOM      6  C   UNL     1     104.790 105.362  99.713  1.00  0.00     0.053 C 
BRANCH   6   7
ATOM      7  C   UNL     1     104.498 105.802  98.313  1.00  0.00     0.041 C 
ATOM      8  O   UNL     1     104.356 107.025  98.049  1.00  0.00    -0.550 OA
ATOM      9  O   UNL     1     104.434 104.865  97.290  1.00  0.00    -0.550 OA
ENDBRANCH   6   7
ENDBRANCH   5   6
ENDBRANCH   4   5
ENDBRANCH   3   4
ENDBRANCH   2   3
ENDBRANCH   1   2
BRANCH   1  10
ATOM     10  C   UNL     1     103.319 101.454 103.753  1.00  0.00     0.000 C 
BRANCH  10  11
ATOM     11  C   UNL     1     103.275 102.392 104.969  1.00  0.00    -0.000 C 
BRANCH  11  12
ATOM     12  C   UNL     1     103.473 101.644 106.299  1.00  0.00    -0.000 C 
BRANCH  12  13
ATOM     13  C   UNL     1     103.651 102.599 107.491  1.00  0.00    -0.000 C 
BRANCH  13  14
ATOM     14  C   UNL     1     103.416 104.071 107.107  1.00  0.00    -0.000 C 
BRANCH  14  15
ATOM     15  C   UNL     1     104.594 104.976 107.501  1.00  0.00    -0.003 C 
ATOM     16  C   UNL     1     104.329 106.451 107.206  1.00  0.00     0.004 C 
ENDBRANCH  14  15
ENDBRANCH  13  14
ENDBRANCH  12  13
ENDBRANCH  11  12
ENDBRANCH  10  11
ENDBRANCH   1  10
TORSDOF 12
ENDMDL
MODEL 5
REMARK VINA RESULT:     1.923      1.431      3.085
REMARK INTER + INTRA:           2.539
REMARK INTER:                   3.295
REMARK INTRA:                  -0.756
REMARK UNBOUND:                -0.734
REMARK SMILES CCCCCCCCCCCCCC(=O)[O-]
REMARK SMILES IDX 8 1 9 2 10 3 11 4 12 5 13 6 14 7 15 8 16 9 7 10 6 11 5 12
REMARK SMILES IDX 4 13 3 14 2 15 1 16
REMARK H PARENT
REMARK Flexibility Score: inf
ROOT
ATOM      1  C   UNL     1     104.450 105.138 102.775  1.00  0.00     0.000 C 
ENDROOT
BRANCH   1   2
ATOM      2  C   UNL     1     103.979 103.761 102.290  1.00  0.00     0.000 C 
BRANCH   2   3
ATOM      3  C   UNL     1     103.618 102.853 103.475  1.00  0.00     0.000 C 
BRANCH   3   4
ATOM      4  C   UNL     1     103.329 103.637 104.768  1.00  0.00     0.000 C 
BRANCH   4   5
ATOM      5  C   UNL     1     103.730 102.917 106.068  1.00  0.00     0.006 C 
BRANCH   5   6
ATOM      6  C   UNL     1     103.634 103.817 107.305  1.00  0.00     0.053 C 
BRANCH   6   7
ATOM      7  C   UNL     1     104.564 104.982 107.177  1.00  0.00     0.041 C 
ATOM      8  O   UNL     1     105.806 104.795 107.093  1.00  0.00    -0.550 OA
ATOM      9  O   UNL     1     104.055 106.273 107.101  1.00  0.00    -0.550 OA
ENDBRANCH   6   7
ENDBRANCH   5   6
ENDBRANCH   4   5
ENDBRANCH   3   4
ENDBRANCH   2   3
ENDBRANCH   1   2
BRANCH   1  10
ATOM     10  C   UNL     1     104.557 106.127 101.606  1.00  0.00     0.000 C 
BRANCH  10  11
ATOM     11  C   UNL     1     104.660 105.423 100.244  1.00  0.00    -0.000 C 
BRANCH  11  12
ATOM     12  C   UNL     1     104.632 106.411  99.065  1.00  0.00    -0.000 C 
BRANCH  12  13
ATOM     13  C   UNL     1     104.234 105.738  97.741  1.00  0.00    -0.000 C 
BRANCH  13  14
ATOM     14  C   UNL     1     104.589 104.240  97.712  1.00  0.00    -0.000 C 
BRANCH  14  15
ATOM     15  C   UNL     1     103.352 103.347  97.528  1.00  0.00    -0.003 C 
ATOM     16  C   UNL     1     103.627 101.882  97.864  1.00  0.00     0.004 C 
ENDBRANCH  14  15
ENDBRANCH  13  14
ENDBRANCH  12  13
ENDBRANCH  11  12
ENDBRANCH  10  11
ENDBRANCH   1  10
TORSDOF 12
ENDMDL
MODEL 6
REMARK VINA RESULT:     1.925      3.640      7.700
REMARK INTER + INTRA:           2.542
REMARK INTER:                   3.113
REMARK INTRA:                  -0.571
REMARK UNBOUND:                -0.734
REMARK SMILES CCCCCCCCCCCCCC(=O)[O-]
REMARK SMILES IDX 8 1 9 2 10 3 11 4 12 5 13 6 14 7 15 8 16 9 7 10 6 11 5 12
REMARK SMILES IDX 4 13 3 14 2 15 1 16
REMARK H PARENT
REMARK Flexibility Score: inf
ROOT
ATOM      1  C   UNL     1     104.557 105.251 102.252  1.00  0.00     0.000 C 
ENDROOT
BRANCH   1   2
ATOM      2  C   UNL     1     103.887 103.931 102.654  1.00  0.00     0.000 C 
BRANCH   2   3
ATOM      3  C   UNL     1     103.632 103.045 101.426  1.00  0.00     0.000 C 
BRANCH   3   4
ATOM      4  C   UNL     1     103.600 103.839 100.107  1.00  0.00     0.000 C 
BRANCH   4   5
ATOM      5  C   UNL     1     103.641 102.980  98.830  1.00  0.00     0.006 C 
BRANCH   5   6
ATOM      6  C   UNL     1     103.660 103.818  97.546  1.00  0.00     0.053 C 
BRANCH   6   7
ATOM      7  C   UNL     1     104.560 105.001  97.707  1.00  0.00     0.041 C 
ATOM      8  O   UNL     1     105.806 104.842  97.799  1.00  0.00    -0.550 OA
ATOM      9  O   UNL     1     104.029 106.285  97.705  1.00  0.00    -0.550 OA
ENDBRANCH   6   7
ENDBRANCH   5   6
ENDBRANCH   4   5
ENDBRANCH   3   4
ENDBRANCH   2   3
ENDBRANCH   1   2
BRANCH   1  10
ATOM     10  C   UNL     1     104.684 106.193 103.457  1.00  0.00     0.000 C 
BRANCH  10  11
ATOM     11  C   UNL     1     104.674 105.444 104.798  1.00  0.00    -0.000 C 
BRANCH  11  12
ATOM     12  C   UNL     1     104.496 106.386 106.001  1.00  0.00    -0.000 C 
BRANCH  12  13
ATOM     13  C   UNL     1     104.380 105.627 107.332  1.00  0.00    -0.000 C 
BRANCH  13  14
ATOM     14  C   UNL     1     104.626 104.116 107.172  1.00  0.00    -0.000 C 
BRANCH  14  15
ATOM     15  C   UNL     1     103.322 103.303 107.191  1.00  0.00    -0.003 C 
ATOM     16  C   UNL     1     103.565 101.802 107.342  1.00  0.00     0.004 C 
ENDBRANCH  14  15
ENDBRANCH  13  14
ENDBRANCH  12  13
ENDBRANCH  11  12
ENDBRANCH  10  11
ENDBRANCH   1  10
TORSDOF 12
ENDMDL
MODEL 7
REMARK VINA RESULT:     1.927      3.752      9.239
REMARK INTER + INTRA:           2.546
REMARK INTER:                   3.252
REMARK INTRA:                  -0.706
REMARK UNBOUND:                -0.734
REMARK SMILES CCCCCCCCCCCCCC(=O)[O-]
REMARK SMILES IDX 8 1 9 2 10 3 11 4 12 5 13 6 14 7 15 8 16 9 7 10 6 11 5 12
REMARK SMILES IDX 4 13 3 14 2 15 1 16
REMARK H PARENT
REMARK Flexibility Score: inf
ROOT
ATOM      1  C   UNL     1     104.451 105.176 106.864  1.00  0.00     0.000 C 
ENDROOT
BRANCH   1   2
ATOM      2  C   UNL     1     103.934 103.811 107.336  1.00  0.00     0.000 C 
BRANCH   2   3
ATOM      3  C   UNL     1     103.643 102.889 106.143  1.00  0.00     0.000 C 
BRANCH   3   4
ATOM      4  C   UNL     1     103.367 103.660 104.840  1.00  0.00     0.000 C 
BRANCH   4   5
ATOM      5  C   UNL     1     103.659 102.876 103.547  1.00  0.00     0.006 C 
BRANCH   5   6
ATOM      6  C   UNL     1     103.652 103.762 102.295  1.00  0.00     0.053 C 
BRANCH   6   7
ATOM      7  C   UNL     1     104.551 104.943 102.486  1.00  0.00     0.041 C 
ATOM      8  O   UNL     1     105.796 104.783 102.583  1.00  0.00    -0.550 OA
ATOM      9  O   UNL     1     104.018 106.226 102.506  1.00  0.00    -0.550 OA
ENDBRANCH   6   7
ENDBRANCH   5   6
ENDBRANCH   4   5
ENDBRANCH   3   4
ENDBRANCH   2   3
ENDBRANCH   1   2
BRANCH   1  10
ATOM     10  C   UNL     1     104.701 106.113 108.054  1.00  0.00     0.000 C 
BRANCH  10  11
ATOM     11  C   UNL     1     104.643 105.381 109.404  1.00  0.00    -0.000 C 
BRANCH  11  12
ATOM     12  C   UNL     1     104.587 106.349 110.599  1.00  0.00    -0.000 C 
BRANCH  12  13
ATOM     13  C   UNL     1     104.303 105.629 111.928  1.00  0.00    -0.000 C 
BRANCH  13  14
ATOM     14  C   UNL     1     104.587 104.118 111.852  1.00  0.00    -0.000 C 
BRANCH  14  15
ATOM     15  C   UNL     1     103.312 103.273 111.988  1.00  0.00    -0.003 C 
ATOM     16  C   UNL     1     103.598 101.772 112.006  1.00  0.00     0.004 C 
ENDBRANCH  14  15
ENDBRANCH  13  14
ENDBRANCH  12  13
ENDBRANCH  11  12
ENDBRANCH  10  11
ENDBRANCH   1  10
TORSDOF 12
ENDMDL
MODEL 8
REMARK VINA RESULT:     1.952      4.130      9.590
REMARK INTER + INTRA:           2.588
REMARK INTER:                   3.306
REMARK INTRA:                  -0.718
REMARK UNBOUND:                -0.734
REMARK SMILES CCCCCCCCCCCCCC(=O)[O-]
REMARK SMILES IDX 8 1 9 2 10 3 11 4 12 5 13 6 14 7 15 8 16 9 7 10 6 11 5 12
REMARK SMILES IDX 4 13 3 14 2 15 1 16
REMARK H PARENT
REMARK Flexibility Score: inf
ROOT
ATOM      1  C   UNL     1     104.470 105.900 107.110  1.00  0.00     0.000 C 
ENDROOT
BRANCH   1   2
ATOM      2  C   UNL     1     104.708 104.408 107.375  1.00  0.00     0.000 C 
BRANCH   2   3
ATOM      3  C   UNL     1     103.421 103.598 107.165  1.00  0.00     0.000 C 
BRANCH   3   4
ATOM      4  C   UNL     1     103.689 102.132 106.778  1.00  0.00     0.000 C 
BRANCH   4   5
ATOM      5  C   UNL     1     103.321 101.765 105.328  1.00  0.00     0.006 C 
BRANCH   5   6
ATOM      6  C   UNL     1     103.300 102.979 104.391  1.00  0.00     0.053 C 
BRANCH   6   7
ATOM      7  C   UNL     1     103.551 102.553 102.979  1.00  0.00     0.041 C 
ATOM      8  O   UNL     1     103.663 101.331 102.696  1.00  0.00    -0.550 OA
ATOM      9  O   UNL     1     103.612 103.502 101.967  1.00  0.00    -0.550 OA
ENDBRANCH   6   7
ENDBRANCH   5   6
ENDBRANCH   4   5
ENDBRANCH   3   4
ENDBRANCH   2   3
ENDBRANCH   1   2
BRANCH   1  10
ATOM     10  C   UNL     1     104.608 106.718 108.402  1.00  0.00     0.000 C 
BRANCH  10  11
ATOM     11  C   UNL     1     104.760 105.833 109.649  1.00  0.00    -0.000 C 
BRANCH  11  12
ATOM     12  C   UNL     1     104.445 106.589 110.952  1.00  0.00    -0.000 C 
BRANCH  12  13
ATOM     13  C   UNL     1     104.437 105.665 112.181  1.00  0.00    -0.000 C 
BRANCH  13  14
ATOM     14  C   UNL     1     104.604 104.182 111.805  1.00  0.00    -0.000 C 
BRANCH  14  15
ATOM     15  C   UNL     1     103.308 103.379 111.996  1.00  0.00    -0.003 C 
ATOM     16  C   UNL     1     103.550 101.870 112.033  1.00  0.00     0.004 C 
ENDBRANCH  14  15
ENDBRANCH  13  14
ENDBRANCH  12  13
ENDBRANCH  11  12
ENDBRANCH  10  11
ENDBRANCH   1  10
TORSDOF 12
ENDMDL
MODEL 9
REMARK VINA RESULT:     1.967      3.828      7.272
REMARK INTER + INTRA:           2.614
REMARK INTER:                   3.226
REMARK INTRA:                  -0.612
REMARK UNBOUND:                -0.734
REMARK SMILES CCCCCCCCCCCCCC(=O)[O-]
REMARK SMILES IDX 8 1 9 2 10 3 11 4 12 5 13 6 14 7 15 8 16 9 7 10 6 11 5 12
REMARK SMILES IDX 4 13 3 14 2 15 1 16
REMARK H PARENT
REMARK Flexibility Score: inf
ROOT
ATOM      1  C   UNL     1     103.528 103.039 102.124  1.00  0.00     0.000 C 
ENDROOT
BRANCH   1   2
ATOM      2  C   UNL     1     104.021 104.431 102.540  1.00  0.00     0.000 C 
BRANCH   2   3
ATOM      3  C   UNL     1     104.378 105.280 101.312  1.00  0.00     0.000 C 
BRANCH   3   4
ATOM      4  C   UNL     1     104.418 104.463 100.007  1.00  0.00     0.000 C 
BRANCH   4   5
ATOM      5  C   UNL     1     104.348 105.298  98.715  1.00  0.00     0.006 C 
BRANCH   5   6
ATOM      6  C   UNL     1     104.314 104.437  97.447  1.00  0.00     0.053 C 
BRANCH   6   7
ATOM      7  C   UNL     1     103.433 103.245  97.648  1.00  0.00     0.041 C 
ATOM      8  O   UNL     1     103.934 102.093  97.739  1.00  0.00    -0.550 OA
ATOM      9  O   UNL     1     102.060 103.411  97.787  1.00  0.00    -0.550 OA
ENDBRANCH   6   7
ENDBRANCH   5   6
ENDBRANCH   4   5
ENDBRANCH   3   4
ENDBRANCH   2   3
ENDBRANCH   1   2
BRANCH   1  10
ATOM     10  C   UNL     1     103.254 102.161 103.353  1.00  0.00     0.000 C 
BRANCH  10  11
ATOM     11  C   UNL     1     103.309 102.953 104.669  1.00  0.00    -0.000 C 
BRANCH  11  12
ATOM     12  C   UNL     1     103.431 102.041 105.903  1.00  0.00    -0.000 C 
BRANCH  12  13
ATOM     13  C   UNL     1     103.561 102.836 107.212  1.00  0.00    -0.000 C 
BRANCH  13  14
ATOM     14  C   UNL     1     103.411 104.353 106.998  1.00  0.00    -0.000 C 
BRANCH  14  15
ATOM     15  C   UNL     1     104.702 105.122 107.319  1.00  0.00    -0.003 C 
ATOM     16  C   UNL     1     104.484 106.633 107.401  1.00  0.00     0.004 C 
ENDBRANCH  14  15
ENDBRANCH  13  14
ENDBRANCH  12  13
ENDBRANCH  11  12
ENDBRANCH  10  11
ENDBRANCH   1  10
TORSDOF 12
ENDMDL
