MODEL 1
REMARK VINA RESULT:    -4.720      0.000      0.000
REMARK INTER + INTRA:          -5.480
REMARK INTER:                  -5.409
REMARK INTRA:                  -0.071
REMARK UNBOUND:                -0.071
REMARK SMILES COc1cc(C=O)ccc1O
REMARK SMILES IDX 3 1 10 2 9 3 8 4 5 5 4 6 2 7 1 8 11 9 6 11 7 12
REMARK H PARENT 11 10
REMARK Flexibility Score: inf
ROOT
ATOM      1  C   UNL     1      13.407  23.913  -2.416  1.00  0.00     0.161 A 
ATOM      2  C   UNL     1      14.446  24.060  -1.487  1.00  0.00     0.157 A 
ATOM      3  C   UNL     1      14.777  23.000  -0.632  1.00  0.00     0.051 A 
ATOM      4  C   UNL     1      14.078  21.794  -0.698  1.00  0.00     0.015 A 
ATOM      5  C   UNL     1      13.036  21.631  -1.621  1.00  0.00     0.018 A 
ATOM      6  C   UNL     1      12.702  22.694  -2.480  1.00  0.00     0.062 A 
ENDROOT
BRANCH   1   7
ATOM      7  O   UNL     1      13.104  24.997  -3.256  1.00  0.00    -0.493 OA
ATOM      8  C   UNL     1      13.206  24.971  -4.676  1.00  0.00     0.278 C 
ENDBRANCH   1   7
BRANCH   2   9
ATOM      9  O   UNL     1      15.146  25.263  -1.419  1.00  0.00    -0.504 OA
ATOM     10  H   UNL     1      15.944  25.447  -2.015  1.00  0.00     0.293 HD
ENDBRANCH   2   9
BRANCH   5  11
ATOM     11  C   UNL     1      12.308  20.350  -1.676  1.00  0.00     0.260 C 
ATOM     12  O   UNL     1      11.288  20.209  -2.402  1.00  0.00    -0.298 OA
ENDBRANCH   5  11
TORSDOF 3
ENDMDL
MODEL 2
REMARK VINA RESULT:    -4.467      1.558      3.772
REMARK INTER + INTRA:          -5.190
REMARK INTER:                  -5.139
REMARK INTRA:                  -0.052
REMARK UNBOUND:                -0.071
REMARK SMILES COc1cc(C=O)ccc1O
REMARK SMILES IDX 3 1 10 2 9 3 8 4 5 5 4 6 2 7 1 8 11 9 6 11 7 12
REMARK H PARENT 11 10
REMARK Flexibility Score: inf
ROOT
ATOM      1  C   UNL     1      13.371  22.102  -1.834  1.00  0.00     0.161 A 
ATOM      2  C   UNL     1      14.441  22.469  -1.007  1.00  0.00     0.157 A 
ATOM      3  C   UNL     1      15.007  23.746  -1.114  1.00  0.00     0.051 A 
ATOM      4  C   UNL     1      14.509  24.662  -2.043  1.00  0.00     0.015 A 
ATOM      5  C   UNL     1      13.439  24.312  -2.878  1.00  0.00     0.018 A 
ATOM      6  C   UNL     1      12.872  23.029  -2.771  1.00  0.00     0.062 A 
ENDROOT
BRANCH   1   7
ATOM      7  O   UNL     1      12.831  20.814  -1.696  1.00  0.00    -0.493 OA
ATOM      8  C   UNL     1      11.686  20.339  -2.398  1.00  0.00     0.278 C 
ENDBRANCH   1   7
BRANCH   2   9
ATOM      9  O   UNL     1      14.940  21.556  -0.078  1.00  0.00    -0.504 OA
ATOM     10  H   UNL     1      15.933  21.472   0.103  1.00  0.00     0.293 HD
ENDBRANCH   2   9
BRANCH   5  11
ATOM     11  C   UNL     1      12.928  25.293  -3.854  1.00  0.00     0.260 C 
ATOM     12  O   UNL     1      13.217  25.208  -5.076  1.00  0.00    -0.298 OA
ENDBRANCH   5  11
TORSDOF 3
ENDMDL
MODEL 3
REMARK VINA RESULT:    -4.445      1.603      4.111
REMARK INTER + INTRA:          -5.165
REMARK INTER:                  -5.111
REMARK INTRA:                  -0.054
REMARK UNBOUND:                -0.071
REMARK SMILES COc1cc(C=O)ccc1O
REMARK SMILES IDX 3 1 10 2 9 3 8 4 5 5 4 6 2 7 1 8 11 9 6 11 7 12
REMARK H PARENT 11 10
REMARK Flexibility Score: inf
ROOT
ATOM      1  C   UNL     1      12.886  21.318  -3.103  1.00  0.00     0.161 A 
ATOM      2  C   UNL     1      12.490  20.771  -1.875  1.00  0.00     0.157 A 
ATOM      3  C   UNL     1      12.496  21.562  -0.719  1.00  0.00     0.051 A 
ATOM      4  C   UNL     1      12.895  22.898  -0.781  1.00  0.00     0.015 A 
ATOM      5  C   UNL     1      13.295  23.462  -2.000  1.00  0.00     0.018 A 
ATOM      6  C   UNL     1      13.290  22.668  -3.161  1.00  0.00     0.062 A 
ENDROOT
BRANCH   1   7
ATOM      7  O   UNL     1      12.866  20.494  -4.240  1.00  0.00    -0.493 OA
ATOM      8  C   UNL     1      11.756  20.361  -5.121  1.00  0.00     0.278 C 
ENDBRANCH   1   7
BRANCH   2   9
ATOM      9  O   UNL     1      12.090  19.437  -1.812  1.00  0.00    -0.504 OA
ATOM     10  H   UNL     1      12.069  18.849  -2.636  1.00  0.00     0.293 HD
ENDBRANCH   2   9
BRANCH   5  11
ATOM     11  C   UNL     1      13.715  24.875  -2.044  1.00  0.00     0.260 C 
ATOM     12  O   UNL     1      14.720  25.277  -1.403  1.00  0.00    -0.298 OA
ENDBRANCH   5  11
TORSDOF 3
ENDMDL
MODEL 4
REMARK VINA RESULT:    -4.427      2.080      2.775
REMARK INTER + INTRA:          -5.145
REMARK INTER:                  -5.073
REMARK INTRA:                  -0.071
REMARK UNBOUND:                -0.071
REMARK SMILES COc1cc(C=O)ccc1O
REMARK SMILES IDX 3 1 10 2 9 3 8 4 5 5 4 6 2 7 1 8 11 9 6 11 7 12
REMARK H PARENT 11 10
REMARK Flexibility Score: inf
ROOT
ATOM      1  C   UNL     1      13.298  22.393  -2.484  1.00  0.00     0.161 A 
ATOM      2  C   UNL     1      13.036  21.676  -1.308  1.00  0.00     0.157 A 
ATOM      3  C   UNL     1      12.344  20.459  -1.368  1.00  0.00     0.051 A 
ATOM      4  C   UNL     1      11.911  19.954  -2.594  1.00  0.00     0.015 A 
ATOM      5  C   UNL     1      12.164  20.658  -3.779  1.00  0.00     0.018 A 
ATOM      6  C   UNL     1      12.859  21.879  -3.720  1.00  0.00     0.062 A 
ENDROOT
BRANCH   1   7
ATOM      7  O   UNL     1      13.995  23.608  -2.383  1.00  0.00    -0.493 OA
ATOM      8  C   UNL     1      13.504  24.861  -2.849  1.00  0.00     0.278 C 
ENDBRANCH   1   7
BRANCH   2   9
ATOM      9  O   UNL     1      13.468  22.179  -0.082  1.00  0.00    -0.504 OA
ATOM     10  H   UNL     1      13.771  23.140   0.020  1.00  0.00     0.293 HD
ENDBRANCH   2   9
BRANCH   5  11
ATOM     11  C   UNL     1      11.698  20.108  -5.066  1.00  0.00     0.260 C 
ATOM     12  O   UNL     1      10.695  19.349  -5.125  1.00  0.00    -0.298 OA
ENDBRANCH   5  11
TORSDOF 3
ENDMDL
MODEL 5
REMARK VINA RESULT:    -4.355      2.115      3.504
REMARK INTER + INTRA:          -5.062
REMARK INTER:                  -5.000
REMARK INTRA:                  -0.062
REMARK UNBOUND:                -0.071
REMARK SMILES COc1cc(C=O)ccc1O
REMARK SMILES IDX 3 1 10 2 9 3 8 4 5 5 4 6 2 7 1 8 11 9 6 11 7 12
REMARK H PARENT 11 10
REMARK Flexibility Score: inf
ROOT
ATOM      1  C   UNL     1      12.614  21.745  -1.948  1.00  0.00     0.161 A 
ATOM      2  C   UNL     1      13.238  22.402  -3.016  1.00  0.00     0.157 A 
ATOM      3  C   UNL     1      13.065  21.936  -4.326  1.00  0.00     0.051 A 
ATOM      4  C   UNL     1      12.270  20.816  -4.577  1.00  0.00     0.015 A 
ATOM      5  C   UNL     1      11.638  20.146  -3.520  1.00  0.00     0.018 A 
ATOM      6  C   UNL     1      11.813  20.614  -2.205  1.00  0.00     0.062 A 
ENDROOT
BRANCH   1   7
ATOM      7  O   UNL     1      12.811  22.242  -0.650  1.00  0.00    -0.493 OA
ATOM      8  C   UNL     1      13.830  21.795   0.239  1.00  0.00     0.278 C 
ENDBRANCH   1   7
BRANCH   2   9
ATOM      9  O   UNL     1      14.032  23.521  -2.768  1.00  0.00    -0.504 OA
ATOM     10  H   UNL     1      15.041  23.485  -2.851  1.00  0.00     0.293 HD
ENDBRANCH   2   9
BRANCH   5  11
ATOM     11  C   UNL     1      10.804  18.964  -3.805  1.00  0.00     0.260 C 
ATOM     12  O   UNL     1      10.101  18.898  -4.847  1.00  0.00    -0.298 OA
ENDBRANCH   5  11
TORSDOF 3
ENDMDL
MODEL 6
REMARK VINA RESULT:    -4.110      2.051      2.938
REMARK INTER + INTRA:          -4.782
REMARK INTER:                  -4.727
REMARK INTRA:                  -0.055
REMARK UNBOUND:                -0.071
REMARK SMILES COc1cc(C=O)ccc1O
REMARK SMILES IDX 3 1 10 2 9 3 8 4 5 5 4 6 2 7 1 8 11 9 6 11 7 12
REMARK H PARENT 11 10
REMARK Flexibility Score: inf
ROOT
ATOM      1  C   UNL     1      13.061  22.804  -3.757  1.00  0.00     0.161 A 
ATOM      2  C   UNL     1      13.335  24.176  -3.850  1.00  0.00     0.157 A 
ATOM      3  C   UNL     1      13.554  24.928  -2.689  1.00  0.00     0.051 A 
ATOM      4  C   UNL     1      13.504  24.320  -1.434  1.00  0.00     0.015 A 
ATOM      5  C   UNL     1      13.231  22.949  -1.322  1.00  0.00     0.018 A 
ATOM      6  C   UNL     1      13.010  22.194  -2.488  1.00  0.00     0.062 A 
ENDROOT
BRANCH   1   7
ATOM      7  O   UNL     1      12.846  22.084  -4.943  1.00  0.00    -0.493 OA
ATOM      8  C   UNL     1      12.157  20.840  -5.018  1.00  0.00     0.278 C 
ENDBRANCH   1   7
BRANCH   2   9
ATOM      9  O   UNL     1      13.386  24.785  -5.102  1.00  0.00    -0.504 OA
ATOM     10  H   UNL     1      13.596  25.771  -5.205  1.00  0.00     0.293 HD
ENDBRANCH   2   9
BRANCH   5  11
ATOM     11  C   UNL     1      13.181  22.325   0.013  1.00  0.00     0.260 C 
ATOM     12  O   UNL     1      13.431  21.101   0.170  1.00  0.00    -0.298 OA
ENDBRANCH   5  11
TORSDOF 3
ENDMDL
MODEL 7
REMARK VINA RESULT:    -4.004      1.477      2.969
REMARK INTER + INTRA:          -4.661
REMARK INTER:                  -4.606
REMARK INTRA:                  -0.055
REMARK UNBOUND:                -0.071
REMARK SMILES COc1cc(C=O)ccc1O
REMARK SMILES IDX 3 1 10 2 9 3 8 4 5 5 4 6 2 7 1 8 11 9 6 11 7 12
REMARK H PARENT 11 10
REMARK Flexibility Score: inf
ROOT
ATOM      1  C   UNL     1      14.602  23.195  -1.385  1.00  0.00     0.161 A 
ATOM      2  C   UNL     1      14.353  24.501  -1.828  1.00  0.00     0.157 A 
ATOM      3  C   UNL     1      13.517  24.722  -2.930  1.00  0.00     0.051 A 
ATOM      4  C   UNL     1      12.926  23.645  -3.593  1.00  0.00     0.015 A 
ATOM      5  C   UNL     1      13.164  22.333  -3.164  1.00  0.00     0.018 A 
ATOM      6  C   UNL     1      14.004  22.111  -2.058  1.00  0.00     0.062 A 
ENDROOT
BRANCH   1   7
ATOM      7  O   UNL     1      15.446  23.015  -0.277  1.00  0.00    -0.493 OA
ATOM      8  C   UNL     1      16.227  21.848  -0.039  1.00  0.00     0.278 C 
ENDBRANCH   1   7
BRANCH   2   9
ATOM      9  O   UNL     1      14.942  25.578  -1.167  1.00  0.00    -0.504 OA
ATOM     10  H   UNL     1      15.738  26.069  -1.556  1.00  0.00     0.293 HD
ENDBRANCH   2   9
BRANCH   5  11
ATOM     11  C   UNL     1      12.532  21.208  -3.879  1.00  0.00     0.260 C 
ATOM     12  O   UNL     1      11.758  20.411  -3.286  1.00  0.00    -0.298 OA
ENDBRANCH   5  11
TORSDOF 3
ENDMDL
MODEL 8
REMARK VINA RESULT:    -3.769      2.194      3.960
REMARK INTER + INTRA:          -4.391
REMARK INTER:                  -4.336
REMARK INTRA:                  -0.055
REMARK UNBOUND:                -0.071
REMARK SMILES COc1cc(C=O)ccc1O
REMARK SMILES IDX 3 1 10 2 9 3 8 4 5 5 4 6 2 7 1 8 11 9 6 11 7 12
REMARK H PARENT 11 10
REMARK Flexibility Score: inf
ROOT
ATOM      1  C   UNL     1      12.658  21.012  -2.850  1.00  0.00     0.161 A 
ATOM      2  C   UNL     1      12.992  22.012  -3.773  1.00  0.00     0.157 A 
ATOM      3  C   UNL     1      13.205  23.327  -3.337  1.00  0.00     0.051 A 
ATOM      4  C   UNL     1      13.085  23.650  -1.985  1.00  0.00     0.015 A 
ATOM      5  C   UNL     1      12.751  22.662  -1.048  1.00  0.00     0.018 A 
ATOM      6  C   UNL     1      12.537  21.342  -1.485  1.00  0.00     0.062 A 
ENDROOT
BRANCH   1   7
ATOM      7  O   UNL     1      12.452  19.707  -3.325  1.00  0.00    -0.493 OA
ATOM      8  C   UNL     1      11.189  19.180  -3.718  1.00  0.00     0.278 C 
ENDBRANCH   1   7
BRANCH   2   9
ATOM      9  O   UNL     1      13.112  21.692  -5.124  1.00  0.00    -0.504 OA
ATOM     10  H   UNL     1      13.090  22.406  -5.843  1.00  0.00     0.293 HD
ENDBRANCH   2   9
BRANCH   5  11
ATOM     11  C   UNL     1      12.629  23.022   0.376  1.00  0.00     0.260 C 
ATOM     12  O   UNL     1      13.321  22.447   1.257  1.00  0.00    -0.298 OA
ENDBRANCH   5  11
TORSDOF 3
ENDMDL
MODEL 9
REMARK VINA RESULT:    -3.669      1.950      4.053
REMARK INTER + INTRA:          -4.276
REMARK INTER:                  -4.379
REMARK INTRA:                   0.103
REMARK UNBOUND:                -0.071
REMARK SMILES COc1cc(C=O)ccc1O
REMARK SMILES IDX 3 1 10 2 9 3 8 4 5 5 4 6 2 7 1 8 11 9 6 11 7 12
REMARK H PARENT 11 10
REMARK Flexibility Score: inf
ROOT
ATOM      1  C   UNL     1      14.535  23.187  -0.772  1.00  0.00     0.161 A 
ATOM      2  C   UNL     1      13.363  22.596  -0.282  1.00  0.00     0.157 A 
ATOM      3  C   UNL     1      12.133  22.855  -0.903  1.00  0.00     0.051 A 
ATOM      4  C   UNL     1      12.067  23.700  -2.011  1.00  0.00     0.015 A 
ATOM      5  C   UNL     1      13.230  24.300  -2.514  1.00  0.00     0.018 A 
ATOM      6  C   UNL     1      14.464  24.041  -1.891  1.00  0.00     0.062 A 
ENDROOT
BRANCH   1   7
ATOM      7  O   UNL     1      15.748  22.903  -0.123  1.00  0.00    -0.493 OA
ATOM      8  C   UNL     1      16.424  21.652  -0.187  1.00  0.00     0.278 C 
ENDBRANCH   1   7
BRANCH   2   9
ATOM      9  O   UNL     1      13.426  21.751   0.825  1.00  0.00    -0.504 OA
ATOM     10  H   UNL     1      12.687  21.089   1.031  1.00  0.00     0.293 HD
ENDBRANCH   2   9
BRANCH   5  11
ATOM     11  C   UNL     1      13.140  25.191  -3.686  1.00  0.00     0.260 C 
ATOM     12  O   UNL     1      13.272  24.745  -4.856  1.00  0.00    -0.298 OA
ENDBRANCH   5  11
TORSDOF 3
ENDMDL
