MODEL 1
REMARK VINA RESULT:    -4.342      0.000      0.000
REMARK INTER + INTRA:          -5.768
REMARK INTER:                  -5.611
REMARK INTRA:                  -0.157
REMARK UNBOUND:                -0.157
REMARK SMILES C=CC(=O)CCCCC
REMARK SMILES IDX 6 1 7 2 8 3 9 4 5 5 3 6 4 7 2 8 1 9
REMARK H PARENT
REMARK Flexibility Score: inf
ROOT
ATOM      1  C   UNL     1      -4.116  28.730 -19.855  1.00  0.00     0.008 C 
ENDROOT
BRANCH   1   2
ATOM      2  C   UNL     1      -3.514  29.017 -21.239  1.00  0.00     0.000 C 
BRANCH   2   3
ATOM      3  C   UNL     1      -4.511  28.767 -22.380  1.00  0.00    -0.003 C 
ATOM      4  C   UNL     1      -3.887  29.086 -23.735  1.00  0.00     0.004 C 
ENDBRANCH   2   3
ENDBRANCH   1   2
BRANCH   1   5
ATOM      5  C   UNL     1      -3.486  27.505 -19.178  1.00  0.00     0.080 C 
BRANCH   5   6
ATOM      6  C   UNL     1      -4.536  26.699 -18.471  1.00  0.00     0.155 C 
ATOM      7  O   UNL     1      -4.910  25.602 -18.968  1.00  0.00    -0.295 OA
BRANCH   6   8
ATOM      8  C   UNL     1      -5.089  27.170 -17.188  1.00  0.00     0.039 C 
ATOM      9  C   UNL     1      -6.341  27.607 -17.066  1.00  0.00     0.012 C 
ENDBRANCH   6   8
ENDBRANCH   5   6
ENDBRANCH   1   5
TORSDOF 5
ENDMDL
MODEL 2
REMARK VINA RESULT:    -4.294      3.451      6.371
REMARK INTER + INTRA:          -5.706
REMARK INTER:                  -5.559
REMARK INTRA:                  -0.147
REMARK UNBOUND:                -0.157
REMARK SMILES C=CC(=O)CCCCC
REMARK SMILES IDX 6 1 7 2 8 3 9 4 5 5 3 6 4 7 2 8 1 9
REMARK H PARENT
REMARK Flexibility Score: inf
ROOT
ATOM      1  C   UNL     1      -3.952  29.141 -23.229  1.00  0.00     0.008 C 
ENDROOT
BRANCH   1   2
ATOM      2  C   UNL     1      -4.513  28.763 -21.850  1.00  0.00     0.000 C 
BRANCH   2   3
ATOM      3  C   UNL     1      -3.434  28.742 -20.758  1.00  0.00    -0.003 C 
ATOM      4  C   UNL     1      -3.900  27.953 -19.539  1.00  0.00     0.004 C 
ENDBRANCH   2   3
ENDBRANCH   1   2
BRANCH   1   5
ATOM      5  C   UNL     1      -4.989  28.993 -24.351  1.00  0.00     0.080 C 
BRANCH   5   6
ATOM      6  C   UNL     1      -4.868  30.125 -25.329  1.00  0.00     0.155 C 
ATOM      7  O   UNL     1      -3.724  30.486 -25.717  1.00  0.00    -0.295 OA
BRANCH   6   8
ATOM      8  C   UNL     1      -6.081  30.775 -25.859  1.00  0.00     0.039 C 
ATOM      9  C   UNL     1      -6.920  31.462 -25.086  1.00  0.00     0.012 C 
ENDBRANCH   6   8
ENDBRANCH   5   6
ENDBRANCH   1   5
TORSDOF 5
ENDMDL
MODEL 3
REMARK VINA RESULT:    -4.190      5.439      7.465
REMARK INTER + INTRA:          -5.572
REMARK INTER:                  -5.456
REMARK INTRA:                  -0.116
REMARK UNBOUND:                -0.157
REMARK SMILES C=CC(=O)CCCCC
REMARK SMILES IDX 6 1 7 2 8 3 9 4 5 5 3 6 4 7 2 8 1 9
REMARK H PARENT
REMARK Flexibility Score: inf
ROOT
ATOM      1  C   UNL     1      -0.479  29.719 -23.087  1.00  0.00     0.008 C 
ENDROOT
BRANCH   1   2
ATOM      2  C   UNL     1      -1.918  30.250 -22.999  1.00  0.00     0.000 C 
BRANCH   2   3
ATOM      3  C   UNL     1      -2.962  29.191 -23.381  1.00  0.00    -0.003 C 
ATOM      4  C   UNL     1      -3.940  28.946 -22.235  1.00  0.00     0.004 C 
ENDBRANCH   2   3
ENDBRANCH   1   2
BRANCH   1   5
ATOM      5  C   UNL     1       0.464  30.685 -23.818  1.00  0.00     0.080 C 
BRANCH   5   6
ATOM      6  C   UNL     1       1.894  30.293 -23.591  1.00  0.00     0.155 C 
ATOM      7  O   UNL     1       2.244  29.097 -23.780  1.00  0.00    -0.295 OA
BRANCH   6   8
ATOM      8  C   UNL     1       2.885  31.311 -23.193  1.00  0.00     0.039 C 
ATOM      9  C   UNL     1       3.384  31.380 -21.960  1.00  0.00     0.012 C 
ENDBRANCH   6   8
ENDBRANCH   5   6
ENDBRANCH   1   5
TORSDOF 5
ENDMDL
MODEL 4
REMARK VINA RESULT:    -4.183      4.839      6.729
REMARK INTER + INTRA:          -5.563
REMARK INTER:                  -5.375
REMARK INTRA:                  -0.188
REMARK UNBOUND:                -0.157
REMARK SMILES C=CC(=O)CCCCC
REMARK SMILES IDX 6 1 7 2 8 3 9 4 5 5 3 6 4 7 2 8 1 9
REMARK H PARENT
REMARK Flexibility Score: inf
ROOT
ATOM      1  C   UNL     1      -1.979  29.890 -22.732  1.00  0.00     0.008 C 
ENDROOT
BRANCH   1   2
ATOM      2  C   UNL     1      -3.158  29.203 -23.440  1.00  0.00     0.000 C 
BRANCH   2   3
ATOM      3  C   UNL     1      -4.346  28.954 -22.500  1.00  0.00    -0.003 C 
ATOM      4  C   UNL     1      -5.664  28.956 -23.269  1.00  0.00     0.004 C 
ENDBRANCH   2   3
ENDBRANCH   1   2
BRANCH   1   5
ATOM      5  C   UNL     1      -1.369  31.025 -23.566  1.00  0.00     0.080 C 
BRANCH   5   6
ATOM      6  C   UNL     1       0.077  30.747 -23.852  1.00  0.00     0.155 C 
ATOM      7  O   UNL     1       0.659  31.383 -24.772  1.00  0.00    -0.295 OA
BRANCH   6   8
ATOM      8  C   UNL     1       0.816  29.768 -23.032  1.00  0.00     0.039 C 
ATOM      9  C   UNL     1       2.092  29.939 -22.692  1.00  0.00     0.012 C 
ENDBRANCH   6   8
ENDBRANCH   5   6
ENDBRANCH   1   5
TORSDOF 5
ENDMDL
MODEL 5
REMARK VINA RESULT:    -4.138      4.099      6.282
REMARK INTER + INTRA:          -5.505
REMARK INTER:                  -5.280
REMARK INTRA:                  -0.225
REMARK UNBOUND:                -0.157
REMARK SMILES C=CC(=O)CCCCC
REMARK SMILES IDX 6 1 7 2 8 3 9 4 5 5 3 6 4 7 2 8 1 9
REMARK H PARENT
REMARK Flexibility Score: inf
ROOT
ATOM      1  C   UNL     1      -6.448  30.736 -24.819  1.00  0.00     0.008 C 
ENDROOT
BRANCH   1   2
ATOM      2  C   UNL     1      -7.125  31.691 -25.814  1.00  0.00     0.000 C 
BRANCH   2   3
ATOM      3  C   UNL     1      -6.600  31.522 -27.246  1.00  0.00    -0.003 C 
ATOM      4  C   UNL     1      -6.852  32.777 -28.076  1.00  0.00     0.004 C 
ENDBRANCH   2   3
ENDBRANCH   1   2
BRANCH   1   5
ATOM      5  C   UNL     1      -5.039  30.320 -25.264  1.00  0.00     0.080 C 
BRANCH   5   6
ATOM      6  C   UNL     1      -4.565  29.139 -24.469  1.00  0.00     0.155 C 
ATOM      7  O   UNL     1      -3.711  28.359 -24.971  1.00  0.00    -0.295 OA
BRANCH   6   8
ATOM      8  C   UNL     1      -5.067  28.923 -23.099  1.00  0.00     0.039 C 
ATOM      9  C   UNL     1      -4.253  28.787 -22.053  1.00  0.00     0.012 C 
ENDBRANCH   6   8
ENDBRANCH   5   6
ENDBRANCH   1   5
TORSDOF 5
ENDMDL
MODEL 6
REMARK VINA RESULT:    -4.113      3.717      5.386
REMARK INTER + INTRA:          -5.473
REMARK INTER:                  -5.260
REMARK INTRA:                  -0.213
REMARK UNBOUND:                -0.157
REMARK SMILES C=CC(=O)CCCCC
REMARK SMILES IDX 6 1 7 2 8 3 9 4 5 5 3 6 4 7 2 8 1 9
REMARK H PARENT
REMARK Flexibility Score: inf
ROOT
ATOM      1  C   UNL     1      -5.285  29.461 -24.718  1.00  0.00     0.008 C 
ENDROOT
BRANCH   1   2
ATOM      2  C   UNL     1      -6.109  30.621 -25.297  1.00  0.00     0.000 C 
BRANCH   2   3
ATOM      3  C   UNL     1      -5.672  31.005 -26.718  1.00  0.00    -0.003 C 
ATOM      4  C   UNL     1      -6.783  31.748 -27.454  1.00  0.00     0.004 C 
ENDBRANCH   2   3
ENDBRANCH   1   2
BRANCH   1   5
ATOM      5  C   UNL     1      -5.625  29.169 -23.250  1.00  0.00     0.080 C 
BRANCH   5   6
ATOM      6  C   UNL     1      -4.376  28.878 -22.471  1.00  0.00     0.155 C 
ATOM      7  O   UNL     1      -4.472  28.447 -21.290  1.00  0.00    -0.295 OA
BRANCH   6   8
ATOM      8  C   UNL     1      -3.055  29.057 -23.101  1.00  0.00     0.039 C 
ATOM      9  C   UNL     1      -2.169  29.951 -22.665  1.00  0.00     0.012 C 
ENDBRANCH   6   8
ENDBRANCH   5   6
ENDBRANCH   1   5
TORSDOF 5
ENDMDL
MODEL 7
REMARK VINA RESULT:    -4.112      4.246      5.580
REMARK INTER + INTRA:          -5.471
REMARK INTER:                  -5.278
REMARK INTRA:                  -0.193
REMARK UNBOUND:                -0.157
REMARK SMILES C=CC(=O)CCCCC
REMARK SMILES IDX 6 1 7 2 8 3 9 4 5 5 3 6 4 7 2 8 1 9
REMARK H PARENT
REMARK Flexibility Score: inf
ROOT
ATOM      1  C   UNL     1      -1.549  30.887 -23.716  1.00  0.00     0.008 C 
ENDROOT
BRANCH   1   2
ATOM      2  C   UNL     1      -0.021  30.761 -23.812  1.00  0.00     0.000 C 
BRANCH   2   3
ATOM      3  C   UNL     1       0.536  29.636 -22.928  1.00  0.00    -0.003 C 
ATOM      4  C   UNL     1       2.036  29.804 -22.704  1.00  0.00     0.004 C 
ENDBRANCH   2   3
ENDBRANCH   1   2
BRANCH   1   5
ATOM      5  C   UNL     1      -2.168  29.859 -22.758  1.00  0.00     0.080 C 
BRANCH   5   6
ATOM      6  C   UNL     1      -3.350  29.193 -23.397  1.00  0.00     0.155 C 
ATOM      7  O   UNL     1      -3.265  28.795 -24.591  1.00  0.00    -0.295 OA
BRANCH   6   8
ATOM      8  C   UNL     1      -4.583  28.969 -22.618  1.00  0.00     0.039 C 
ATOM      9  C   UNL     1      -5.792  28.966 -23.176  1.00  0.00     0.012 C 
ENDBRANCH   6   8
ENDBRANCH   5   6
ENDBRANCH   1   5
TORSDOF 5
ENDMDL
MODEL 8
REMARK VINA RESULT:    -4.084      1.634      5.018
REMARK INTER + INTRA:          -5.435
REMARK INTER:                  -5.297
REMARK INTRA:                  -0.139
REMARK UNBOUND:                -0.157
REMARK SMILES C=CC(=O)CCCCC
REMARK SMILES IDX 6 1 7 2 8 3 9 4 5 5 3 6 4 7 2 8 1 9
REMARK H PARENT
REMARK Flexibility Score: inf
ROOT
ATOM      1  C   UNL     1      -4.390  28.371 -19.377  1.00  0.00     0.008 C 
ENDROOT
BRANCH   1   2
ATOM      2  C   UNL     1      -4.043  27.021 -18.731  1.00  0.00     0.000 C 
BRANCH   2   3
ATOM      3  C   UNL     1      -5.170  26.487 -17.836  1.00  0.00    -0.003 C 
ATOM      4  C   UNL     1      -5.880  27.625 -17.108  1.00  0.00     0.004 C 
ENDBRANCH   2   3
ENDBRANCH   1   2
BRANCH   1   5
ATOM      5  C   UNL     1      -3.430  28.747 -20.514  1.00  0.00     0.080 C 
BRANCH   5   6
ATOM      6  C   UNL     1      -4.184  28.935 -21.797  1.00  0.00     0.155 C 
ATOM      7  O   UNL     1      -5.439  29.054 -21.764  1.00  0.00    -0.295 OA
BRANCH   6   8
ATOM      8  C   UNL     1      -3.455  29.022 -23.076  1.00  0.00     0.039 C 
ATOM      9  C   UNL     1      -4.077  29.150 -24.247  1.00  0.00     0.012 C 
ENDBRANCH   6   8
ENDBRANCH   5   6
ENDBRANCH   1   5
TORSDOF 5
ENDMDL
MODEL 9
REMARK VINA RESULT:    -4.021      2.562      5.563
REMARK INTER + INTRA:          -5.353
REMARK INTER:                  -5.178
REMARK INTRA:                  -0.175
REMARK UNBOUND:                -0.157
REMARK SMILES C=CC(=O)CCCCC
REMARK SMILES IDX 6 1 7 2 8 3 9 4 5 5 3 6 4 7 2 8 1 9
REMARK H PARENT
REMARK Flexibility Score: inf
ROOT
ATOM      1  C   UNL     1      -3.503  28.860 -20.960  1.00  0.00     0.008 C 
ENDROOT
BRANCH   1   2
ATOM      2  C   UNL     1      -4.278  28.135 -19.850  1.00  0.00     0.000 C 
BRANCH   2   3
ATOM      3  C   UNL     1      -3.378  27.238 -18.989  1.00  0.00    -0.003 C 
ATOM      4  C   UNL     1      -4.205  26.386 -18.030  1.00  0.00     0.004 C 
ENDBRANCH   2   3
ENDBRANCH   1   2
BRANCH   1   5
ATOM      5  C   UNL     1      -4.244  28.848 -22.304  1.00  0.00     0.080 C 
BRANCH   5   6
ATOM      6  C   UNL     1      -3.305  29.191 -23.423  1.00  0.00     0.155 C 
ATOM      7  O   UNL     1      -3.635  28.924 -24.610  1.00  0.00    -0.295 OA
BRANCH   6   8
ATOM      8  C   UNL     1      -2.030  29.874 -23.133  1.00  0.00     0.039 C 
ATOM      9  C   UNL     1      -1.681  31.018 -23.720  1.00  0.00     0.012 C 
ENDBRANCH   6   8
ENDBRANCH   5   6
ENDBRANCH   1   5
TORSDOF 5
ENDMDL
