MODEL 1
REMARK VINA RESULT:    -4.146      0.000      0.000
REMARK INTER + INTRA:          -5.626
REMARK INTER:                  -5.357
REMARK INTRA:                  -0.269
REMARK UNBOUND:                -0.269
REMARK SMILES CCCCCCC(=O)[O-]
REMARK SMILES IDX 5 1 6 2 7 3 8 4 9 5 4 6 3 7 2 8 1 9
REMARK H PARENT
REMARK Flexibility Score: inf
ROOT
ATOM      1  C   UNL     1      13.277  34.140  13.789  1.00  0.00     0.006 C 
ENDROOT
BRANCH   1   2
ATOM      2  C   UNL     1      14.296  34.988  13.015  1.00  0.00     0.053 C 
BRANCH   2   3
ATOM      3  C   UNL     1      13.707  36.290  12.563  1.00  0.00     0.041 C 
ATOM      4  O   UNL     1      12.833  36.867  13.262  1.00  0.00    -0.550 OA
ATOM      5  O   UNL     1      14.145  36.880  11.385  1.00  0.00    -0.550 OA
ENDBRANCH   2   3
ENDBRANCH   1   2
BRANCH   1   6
ATOM      6  C   UNL     1      13.125  32.730  13.193  1.00  0.00     0.000 C 
BRANCH   6   7
ATOM      7  C   UNL     1      14.266  32.361  12.228  1.00  0.00    -0.000 C 
BRANCH   7   8
ATOM      8  C   UNL     1      15.190  31.233  12.718  1.00  0.00    -0.003 C 
ATOM      9  C   UNL     1      16.604  31.714  13.041  1.00  0.00     0.004 C 
ENDBRANCH   7   8
ENDBRANCH   6   7
ENDBRANCH   1   6
TORSDOF 5
ENDMDL
MODEL 2
REMARK VINA RESULT:    -4.144     11.725     13.814
REMARK INTER + INTRA:          -5.623
REMARK INTER:                  -5.492
REMARK INTRA:                  -0.132
REMARK UNBOUND:                -0.269
REMARK SMILES CCCCCCC(=O)[O-]
REMARK SMILES IDX 5 1 6 2 7 3 8 4 9 5 4 6 3 7 2 8 1 9
REMARK H PARENT
REMARK Flexibility Score: inf
ROOT
ATOM      1  C   UNL     1       4.045  41.702  11.743  1.00  0.00     0.006 C 
ENDROOT
BRANCH   1   2
ATOM      2  C   UNL     1       3.058  40.588  12.119  1.00  0.00     0.053 C 
BRANCH   2   3
ATOM      3  C   UNL     1       3.762  39.375  12.644  1.00  0.00     0.041 C 
ATOM      4  O   UNL     1       3.350  38.223  12.346  1.00  0.00    -0.550 OA
ATOM      5  O   UNL     1       4.892  39.517  13.440  1.00  0.00    -0.550 OA
ENDBRANCH   2   3
ENDBRANCH   1   2
BRANCH   1   6
ATOM      6  C   UNL     1       3.378  43.088  11.729  1.00  0.00     0.000 C 
BRANCH   6   7
ATOM      7  C   UNL     1       4.374  44.234  11.984  1.00  0.00    -0.000 C 
BRANCH   7   8
ATOM      8  C   UNL     1       4.231  45.439  11.038  1.00  0.00    -0.003 C 
ATOM      9  C   UNL     1       4.070  45.034   9.573  1.00  0.00     0.004 C 
ENDBRANCH   7   8
ENDBRANCH   6   7
ENDBRANCH   1   6
TORSDOF 5
ENDMDL
MODEL 3
REMARK VINA RESULT:    -4.123     12.120     13.807
REMARK INTER + INTRA:          -5.597
REMARK INTER:                  -5.419
REMARK INTRA:                  -0.177
REMARK UNBOUND:                -0.269
REMARK SMILES CCCCCCC(=O)[O-]
REMARK SMILES IDX 5 1 6 2 7 3 8 4 9 5 4 6 3 7 2 8 1 9
REMARK H PARENT
REMARK Flexibility Score: inf
ROOT
ATOM      1  C   UNL     1       2.645  43.670  12.023  1.00  0.00     0.006 C 
ENDROOT
BRANCH   1   2
ATOM      2  C   UNL     1       4.079  44.199  11.887  1.00  0.00     0.053 C 
BRANCH   2   3
ATOM      3  C   UNL     1       4.237  45.075  10.682  1.00  0.00     0.041 C 
ATOM      4  O   UNL     1       4.476  46.304  10.817  1.00  0.00    -0.550 OA
ATOM      5  O   UNL     1       4.150  44.528   9.408  1.00  0.00    -0.550 OA
ENDBRANCH   2   3
ENDBRANCH   1   2
BRANCH   1   6
ATOM      6  C   UNL     1       2.496  42.246  11.463  1.00  0.00     0.000 C 
BRANCH   6   7
ATOM      7  C   UNL     1       3.681  41.333  11.827  1.00  0.00    -0.000 C 
BRANCH   7   8
ATOM      8  C   UNL     1       3.289  39.960  12.401  1.00  0.00    -0.003 C 
ATOM      9  C   UNL     1       4.466  39.214  13.027  1.00  0.00     0.004 C 
ENDBRANCH   7   8
ENDBRANCH   6   7
ENDBRANCH   1   6
TORSDOF 5
ENDMDL
MODEL 4
REMARK VINA RESULT:    -4.080     14.119     15.302
REMARK INTER + INTRA:          -5.541
REMARK INTER:                  -5.364
REMARK INTRA:                  -0.177
REMARK UNBOUND:                -0.269
REMARK SMILES CCCCCCC(=O)[O-]
REMARK SMILES IDX 5 1 6 2 7 3 8 4 9 5 4 6 3 7 2 8 1 9
REMARK H PARENT
REMARK Flexibility Score: inf
ROOT
ATOM      1  C   UNL     1       4.375  44.356  11.552  1.00  0.00     0.006 C 
ENDROOT
BRANCH   1   2
ATOM      2  C   UNL     1       3.048  43.613  11.758  1.00  0.00     0.053 C 
BRANCH   2   3
ATOM      3  C   UNL     1       2.963  42.381  10.910  1.00  0.00     0.041 C 
ATOM      4  O   UNL     1       3.108  41.242  11.429  1.00  0.00    -0.550 OA
ATOM      5  O   UNL     1       2.695  42.488   9.551  1.00  0.00    -0.550 OA
ENDBRANCH   2   3
ENDBRANCH   1   2
BRANCH   1   6
ATOM      6  C   UNL     1       4.167  45.764  10.969  1.00  0.00     0.000 C 
BRANCH   6   7
ATOM      7  C   UNL     1       4.535  45.853   9.476  1.00  0.00    -0.000 C 
BRANCH   7   8
ATOM      8  C   UNL     1       5.018  47.238   9.010  1.00  0.00    -0.003 C 
ATOM      9  C   UNL     1       6.492  47.495   9.323  1.00  0.00     0.004 C 
ENDBRANCH   7   8
ENDBRANCH   6   7
ENDBRANCH   1   6
TORSDOF 5
ENDMDL
MODEL 5
REMARK VINA RESULT:    -4.037     14.085     15.610
REMARK INTER + INTRA:          -5.486
REMARK INTER:                  -5.313
REMARK INTRA:                  -0.173
REMARK UNBOUND:                -0.269
REMARK SMILES CCCCCCC(=O)[O-]
REMARK SMILES IDX 5 1 6 2 7 3 8 4 9 5 4 6 3 7 2 8 1 9
REMARK H PARENT
REMARK Flexibility Score: inf
ROOT
ATOM      1  C   UNL     1       4.232  45.413  11.133  1.00  0.00     0.006 C 
ENDROOT
BRANCH   1   2
ATOM      2  C   UNL     1       4.454  43.972  11.615  1.00  0.00     0.053 C 
BRANCH   2   3
ATOM      3  C   UNL     1       3.172  43.196  11.658  1.00  0.00     0.041 C 
ATOM      4  O   UNL     1       2.091  43.773  11.950  1.00  0.00    -0.550 OA
ATOM      5  O   UNL     1       3.168  41.843  11.346  1.00  0.00    -0.550 OA
ENDBRANCH   2   3
ENDBRANCH   1   2
BRANCH   1   6
ATOM      6  C   UNL     1       4.197  45.512   9.599  1.00  0.00     0.000 C 
BRANCH   6   7
ATOM      7  C   UNL     1       4.653  46.887   9.078  1.00  0.00    -0.000 C 
BRANCH   7   8
ATOM      8  C   UNL     1       6.097  47.272   9.444  1.00  0.00    -0.003 C 
ATOM      9  C   UNL     1       6.434  48.724   9.106  1.00  0.00     0.004 C 
ENDBRANCH   7   8
ENDBRANCH   6   7
ENDBRANCH   1   6
TORSDOF 5
ENDMDL
MODEL 6
REMARK VINA RESULT:    -4.019     14.362     15.307
REMARK INTER + INTRA:          -5.462
REMARK INTER:                  -5.212
REMARK INTRA:                  -0.250
REMARK UNBOUND:                -0.269
REMARK SMILES CCCCCCC(=O)[O-]
REMARK SMILES IDX 5 1 6 2 7 3 8 4 9 5 4 6 3 7 2 8 1 9
REMARK H PARENT
REMARK Flexibility Score: inf
ROOT
ATOM      1  C   UNL     1       4.170  45.799  11.006  1.00  0.00     0.006 C 
ENDROOT
BRANCH   1   2
ATOM      2  C   UNL     1       4.513  45.799   9.510  1.00  0.00     0.053 C 
BRANCH   2   3
ATOM      3  C   UNL     1       5.144  47.090   9.084  1.00  0.00     0.041 C 
ATOM      4  O   UNL     1       4.500  47.907   8.375  1.00  0.00    -0.550 OA
ATOM      5  O   UNL     1       6.434  47.402   9.495  1.00  0.00    -0.550 OA
ENDBRANCH   2   3
ENDBRANCH   1   2
BRANCH   1   6
ATOM      6  C   UNL     1       4.430  44.433  11.661  1.00  0.00     0.000 C 
BRANCH   6   7
ATOM      7  C   UNL     1       3.144  43.611  11.863  1.00  0.00    -0.000 C 
BRANCH   7   8
ATOM      8  C   UNL     1       3.048  42.336  11.007  1.00  0.00    -0.003 C 
ATOM      9  C   UNL     1       2.580  42.609   9.577  1.00  0.00     0.004 C 
ENDBRANCH   7   8
ENDBRANCH   6   7
ENDBRANCH   1   6
TORSDOF 5
ENDMDL
MODEL 7
REMARK VINA RESULT:    -4.010     13.598     15.084
REMARK INTER + INTRA:          -5.451
REMARK INTER:                  -5.226
REMARK INTRA:                  -0.225
REMARK UNBOUND:                -0.269
REMARK SMILES CCCCCCC(=O)[O-]
REMARK SMILES IDX 5 1 6 2 7 3 8 4 9 5 4 6 3 7 2 8 1 9
REMARK H PARENT
REMARK Flexibility Score: inf
ROOT
ATOM      1  C   UNL     1       4.472  43.975  11.972  1.00  0.00     0.006 C 
ENDROOT
BRANCH   1   2
ATOM      2  C   UNL     1       4.115  42.791  11.063  1.00  0.00     0.053 C 
BRANCH   2   3
ATOM      3  C   UNL     1       2.921  42.041  11.569  1.00  0.00     0.041 C 
ATOM      4  O   UNL     1       1.815  42.627  11.710  1.00  0.00    -0.550 OA
ATOM      5  O   UNL     1       3.022  40.686  11.859  1.00  0.00    -0.550 OA
ENDBRANCH   2   3
ENDBRANCH   1   2
BRANCH   1   6
ATOM      6  C   UNL     1       4.128  45.327  11.327  1.00  0.00     0.000 C 
BRANCH   6   7
ATOM      7  C   UNL     1       4.165  45.283   9.788  1.00  0.00    -0.000 C 
BRANCH   7   8
ATOM      8  C   UNL     1       4.406  46.641   9.107  1.00  0.00    -0.003 C 
ATOM      9  C   UNL     1       5.775  47.239   9.430  1.00  0.00     0.004 C 
ENDBRANCH   7   8
ENDBRANCH   6   7
ENDBRANCH   1   6
TORSDOF 5
ENDMDL
MODEL 8
REMARK VINA RESULT:    -3.984     14.512     15.537
REMARK INTER + INTRA:          -5.417
REMARK INTER:                  -5.176
REMARK INTRA:                  -0.241
REMARK UNBOUND:                -0.269
REMARK SMILES CCCCCCC(=O)[O-]
REMARK SMILES IDX 5 1 6 2 7 3 8 4 9 5 4 6 3 7 2 8 1 9
REMARK H PARENT
REMARK Flexibility Score: inf
ROOT
ATOM      1  C   UNL     1       4.293  45.736  10.940  1.00  0.00     0.006 C 
ENDROOT
BRANCH   1   2
ATOM      2  C   UNL     1       4.242  45.695   9.407  1.00  0.00     0.053 C 
BRANCH   2   3
ATOM      3  C   UNL     1       4.095  47.065   8.819  1.00  0.00     0.041 C 
ATOM      4  O   UNL     1       2.987  47.440   8.351  1.00  0.00    -0.550 OA
ATOM      5  O   UNL     1       5.175  47.939   8.813  1.00  0.00    -0.550 OA
ENDBRANCH   2   3
ENDBRANCH   1   2
BRANCH   1   6
ATOM      6  C   UNL     1       4.418  44.331  11.554  1.00  0.00     0.000 C 
BRANCH   6   7
ATOM      7  C   UNL     1       4.112  43.208  10.546  1.00  0.00    -0.000 C 
BRANCH   7   8
ATOM      8  C   UNL     1       2.990  42.245  10.970  1.00  0.00    -0.003 C 
ATOM      9  C   UNL     1       1.836  42.948  11.684  1.00  0.00     0.004 C 
ENDBRANCH   7   8
ENDBRANCH   6   7
ENDBRANCH   1   6
TORSDOF 5
ENDMDL
MODEL 9
REMARK VINA RESULT:    -3.941     13.987     15.488
REMARK INTER + INTRA:          -5.362
REMARK INTER:                  -5.290
REMARK INTRA:                  -0.072
REMARK UNBOUND:                -0.269
REMARK SMILES CCCCCCC(=O)[O-]
REMARK SMILES IDX 5 1 6 2 7 3 8 4 9 5 4 6 3 7 2 8 1 9
REMARK H PARENT
REMARK Flexibility Score: inf
ROOT
ATOM      1  C   UNL     1       4.833  46.322  10.360  1.00  0.00     0.006 C 
ENDROOT
BRANCH   1   2
ATOM      2  C   UNL     1       4.975  47.187   9.100  1.00  0.00     0.053 C 
BRANCH   2   3
ATOM      3  C   UNL     1       6.237  47.995   9.120  1.00  0.00     0.041 C 
ATOM      4  O   UNL     1       6.218  49.208   8.784  1.00  0.00    -0.550 OA
ATOM      5  O   UNL     1       7.428  47.414   9.536  1.00  0.00    -0.550 OA
ENDBRANCH   2   3
ENDBRANCH   1   2
BRANCH   1   6
ATOM      6  C   UNL     1       3.932  45.098  10.125  1.00  0.00     0.000 C 
BRANCH   6   7
ATOM      7  C   UNL     1       3.708  44.265  11.401  1.00  0.00    -0.000 C 
BRANCH   7   8
ATOM      8  C   UNL     1       2.550  43.255  11.320  1.00  0.00    -0.003 C 
ATOM      9  C   UNL     1       3.009  41.805  11.465  1.00  0.00     0.004 C 
ENDBRANCH   7   8
ENDBRANCH   6   7
ENDBRANCH   1   6
TORSDOF 5
ENDMDL
