MODEL 1
REMARK VINA RESULT:    -3.080      0.000      0.000
REMARK INTER + INTRA:          -3.443
REMARK INTER:                  -3.260
REMARK INTRA:                  -0.182
REMARK UNBOUND:                -0.182
REMARK SMILES CC(C)[C@H]1CC[C@@H](C)CC1=O
REMARK SMILES IDX 8 1 7 2 6 3 5 4 4 5 10 6 11 7 9 8 2 9 1 10 3 11
REMARK H PARENT
REMARK Flexibility Score: inf
ROOT
ATOM      1  C   UNL     1     142.829 136.875 144.899  1.00  0.00     0.008 C 
ATOM      2  C   UNL     1     143.342 136.177 143.628  1.00  0.00    -0.007 C 
ATOM      3  C   UNL     1     142.678 134.799 143.412  1.00  0.00     0.004 C 
ATOM      4  C   UNL     1     143.141 133.757 144.447  1.00  0.00     0.012 C 
ATOM      5  C   UNL     1     144.677 133.594 144.446  1.00  0.00     0.058 C 
ATOM      6  C   UNL     1     145.335 134.960 144.559  1.00  0.00     0.136 C 
ATOM      7  O   UNL     1     146.276 135.164 145.309  1.00  0.00    -0.299 OA
ATOM      8  C   UNL     1     144.878 136.057 143.635  1.00  0.00     0.079 C 
ENDROOT
BRANCH   5   9
ATOM      9  C   UNL     1     145.144 132.521 145.481  1.00  0.00    -0.007 C 
ATOM     10  C   UNL     1     144.203 132.446 146.694  1.00  0.00     0.008 C 
ATOM     11  C   UNL     1     145.372 131.119 144.888  1.00  0.00     0.008 C 
ENDBRANCH   5   9
TORSDOF 1
ENDMDL
MODEL 2
REMARK VINA RESULT:    -3.080      9.196     10.899
REMARK INTER + INTRA:          -3.442
REMARK INTER:                  -3.259
REMARK INTRA:                  -0.183
REMARK UNBOUND:                -0.182
REMARK SMILES CC(C)[C@H]1CC[C@@H](C)CC1=O
REMARK SMILES IDX 8 1 7 2 6 3 5 4 4 5 10 6 11 7 9 8 2 9 1 10 3 11
REMARK H PARENT
REMARK Flexibility Score: inf
ROOT
ATOM      1  C   UNL     1     136.779 138.749 144.837  1.00  0.00     0.008 C 
ATOM      2  C   UNL     1     136.086 138.193 143.583  1.00  0.00    -0.007 C 
ATOM      3  C   UNL     1     134.697 138.831 143.355  1.00  0.00     0.004 C 
ATOM      4  C   UNL     1     133.665 138.381 144.405  1.00  0.00     0.012 C 
ATOM      5  C   UNL     1     133.525 136.843 144.443  1.00  0.00     0.058 C 
ATOM      6  C   UNL     1     134.900 136.208 144.569  1.00  0.00     0.136 C 
ATOM      7  O   UNL     1     135.120 135.289 145.342  1.00  0.00    -0.299 OA
ATOM      8  C   UNL     1     135.987 136.657 143.629  1.00  0.00     0.079 C 
ENDROOT
BRANCH   5   9
ATOM      9  C   UNL     1     132.462 136.387 145.495  1.00  0.00    -0.007 C 
ATOM     10  C   UNL     1     132.410 137.333 146.705  1.00  0.00     0.008 C 
ATOM     11  C   UNL     1     131.050 136.167 144.920  1.00  0.00     0.008 C 
ENDBRANCH   5   9
TORSDOF 1
ENDMDL
MODEL 3
REMARK VINA RESULT:    -3.059     12.460     15.413
REMARK INTER + INTRA:          -3.420
REMARK INTER:                  -3.237
REMARK INTRA:                  -0.183
REMARK UNBOUND:                -0.182
REMARK SMILES CC(C)[C@H]1CC[C@@H](C)CC1=O
REMARK SMILES IDX 8 1 7 2 6 3 5 4 4 5 10 6 11 7 9 8 2 9 1 10 3 11
REMARK H PARENT
REMARK Flexibility Score: inf
ROOT
ATOM      1  C   UNL     1     138.762 144.798 144.862  1.00  0.00     0.008 C 
ATOM      2  C   UNL     1     138.203 145.487 143.607  1.00  0.00    -0.007 C 
ATOM      3  C   UNL     1     138.841 146.874 143.371  1.00  0.00     0.004 C 
ATOM      4  C   UNL     1     138.394 147.911 144.418  1.00  0.00     0.012 C 
ATOM      5  C   UNL     1     136.856 148.052 144.460  1.00  0.00     0.058 C 
ATOM      6  C   UNL     1     136.221 146.677 144.593  1.00  0.00     0.136 C 
ATOM      7  O   UNL     1     135.305 146.460 145.369  1.00  0.00    -0.299 OA
ATOM      8  C   UNL     1     136.667 145.586 143.656  1.00  0.00     0.079 C 
ENDROOT
BRANCH   5   9
ATOM      9  C   UNL     1     136.404 149.119 145.509  1.00  0.00    -0.007 C 
ATOM     10  C   UNL     1     137.372 149.200 146.700  1.00  0.00     0.008 C 
ATOM     11  C   UNL     1     136.150 150.520 144.923  1.00  0.00     0.008 C 
ENDBRANCH   5   9
TORSDOF 1
ENDMDL
MODEL 4
REMARK VINA RESULT:    -3.043      9.163     10.920
REMARK INTER + INTRA:          -3.404
REMARK INTER:                  -3.221
REMARK INTRA:                  -0.183
REMARK UNBOUND:                -0.182
REMARK SMILES CC(C)[C@H]1CC[C@@H](C)CC1=O
REMARK SMILES IDX 8 1 7 2 6 3 5 4 4 5 10 6 11 7 9 8 2 9 1 10 3 11
REMARK H PARENT
REMARK Flexibility Score: inf
ROOT
ATOM      1  C   UNL     1     144.800 142.858 144.865  1.00  0.00     0.008 C 
ATOM      2  C   UNL     1     145.490 143.411 143.607  1.00  0.00    -0.007 C 
ATOM      3  C   UNL     1     146.874 142.765 143.372  1.00  0.00     0.004 C 
ATOM      4  C   UNL     1     147.914 143.209 144.416  1.00  0.00     0.012 C 
ATOM      5  C   UNL     1     148.063 144.746 144.456  1.00  0.00     0.058 C 
ATOM      6  C   UNL     1     146.692 145.388 144.589  1.00  0.00     0.136 C 
ATOM      7  O   UNL     1     146.481 146.307 145.364  1.00  0.00    -0.299 OA
ATOM      8  C   UNL     1     145.598 144.947 143.654  1.00  0.00     0.079 C 
ENDROOT
BRANCH   5   9
ATOM      9  C   UNL     1     149.134 145.194 145.502  1.00  0.00    -0.007 C 
ATOM     10  C   UNL     1     149.189 144.246 146.710  1.00  0.00     0.008 C 
ATOM     11  C   UNL     1     150.543 145.410 144.919  1.00  0.00     0.008 C 
ENDBRANCH   5   9
TORSDOF 1
ENDMDL
MODEL 5
REMARK VINA RESULT:    -3.032      9.323     11.392
REMARK INTER + INTRA:          -3.392
REMARK INTER:                  -3.208
REMARK INTRA:                  -0.184
REMARK UNBOUND:                -0.182
REMARK SMILES CC(C)[C@H]1CC[C@@H](C)CC1=O
REMARK SMILES IDX 8 1 7 2 6 3 5 4 4 5 10 6 11 7 9 8 2 9 1 10 3 11
REMARK H PARENT
REMARK Flexibility Score: inf
ROOT
ATOM      1  C   UNL     1     135.886 136.031 145.219  1.00  0.00     0.008 C 
ATOM      2  C   UNL     1     135.314 136.714 143.966  1.00  0.00    -0.007 C 
ATOM      3  C   UNL     1     136.123 137.969 143.567  1.00  0.00     0.004 C 
ATOM      4  C   UNL     1     135.935 139.127 144.563  1.00  0.00     0.012 C 
ATOM      5  C   UNL     1     134.445 139.504 144.726  1.00  0.00     0.058 C 
ATOM      6  C   UNL     1     133.632 138.254 145.021  1.00  0.00     0.136 C 
ATOM      7  O   UNL     1     132.774 138.232 145.888  1.00  0.00    -0.299 OA
ATOM      8  C   UNL     1     133.821 137.049 144.139  1.00  0.00     0.079 C 
ENDROOT
BRANCH   5   9
ATOM      9  C   UNL     1     134.258 140.695 145.721  1.00  0.00    -0.007 C 
ATOM     10  C   UNL     1     135.292 140.662 146.857  1.00  0.00     0.008 C 
ATOM     11  C   UNL     1     134.230 142.084 145.056  1.00  0.00     0.008 C 
ENDBRANCH   5   9
TORSDOF 1
ENDMDL
MODEL 6
REMARK VINA RESULT:    -3.016     13.024     14.046
REMARK INTER + INTRA:          -3.375
REMARK INTER:                  -3.192
REMARK INTRA:                  -0.183
REMARK UNBOUND:                -0.182
REMARK SMILES CC(C)[C@H]1CC[C@@H](C)CC1=O
REMARK SMILES IDX 8 1 7 2 6 3 5 4 4 5 10 6 11 7 9 8 2 9 1 10 3 11
REMARK H PARENT
REMARK Flexibility Score: inf
ROOT
ATOM      1  C   UNL     1     135.989 145.742 145.201  1.00  0.00     0.008 C 
ATOM      2  C   UNL     1     136.685 146.308 143.953  1.00  0.00    -0.007 C 
ATOM      3  C   UNL     1     137.937 145.490 143.563  1.00  0.00     0.004 C 
ATOM      4  C   UNL     1     139.090 145.668 144.567  1.00  0.00     0.012 C 
ATOM      5  C   UNL     1     139.477 147.154 144.733  1.00  0.00     0.058 C 
ATOM      6  C   UNL     1     138.232 147.978 145.020  1.00  0.00     0.136 C 
ATOM      7  O   UNL     1     138.210 148.836 145.887  1.00  0.00    -0.299 OA
ATOM      8  C   UNL     1     137.032 147.799 144.129  1.00  0.00     0.079 C 
ENDROOT
BRANCH   5   9
ATOM      9  C   UNL     1     140.662 147.332 145.737  1.00  0.00    -0.007 C 
ATOM     10  C   UNL     1     140.646 146.261 146.839  1.00  0.00     0.008 C 
ATOM     11  C   UNL     1     142.051 147.407 145.077  1.00  0.00     0.008 C 
ENDBRANCH   5   9
TORSDOF 1
ENDMDL
MODEL 7
REMARK VINA RESULT:    -3.010      7.427      8.932
REMARK INTER + INTRA:          -3.368
REMARK INTER:                  -3.185
REMARK INTRA:                  -0.183
REMARK UNBOUND:                -0.182
REMARK SMILES CC(C)[C@H]1CC[C@@H](C)CC1=O
REMARK SMILES IDX 8 1 7 2 6 3 5 4 4 5 10 6 11 7 9 8 2 9 1 10 3 11
REMARK H PARENT
REMARK Flexibility Score: inf
ROOT
ATOM      1  C   UNL     1     145.755 145.602 145.231  1.00  0.00     0.008 C 
ATOM      2  C   UNL     1     146.302 144.901 143.978  1.00  0.00    -0.007 C 
ATOM      3  C   UNL     1     145.474 143.651 143.602  1.00  0.00     0.004 C 
ATOM      4  C   UNL     1     145.661 142.501 144.607  1.00  0.00     0.012 C 
ATOM      5  C   UNL     1     147.148 142.108 144.755  1.00  0.00     0.058 C 
ATOM      6  C   UNL     1     147.979 143.351 145.027  1.00  0.00     0.136 C 
ATOM      7  O   UNL     1     148.849 143.372 145.883  1.00  0.00    -0.299 OA
ATOM      8  C   UNL     1     147.793 144.549 144.136  1.00  0.00     0.079 C 
ENDROOT
BRANCH   5   9
ATOM      9  C   UNL     1     147.335 140.925 145.760  1.00  0.00    -0.007 C 
ATOM     10  C   UNL     1     146.283 140.953 146.880  1.00  0.00     0.008 C 
ATOM     11  C   UNL     1     147.388 139.533 145.103  1.00  0.00     0.008 C 
ENDBRANCH   5   9
TORSDOF 1
ENDMDL
MODEL 8
REMARK VINA RESULT:    -3.005      2.124      3.535
REMARK INTER + INTRA:          -3.364
REMARK INTER:                  -3.180
REMARK INTRA:                  -0.183
REMARK UNBOUND:                -0.182
REMARK SMILES CC(C)[C@H]1CC[C@@H](C)CC1=O
REMARK SMILES IDX 8 1 7 2 6 3 5 4 4 5 10 6 11 7 9 8 2 9 1 10 3 11
REMARK H PARENT
REMARK Flexibility Score: inf
ROOT
ATOM      1  C   UNL     1     145.585 135.866 145.245  1.00  0.00     0.008 C 
ATOM      2  C   UNL     1     144.903 135.304 143.987  1.00  0.00    -0.007 C 
ATOM      3  C   UNL     1     143.656 136.123 143.586  1.00  0.00     0.004 C 
ATOM      4  C   UNL     1     142.492 135.942 144.577  1.00  0.00     0.012 C 
ATOM      5  C   UNL     1     142.102 134.456 144.735  1.00  0.00     0.058 C 
ATOM      6  C   UNL     1     143.345 133.632 145.033  1.00  0.00     0.136 C 
ATOM      7  O   UNL     1     143.357 132.771 145.898  1.00  0.00    -0.299 OA
ATOM      8  C   UNL     1     144.554 133.813 144.156  1.00  0.00     0.079 C 
ENDROOT
BRANCH   5   9
ATOM      9  C   UNL     1     140.907 134.275 145.725  1.00  0.00    -0.007 C 
ATOM     10  C   UNL     1     140.926 135.327 146.846  1.00  0.00     0.008 C 
ATOM     11  C   UNL     1     139.523 134.229 145.051  1.00  0.00     0.008 C 
ENDBRANCH   5   9
TORSDOF 1
ENDMDL
MODEL 9
REMARK VINA RESULT:    -3.000     14.125     16.087
REMARK INTER + INTRA:          -3.358
REMARK INTER:                  -3.186
REMARK INTRA:                  -0.172
REMARK UNBOUND:                -0.182
REMARK SMILES CC(C)[C@H]1CC[C@@H](C)CC1=O
REMARK SMILES IDX 8 1 7 2 6 3 5 4 4 5 10 6 11 7 9 8 2 9 1 10 3 11
REMARK H PARENT
REMARK Flexibility Score: inf
ROOT
ATOM      1  C   UNL     1     139.232 147.459 145.982  1.00  0.00     0.008 C 
ATOM      2  C   UNL     1     139.066 147.831 144.500  1.00  0.00    -0.007 C 
ATOM      3  C   UNL     1     138.442 149.233 144.317  1.00  0.00     0.004 C 
ATOM      4  C   UNL     1     136.959 149.273 144.729  1.00  0.00     0.012 C 
ATOM      5  C   UNL     1     136.123 148.232 143.952  1.00  0.00     0.058 C 
ATOM      6  C   UNL     1     136.788 146.868 144.048  1.00  0.00     0.136 C 
ATOM      7  O   UNL     1     136.151 145.853 144.277  1.00  0.00    -0.299 OA
ATOM      8  C   UNL     1     138.258 146.763 143.739  1.00  0.00     0.079 C 
ENDROOT
BRANCH   5   9
ATOM      9  C   UNL     1     134.614 148.288 144.356  1.00  0.00    -0.007 C 
ATOM     10  C   UNL     1     134.431 148.433 145.875  1.00  0.00     0.008 C 
ATOM     11  C   UNL     1     133.793 149.355 143.608  1.00  0.00     0.008 C 
ENDBRANCH   5   9
TORSDOF 1
ENDMDL
