MODEL 1
REMARK VINA RESULT:    -3.692      0.000      0.000
REMARK INTER + INTRA:          -8.439
REMARK INTER:                  -6.497
REMARK INTRA:                  -1.942
REMARK UNBOUND:                -1.942
REMARK SMILES CCCCCCC=CCCCCCCCC(=O)[O-]
REMARK SMILES IDX 10 1 11 2 12 3 13 4 14 5 15 6 16 7 17 8 18 9 9 10 8 11 7 12
REMARK SMILES IDX 6 13 5 14 4 15 3 16 2 17 1 18
REMARK H PARENT
REMARK Flexibility Score: inf
ROOT
ATOM      1  C   UNL     1      17.339 -13.869  -0.940  1.00  0.00     0.004 C 
ENDROOT
BRANCH   1   2
ATOM      2  C   UNL     1      16.156 -14.356  -0.079  1.00  0.00     0.000 C 
BRANCH   2   3
ATOM      3  C   UNL     1      16.039 -15.884   0.067  1.00  0.00     0.000 C 
BRANCH   3   4
ATOM      4  C   UNL     1      17.342 -16.540   0.546  1.00  0.00     0.000 C 
BRANCH   4   5
ATOM      5  C   UNL     1      17.818 -17.605  -0.452  1.00  0.00     0.006 C 
BRANCH   5   6
ATOM      6  C   UNL     1      18.858 -18.552   0.161  1.00  0.00     0.053 C 
BRANCH   6   7
ATOM      7  C   UNL     1      19.760 -19.136  -0.882  1.00  0.00     0.041 C 
ATOM      8  O   UNL     1      19.295 -19.898  -1.770  1.00  0.00    -0.550 OA
ATOM      9  O   UNL     1      21.112 -18.811  -0.894  1.00  0.00    -0.550 OA
ENDBRANCH   6   7
ENDBRANCH   5   6
ENDBRANCH   4   5
ENDBRANCH   3   4
ENDBRANCH   2   3
ENDBRANCH   1   2
BRANCH   1  10
ATOM     10  C   UNL     1      17.281 -14.308  -2.414  1.00  0.00     0.027 C 
BRANCH  10  11
ATOM     11  C   UNL     1      15.998 -13.881  -3.084  1.00  0.00    -0.031 C 
ATOM     12  C   UNL     1      15.775 -12.664  -3.612  1.00  0.00    -0.031 C 
BRANCH  12  13
ATOM     13  C   UNL     1      16.808 -11.567  -3.712  1.00  0.00     0.027 C 
BRANCH  13  14
ATOM     14  C   UNL     1      16.410 -10.320  -2.903  1.00  0.00     0.004 C 
BRANCH  14  15
ATOM     15  C   UNL     1      16.846 -10.348  -1.424  1.00  0.00     0.000 C 
BRANCH  15  16
ATOM     16  C   UNL     1      15.700 -10.503  -0.408  1.00  0.00    -0.000 C 
BRANCH  16  17
ATOM     17  C   UNL     1      14.311 -10.444  -1.061  1.00  0.00    -0.003 C 
ATOM     18  C   UNL     1      13.541 -11.741  -0.833  1.00  0.00     0.004 C 
ENDBRANCH  16  17
ENDBRANCH  15  16
ENDBRANCH  14  15
ENDBRANCH  13  14
ENDBRANCH  12  13
ENDBRANCH  10  11
ENDBRANCH   1  10
TORSDOF 13
ENDMDL
MODEL 2
REMARK VINA RESULT:    -3.629      5.241      7.688
REMARK INTER + INTRA:          -8.329
REMARK INTER:                  -5.895
REMARK INTRA:                  -2.434
REMARK UNBOUND:                -1.942
REMARK SMILES CCCCCCC=CCCCCCCCC(=O)[O-]
REMARK SMILES IDX 10 1 11 2 12 3 13 4 14 5 15 6 16 7 17 8 18 9 9 10 8 11 7 12
REMARK SMILES IDX 6 13 5 14 4 15 3 16 2 17 1 18
REMARK H PARENT
REMARK Flexibility Score: inf
ROOT
ATOM      1  C   UNL     1      17.341 -13.017  -2.944  1.00  0.00     0.004 C 
ENDROOT
BRANCH   1   2
ATOM      2  C   UNL     1      16.830 -11.651  -3.446  1.00  0.00     0.000 C 
BRANCH   2   3
ATOM      3  C   UNL     1      16.798 -10.536  -2.386  1.00  0.00     0.000 C 
BRANCH   3   4
ATOM      4  C   UNL     1      15.678  -9.514  -2.626  1.00  0.00     0.000 C 
BRANCH   4   5
ATOM      5  C   UNL     1      14.919  -9.217  -1.324  1.00  0.00     0.006 C 
BRANCH   5   6
ATOM      6  C   UNL     1      13.480  -8.750  -1.584  1.00  0.00     0.053 C 
BRANCH   6   7
ATOM      7  C   UNL     1      13.444  -7.464  -2.350  1.00  0.00     0.041 C 
ATOM      8  O   UNL     1      12.988  -7.436  -3.524  1.00  0.00    -0.550 OA
ATOM      9  O   UNL     1      13.884  -6.287  -1.755  1.00  0.00    -0.550 OA
ENDBRANCH   6   7
ENDBRANCH   5   6
ENDBRANCH   4   5
ENDBRANCH   3   4
ENDBRANCH   2   3
ENDBRANCH   1   2
BRANCH   1  10
ATOM     10  C   UNL     1      17.770 -13.035  -1.466  1.00  0.00     0.027 C 
BRANCH  10  11
ATOM     11  C   UNL     1      17.099 -14.144  -0.693  1.00  0.00    -0.031 C 
ATOM     12  C   UNL     1      15.950 -14.014  -0.005  1.00  0.00    -0.031 C 
BRANCH  12  13
ATOM     13  C   UNL     1      15.096 -12.770   0.018  1.00  0.00     0.027 C 
BRANCH  13  14
ATOM     14  C   UNL     1      13.708 -13.006  -0.605  1.00  0.00     0.004 C 
BRANCH  14  15
ATOM     15  C   UNL     1      13.585 -12.570  -2.080  1.00  0.00     0.000 C 
BRANCH  15  16
ATOM     16  C   UNL     1      13.668 -13.714  -3.107  1.00  0.00    -0.000 C 
BRANCH  16  17
ATOM     17  C   UNL     1      13.552 -15.103  -2.464  1.00  0.00    -0.003 C 
ATOM     18  C   UNL     1      12.462 -15.931  -3.139  1.00  0.00     0.004 C 
ENDBRANCH  16  17
ENDBRANCH  15  16
ENDBRANCH  14  15
ENDBRANCH  13  14
ENDBRANCH  12  13
ENDBRANCH  10  11
ENDBRANCH   1  10
TORSDOF 13
ENDMDL
MODEL 3
REMARK VINA RESULT:    -3.601      5.161      7.295
REMARK INTER + INTRA:          -8.279
REMARK INTER:                  -5.589
REMARK INTRA:                  -2.690
REMARK UNBOUND:                -1.942
REMARK SMILES CCCCCCC=CCCCCCCCC(=O)[O-]
REMARK SMILES IDX 10 1 11 2 12 3 13 4 14 5 15 6 16 7 17 8 18 9 9 10 8 11 7 12
REMARK SMILES IDX 6 13 5 14 4 15 3 16 2 17 1 18
REMARK H PARENT
REMARK Flexibility Score: inf
ROOT
ATOM      1  C   UNL     1      16.807 -12.639   0.577  1.00  0.00     0.004 C 
ENDROOT
BRANCH   1   2
ATOM      2  C   UNL     1      16.217 -11.250   0.261  1.00  0.00     0.000 C 
BRANCH   2   3
ATOM      3  C   UNL     1      16.850 -10.531  -0.945  1.00  0.00     0.000 C 
BRANCH   3   4
ATOM      4  C   UNL     1      15.851  -9.649  -1.707  1.00  0.00     0.000 C 
BRANCH   4   5
ATOM      5  C   UNL     1      14.769  -9.104  -0.763  1.00  0.00     0.006 C 
BRANCH   5   6
ATOM      6  C   UNL     1      13.465  -8.773  -1.503  1.00  0.00     0.053 C 
BRANCH   6   7
ATOM      7  C   UNL     1      13.577  -7.498  -2.280  1.00  0.00     0.041 C 
ATOM      8  O   UNL     1      13.927  -6.433  -1.707  1.00  0.00    -0.550 OA
ATOM      9  O   UNL     1      13.327  -7.494  -3.648  1.00  0.00    -0.550 OA
ENDBRANCH   6   7
ENDBRANCH   5   6
ENDBRANCH   4   5
ENDBRANCH   3   4
ENDBRANCH   2   3
ENDBRANCH   1   2
BRANCH   1  10
ATOM     10  C   UNL     1      17.863 -13.130  -0.429  1.00  0.00     0.027 C 
BRANCH  10  11
ATOM     11  C   UNL     1      17.404 -14.353  -1.184  1.00  0.00    -0.031 C 
ATOM     12  C   UNL     1      16.980 -14.354  -2.461  1.00  0.00    -0.031 C 
BRANCH  12  13
ATOM     13  C   UNL     1      16.994 -13.151  -3.373  1.00  0.00     0.027 C 
BRANCH  13  14
ATOM     14  C   UNL     1      15.587 -12.791  -3.882  1.00  0.00     0.004 C 
BRANCH  14  15
ATOM     15  C   UNL     1      14.434 -13.445  -3.094  1.00  0.00     0.000 C 
BRANCH  15  16
ATOM     16  C   UNL     1      13.652 -12.493  -2.171  1.00  0.00    -0.000 C 
BRANCH  16  17
ATOM     17  C   UNL     1      13.284 -13.134  -0.825  1.00  0.00    -0.003 C 
ATOM     18  C   UNL     1      12.321 -12.249  -0.040  1.00  0.00     0.004 C 
ENDBRANCH  16  17
ENDBRANCH  15  16
ENDBRANCH  14  15
ENDBRANCH  13  14
ENDBRANCH  12  13
ENDBRANCH  10  11
ENDBRANCH   1  10
TORSDOF 13
ENDMDL
MODEL 4
REMARK VINA RESULT:    -3.591      1.765      3.775
REMARK INTER + INTRA:          -8.262
REMARK INTER:                  -5.842
REMARK INTRA:                  -2.420
REMARK UNBOUND:                -1.942
REMARK SMILES CCCCCCC=CCCCCCCCC(=O)[O-]
REMARK SMILES IDX 10 1 11 2 12 3 13 4 14 5 15 6 16 7 17 8 18 9 9 10 8 11 7 12
REMARK SMILES IDX 6 13 5 14 4 15 3 16 2 17 1 18
REMARK H PARENT
REMARK Flexibility Score: inf
ROOT
ATOM      1  C   UNL     1      16.711 -11.576  -3.535  1.00  0.00     0.004 C 
ENDROOT
BRANCH   1   2
ATOM      2  C   UNL     1      17.177 -12.899  -2.893  1.00  0.00     0.000 C 
BRANCH   2   3
ATOM      3  C   UNL     1      17.824 -12.757  -1.504  1.00  0.00     0.000 C 
BRANCH   3   4
ATOM      4  C   UNL     1      17.506 -13.936  -0.573  1.00  0.00     0.000 C 
BRANCH   4   5
ATOM      5  C   UNL     1      17.126 -15.186  -1.382  1.00  0.00     0.006 C 
BRANCH   5   6
ATOM      6  C   UNL     1      16.586 -16.312  -0.491  1.00  0.00     0.053 C 
BRANCH   6   7
ATOM      7  C   UNL     1      17.623 -17.361  -0.232  1.00  0.00     0.041 C 
ATOM      8  O   UNL     1      18.340 -17.304   0.802  1.00  0.00    -0.550 OA
ATOM      9  O   UNL     1      17.775 -18.422  -1.118  1.00  0.00    -0.550 OA
ENDBRANCH   6   7
ENDBRANCH   5   6
ENDBRANCH   4   5
ENDBRANCH   3   4
ENDBRANCH   2   3
ENDBRANCH   1   2
BRANCH   1  10
ATOM     10  C   UNL     1      16.757 -10.358  -2.596  1.00  0.00     0.027 C 
BRANCH  10  11
ATOM     11  C   UNL     1      15.405  -9.705  -2.444  1.00  0.00    -0.031 C 
ATOM     12  C   UNL     1      14.481 -10.056  -1.531  1.00  0.00    -0.031 C 
BRANCH  12  13
ATOM     13  C   UNL     1      14.689 -11.087  -0.448  1.00  0.00     0.027 C 
BRANCH  13  14
ATOM     14  C   UNL     1      14.086 -12.452  -0.821  1.00  0.00     0.004 C 
BRANCH  14  15
ATOM     15  C   UNL     1      13.062 -12.406  -1.974  1.00  0.00     0.000 C 
BRANCH  15  16
ATOM     16  C   UNL     1      13.372 -13.337  -3.160  1.00  0.00    -0.000 C 
BRANCH  16  17
ATOM     17  C   UNL     1      13.911 -14.706  -2.720  1.00  0.00    -0.003 C 
ATOM     18  C   UNL     1      12.815 -15.766  -2.759  1.00  0.00     0.004 C 
ENDBRANCH  16  17
ENDBRANCH  15  16
ENDBRANCH  14  15
ENDBRANCH  13  14
ENDBRANCH  12  13
ENDBRANCH  10  11
ENDBRANCH   1  10
TORSDOF 13
ENDMDL
MODEL 5
REMARK VINA RESULT:    -3.590      5.359      8.044
REMARK INTER + INTRA:          -8.261
REMARK INTER:                  -6.302
REMARK INTRA:                  -1.959
REMARK UNBOUND:                -1.942
REMARK SMILES CCCCCCC=CCCCCCCCC(=O)[O-]
REMARK SMILES IDX 10 1 11 2 12 3 13 4 14 5 15 6 16 7 17 8 18 9 9 10 8 11 7 12
REMARK SMILES IDX 6 13 5 14 4 15 3 16 2 17 1 18
REMARK H PARENT
REMARK Flexibility Score: inf
ROOT
ATOM      1  C   UNL     1      17.013 -11.643  -3.764  1.00  0.00     0.004 C 
ENDROOT
BRANCH   1   2
ATOM      2  C   UNL     1      16.731 -10.575  -2.688  1.00  0.00     0.000 C 
BRANCH   2   3
ATOM      3  C   UNL     1      15.255 -10.443  -2.270  1.00  0.00     0.000 C 
BRANCH   3   4
ATOM      4  C   UNL     1      14.957  -9.130  -1.532  1.00  0.00     0.000 C 
BRANCH   4   5
ATOM      5  C   UNL     1      14.162  -8.167  -2.426  1.00  0.00     0.006 C 
BRANCH   5   6
ATOM      6  C   UNL     1      12.748  -7.909  -1.888  1.00  0.00     0.053 C 
BRANCH   6   7
ATOM      7  C   UNL     1      11.791  -7.563  -2.987  1.00  0.00     0.041 C 
ATOM      8  O   UNL     1      11.163  -8.472  -3.591  1.00  0.00    -0.550 OA
ATOM      9  O   UNL     1      11.567  -6.233  -3.321  1.00  0.00    -0.550 OA
ENDBRANCH   6   7
ENDBRANCH   5   6
ENDBRANCH   4   5
ENDBRANCH   3   4
ENDBRANCH   2   3
ENDBRANCH   1   2
BRANCH   1  10
ATOM     10  C   UNL     1      16.135 -12.903  -3.661  1.00  0.00     0.027 C 
BRANCH  10  11
ATOM     11  C   UNL     1      16.879 -14.066  -3.052  1.00  0.00    -0.031 C 
ATOM     12  C   UNL     1      16.782 -14.452  -1.767  1.00  0.00    -0.031 C 
BRANCH  12  13
ATOM     13  C   UNL     1      15.837 -13.849  -0.756  1.00  0.00     0.027 C 
BRANCH  13  14
ATOM     14  C   UNL     1      16.557 -12.908   0.225  1.00  0.00     0.004 C 
BRANCH  14  15
ATOM     15  C   UNL     1      18.075 -12.770  -0.017  1.00  0.00     0.000 C 
BRANCH  15  16
ATOM     16  C   UNL     1      18.731 -11.542   0.639  1.00  0.00    -0.000 C 
BRANCH  16  17
ATOM     17  C   UNL     1      17.742 -10.393   0.880  1.00  0.00    -0.003 C 
ATOM     18  C   UNL     1      18.258  -9.089   0.280  1.00  0.00     0.004 C 
ENDBRANCH  16  17
ENDBRANCH  15  16
ENDBRANCH  14  15
ENDBRANCH  13  14
ENDBRANCH  12  13
ENDBRANCH  10  11
ENDBRANCH   1  10
TORSDOF 13
ENDMDL
MODEL 6
REMARK VINA RESULT:    -3.572      5.073      7.342
REMARK INTER + INTRA:          -8.229
REMARK INTER:                  -5.507
REMARK INTRA:                  -2.721
REMARK UNBOUND:                -1.942
REMARK SMILES CCCCCCC=CCCCCCCCC(=O)[O-]
REMARK SMILES IDX 10 1 11 2 12 3 13 4 14 5 15 6 16 7 17 8 18 9 9 10 8 11 7 12
REMARK SMILES IDX 6 13 5 14 4 15 3 16 2 17 1 18
REMARK H PARENT
REMARK Flexibility Score: inf
ROOT
ATOM      1  C   UNL     1      15.707 -13.521  -3.390  1.00  0.00     0.004 C 
ENDROOT
BRANCH   1   2
ATOM      2  C   UNL     1      15.407 -12.036  -3.102  1.00  0.00     0.000 C 
BRANCH   2   3
ATOM      3  C   UNL     1      16.632 -11.104  -3.139  1.00  0.00     0.000 C 
BRANCH   3   4
ATOM      4  C   UNL     1      16.382  -9.760  -2.441  1.00  0.00     0.000 C 
BRANCH   4   5
ATOM      5  C   UNL     1      14.912  -9.628  -2.016  1.00  0.00     0.006 C 
BRANCH   5   6
ATOM      6  C   UNL     1      14.666  -8.381  -1.156  1.00  0.00     0.053 C 
BRANCH   6   7
ATOM      7  C   UNL     1      14.055  -7.269  -1.952  1.00  0.00     0.041 C 
ATOM      8  O   UNL     1      13.476  -7.514  -3.044  1.00  0.00    -0.550 OA
ATOM      9  O   UNL     1      14.096  -5.966  -1.472  1.00  0.00    -0.550 OA
ENDBRANCH   6   7
ENDBRANCH   5   6
ENDBRANCH   4   5
ENDBRANCH   3   4
ENDBRANCH   2   3
ENDBRANCH   1   2
BRANCH   1  10
ATOM     10  C   UNL     1      17.109 -13.985  -2.958  1.00  0.00     0.027 C 
BRANCH  10  11
ATOM     11  C   UNL     1      17.082 -14.735  -1.649  1.00  0.00    -0.031 C 
ATOM     12  C   UNL     1      17.482 -14.231  -0.467  1.00  0.00    -0.031 C 
BRANCH  12  13
ATOM     13  C   UNL     1      17.922 -12.805  -0.244  1.00  0.00     0.027 C 
BRANCH  13  14
ATOM     14  C   UNL     1      16.872 -11.987   0.530  1.00  0.00     0.004 C 
BRANCH  14  15
ATOM     15  C   UNL     1      15.584 -12.761   0.875  1.00  0.00     0.000 C 
BRANCH  15  16
ATOM     16  C   UNL     1      14.272 -12.018   0.563  1.00  0.00    -0.000 C 
BRANCH  16  17
ATOM     17  C   UNL     1      13.287 -12.862  -0.256  1.00  0.00    -0.003 C 
ATOM     18  C   UNL     1      13.683 -14.336  -0.243  1.00  0.00     0.004 C 
ENDBRANCH  16  17
ENDBRANCH  15  16
ENDBRANCH  14  15
ENDBRANCH  13  14
ENDBRANCH  12  13
ENDBRANCH  10  11
ENDBRANCH   1  10
TORSDOF 13
ENDMDL
MODEL 7
REMARK VINA RESULT:    -3.535      5.861      8.551
REMARK INTER + INTRA:          -8.163
REMARK INTER:                  -6.300
REMARK INTRA:                  -1.863
REMARK UNBOUND:                -1.942
REMARK SMILES CCCCCCC=CCCCCCCCC(=O)[O-]
REMARK SMILES IDX 10 1 11 2 12 3 13 4 14 5 15 6 16 7 17 8 18 9 9 10 8 11 7 12
REMARK SMILES IDX 6 13 5 14 4 15 3 16 2 17 1 18
REMARK H PARENT
REMARK Flexibility Score: inf
ROOT
ATOM      1  C   UNL     1      16.544 -10.046  -0.350  1.00  0.00     0.004 C 
ENDROOT
BRANCH   1   2
ATOM      2  C   UNL     1      16.750  -9.819  -1.861  1.00  0.00     0.000 C 
BRANCH   2   3
ATOM      3  C   UNL     1      15.486  -9.412  -2.639  1.00  0.00     0.000 C 
BRANCH   3   4
ATOM      4  C   UNL     1      14.512  -8.572  -1.800  1.00  0.00     0.000 C 
BRANCH   4   5
ATOM      5  C   UNL     1      13.546  -7.789  -2.702  1.00  0.00     0.006 C 
BRANCH   5   6
ATOM      6  C   UNL     1      12.142  -7.681  -2.093  1.00  0.00     0.053 C 
BRANCH   6   7
ATOM      7  C   UNL     1      11.242  -6.819  -2.924  1.00  0.00     0.041 C 
ATOM      8  O   UNL     1      10.218  -7.311  -3.469  1.00  0.00    -0.550 OA
ATOM      9  O   UNL     1      11.515  -5.464  -3.069  1.00  0.00    -0.550 OA
ENDBRANCH   6   7
ENDBRANCH   5   6
ENDBRANCH   4   5
ENDBRANCH   3   4
ENDBRANCH   2   3
ENDBRANCH   1   2
BRANCH   1  10
ATOM     10  C   UNL     1      16.271 -11.508   0.046  1.00  0.00     0.027 C 
BRANCH  10  11
ATOM     11  C   UNL     1      17.545 -12.299   0.214  1.00  0.00    -0.031 C 
ATOM     12  C   UNL     1      18.088 -13.090  -0.729  1.00  0.00    -0.031 C 
BRANCH  12  13
ATOM     13  C   UNL     1      17.567 -13.231  -2.139  1.00  0.00     0.027 C 
BRANCH  13  14
ATOM     14  C   UNL     1      16.869 -14.583  -2.368  1.00  0.00     0.004 C 
BRANCH  14  15
ATOM     15  C   UNL     1      15.366 -14.481  -2.701  1.00  0.00     0.000 C 
BRANCH  15  16
ATOM     16  C   UNL     1      14.886 -13.081  -3.124  1.00  0.00    -0.000 C 
BRANCH  16  17
ATOM     17  C   UNL     1      13.645 -12.616  -2.350  1.00  0.00    -0.003 C 
ATOM     18  C   UNL     1      13.399 -13.495  -1.127  1.00  0.00     0.004 C 
ENDBRANCH  16  17
ENDBRANCH  15  16
ENDBRANCH  14  15
ENDBRANCH  13  14
ENDBRANCH  12  13
ENDBRANCH  10  11
ENDBRANCH   1  10
TORSDOF 13
ENDMDL
MODEL 8
REMARK VINA RESULT:    -3.532      4.586      6.263
REMARK INTER + INTRA:          -8.157
REMARK INTER:                  -6.058
REMARK INTRA:                  -2.099
REMARK UNBOUND:                -1.942
REMARK SMILES CCCCCCC=CCCCCCCCC(=O)[O-]
REMARK SMILES IDX 10 1 11 2 12 3 13 4 14 5 15 6 16 7 17 8 18 9 9 10 8 11 7 12
REMARK SMILES IDX 6 13 5 14 4 15 3 16 2 17 1 18
REMARK H PARENT
REMARK Flexibility Score: inf
ROOT
ATOM      1  C   UNL     1      14.102 -12.794  -2.165  1.00  0.00     0.004 C 
ENDROOT
BRANCH   1   2
ATOM      2  C   UNL     1      13.386 -13.948  -1.434  1.00  0.00     0.000 C 
BRANCH   2   3
ATOM      3  C   UNL     1      13.733 -15.359  -1.944  1.00  0.00     0.000 C 
BRANCH   3   4
ATOM      4  C   UNL     1      12.544 -16.062  -2.614  1.00  0.00     0.000 C 
BRANCH   4   5
ATOM      5  C   UNL     1      11.246 -15.271  -2.395  1.00  0.00     0.006 C 
BRANCH   5   6
ATOM      6  C   UNL     1      10.316 -15.333  -3.614  1.00  0.00     0.053 C 
BRANCH   6   7
ATOM      7  C   UNL     1      10.485 -14.138  -4.502  1.00  0.00     0.041 C 
ATOM      8  O   UNL     1      11.128 -13.133  -4.098  1.00  0.00    -0.550 OA
ATOM      9  O   UNL     1       9.961 -14.149  -5.789  1.00  0.00    -0.550 OA
ENDBRANCH   6   7
ENDBRANCH   5   6
ENDBRANCH   4   5
ENDBRANCH   3   4
ENDBRANCH   2   3
ENDBRANCH   1   2
BRANCH   1  10
ATOM     10  C   UNL     1      14.587 -13.139  -3.584  1.00  0.00     0.027 C 
BRANCH  10  11
ATOM     11  C   UNL     1      15.992 -12.651  -3.840  1.00  0.00    -0.031 C 
ATOM     12  C   UNL     1      17.104 -13.215  -3.334  1.00  0.00    -0.031 C 
BRANCH  12  13
ATOM     13  C   UNL     1      17.131 -14.483  -2.517  1.00  0.00     0.027 C 
BRANCH  13  14
ATOM     14  C   UNL     1      17.388 -14.208  -1.025  1.00  0.00     0.004 C 
BRANCH  14  15
ATOM     15  C   UNL     1      17.924 -12.795  -0.717  1.00  0.00     0.000 C 
BRANCH  15  16
ATOM     16  C   UNL     1      16.936 -11.867   0.014  1.00  0.00    -0.000 C 
BRANCH  16  17
ATOM     17  C   UNL     1      17.227 -10.379  -0.223  1.00  0.00    -0.003 C 
ATOM     18  C   UNL     1      16.718  -9.930  -1.589  1.00  0.00     0.004 C 
ENDBRANCH  16  17
ENDBRANCH  15  16
ENDBRANCH  14  15
ENDBRANCH  13  14
ENDBRANCH  12  13
ENDBRANCH  10  11
ENDBRANCH   1  10
TORSDOF 13
ENDMDL
MODEL 9
REMARK VINA RESULT:    -3.484      4.070      5.973
REMARK INTER + INTRA:          -8.074
REMARK INTER:                  -5.552
REMARK INTRA:                  -2.522
REMARK UNBOUND:                -1.942
REMARK SMILES CCCCCCC=CCCCCCCCC(=O)[O-]
REMARK SMILES IDX 10 1 11 2 12 3 13 4 14 5 15 6 16 7 17 8 18 9 9 10 8 11 7 12
REMARK SMILES IDX 6 13 5 14 4 15 3 16 2 17 1 18
REMARK H PARENT
REMARK Flexibility Score: inf
ROOT
ATOM      1  C   UNL     1      15.461 -10.145  -0.700  1.00  0.00     0.004 C 
ENDROOT
BRANCH   1   2
ATOM      2  C   UNL     1      14.348 -11.015  -0.081  1.00  0.00     0.000 C 
BRANCH   2   3
ATOM      3  C   UNL     1      13.631 -11.957  -1.065  1.00  0.00     0.000 C 
BRANCH   3   4
ATOM      4  C   UNL     1      13.612 -13.416  -0.591  1.00  0.00     0.000 C 
BRANCH   4   5
ATOM      5  C   UNL     1      12.791 -14.293  -1.548  1.00  0.00     0.006 C 
BRANCH   5   6
ATOM      6  C   UNL     1      12.746 -13.717  -2.970  1.00  0.00     0.053 C 
BRANCH   6   7
ATOM      7  C   UNL     1      11.628 -14.307  -3.772  1.00  0.00     0.041 C 
ATOM      8  O   UNL     1      10.904 -13.569  -4.492  1.00  0.00    -0.550 OA
ATOM      9  O   UNL     1      11.406 -15.679  -3.752  1.00  0.00    -0.550 OA
ENDBRANCH   6   7
ENDBRANCH   5   6
ENDBRANCH   4   5
ENDBRANCH   3   4
ENDBRANCH   2   3
ENDBRANCH   1   2
BRANCH   1  10
ATOM     10  C   UNL     1      15.384 -10.004  -2.231  1.00  0.00     0.027 C 
BRANCH  10  11
ATOM     11  C   UNL     1      16.718 -10.251  -2.892  1.00  0.00    -0.031 C 
ATOM     12  C   UNL     1      17.059 -11.385  -3.532  1.00  0.00    -0.031 C 
BRANCH  12  13
ATOM     13  C   UNL     1      16.129 -12.548  -3.779  1.00  0.00     0.027 C 
BRANCH  13  14
ATOM     14  C   UNL     1      16.453 -13.752  -2.877  1.00  0.00     0.004 C 
BRANCH  14  15
ATOM     15  C   UNL     1      17.569 -13.498  -1.843  1.00  0.00     0.000 C 
BRANCH  15  16
ATOM     16  C   UNL     1      17.153 -13.691  -0.374  1.00  0.00    -0.000 C 
BRANCH  16  17
ATOM     17  C   UNL     1      18.206 -13.175   0.617  1.00  0.00    -0.003 C 
ATOM     18  C   UNL     1      18.527 -11.705   0.361  1.00  0.00     0.004 C 
ENDBRANCH  16  17
ENDBRANCH  15  16
ENDBRANCH  14  15
ENDBRANCH  13  14
ENDBRANCH  12  13
ENDBRANCH  10  11
ENDBRANCH   1  10
TORSDOF 13
ENDMDL
