MODEL 1
REMARK VINA RESULT:    -7.964      0.000      0.000
REMARK INTER + INTRA:         -12.566
REMARK INTER:                 -11.688
REMARK INTRA:                  -0.878
REMARK UNBOUND:                -0.878
REMARK SMILES O=c1c(O[C@H]2O[C@H](CO)[C@H](O)[C@@H](O)[C@@H]2O)c(-c2ccc(O)c(O)c2)oc2cc(O)cc(O)c12
REMARK SMILES IDX 4 1 3 2 16 3 25 4 2 5 26 6 1 7 33 8 27 9 31 10 28 11 30 12
REMARK SMILES IDX 17 13 18 14 19 15 20 16 24 17 22 18 21 19 23 21 32 23 29 25
REMARK SMILES IDX 5 27 14 28 6 29 12 30 7 31 10 32 15 33 13 35 8 37 9 38 11 40
REMARK H PARENT 21 20 23 22 32 24 29 26 15 34 13 36 9 39 11 41
REMARK Flexibility Score: inf
ROOT
ATOM      1  O   UNL     1     -22.722  58.807  31.885  1.00  0.00    -0.454 OA
ENDROOT
BRANCH   1   2
ATOM      2  C   UNL     1     -23.612  59.442  32.776  1.00  0.00     0.214 A 
ATOM      3  C   UNL     1     -23.090  60.015  33.953  1.00  0.00     0.180 A 
ATOM      4  O   UNL     1     -23.889  60.671  34.787  1.00  0.00    -0.452 OA
ATOM      5  C   UNL     1     -24.991  59.602  32.511  1.00  0.00     0.239 A 
ATOM      6  C   UNL     1     -25.197  60.793  34.603  1.00  0.00     0.146 A 
ATOM      7  O   UNL     1     -25.452  59.272  31.390  1.00  0.00    -0.285 OA
ATOM      8  C   UNL     1     -25.825  60.213  33.474  1.00  0.00     0.111 A 
ATOM      9  C   UNL     1     -25.942  61.514  35.538  1.00  0.00     0.094 A 
ATOM     10  C   UNL     1     -27.242  60.325  33.350  1.00  0.00     0.134 A 
ATOM     11  C   UNL     1     -27.319  61.675  35.374  1.00  0.00     0.123 A 
ATOM     12  C   UNL     1     -27.960  61.085  34.283  1.00  0.00     0.093 A 
BRANCH   3  13
ATOM     13  C   UNL     1     -21.648  59.948  34.287  1.00  0.00     0.025 A 
ATOM     14  C   UNL     1     -21.121  58.771  34.841  1.00  0.00     0.016 A 
ATOM     15  C   UNL     1     -19.767  58.688  35.172  1.00  0.00     0.051 A 
ATOM     16  C   UNL     1     -18.916  59.778  34.942  1.00  0.00     0.157 A 
ATOM     17  C   UNL     1     -20.784  61.024  34.024  1.00  0.00     0.062 A 
ATOM     18  C   UNL     1     -19.428  60.949  34.361  1.00  0.00     0.158 A 
BRANCH  16  19
ATOM     19  O   UNL     1     -17.569  59.700  35.285  1.00  0.00    -0.504 OA
ATOM     20  H   UNL     1     -17.109  60.442  35.796  1.00  0.00     0.293 HD
ENDBRANCH  16  19
BRANCH  18  21
ATOM     21  O   UNL     1     -18.608  62.046  34.107  1.00  0.00    -0.504 OA
ATOM     22  H   UNL     1     -17.721  61.954  33.628  1.00  0.00     0.293 HD
ENDBRANCH  18  21
ENDBRANCH   3  13
BRANCH  10  23
ATOM     23  O   UNL     1     -27.984  59.677  32.358  1.00  0.00    -0.507 OA
ATOM     24  H   UNL     1     -28.688  60.127  31.793  1.00  0.00     0.293 HD
ENDBRANCH  10  23
BRANCH  11  25
ATOM     25  O   UNL     1     -28.042  62.413  36.309  1.00  0.00    -0.508 OA
ATOM     26  H   UNL     1     -28.574  61.959  37.046  1.00  0.00     0.293 HD
ENDBRANCH  11  25
ENDBRANCH   1   2
BRANCH   1  27
ATOM     27  C   UNL     1     -22.206  59.315  30.649  1.00  0.00     0.339 C 
ATOM     28  C   UNL     1     -20.846  60.047  30.882  1.00  0.00     0.214 C 
ATOM     29  O   UNL     1     -23.233  60.104  30.048  1.00  0.00    -0.332 OA
ATOM     30  C   UNL     1     -20.426  60.856  29.638  1.00  0.00     0.180 C 
ATOM     31  C   UNL     1     -22.905  61.473  29.895  1.00  0.00     0.179 C 
ATOM     32  C   UNL     1     -21.632  61.624  29.021  1.00  0.00     0.177 C 
BRANCH  28  33
ATOM     33  O   UNL     1     -19.831  59.150  31.257  1.00  0.00    -0.384 OA
ATOM     34  H   UNL     1     -19.114  59.200  30.575  1.00  0.00     0.211 HD
ENDBRANCH  28  33
BRANCH  30  35
ATOM     35  O   UNL     1     -19.411  61.757  30.004  1.00  0.00    -0.387 OA
ATOM     36  H   UNL     1     -19.328  62.415  29.259  1.00  0.00     0.211 HD
ENDBRANCH  30  35
BRANCH  31  37
ATOM     37  C   UNL     1     -24.103  62.204  29.277  1.00  0.00     0.191 C 
BRANCH  37  38
ATOM     38  O   UNL     1     -25.294  61.791  29.894  1.00  0.00    -0.394 OA
ATOM     39  H   UNL     1     -25.946  62.531  29.764  1.00  0.00     0.210 HD
ENDBRANCH  37  38
ENDBRANCH  31  37
BRANCH  32  40
ATOM     40  O   UNL     1     -21.876  61.177  27.704  1.00  0.00    -0.387 OA
ATOM     41  H   UNL     1     -21.514  61.863  27.081  1.00  0.00     0.211 HD
ENDBRANCH  32  40
ENDBRANCH   1  27
TORSDOF 12
ENDMDL
MODEL 2
REMARK VINA RESULT:    -7.568      2.022      5.167
REMARK INTER + INTRA:         -11.986
REMARK INTER:                 -10.628
REMARK INTRA:                  -1.358
REMARK UNBOUND:                -0.878
REMARK SMILES O=c1c(O[C@H]2O[C@H](CO)[C@H](O)[C@@H](O)[C@@H]2O)c(-c2ccc(O)c(O)c2)oc2cc(O)cc(O)c12
REMARK SMILES IDX 4 1 3 2 16 3 25 4 2 5 26 6 1 7 33 8 27 9 31 10 28 11 30 12
REMARK SMILES IDX 17 13 18 14 19 15 20 16 24 17 22 18 21 19 23 21 32 23 29 25
REMARK SMILES IDX 5 27 14 28 6 29 12 30 7 31 10 32 15 33 13 35 8 37 9 38 11 40
REMARK H PARENT 21 20 23 22 32 24 29 26 15 34 13 36 9 39 11 41
REMARK Flexibility Score: inf
ROOT
ATOM      1  O   UNL     1     -21.895  58.554  31.659  1.00  0.00    -0.454 OA
ENDROOT
BRANCH   1   2
ATOM      2  C   UNL     1     -23.012  59.362  31.955  1.00  0.00     0.214 A 
ATOM      3  C   UNL     1     -23.734  59.928  30.885  1.00  0.00     0.180 A 
ATOM      4  O   UNL     1     -24.825  60.647  31.122  1.00  0.00    -0.452 OA
ATOM      5  C   UNL     1     -23.493  59.571  33.267  1.00  0.00     0.239 A 
ATOM      6  C   UNL     1     -25.275  60.913  32.341  1.00  0.00     0.146 A 
ATOM      7  O   UNL     1     -22.989  58.931  34.223  1.00  0.00    -0.285 OA
ATOM      8  C   UNL     1     -24.594  60.429  33.485  1.00  0.00     0.111 A 
ATOM      9  C   UNL     1     -26.440  61.672  32.476  1.00  0.00     0.094 A 
ATOM     10  C   UNL     1     -25.086  60.789  34.774  1.00  0.00     0.134 A 
ATOM     11  C   UNL     1     -26.951  61.963  33.741  1.00  0.00     0.123 A 
ATOM     12  C   UNL     1     -26.277  61.519  34.881  1.00  0.00     0.093 A 
BRANCH   3  13
ATOM     13  C   UNL     1     -23.340  59.717  29.472  1.00  0.00     0.025 A 
ATOM     14  C   UNL     1     -23.649  58.500  28.843  1.00  0.00     0.016 A 
ATOM     15  C   UNL     1     -23.280  58.275  27.515  1.00  0.00     0.051 A 
ATOM     16  C   UNL     1     -22.606  59.269  26.792  1.00  0.00     0.157 A 
ATOM     17  C   UNL     1     -22.697  60.723  28.732  1.00  0.00     0.062 A 
ATOM     18  C   UNL     1     -22.318  60.499  27.403  1.00  0.00     0.158 A 
BRANCH  16  19
ATOM     19  O   UNL     1     -22.225  59.038  25.472  1.00  0.00    -0.504 OA
ATOM     20  H   UNL     1     -21.321  59.330  25.124  1.00  0.00     0.293 HD
ENDBRANCH  16  19
BRANCH  18  21
ATOM     21  O   UNL     1     -21.661  61.513  26.710  1.00  0.00    -0.504 OA
ATOM     22  H   UNL     1     -21.227  62.294  27.185  1.00  0.00     0.293 HD
ENDBRANCH  18  21
ENDBRANCH   3  13
BRANCH  10  23
ATOM     23  O   UNL     1     -24.420  60.488  35.966  1.00  0.00    -0.507 OA
ATOM     24  H   UNL     1     -23.663  59.825  36.040  1.00  0.00     0.293 HD
ENDBRANCH  10  23
BRANCH  11  25
ATOM     25  O   UNL     1     -28.125  62.706  33.855  1.00  0.00    -0.508 OA
ATOM     26  H   UNL     1     -28.104  63.716  33.969  1.00  0.00     0.293 HD
ENDBRANCH  11  25
ENDBRANCH   1   2
BRANCH   1  27
ATOM     27  C   UNL     1     -20.535  58.968  31.478  1.00  0.00     0.339 C 
ATOM     28  C   UNL     1     -19.554  57.835  31.917  1.00  0.00     0.214 C 
ATOM     29  O   UNL     1     -20.375  60.216  32.155  1.00  0.00    -0.332 OA
ATOM     30  C   UNL     1     -18.106  58.358  32.020  1.00  0.00     0.180 C 
ATOM     31  C   UNL     1     -19.447  60.185  33.225  1.00  0.00     0.179 C 
ATOM     32  C   UNL     1     -18.049  59.752  32.710  1.00  0.00     0.177 C 
BRANCH  28  33
ATOM     33  O   UNL     1     -19.622  56.728  31.054  1.00  0.00    -0.384 OA
ATOM     34  H   UNL     1     -19.150  55.973  31.491  1.00  0.00     0.211 HD
ENDBRANCH  28  33
BRANCH  30  35
ATOM     35  O   UNL     1     -17.337  57.426  32.739  1.00  0.00    -0.387 OA
ATOM     36  H   UNL     1     -17.964  56.716  33.051  1.00  0.00     0.211 HD
ENDBRANCH  30  35
BRANCH  31  37
ATOM     37  C   UNL     1     -19.403  61.571  33.881  1.00  0.00     0.191 C 
BRANCH  37  38
ATOM     38  O   UNL     1     -18.353  61.633  34.811  1.00  0.00    -0.394 OA
ATOM     39  H   UNL     1     -17.539  61.322  34.332  1.00  0.00     0.210 HD
ENDBRANCH  37  38
ENDBRANCH  31  37
BRANCH  32  40
ATOM     40  O   UNL     1     -17.524  60.717  31.824  1.00  0.00    -0.387 OA
ATOM     41  H   UNL     1     -16.874  61.273  32.334  1.00  0.00     0.211 HD
ENDBRANCH  32  40
ENDBRANCH   1  27
TORSDOF 12
ENDMDL
MODEL 3
REMARK VINA RESULT:    -7.561      2.667      7.138
REMARK INTER + INTRA:         -11.976
REMARK INTER:                 -10.467
REMARK INTRA:                  -1.508
REMARK UNBOUND:                -0.878
REMARK SMILES O=c1c(O[C@H]2O[C@H](CO)[C@H](O)[C@@H](O)[C@@H]2O)c(-c2ccc(O)c(O)c2)oc2cc(O)cc(O)c12
REMARK SMILES IDX 4 1 3 2 16 3 25 4 2 5 26 6 1 7 33 8 27 9 31 10 28 11 30 12
REMARK SMILES IDX 17 13 18 14 19 15 20 16 24 17 22 18 21 19 23 21 32 23 29 25
REMARK SMILES IDX 5 27 14 28 6 29 12 30 7 31 10 32 15 33 13 35 8 37 9 38 11 40
REMARK H PARENT 21 20 23 22 32 24 29 26 15 34 13 36 9 39 11 41
REMARK Flexibility Score: inf
ROOT
ATOM      1  O   UNL     1     -22.783  58.504  32.166  1.00  0.00    -0.454 OA
ENDROOT
BRANCH   1   2
ATOM      2  C   UNL     1     -22.836  58.258  30.779  1.00  0.00     0.214 A 
ATOM      3  C   UNL     1     -23.814  58.926  30.015  1.00  0.00     0.180 A 
ATOM      4  O   UNL     1     -23.858  58.764  28.698  1.00  0.00    -0.452 OA
ATOM      5  C   UNL     1     -21.909  57.435  30.101  1.00  0.00     0.239 A 
ATOM      6  C   UNL     1     -23.043  57.956  28.032  1.00  0.00     0.146 A 
ATOM      7  O   UNL     1     -20.916  56.978  30.719  1.00  0.00    -0.285 OA
ATOM      8  C   UNL     1     -22.055  57.205  28.715  1.00  0.00     0.111 A 
ATOM      9  C   UNL     1     -23.169  57.869  26.644  1.00  0.00     0.094 A 
ATOM     10  C   UNL     1     -21.240  56.309  27.962  1.00  0.00     0.134 A 
ATOM     11  C   UNL     1     -22.323  57.039  25.908  1.00  0.00     0.123 A 
ATOM     12  C   UNL     1     -21.362  56.268  26.566  1.00  0.00     0.093 A 
BRANCH   3  13
ATOM     13  C   UNL     1     -24.793  59.854  30.630  1.00  0.00     0.025 A 
ATOM     14  C   UNL     1     -24.587  61.239  30.533  1.00  0.00     0.016 A 
ATOM     15  C   UNL     1     -25.492  62.132  31.112  1.00  0.00     0.051 A 
ATOM     16  C   UNL     1     -26.622  61.653  31.786  1.00  0.00     0.157 A 
ATOM     17  C   UNL     1     -25.947  59.379  31.275  1.00  0.00     0.062 A 
ATOM     18  C   UNL     1     -26.852  60.270  31.864  1.00  0.00     0.158 A 
BRANCH  16  19
ATOM     19  O   UNL     1     -27.516  62.543  32.376  1.00  0.00    -0.504 OA
ATOM     20  H   UNL     1     -27.194  63.328  32.928  1.00  0.00     0.293 HD
ENDBRANCH  16  19
BRANCH  18  21
ATOM     21  O   UNL     1     -27.973  59.760  32.516  1.00  0.00    -0.504 OA
ATOM     22  H   UNL     1     -28.744  59.344  32.011  1.00  0.00     0.293 HD
ENDBRANCH  18  21
ENDBRANCH   3  13
BRANCH  10  23
ATOM     23  O   UNL     1     -20.332  55.418  28.542  1.00  0.00    -0.507 OA
ATOM     24  H   UNL     1     -20.569  54.765  29.274  1.00  0.00     0.293 HD
ENDBRANCH  10  23
BRANCH  11  25
ATOM     25  O   UNL     1     -22.453  56.979  24.522  1.00  0.00    -0.508 OA
ATOM     26  H   UNL     1     -22.059  57.698  23.921  1.00  0.00     0.293 HD
ENDBRANCH  11  25
ENDBRANCH   1   2
BRANCH   1  27
ATOM     27  C   UNL     1     -21.861  59.341  32.875  1.00  0.00     0.339 C 
ATOM     28  C   UNL     1     -22.552  59.992  34.114  1.00  0.00     0.214 C 
ATOM     29  O   UNL     1     -21.302  60.256  31.931  1.00  0.00    -0.332 OA
ATOM     30  C   UNL     1     -21.685  61.120  34.710  1.00  0.00     0.180 C 
ATOM     31  C   UNL     1     -21.595  61.618  32.193  1.00  0.00     0.179 C 
ATOM     32  C   UNL     1     -21.069  62.018  33.597  1.00  0.00     0.177 C 
BRANCH  28  33
ATOM     33  O   UNL     1     -22.866  59.037  35.095  1.00  0.00    -0.384 OA
ATOM     34  H   UNL     1     -23.288  58.263  34.642  1.00  0.00     0.211 HD
ENDBRANCH  28  33
BRANCH  30  35
ATOM     35  O   UNL     1     -22.477  61.893  35.576  1.00  0.00    -0.387 OA
ATOM     36  H   UNL     1     -23.105  62.414  35.003  1.00  0.00     0.211 HD
ENDBRANCH  30  35
BRANCH  31  37
ATOM     37  C   UNL     1     -20.971  62.480  31.089  1.00  0.00     0.191 C 
BRANCH  37  38
ATOM     38  O   UNL     1     -19.770  61.906  30.646  1.00  0.00    -0.394 OA
ATOM     39  H   UNL     1     -19.969  61.495  29.761  1.00  0.00     0.210 HD
ENDBRANCH  37  38
ENDBRANCH  31  37
BRANCH  32  40
ATOM     40  O   UNL     1     -19.660  61.953  33.637  1.00  0.00    -0.387 OA
ATOM     41  H   UNL     1     -19.340  61.761  32.714  1.00  0.00     0.211 HD
ENDBRANCH  32  40
ENDBRANCH   1  27
TORSDOF 12
ENDMDL
MODEL 4
REMARK VINA RESULT:    -7.556      2.334      6.425
REMARK INTER + INTRA:         -11.969
REMARK INTER:                 -10.867
REMARK INTRA:                  -1.102
REMARK UNBOUND:                -0.878
REMARK SMILES O=c1c(O[C@H]2O[C@H](CO)[C@H](O)[C@@H](O)[C@@H]2O)c(-c2ccc(O)c(O)c2)oc2cc(O)cc(O)c12
REMARK SMILES IDX 4 1 3 2 16 3 25 4 2 5 26 6 1 7 33 8 27 9 31 10 28 11 30 12
REMARK SMILES IDX 17 13 18 14 19 15 20 16 24 17 22 18 21 19 23 21 32 23 29 25
REMARK SMILES IDX 5 27 14 28 6 29 12 30 7 31 10 32 15 33 13 35 8 37 9 38 11 40
REMARK H PARENT 21 20 23 22 32 24 29 26 15 34 13 36 9 39 11 41
REMARK Flexibility Score: inf
ROOT
ATOM      1  O   UNL     1     -23.605  60.598  31.231  1.00  0.00    -0.454 OA
ENDROOT
BRANCH   1   2
ATOM      2  C   UNL     1     -22.705  59.700  30.622  1.00  0.00     0.214 A 
ATOM      3  C   UNL     1     -21.433  59.525  31.205  1.00  0.00     0.180 A 
ATOM      4  O   UNL     1     -20.580  58.645  30.694  1.00  0.00    -0.452 OA
ATOM      5  C   UNL     1     -23.040  58.906  29.502  1.00  0.00     0.239 A 
ATOM      6  C   UNL     1     -20.835  57.924  29.609  1.00  0.00     0.146 A 
ATOM      7  O   UNL     1     -24.221  58.899  29.076  1.00  0.00    -0.285 OA
ATOM      8  C   UNL     1     -22.067  58.060  28.924  1.00  0.00     0.111 A 
ATOM      9  C   UNL     1     -19.870  57.018  29.163  1.00  0.00     0.094 A 
ATOM     10  C   UNL     1     -22.271  57.304  27.733  1.00  0.00     0.134 A 
ATOM     11  C   UNL     1     -20.105  56.234  28.033  1.00  0.00     0.123 A 
ATOM     12  C   UNL     1     -21.302  56.376  27.327  1.00  0.00     0.093 A 
BRANCH   3  13
ATOM     13  C   UNL     1     -21.014  60.270  32.415  1.00  0.00     0.025 A 
ATOM     14  C   UNL     1     -21.015  61.674  32.397  1.00  0.00     0.016 A 
ATOM     15  C   UNL     1     -20.616  62.397  33.523  1.00  0.00     0.051 A 
ATOM     16  C   UNL     1     -20.220  61.728  34.688  1.00  0.00     0.157 A 
ATOM     17  C   UNL     1     -20.652  59.604  33.598  1.00  0.00     0.062 A 
ATOM     18  C   UNL     1     -20.243  60.324  34.726  1.00  0.00     0.158 A 
BRANCH  16  19
ATOM     19  O   UNL     1     -19.808  62.450  35.805  1.00  0.00    -0.504 OA
ATOM     20  H   UNL     1     -19.446  61.988  36.630  1.00  0.00     0.293 HD
ENDBRANCH  16  19
BRANCH  18  21
ATOM     21  O   UNL     1     -19.869  59.627  35.873  1.00  0.00    -0.504 OA
ATOM     22  H   UNL     1     -20.231  58.706  36.082  1.00  0.00     0.293 HD
ENDBRANCH  18  21
ENDBRANCH   3  13
BRANCH  10  23
ATOM     23  O   UNL     1     -23.383  57.459  26.900  1.00  0.00    -0.507 OA
ATOM     24  H   UNL     1     -23.944  56.694  26.557  1.00  0.00     0.293 HD
ENDBRANCH  10  23
BRANCH  11  25
ATOM     25  O   UNL     1     -19.137  55.323  27.614  1.00  0.00    -0.508 OA
ATOM     26  H   UNL     1     -19.017  54.426  28.077  1.00  0.00     0.293 HD
ENDBRANCH  11  25
ENDBRANCH   1   2
BRANCH   1  27
ATOM     27  C   UNL     1     -24.865  60.299  31.845  1.00  0.00     0.339 C 
ATOM     28  C   UNL     1     -25.949  61.333  31.405  1.00  0.00     0.214 C 
ATOM     29  O   UNL     1     -24.643  60.202  33.252  1.00  0.00    -0.332 OA
ATOM     30  C   UNL     1     -27.218  61.218  32.275  1.00  0.00     0.180 C 
ATOM     31  C   UNL     1     -25.336  61.169  34.021  1.00  0.00     0.179 C 
ATOM     32  C   UNL     1     -26.864  61.048  33.782  1.00  0.00     0.177 C 
BRANCH  28  33
ATOM     33  O   UNL     1     -26.268  61.203  30.043  1.00  0.00    -0.384 OA
ATOM     34  H   UNL     1     -25.495  61.530  29.517  1.00  0.00     0.211 HD
ENDBRANCH  28  33
BRANCH  30  35
ATOM     35  O   UNL     1     -28.004  62.367  32.086  1.00  0.00    -0.387 OA
ATOM     36  H   UNL     1     -28.632  62.165  31.338  1.00  0.00     0.211 HD
ENDBRANCH  30  35
BRANCH  31  37
ATOM     37  C   UNL     1     -24.979  60.975  35.500  1.00  0.00     0.191 C 
BRANCH  37  38
ATOM     38  O   UNL     1     -23.819  60.193  35.620  1.00  0.00    -0.394 OA
ATOM     39  H   UNL     1     -23.281  60.367  34.802  1.00  0.00     0.210 HD
ENDBRANCH  37  38
ENDBRANCH  31  37
BRANCH  32  40
ATOM     40  O   UNL     1     -27.347  59.812  34.263  1.00  0.00    -0.387 OA
ATOM     41  H   UNL     1     -27.135  59.119  33.581  1.00  0.00     0.211 HD
ENDBRANCH  32  40
ENDBRANCH   1  27
TORSDOF 12
ENDMDL
MODEL 5
REMARK VINA RESULT:    -7.525      1.487      1.904
REMARK INTER + INTRA:         -11.922
REMARK INTER:                 -10.893
REMARK INTRA:                  -1.030
REMARK UNBOUND:                -0.878
REMARK SMILES O=c1c(O[C@H]2O[C@H](CO)[C@H](O)[C@@H](O)[C@@H]2O)c(-c2ccc(O)c(O)c2)oc2cc(O)cc(O)c12
REMARK SMILES IDX 4 1 3 2 16 3 25 4 2 5 26 6 1 7 33 8 27 9 31 10 28 11 30 12
REMARK SMILES IDX 17 13 18 14 19 15 20 16 24 17 22 18 21 19 23 21 32 23 29 25
REMARK SMILES IDX 5 27 14 28 6 29 12 30 7 31 10 32 15 33 13 35 8 37 9 38 11 40
REMARK H PARENT 21 20 23 22 32 24 29 26 15 34 13 36 9 39 11 41
REMARK Flexibility Score: inf
ROOT
ATOM      1  O   UNL     1     -21.838  61.220  31.446  1.00  0.00    -0.454 OA
ENDROOT
BRANCH   1   2
ATOM      2  C   UNL     1     -22.909  61.151  32.361  1.00  0.00     0.214 A 
ATOM      3  C   UNL     1     -22.667  60.610  33.640  1.00  0.00     0.180 A 
ATOM      4  O   UNL     1     -23.637  60.581  34.546  1.00  0.00    -0.452 OA
ATOM      5  C   UNL     1     -24.195  61.668  32.088  1.00  0.00     0.239 A 
ATOM      6  C   UNL     1     -24.872  61.004  34.310  1.00  0.00     0.146 A 
ATOM      7  O   UNL     1     -24.392  62.323  31.035  1.00  0.00    -0.285 OA
ATOM      8  C   UNL     1     -25.228  61.522  33.041  1.00  0.00     0.111 A 
ATOM      9  C   UNL     1     -25.813  60.938  35.340  1.00  0.00     0.094 A 
ATOM     10  C   UNL     1     -26.582  61.911  32.820  1.00  0.00     0.134 A 
ATOM     11  C   UNL     1     -27.119  61.383  35.134  1.00  0.00     0.123 A 
ATOM     12  C   UNL     1     -27.497  61.870  33.881  1.00  0.00     0.093 A 
BRANCH   3  13
ATOM     13  C   UNL     1     -21.335  60.096  34.036  1.00  0.00     0.025 A 
ATOM     14  C   UNL     1     -21.045  58.732  33.877  1.00  0.00     0.016 A 
ATOM     15  C   UNL     1     -19.800  58.223  34.252  1.00  0.00     0.051 A 
ATOM     16  C   UNL     1     -18.821  59.074  34.781  1.00  0.00     0.157 A 
ATOM     17  C   UNL     1     -20.337  60.952  34.533  1.00  0.00     0.062 A 
ATOM     18  C   UNL     1     -19.090  60.446  34.917  1.00  0.00     0.158 A 
BRANCH  16  19
ATOM     19  O   UNL     1     -17.584  58.564  35.169  1.00  0.00    -0.504 OA
ATOM     20  H   UNL     1     -16.724  58.880  34.741  1.00  0.00     0.293 HD
ENDBRANCH  16  19
BRANCH  18  21
ATOM     21  O   UNL     1     -18.135  61.322  35.428  1.00  0.00    -0.504 OA
ATOM     22  H   UNL     1     -18.375  62.054  36.084  1.00  0.00     0.293 HD
ENDBRANCH  18  21
ENDBRANCH   3  13
BRANCH  10  23
ATOM     23  O   UNL     1     -27.079  62.304  31.574  1.00  0.00    -0.507 OA
ATOM     24  H   UNL     1     -26.966  63.228  31.184  1.00  0.00     0.293 HD
ENDBRANCH  10  23
BRANCH  11  25
ATOM     25  O   UNL     1     -28.038  61.326  36.180  1.00  0.00    -0.508 OA
ATOM     26  H   UNL     1     -29.020  61.548  36.037  1.00  0.00     0.293 HD
ENDBRANCH  11  25
ENDBRANCH   1   2
BRANCH   1  27
ATOM     27  C   UNL     1     -21.723  60.565  30.177  1.00  0.00     0.339 C 
ATOM     28  C   UNL     1     -21.322  61.588  29.066  1.00  0.00     0.214 C 
ATOM     29  O   UNL     1     -22.942  59.857  29.950  1.00  0.00    -0.332 OA
ATOM     30  C   UNL     1     -21.489  60.979  27.659  1.00  0.00     0.180 C 
ATOM     31  C   UNL     1     -23.676  60.303  28.822  1.00  0.00     0.179 C 
ATOM     32  C   UNL     1     -22.815  60.172  27.538  1.00  0.00     0.177 C 
BRANCH  28  33
ATOM     33  O   UNL     1     -20.014  62.066  29.249  1.00  0.00    -0.384 OA
ATOM     34  H   UNL     1     -19.667  62.349  28.365  1.00  0.00     0.211 HD
ENDBRANCH  28  33
BRANCH  30  35
ATOM     35  O   UNL     1     -21.460  62.015  26.710  1.00  0.00    -0.387 OA
ATOM     36  H   UNL     1     -21.802  62.832  27.167  1.00  0.00     0.211 HD
ENDBRANCH  30  35
BRANCH  31  37
ATOM     37  C   UNL     1     -24.971  59.488  28.720  1.00  0.00     0.191 C 
BRANCH  37  38
ATOM     38  O   UNL     1     -25.865  59.869  29.732  1.00  0.00    -0.394 OA
ATOM     39  H   UNL     1     -25.621  60.801  29.982  1.00  0.00     0.210 HD
ENDBRANCH  37  38
ENDBRANCH  31  37
BRANCH  32  40
ATOM     40  O   UNL     1     -22.541  58.816  27.258  1.00  0.00    -0.387 OA
ATOM     41  H   UNL     1     -22.752  58.657  26.298  1.00  0.00     0.211 HD
ENDBRANCH  32  40
ENDBRANCH   1  27
TORSDOF 12
ENDMDL
MODEL 6
REMARK VINA RESULT:    -7.495      1.608      2.801
REMARK INTER + INTRA:         -11.879
REMARK INTER:                 -10.658
REMARK INTRA:                  -1.221
REMARK UNBOUND:                -0.878
REMARK SMILES O=c1c(O[C@H]2O[C@H](CO)[C@H](O)[C@@H](O)[C@@H]2O)c(-c2ccc(O)c(O)c2)oc2cc(O)cc(O)c12
REMARK SMILES IDX 4 1 3 2 16 3 25 4 2 5 26 6 1 7 33 8 27 9 31 10 28 11 30 12
REMARK SMILES IDX 17 13 18 14 19 15 20 16 24 17 22 18 21 19 23 21 32 23 29 25
REMARK SMILES IDX 5 27 14 28 6 29 12 30 7 31 10 32 15 33 13 35 8 37 9 38 11 40
REMARK H PARENT 21 20 23 22 32 24 29 26 15 34 13 36 9 39 11 41
REMARK Flexibility Score: inf
ROOT
ATOM      1  O   UNL     1     -22.335  60.558  31.239  1.00  0.00    -0.454 OA
ENDROOT
BRANCH   1   2
ATOM      2  C   UNL     1     -23.320  60.706  32.238  1.00  0.00     0.214 A 
ATOM      3  C   UNL     1     -22.926  60.611  33.588  1.00  0.00     0.180 A 
ATOM      4  O   UNL     1     -23.814  60.802  34.557  1.00  0.00    -0.452 OA
ATOM      5  C   UNL     1     -24.668  61.022  31.957  1.00  0.00     0.239 A 
ATOM      6  C   UNL     1     -25.100  61.043  34.334  1.00  0.00     0.146 A 
ATOM      7  O   UNL     1     -25.010  61.298  30.781  1.00  0.00    -0.285 OA
ATOM      8  C   UNL     1     -25.603  61.112  33.012  1.00  0.00     0.111 A 
ATOM      9  C   UNL     1     -25.945  61.239  35.428  1.00  0.00     0.094 A 
ATOM     10  C   UNL     1     -27.002  61.318  32.827  1.00  0.00     0.134 A 
ATOM     11  C   UNL     1     -27.301  61.506  35.235  1.00  0.00     0.123 A 
ATOM     12  C   UNL     1     -27.822  61.549  33.940  1.00  0.00     0.093 A 
BRANCH   3  13
ATOM     13  C   UNL     1     -21.523  60.340  33.981  1.00  0.00     0.025 A 
ATOM     14  C   UNL     1     -21.177  59.073  34.475  1.00  0.00     0.016 A 
ATOM     15  C   UNL     1     -19.862  58.797  34.859  1.00  0.00     0.051 A 
ATOM     16  C   UNL     1     -18.872  59.782  34.743  1.00  0.00     0.157 A 
ATOM     17  C   UNL     1     -20.520  61.312  33.832  1.00  0.00     0.062 A 
ATOM     18  C   UNL     1     -19.203  61.043  34.223  1.00  0.00     0.158 A 
BRANCH  16  19
ATOM     19  O   UNL     1     -17.565  59.511  35.141  1.00  0.00    -0.504 OA
ATOM     20  H   UNL     1     -16.808  60.154  34.944  1.00  0.00     0.293 HD
ENDBRANCH  16  19
BRANCH  18  21
ATOM     21  O   UNL     1     -18.240  62.041  34.082  1.00  0.00    -0.504 OA
ATOM     22  H   UNL     1     -18.488  63.020  34.015  1.00  0.00     0.293 HD
ENDBRANCH  18  21
ENDBRANCH   3  13
BRANCH  10  23
ATOM     23  O   UNL     1     -27.632  61.264  31.580  1.00  0.00    -0.507 OA
ATOM     24  H   UNL     1     -27.366  60.633  30.838  1.00  0.00     0.293 HD
ENDBRANCH  10  23
BRANCH  11  25
ATOM     25  O   UNL     1     -28.125  61.717  36.339  1.00  0.00    -0.508 OA
ATOM     26  H   UNL     1     -27.899  62.413  37.044  1.00  0.00     0.293 HD
ENDBRANCH  11  25
ENDBRANCH   1   2
BRANCH   1  27
ATOM     27  C   UNL     1     -22.003  59.374  30.503  1.00  0.00     0.339 C 
ATOM     28  C   UNL     1     -22.766  59.343  29.141  1.00  0.00     0.214 C 
ATOM     29  O   UNL     1     -22.233  58.257  31.362  1.00  0.00    -0.332 OA
ATOM     30  C   UNL     1     -22.665  57.955  28.474  1.00  0.00     0.180 C 
ATOM     31  C   UNL     1     -23.237  57.366  30.907  1.00  0.00     0.179 C 
ATOM     32  C   UNL     1     -22.863  56.809  29.508  1.00  0.00     0.177 C 
BRANCH  28  33
ATOM     33  O   UNL     1     -22.313  60.347  28.268  1.00  0.00    -0.384 OA
ATOM     34  H   UNL     1     -22.092  61.145  28.812  1.00  0.00     0.211 HD
ENDBRANCH  28  33
BRANCH  30  35
ATOM     35  O   UNL     1     -23.632  57.868  27.459  1.00  0.00    -0.387 OA
ATOM     36  H   UNL     1     -23.166  58.068  26.600  1.00  0.00     0.211 HD
ENDBRANCH  30  35
BRANCH  31  37
ATOM     37  C   UNL     1     -23.405  56.243  31.937  1.00  0.00     0.191 C 
BRANCH  37  38
ATOM     38  O   UNL     1     -24.054  56.728  33.083  1.00  0.00    -0.394 OA
ATOM     39  H   UNL     1     -24.987  56.385  33.040  1.00  0.00     0.210 HD
ENDBRANCH  37  38
ENDBRANCH  31  37
BRANCH  32  40
ATOM     40  O   UNL     1     -21.701  56.011  29.585  1.00  0.00    -0.387 OA
ATOM     41  H   UNL     1     -21.877  55.283  30.241  1.00  0.00     0.211 HD
ENDBRANCH  32  40
ENDBRANCH   1  27
TORSDOF 12
ENDMDL
MODEL 7
REMARK VINA RESULT:    -7.308      1.588      2.089
REMARK INTER + INTRA:         -11.605
REMARK INTER:                 -10.249
REMARK INTRA:                  -1.356
REMARK UNBOUND:                -0.878
REMARK SMILES O=c1c(O[C@H]2O[C@H](CO)[C@H](O)[C@@H](O)[C@@H]2O)c(-c2ccc(O)c(O)c2)oc2cc(O)cc(O)c12
REMARK SMILES IDX 4 1 3 2 16 3 25 4 2 5 26 6 1 7 33 8 27 9 31 10 28 11 30 12
REMARK SMILES IDX 17 13 18 14 19 15 20 16 24 17 22 18 21 19 23 21 32 23 29 25
REMARK SMILES IDX 5 27 14 28 6 29 12 30 7 31 10 32 15 33 13 35 8 37 9 38 11 40
REMARK H PARENT 21 20 23 22 32 24 29 26 15 34 13 36 9 39 11 41
REMARK Flexibility Score: inf
ROOT
ATOM      1  O   UNL     1     -22.375  60.207  31.620  1.00  0.00    -0.454 OA
ENDROOT
BRANCH   1   2
ATOM      2  C   UNL     1     -23.352  60.513  32.590  1.00  0.00     0.214 A 
ATOM      3  C   UNL     1     -22.950  60.624  33.936  1.00  0.00     0.180 A 
ATOM      4  O   UNL     1     -23.830  60.967  34.869  1.00  0.00    -0.452 OA
ATOM      5  C   UNL     1     -24.700  60.791  32.272  1.00  0.00     0.239 A 
ATOM      6  C   UNL     1     -25.116  61.179  34.620  1.00  0.00     0.146 A 
ATOM      7  O   UNL     1     -25.048  60.886  31.069  1.00  0.00    -0.285 OA
ATOM      8  C   UNL     1     -25.628  61.048  33.306  1.00  0.00     0.111 A 
ATOM      9  C   UNL     1     -25.953  61.546  35.676  1.00  0.00     0.094 A 
ATOM     10  C   UNL     1     -27.027  61.232  33.099  1.00  0.00     0.134 A 
ATOM     11  C   UNL     1     -27.309  61.789  35.451  1.00  0.00     0.123 A 
ATOM     12  C   UNL     1     -27.838  61.636  34.168  1.00  0.00     0.093 A 
BRANCH   3  13
ATOM     13  C   UNL     1     -21.545  60.407  34.358  1.00  0.00     0.025 A 
ATOM     14  C   UNL     1     -21.218  59.268  35.109  1.00  0.00     0.016 A 
ATOM     15  C   UNL     1     -19.902  59.047  35.524  1.00  0.00     0.051 A 
ATOM     16  C   UNL     1     -18.893  59.958  35.185  1.00  0.00     0.157 A 
ATOM     17  C   UNL     1     -20.524  61.298  33.988  1.00  0.00     0.062 A 
ATOM     18  C   UNL     1     -19.206  61.086  34.409  1.00  0.00     0.158 A 
BRANCH  16  19
ATOM     19  O   UNL     1     -17.585  59.745  35.612  1.00  0.00    -0.504 OA
ATOM     20  H   UNL     1     -16.995  59.045  35.181  1.00  0.00     0.293 HD
ENDBRANCH  16  19
BRANCH  18  21
ATOM     21  O   UNL     1     -18.225  62.004  34.043  1.00  0.00    -0.504 OA
ATOM     22  H   UNL     1     -17.654  61.879  33.217  1.00  0.00     0.293 HD
ENDBRANCH  18  21
ENDBRANCH   3  13
BRANCH  10  23
ATOM     23  O   UNL     1     -27.665  60.992  31.879  1.00  0.00    -0.507 OA
ATOM     24  H   UNL     1     -27.856  61.704  31.190  1.00  0.00     0.293 HD
ENDBRANCH  10  23
BRANCH  11  25
ATOM     25  O   UNL     1     -28.124  62.172  36.515  1.00  0.00    -0.508 OA
ATOM     26  H   UNL     1     -28.047  61.732  37.427  1.00  0.00     0.293 HD
ENDBRANCH  11  25
ENDBRANCH   1   2
BRANCH   1  27
ATOM     27  C   UNL     1     -22.170  58.961  30.943  1.00  0.00     0.339 C 
ATOM     28  C   UNL     1     -20.644  58.675  30.770  1.00  0.00     0.214 C 
ATOM     29  O   UNL     1     -22.929  59.002  29.733  1.00  0.00    -0.332 OA
ATOM     30  C   UNL     1     -20.401  57.510  29.789  1.00  0.00     0.180 C 
ATOM     31  C   UNL     1     -22.150  58.926  28.552  1.00  0.00     0.179 C 
ATOM     32  C   UNL     1     -21.324  57.612  28.540  1.00  0.00     0.177 C 
BRANCH  28  33
ATOM     33  O   UNL     1     -20.021  58.425  32.003  1.00  0.00    -0.384 OA
ATOM     34  H   UNL     1     -20.724  58.401  32.701  1.00  0.00     0.211 HD
ENDBRANCH  28  33
BRANCH  30  35
ATOM     35  O   UNL     1     -19.051  57.519  29.399  1.00  0.00    -0.387 OA
ATOM     36  H   UNL     1     -18.905  56.700  28.850  1.00  0.00     0.211 HD
ENDBRANCH  30  35
BRANCH  31  37
ATOM     37  C   UNL     1     -23.082  59.019  27.338  1.00  0.00     0.191 C 
BRANCH  37  38
ATOM     38  O   UNL     1     -22.466  58.455  26.210  1.00  0.00    -0.394 OA
ATOM     39  H   UNL     1     -21.578  58.895  26.129  1.00  0.00     0.210 HD
ENDBRANCH  37  38
ENDBRANCH  31  37
BRANCH  32  40
ATOM     40  O   UNL     1     -22.177  56.489  28.466  1.00  0.00    -0.387 OA
ATOM     41  H   UNL     1     -22.994  56.763  27.968  1.00  0.00     0.211 HD
ENDBRANCH  32  40
ENDBRANCH   1  27
TORSDOF 12
ENDMDL
MODEL 8
REMARK VINA RESULT:    -7.300      1.744      5.985
REMARK INTER + INTRA:         -11.592
REMARK INTER:                 -10.062
REMARK INTRA:                  -1.530
REMARK UNBOUND:                -0.878
REMARK SMILES O=c1c(O[C@H]2O[C@H](CO)[C@H](O)[C@@H](O)[C@@H]2O)c(-c2ccc(O)c(O)c2)oc2cc(O)cc(O)c12
REMARK SMILES IDX 4 1 3 2 16 3 25 4 2 5 26 6 1 7 33 8 27 9 31 10 28 11 30 12
REMARK SMILES IDX 17 13 18 14 19 15 20 16 24 17 22 18 21 19 23 21 32 23 29 25
REMARK SMILES IDX 5 27 14 28 6 29 12 30 7 31 10 32 15 33 13 35 8 37 9 38 11 40
REMARK H PARENT 21 20 23 22 32 24 29 26 15 34 13 36 9 39 11 41
REMARK Flexibility Score: inf
ROOT
ATOM      1  O   UNL     1     -21.498  60.904  32.187  1.00  0.00    -0.454 OA
ENDROOT
BRANCH   1   2
ATOM      2  C   UNL     1     -20.997  59.987  33.134  1.00  0.00     0.214 A 
ATOM      3  C   UNL     1     -21.888  59.451  34.086  1.00  0.00     0.180 A 
ATOM      4  O   UNL     1     -21.466  58.541  34.957  1.00  0.00    -0.452 OA
ATOM      5  C   UNL     1     -19.665  59.518  33.130  1.00  0.00     0.239 A 
ATOM      6  C   UNL     1     -20.210  58.118  35.022  1.00  0.00     0.146 A 
ATOM      7  O   UNL     1     -18.899  59.830  32.185  1.00  0.00    -0.285 OA
ATOM      8  C   UNL     1     -19.228  58.631  34.139  1.00  0.00     0.111 A 
ATOM      9  C   UNL     1     -19.877  57.149  35.971  1.00  0.00     0.094 A 
ATOM     10  C   UNL     1     -17.882  58.185  34.286  1.00  0.00     0.134 A 
ATOM     11  C   UNL     1     -18.570  56.671  36.063  1.00  0.00     0.123 A 
ATOM     12  C   UNL     1     -17.581  57.185  35.221  1.00  0.00     0.093 A 
BRANCH   3  13
ATOM     13  C   UNL     1     -23.318  59.839  34.131  1.00  0.00     0.025 A 
ATOM     14  C   UNL     1     -23.750  60.771  35.088  1.00  0.00     0.016 A 
ATOM     15  C   UNL     1     -25.094  61.146  35.155  1.00  0.00     0.051 A 
ATOM     16  C   UNL     1     -26.023  60.603  34.258  1.00  0.00     0.157 A 
ATOM     17  C   UNL     1     -24.246  59.326  33.210  1.00  0.00     0.062 A 
ATOM     18  C   UNL     1     -25.595  59.692  33.278  1.00  0.00     0.158 A 
BRANCH  16  19
ATOM     19  O   UNL     1     -27.366  60.966  34.334  1.00  0.00    -0.504 OA
ATOM     20  H   UNL     1     -27.672  61.741  34.907  1.00  0.00     0.293 HD
ENDBRANCH  16  19
BRANCH  18  21
ATOM     21  O   UNL     1     -26.490  59.144  32.362  1.00  0.00    -0.504 OA
ATOM     22  H   UNL     1     -26.993  59.714  31.695  1.00  0.00     0.293 HD
ENDBRANCH  18  21
ENDBRANCH   3  13
BRANCH  10  23
ATOM     23  O   UNL     1     -16.809  58.721  33.569  1.00  0.00    -0.507 OA
ATOM     24  H   UNL     1     -16.833  58.925  32.581  1.00  0.00     0.293 HD
ENDBRANCH  10  23
BRANCH  11  25
ATOM     25  O   UNL     1     -18.261  55.690  37.004  1.00  0.00    -0.508 OA
ATOM     26  H   UNL     1     -17.913  55.933  37.928  1.00  0.00     0.293 HD
ENDBRANCH  11  25
ENDBRANCH   1   2
BRANCH   1  27
ATOM     27  C   UNL     1     -22.005  60.625  30.877  1.00  0.00     0.339 C 
ATOM     28  C   UNL     1     -21.056  61.212  29.784  1.00  0.00     0.214 C 
ATOM     29  O   UNL     1     -23.355  61.089  30.832  1.00  0.00    -0.332 OA
ATOM     30  C   UNL     1     -21.723  61.193  28.394  1.00  0.00     0.180 C 
ATOM     31  C   UNL     1     -23.586  62.126  29.895  1.00  0.00     0.179 C 
ATOM     32  C   UNL     1     -23.210  61.650  28.467  1.00  0.00     0.177 C 
BRANCH  28  33
ATOM     33  O   UNL     1     -19.823  60.539  29.752  1.00  0.00    -0.384 OA
ATOM     34  H   UNL     1     -19.906  59.780  29.121  1.00  0.00     0.211 HD
ENDBRANCH  28  33
BRANCH  30  35
ATOM     35  O   UNL     1     -20.997  62.030  27.530  1.00  0.00    -0.387 OA
ATOM     36  H   UNL     1     -21.256  62.967  27.754  1.00  0.00     0.211 HD
ENDBRANCH  30  35
BRANCH  31  37
ATOM     37  C   UNL     1     -25.056  62.552  29.979  1.00  0.00     0.191 C 
BRANCH  37  38
ATOM     38  O   UNL     1     -25.871  61.436  30.226  1.00  0.00    -0.394 OA
ATOM     39  H   UNL     1     -26.713  61.589  29.718  1.00  0.00     0.210 HD
ENDBRANCH  37  38
ENDBRANCH  31  37
BRANCH  32  40
ATOM     40  O   UNL     1     -24.065  60.608  28.048  1.00  0.00    -0.387 OA
ATOM     41  H   UNL     1     -23.519  59.962  27.523  1.00  0.00     0.211 HD
ENDBRANCH  32  40
ENDBRANCH   1  27
TORSDOF 12
ENDMDL
MODEL 9
REMARK VINA RESULT:    -7.289      2.234      7.262
REMARK INTER + INTRA:         -11.576
REMARK INTER:                 -10.063
REMARK INTRA:                  -1.513
REMARK UNBOUND:                -0.878
REMARK SMILES O=c1c(O[C@H]2O[C@H](CO)[C@H](O)[C@@H](O)[C@@H]2O)c(-c2ccc(O)c(O)c2)oc2cc(O)cc(O)c12
REMARK SMILES IDX 4 1 3 2 16 3 25 4 2 5 26 6 1 7 33 8 27 9 31 10 28 11 30 12
REMARK SMILES IDX 17 13 18 14 19 15 20 16 24 17 22 18 21 19 23 21 32 23 29 25
REMARK SMILES IDX 5 27 14 28 6 29 12 30 7 31 10 32 15 33 13 35 8 37 9 38 11 40
REMARK H PARENT 21 20 23 22 32 24 29 26 15 34 13 36 9 39 11 41
REMARK Flexibility Score: inf
ROOT
ATOM      1  O   UNL     1     -20.908  61.799  31.988  1.00  0.00    -0.454 OA
ENDROOT
BRANCH   1   2
ATOM      2  C   UNL     1     -20.959  60.607  31.236  1.00  0.00     0.214 A 
ATOM      3  C   UNL     1     -22.207  60.179  30.739  1.00  0.00     0.180 A 
ATOM      4  O   UNL     1     -22.286  59.094  29.979  1.00  0.00    -0.452 OA
ATOM      5  C   UNL     1     -19.812  59.860  30.888  1.00  0.00     0.239 A 
ATOM      6  C   UNL     1     -21.241  58.333  29.678  1.00  0.00     0.146 A 
ATOM      7  O   UNL     1     -18.671  60.313  31.152  1.00  0.00    -0.285 OA
ATOM      8  C   UNL     1     -19.950  58.653  30.167  1.00  0.00     0.111 A 
ATOM      9  C   UNL     1     -21.435  57.218  28.860  1.00  0.00     0.094 A 
ATOM     10  C   UNL     1     -18.870  57.774  29.861  1.00  0.00     0.134 A 
ATOM     11  C   UNL     1     -20.359  56.401  28.511  1.00  0.00     0.123 A 
ATOM     12  C   UNL     1     -19.084  56.683  29.008  1.00  0.00     0.093 A 
BRANCH   3  13
ATOM     13  C   UNL     1     -23.457  60.930  31.004  1.00  0.00     0.025 A 
ATOM     14  C   UNL     1     -23.746  62.078  30.250  1.00  0.00     0.016 A 
ATOM     15  C   UNL     1     -24.914  62.806  30.488  1.00  0.00     0.051 A 
ATOM     16  C   UNL     1     -25.817  62.389  31.475  1.00  0.00     0.157 A 
ATOM     17  C   UNL     1     -24.383  60.495  31.967  1.00  0.00     0.062 A 
ATOM     18  C   UNL     1     -25.551  61.225  32.214  1.00  0.00     0.158 A 
BRANCH  16  19
ATOM     19  O   UNL     1     -26.974  63.124  31.722  1.00  0.00    -0.504 OA
ATOM     20  H   UNL     1     -27.871  62.837  31.353  1.00  0.00     0.293 HD
ENDBRANCH  16  19
BRANCH  18  21
ATOM     21  O   UNL     1     -26.433  60.775  33.194  1.00  0.00    -0.504 OA
ATOM     22  H   UNL     1     -27.365  61.156  33.292  1.00  0.00     0.293 HD
ENDBRANCH  18  21
ENDBRANCH   3  13
BRANCH  10  23
ATOM     23  O   UNL     1     -17.587  57.910  30.401  1.00  0.00    -0.507 OA
ATOM     24  H   UNL     1     -17.047  57.145  30.776  1.00  0.00     0.293 HD
ENDBRANCH  10  23
BRANCH  11  25
ATOM     25  O   UNL     1     -20.570  55.303  27.680  1.00  0.00    -0.508 OA
ATOM     26  H   UNL     1     -19.981  54.476  27.734  1.00  0.00     0.293 HD
ENDBRANCH  11  25
ENDBRANCH   1   2
BRANCH   1  27
ATOM     27  C   UNL     1     -20.800  61.935  33.410  1.00  0.00     0.339 C 
ATOM     28  C   UNL     1     -19.543  61.176  33.941  1.00  0.00     0.214 C 
ATOM     29  O   UNL     1     -22.047  61.528  33.975  1.00  0.00    -0.332 OA
ATOM     30  C   UNL     1     -19.572  61.051  35.478  1.00  0.00     0.180 C 
ATOM     31  C   UNL     1     -21.964  60.393  34.819  1.00  0.00     0.179 C 
ATOM     32  C   UNL     1     -20.990  60.671  35.994  1.00  0.00     0.177 C 
BRANCH  28  33
ATOM     33  O   UNL     1     -18.351  61.785  33.514  1.00  0.00    -0.384 OA
ATOM     34  H   UNL     1     -18.591  62.546  32.927  1.00  0.00     0.211 HD
ENDBRANCH  28  33
BRANCH  30  35
ATOM     35  O   UNL     1     -18.634  60.082  35.873  1.00  0.00    -0.387 OA
ATOM     36  H   UNL     1     -17.733  60.501  35.784  1.00  0.00     0.211 HD
ENDBRANCH  30  35
BRANCH  31  37
ATOM     37  C   UNL     1     -23.371  60.045  35.321  1.00  0.00     0.191 C 
BRANCH  37  38
ATOM     38  O   UNL     1     -24.157  61.205  35.404  1.00  0.00    -0.394 OA
ATOM     39  H   UNL     1     -24.796  61.162  34.643  1.00  0.00     0.210 HD
ENDBRANCH  37  38
ENDBRANCH  31  37
BRANCH  32  40
ATOM     40  O   UNL     1     -21.497  61.689  36.831  1.00  0.00    -0.387 OA
ATOM     41  H   UNL     1     -20.737  62.046  37.366  1.00  0.00     0.211 HD
ENDBRANCH  32  40
ENDBRANCH   1  27
TORSDOF 12
ENDMDL
