MODEL 1
REMARK VINA RESULT:    -1.667      0.000      0.000
REMARK INTER + INTRA:          -0.650
REMARK INTER:                  -2.057
REMARK INTRA:                   1.407
REMARK UNBOUND:                 1.407
REMARK SMILES C=C1CC[C@@H]2[C@H]([C@H]3[C@H](C)CC[C@@H]13)C2(C)C
REMARK SMILES IDX 3 1 2 2 1 3 12 4 9 5 8 6 10 7 7 8 11 9 4 11 5 12 6 13 13 14
REMARK SMILES IDX 14 16 15 17
REMARK H PARENT
REMARK Flexibility Score: 80.00
ROOT
ATOM      1  C   UNL     1     167.076 175.583 138.618  1.00  0.00     0.031 C 
ENDROOT
BRANCH   1   2
ATOM      2  C   UNL     1     166.450 174.777 139.715  1.00  0.00    -0.074 C 
ATOM      3  C   UNL     1     166.848 174.971 140.989  1.00  0.00     0.008 C 
BRANCH   2   4
ATOM      4  C   UNL     1     165.521 173.659 139.291  1.00  0.00     0.018 C 
ATOM      5  C   UNL     1     166.506 170.072 140.043  1.00  0.00     0.008 C 
ATOM      6  C   UNL     1     166.352 171.582 140.266  1.00  0.00    -0.010 C 
ATOM      7  C   UNL     1     165.054 171.940 141.009  1.00  0.00     0.004 C 
ATOM      8  C   UNL     1     166.271 172.373 138.954  1.00  0.00     0.003 CG0
ATOM      9  C   UNL     1     164.510 173.227 140.370  1.00  0.00     0.008 C 
ATOM     10  G   UNL     1     167.474 172.367 137.947  1.00  0.00     0.000 G0
ENDBRANCH   2   4
ENDBRANCH   1   2
BRANCH   1  11
ATOM     11  C   UNL     1     168.429 174.992 138.254  1.00  0.00     0.009 C 
BRANCH  11  12
ATOM     12  C   UNL     1     168.351 173.617 137.540  1.00  0.00    -0.001 C 
ATOM     13  C   UNL     1     167.492 172.381 137.927  1.00  0.00     0.002 CG0
ATOM     14  C   UNL     1     168.989 172.418 138.288  1.00  0.00    -0.029 C 
ATOM     15  G   UNL     1     166.300 172.364 138.948  1.00  0.00     0.000 G0
ATOM     16  C   UNL     1     169.884 171.524 137.419  1.00  0.00     0.011 C 
ATOM     17  C   UNL     1     169.454 172.576 139.743  1.00  0.00     0.011 C 
ENDBRANCH  11  12
ENDBRANCH   1  11
TORSDOF 0
ENDMDL
MODEL 2
REMARK VINA RESULT:    -1.667     12.253     14.999
REMARK INTER + INTRA:          -0.649
REMARK INTER:                  -2.148
REMARK INTRA:                   1.499
REMARK UNBOUND:                 1.407
REMARK SMILES C=C1CC[C@@H]2[C@H]([C@H]3[C@H](C)CC[C@@H]13)C2(C)C
REMARK SMILES IDX 3 1 2 2 1 3 12 4 9 5 8 6 10 7 7 8 11 9 4 11 5 12 6 13 13 14
REMARK SMILES IDX 14 16 15 17
REMARK H PARENT
REMARK Flexibility Score: 80.00
ROOT
ATOM      1  C   UNL     1     163.091 156.570 139.411  1.00  0.00     0.031 C 
ENDROOT
BRANCH   1   2
ATOM      2  C   UNL     1     163.126 157.996 138.954  1.00  0.00    -0.074 C 
ATOM      3  C   UNL     1     163.414 158.271 137.666  1.00  0.00     0.008 C 
BRANCH   2   4
ATOM      4  C   UNL     1     163.002 159.057 140.027  1.00  0.00     0.018 C 
ATOM      5  C   UNL     1     165.948 161.360 140.676  1.00  0.00     0.008 C 
ATOM      6  C   UNL     1     164.954 160.514 139.871  1.00  0.00    -0.010 C 
ATOM      7  C   UNL     1     163.744 161.328 139.384  1.00  0.00     0.004 C 
ATOM      8  C   UNL     1     164.339 159.373 140.692  1.00  0.00     0.003 CG0
ATOM      9  C   UNL     1     162.509 160.424 139.518  1.00  0.00     0.008 C 
ATOM     10  G   UNL     1     165.249 158.238 141.281  1.00  0.00     0.000 G0
ENDBRANCH   2   4
ENDBRANCH   1   2
BRANCH   1  11
ATOM     11  C   UNL     1     164.506 156.080 139.672  1.00  0.00     0.009 C 
BRANCH  11  12
ATOM     12  C   UNL     1     165.187 156.727 140.906  1.00  0.00    -0.001 C 
ATOM     13  C   UNL     1     165.234 158.230 141.299  1.00  0.00     0.002 CG0
ATOM     14  C   UNL     1     166.454 157.575 140.625  1.00  0.00    -0.029 C 
ATOM     15  G   UNL     1     164.352 159.375 140.688  1.00  0.00     0.000 G0
ATOM     16  C   UNL     1     167.635 157.292 141.564  1.00  0.00     0.011 C 
ATOM     17  C   UNL     1     166.847 157.919 139.180  1.00  0.00     0.011 C 
ENDBRANCH  11  12
ENDBRANCH   1  11
TORSDOF 0
ENDMDL
MODEL 3
REMARK VINA RESULT:    -1.664      1.752      3.801
REMARK INTER + INTRA:          -0.645
REMARK INTER:                  -2.134
REMARK INTRA:                   1.488
REMARK UNBOUND:                 1.407
REMARK SMILES C=C1CC[C@@H]2[C@H]([C@H]3[C@H](C)CC[C@@H]13)C2(C)C
REMARK SMILES IDX 3 1 2 2 1 3 12 4 9 5 8 6 10 7 7 8 11 9 4 11 5 12 6 13 13 14
REMARK SMILES IDX 14 16 15 17
REMARK H PARENT
REMARK Flexibility Score: 80.00
ROOT
ATOM      1  C   UNL     1     165.906 175.586 141.367  1.00  0.00     0.031 C 
ENDROOT
BRANCH   1   2
ATOM      2  C   UNL     1     166.257 175.196 139.963  1.00  0.00    -0.074 C 
ATOM      3  C   UNL     1     165.281 174.798 139.123  1.00  0.00     0.008 C 
BRANCH   2   4
ATOM      4  C   UNL     1     167.732 175.109 139.631  1.00  0.00     0.018 C 
ATOM      5  C   UNL     1     169.214 171.732 138.736  1.00  0.00     0.008 C 
ATOM      6  C   UNL     1     168.180 172.864 138.786  1.00  0.00    -0.010 C 
ATOM      7  C   UNL     1     168.300 173.826 137.592  1.00  0.00     0.004 C 
ATOM      8  C   UNL     1     168.339 173.764 140.018  1.00  0.00     0.003 CG0
ATOM      9  C   UNL     1     168.056 175.244 138.131  1.00  0.00     0.008 C 
ATOM     10  G   UNL     1     168.166 173.172 141.461  1.00  0.00     0.000 G0
ENDBRANCH   2   4
ENDBRANCH   1   2
BRANCH   1  11
ATOM     11  C   UNL     1     165.726 174.337 142.216  1.00  0.00     0.009 C 
BRANCH  11  12
ATOM     12  C   UNL     1     167.036 173.552 142.482  1.00  0.00    -0.001 C 
ATOM     13  C   UNL     1     168.151 173.171 141.468  1.00  0.00     0.002 CG0
ATOM     14  C   UNL     1     167.110 172.119 141.896  1.00  0.00    -0.029 C 
ATOM     15  G   UNL     1     168.326 173.755 140.022  1.00  0.00     0.000 G0
ATOM     16  C   UNL     1     167.631 171.055 142.871  1.00  0.00     0.011 C 
ATOM     17  C   UNL     1     166.027 171.628 140.924  1.00  0.00     0.011 C 
ENDBRANCH  11  12
ENDBRANCH   1  11
TORSDOF 0
ENDMDL
MODEL 4
REMARK VINA RESULT:    -1.575      1.721      4.001
REMARK INTER + INTRA:          -0.535
REMARK INTER:                  -2.053
REMARK INTRA:                   1.517
REMARK UNBOUND:                 1.407
REMARK SMILES C=C1CC[C@@H]2[C@H]([C@H]3[C@H](C)CC[C@@H]13)C2(C)C
REMARK SMILES IDX 3 1 2 2 1 3 12 4 9 5 8 6 10 7 7 8 11 9 4 11 5 12 6 13 13 14
REMARK SMILES IDX 14 16 15 17
REMARK H PARENT
REMARK Flexibility Score: 80.00
ROOT
ATOM      1  C   UNL     1     167.515 175.277 138.413  1.00  0.00     0.031 C 
ENDROOT
BRANCH   1   2
ATOM      2  C   UNL     1     168.101 173.899 138.447  1.00  0.00    -0.074 C 
ATOM      3  C   UNL     1     167.610 172.951 137.623  1.00  0.00     0.008 C 
BRANCH   2   4
ATOM      4  C   UNL     1     169.104 173.613 139.544  1.00  0.00     0.018 C 
ATOM      5  C   UNL     1     168.217 171.082 142.229  1.00  0.00     0.008 C 
ATOM      6  C   UNL     1     168.290 171.705 140.829  1.00  0.00    -0.010 C 
ATOM      7  C   UNL     1     169.513 171.222 140.031  1.00  0.00     0.004 C 
ATOM      8  C   UNL     1     168.437 173.232 140.862  1.00  0.00     0.003 CG0
ATOM      9  C   UNL     1     170.049 172.432 139.252  1.00  0.00     0.008 C 
ATOM     10  G   UNL     1     167.313 174.124 141.498  1.00  0.00     0.000 G0
ENDBRANCH   2   4
ENDBRANCH   1   2
BRANCH   1  11
ATOM     11  C   UNL     1     166.223 175.305 139.214  1.00  0.00     0.009 C 
BRANCH  11  12
ATOM     12  C   UNL     1     166.418 175.154 140.745  1.00  0.00    -0.001 C 
ATOM     13  C   UNL     1     167.309 174.131 141.503  1.00  0.00     0.002 CG0
ATOM     14  C   UNL     1     165.791 173.895 141.396  1.00  0.00    -0.029 C 
ATOM     15  G   UNL     1     168.426 173.228 140.870  1.00  0.00     0.000 G0
ATOM     16  C   UNL     1     165.004 174.165 142.686  1.00  0.00     0.011 C 
ATOM     17  C   UNL     1     165.219 172.775 140.514  1.00  0.00     0.011 C 
ENDBRANCH  11  12
ENDBRANCH   1  11
TORSDOF 0
ENDMDL
MODEL 5
REMARK VINA RESULT:    -1.561      1.531      3.467
REMARK INTER + INTRA:          -0.519
REMARK INTER:                  -1.983
REMARK INTRA:                   1.464
REMARK UNBOUND:                 1.407
REMARK SMILES C=C1CC[C@@H]2[C@H]([C@H]3[C@H](C)CC[C@@H]13)C2(C)C
REMARK SMILES IDX 3 1 2 2 1 3 12 4 9 5 8 6 10 7 7 8 11 9 4 11 5 12 6 13 13 14
REMARK SMILES IDX 14 16 15 17
REMARK H PARENT
REMARK Flexibility Score: 80.00
ROOT
ATOM      1  C   UNL     1     167.158 170.723 140.985  1.00  0.00     0.031 C 
ENDROOT
BRANCH   1   2
ATOM      2  C   UNL     1     166.430 172.023 140.827  1.00  0.00    -0.074 C 
ATOM      3  C   UNL     1     165.379 172.095 139.985  1.00  0.00     0.008 C 
BRANCH   2   4
ATOM      4  C   UNL     1     167.041 173.232 141.504  1.00  0.00     0.018 C 
ATOM      5  C   UNL     1     168.349 176.073 139.355  1.00  0.00     0.008 C 
ATOM      6  C   UNL     1     167.419 174.936 139.800  1.00  0.00    -0.010 C 
ATOM      7  C   UNL     1     166.262 175.432 140.684  1.00  0.00     0.004 C 
ATOM      8  C   UNL     1     168.131 173.885 140.660  1.00  0.00     0.003 CG0
ATOM      9  C   UNL     1     166.049 174.377 141.781  1.00  0.00     0.008 C 
ATOM     10  G   UNL     1     169.321 173.048 140.069  1.00  0.00     0.000 G0
ENDBRANCH   2   4
ENDBRANCH   1   2
BRANCH   1  11
ATOM     11  C   UNL     1     168.113 170.525 139.819  1.00  0.00     0.009 C 
BRANCH  11  12
ATOM     12  C   UNL     1     169.324 171.494 139.815  1.00  0.00    -0.001 C 
ATOM     13  C   UNL     1     169.326 173.030 140.055  1.00  0.00     0.002 CG0
ATOM     14  C   UNL     1     169.413 172.477 138.620  1.00  0.00    -0.029 C 
ATOM     15  G   UNL     1     168.144 173.877 140.644  1.00  0.00     0.000 G0
ATOM     16  C   UNL     1     170.801 172.576 137.974  1.00  0.00     0.011 C 
ATOM     17  C   UNL     1     168.235 172.611 137.643  1.00  0.00     0.011 C 
ENDBRANCH  11  12
ENDBRANCH   1  11
TORSDOF 0
ENDMDL
MODEL 6
REMARK VINA RESULT:    -1.542     11.711     14.612
REMARK INTER + INTRA:          -0.495
REMARK INTER:                  -2.040
REMARK INTRA:                   1.546
REMARK UNBOUND:                 1.407
REMARK SMILES C=C1CC[C@@H]2[C@H]([C@H]3[C@H](C)CC[C@@H]13)C2(C)C
REMARK SMILES IDX 3 1 2 2 1 3 12 4 9 5 8 6 10 7 7 8 11 9 4 11 5 12 6 13 13 14
REMARK SMILES IDX 14 16 15 17
REMARK H PARENT
REMARK Flexibility Score: 80.00
ROOT
ATOM      1  C   UNL     1     165.072 158.160 142.255  1.00  0.00     0.031 C 
ENDROOT
BRANCH   1   2
ATOM      2  C   UNL     1     165.020 157.465 140.929  1.00  0.00    -0.074 C 
ATOM      3  C   UNL     1     166.153 156.954 140.405  1.00  0.00     0.008 C 
BRANCH   2   4
ATOM      4  C   UNL     1     163.710 157.537 140.174  1.00  0.00     0.018 C 
ATOM      5  C   UNL     1     163.586 159.434 136.890  1.00  0.00     0.008 C 
ATOM      6  C   UNL     1     164.155 158.527 137.989  1.00  0.00    -0.010 C 
ATOM      7  C   UNL     1     163.835 157.042 137.753  1.00  0.00     0.004 C 
ATOM      8  C   UNL     1     163.567 158.828 139.373  1.00  0.00     0.003 CG0
ATOM      9  C   UNL     1     163.517 156.426 139.125  1.00  0.00     0.008 C 
ATOM     10  G   UNL     1     163.782 160.233 140.040  1.00  0.00     0.000 G0
ENDBRANCH   2   4
ENDBRANCH   1   2
BRANCH   1  11
ATOM     11  C   UNL     1     165.595 159.576 142.073  1.00  0.00     0.009 C 
BRANCH  11  12
ATOM     12  C   UNL     1     164.621 160.524 141.328  1.00  0.00    -0.001 C 
ATOM     13  C   UNL     1     163.803 160.241 140.037  1.00  0.00     0.002 CG0
ATOM     14  C   UNL     1     165.102 161.064 139.957  1.00  0.00    -0.029 C 
ATOM     15  G   UNL     1     163.565 158.834 139.382  1.00  0.00     0.000 G0
ATOM     16  C   UNL     1     164.898 162.572 139.755  1.00  0.00     0.011 C 
ATOM     17  C   UNL     1     166.369 160.492 139.305  1.00  0.00     0.011 C 
ENDBRANCH  11  12
ENDBRANCH   1  11
TORSDOF 0
ENDMDL
MODEL 7
REMARK VINA RESULT:    -1.535     12.323     14.744
REMARK INTER + INTRA:          -0.486
REMARK INTER:                  -1.951
REMARK INTRA:                   1.465
REMARK UNBOUND:                 1.407
REMARK SMILES C=C1CC[C@@H]2[C@H]([C@H]3[C@H](C)CC[C@@H]13)C2(C)C
REMARK SMILES IDX 3 1 2 2 1 3 12 4 9 5 8 6 10 7 7 8 11 9 4 11 5 12 6 13 13 14
REMARK SMILES IDX 14 16 15 17
REMARK H PARENT
REMARK Flexibility Score: 80.00
ROOT
ATOM      1  C   UNL     1     166.613 160.699 140.542  1.00  0.00     0.031 C 
ENDROOT
BRANCH   1   2
ATOM      2  C   UNL     1     166.814 159.367 139.885  1.00  0.00    -0.074 C 
ATOM      3  C   UNL     1     167.337 159.314 138.643  1.00  0.00     0.008 C 
BRANCH   2   4
ATOM      4  C   UNL     1     166.246 158.162 140.604  1.00  0.00     0.018 C 
ATOM      5  C   UNL     1     163.403 156.234 138.989  1.00  0.00     0.008 C 
ATOM      6  C   UNL     1     164.710 157.033 139.080  1.00  0.00    -0.010 C 
ATOM      7  C   UNL     1     165.946 156.130 139.224  1.00  0.00     0.004 C 
ATOM      8  C   UNL     1     164.764 157.950 140.308  1.00  0.00     0.003 CG0
ATOM      9  C   UNL     1     166.897 156.822 140.213  1.00  0.00     0.008 C 
ATOM     10  G   UNL     1     163.722 159.112 140.480  1.00  0.00     0.000 G0
ENDBRANCH   2   4
ENDBRANCH   1   2
BRANCH   1  11
ATOM     11  C   UNL     1     165.343 161.346 140.012  1.00  0.00     0.009 C 
BRANCH  11  12
ATOM     12  C   UNL     1     164.035 160.649 140.469  1.00  0.00    -0.001 C 
ATOM     13  C   UNL     1     163.708 159.130 140.479  1.00  0.00     0.002 CG0
ATOM     14  C   UNL     1     163.163 160.025 139.350  1.00  0.00    -0.029 C 
ATOM     15  G   UNL     1     164.740 157.960 140.306  1.00  0.00     0.000 G0
ATOM     16  C   UNL     1     161.666 160.348 139.450  1.00  0.00     0.011 C 
ATOM     17  C   UNL     1     163.706 159.920 137.917  1.00  0.00     0.011 C 
ENDBRANCH  11  12
ENDBRANCH   1  11
TORSDOF 0
ENDMDL
MODEL 8
REMARK VINA RESULT:    -1.531     12.736     14.626
REMARK INTER + INTRA:          -0.482
REMARK INTER:                  -1.956
REMARK INTRA:                   1.474
REMARK UNBOUND:                 1.407
REMARK SMILES C=C1CC[C@@H]2[C@H]([C@H]3[C@H](C)CC[C@@H]13)C2(C)C
REMARK SMILES IDX 3 1 2 2 1 3 12 4 9 5 8 6 10 7 7 8 11 9 4 11 5 12 6 13 13 14
REMARK SMILES IDX 14 16 15 17
REMARK H PARENT
REMARK Flexibility Score: 80.00
ROOT
ATOM      1  C   UNL     1     163.574 161.188 140.016  1.00  0.00     0.031 C 
ENDROOT
BRANCH   1   2
ATOM      2  C   UNL     1     163.220 159.834 139.479  1.00  0.00    -0.074 C 
ATOM      3  C   UNL     1     162.124 159.202 139.947  1.00  0.00     0.008 C 
BRANCH   2   4
ATOM      4  C   UNL     1     164.230 159.183 138.558  1.00  0.00     0.018 C 
ATOM      5  C   UNL     1     165.931 155.980 139.674  1.00  0.00     0.008 C 
ATOM      6  C   UNL     1     164.803 157.003 139.493  1.00  0.00    -0.010 C 
ATOM      7  C   UNL     1     163.968 156.745 138.228  1.00  0.00     0.004 C 
ATOM      8  C   UNL     1     165.320 158.437 139.321  1.00  0.00     0.003 CG0
ATOM      9  C   UNL     1     163.640 158.116 137.617  1.00  0.00     0.008 C 
ATOM     10  G   UNL     1     166.136 159.130 140.469  1.00  0.00     0.000 G0
ENDBRANCH   2   4
ENDBRANCH   1   2
BRANCH   1  11
ATOM     11  C   UNL     1     164.268 161.041 141.360  1.00  0.00     0.009 C 
BRANCH  11  12
ATOM     12  C   UNL     1     165.683 160.411 141.281  1.00  0.00    -0.001 C 
ATOM     13  C   UNL     1     166.135 159.163 140.473  1.00  0.00     0.002 CG0
ATOM     14  C   UNL     1     165.865 159.042 141.984  1.00  0.00    -0.029 C 
ATOM     15  G   UNL     1     165.321 158.453 139.334  1.00  0.00     0.000 G0
ATOM     16  C   UNL     1     167.123 158.932 142.857  1.00  0.00     0.011 C 
ATOM     17  C   UNL     1     164.642 158.280 142.516  1.00  0.00     0.011 C 
ENDBRANCH  11  12
ENDBRANCH   1  11
TORSDOF 0
ENDMDL
MODEL 9
REMARK VINA RESULT:    -1.406     12.135     15.143
REMARK INTER + INTRA:          -0.327
REMARK INTER:                  -1.795
REMARK INTRA:                   1.468
REMARK UNBOUND:                 1.407
REMARK SMILES C=C1CC[C@@H]2[C@H]([C@H]3[C@H](C)CC[C@@H]13)C2(C)C
REMARK SMILES IDX 3 1 2 2 1 3 12 4 9 5 8 6 10 7 7 8 11 9 4 11 5 12 6 13 13 14
REMARK SMILES IDX 14 16 15 17
REMARK H PARENT
REMARK Flexibility Score: 80.00
ROOT
ATOM      1  C   UNL     1     167.260 156.007 139.840  1.00  0.00     0.031 C 
ENDROOT
BRANCH   1   2
ATOM      2  C   UNL     1     167.702 157.291 140.472  1.00  0.00    -0.074 C 
ATOM      3  C   UNL     1     167.754 157.384 141.816  1.00  0.00     0.008 C 
BRANCH   2   4
ATOM      4  C   UNL     1     167.898 158.473 139.546  1.00  0.00     0.018 C 
ATOM      5  C   UNL     1     165.611 161.481 139.901  1.00  0.00     0.008 C 
ATOM      6  C   UNL     1     166.477 160.291 140.337  1.00  0.00    -0.010 C 
ATOM      7  C   UNL     1     167.931 160.696 140.632  1.00  0.00     0.004 C 
ATOM      8  C   UNL     1     166.594 159.210 139.256  1.00  0.00     0.003 CG0
ATOM      9  C   UNL     1     168.828 159.569 140.098  1.00  0.00     0.008 C 
ATOM     10  G   UNL     1     165.317 158.448 138.753  1.00  0.00     0.000 G0
ENDBRANCH   2   4
ENDBRANCH   1   2
BRANCH   1  11
ATOM     11  C   UNL     1     165.742 155.917 139.870  1.00  0.00     0.009 C 
BRANCH  11  12
ATOM     12  C   UNL     1     165.025 156.923 138.933  1.00  0.00    -0.001 C 
ATOM     13  C   UNL     1     165.306 158.442 138.759  1.00  0.00     0.002 CG0
ATOM     14  C   UNL     1     164.118 157.975 139.620  1.00  0.00    -0.029 C 
ATOM     15  G   UNL     1     166.569 159.215 139.279  1.00  0.00     0.000 G0
ATOM     16  C   UNL     1     162.740 158.155 138.969  1.00  0.00     0.011 C 
ATOM     17  C   UNL     1     164.133 158.125 141.149  1.00  0.00     0.011 C 
ENDBRANCH  11  12
ENDBRANCH   1  11
TORSDOF 0
ENDMDL
