MODEL 1
REMARK VINA RESULT:    -5.473      0.000      0.000
REMARK INTER + INTRA:         -12.019
REMARK INTER:                 -10.273
REMARK INTRA:                  -1.747
REMARK UNBOUND:                -1.747
REMARK SMILES CCCCCCCCC=CCCCCCCCC(=O)[O-]
REMARK SMILES IDX 10 1 9 2 11 3 12 4 13 5 14 6 15 7 16 8 17 9 18 10 19 11
REMARK SMILES IDX 20 12 8 13 7 14 6 15 5 16 4 17 3 18 2 19 1 20
REMARK H PARENT
REMARK Flexibility Score: inf
ROOT
ATOM      1  C   UNL     1      14.035 -18.673   5.315  1.00  0.00    -0.031 C 
ATOM      2  C   UNL     1      13.134 -18.189   6.190  1.00  0.00    -0.031 C 
ENDROOT
BRANCH   1   3
ATOM      3  C   UNL     1      13.774 -18.666   3.837  1.00  0.00     0.027 C 
BRANCH   3   4
ATOM      4  C   UNL     1      15.002 -18.136   3.081  1.00  0.00     0.004 C 
BRANCH   4   5
ATOM      5  C   UNL     1      15.690 -16.963   3.803  1.00  0.00     0.000 C 
BRANCH   5   6
ATOM      6  C   UNL     1      17.167 -17.204   4.178  1.00  0.00     0.000 C 
BRANCH   6   7
ATOM      7  C   UNL     1      17.435 -17.422   5.683  1.00  0.00     0.000 C 
BRANCH   7   8
ATOM      8  C   UNL     1      17.721 -16.134   6.487  1.00  0.00     0.006 C 
BRANCH   8   9
ATOM      9  C   UNL     1      18.542 -16.355   7.768  1.00  0.00     0.053 C 
BRANCH   9  10
ATOM     10  C   UNL     1      19.995 -16.572   7.473  1.00  0.00     0.041 C 
ATOM     11  O   UNL     1      20.737 -15.593   7.187  1.00  0.00    -0.550 OA
ATOM     12  O   UNL     1      20.538 -17.849   7.545  1.00  0.00    -0.550 OA
ENDBRANCH   9  10
ENDBRANCH   8   9
ENDBRANCH   7   8
ENDBRANCH   6   7
ENDBRANCH   5   6
ENDBRANCH   4   5
ENDBRANCH   3   4
ENDBRANCH   1   3
BRANCH   2  13
ATOM     13  C   UNL     1      13.392 -18.188   7.672  1.00  0.00     0.027 C 
BRANCH  13  14
ATOM     14  C   UNL     1      14.861 -18.503   7.993  1.00  0.00     0.004 C 
BRANCH  14  15
ATOM     15  C   UNL     1      15.201 -18.514   9.497  1.00  0.00     0.000 C 
BRANCH  15  16
ATOM     16  C   UNL     1      16.704 -18.529   9.836  1.00  0.00     0.000 C 
BRANCH  16  17
ATOM     17  C   UNL     1      17.032 -19.373  11.079  1.00  0.00    -0.000 C 
BRANCH  17  18
ATOM     18  C   UNL     1      17.962 -20.560  10.764  1.00  0.00    -0.000 C 
BRANCH  18  19
ATOM     19  C   UNL     1      18.504 -20.601   9.322  1.00  0.00    -0.003 C 
ATOM     20  C   UNL     1      20.013 -20.850   9.255  1.00  0.00     0.004 C 
ENDBRANCH  18  19
ENDBRANCH  17  18
ENDBRANCH  16  17
ENDBRANCH  15  16
ENDBRANCH  14  15
ENDBRANCH  13  14
ENDBRANCH   2  13
TORSDOF 15
ENDMDL
MODEL 2
REMARK VINA RESULT:    -5.430      3.881      5.779
REMARK INTER + INTRA:         -11.938
REMARK INTER:                  -9.768
REMARK INTRA:                  -2.170
REMARK UNBOUND:                -1.747
REMARK SMILES CCCCCCCCC=CCCCCCCCC(=O)[O-]
REMARK SMILES IDX 10 1 9 2 11 3 12 4 13 5 14 6 15 7 16 8 17 9 18 10 19 11
REMARK SMILES IDX 20 12 8 13 7 14 6 15 5 16 4 17 3 18 2 19 1 20
REMARK H PARENT
REMARK Flexibility Score: inf
ROOT
ATOM      1  C   UNL     1      13.504 -18.145   7.654  1.00  0.00    -0.031 C 
ATOM      2  C   UNL     1      14.732 -18.506   8.068  1.00  0.00    -0.031 C 
ENDROOT
BRANCH   1   3
ATOM      3  C   UNL     1      13.050 -18.384   6.243  1.00  0.00     0.027 C 
BRANCH   3   4
ATOM      4  C   UNL     1      14.262 -18.478   5.302  1.00  0.00     0.004 C 
BRANCH   4   5
ATOM      5  C   UNL     1      13.867 -18.488   3.815  1.00  0.00     0.000 C 
BRANCH   5   6
ATOM      6  C   UNL     1      13.363 -17.137   3.265  1.00  0.00     0.000 C 
BRANCH   6   7
ATOM      7  C   UNL     1      14.130 -15.896   3.770  1.00  0.00     0.000 C 
BRANCH   7   8
ATOM      8  C   UNL     1      13.238 -14.737   4.268  1.00  0.00     0.006 C 
BRANCH   8   9
ATOM      9  C   UNL     1      11.814 -14.738   3.690  1.00  0.00     0.053 C 
BRANCH   9  10
ATOM     10  C   UNL     1      11.725 -13.948   2.420  1.00  0.00     0.041 C 
ATOM     11  O   UNL     1      10.625 -13.845   1.811  1.00  0.00    -0.550 OA
ATOM     12  O   UNL     1      12.848 -13.296   1.924  1.00  0.00    -0.550 OA
ENDBRANCH   9  10
ENDBRANCH   8   9
ENDBRANCH   7   8
ENDBRANCH   6   7
ENDBRANCH   5   6
ENDBRANCH   4   5
ENDBRANCH   3   4
ENDBRANCH   1   3
BRANCH   2  13
ATOM     13  C   UNL     1      15.191 -18.276   9.482  1.00  0.00     0.027 C 
BRANCH  13  14
ATOM     14  C   UNL     1      16.699 -18.522   9.637  1.00  0.00     0.004 C 
BRANCH  14  15
ATOM     15  C   UNL     1      17.417 -18.943   8.338  1.00  0.00     0.000 C 
BRANCH  15  16
ATOM     16  C   UNL     1      18.479 -17.955   7.819  1.00  0.00     0.000 C 
BRANCH  16  17
ATOM     17  C   UNL     1      17.924 -16.538   7.598  1.00  0.00    -0.000 C 
BRANCH  17  18
ATOM     18  C   UNL     1      17.373 -16.330   6.175  1.00  0.00    -0.000 C 
BRANCH  18  19
ATOM     19  C   UNL     1      18.278 -16.848   5.041  1.00  0.00    -0.003 C 
ATOM     20  C   UNL     1      17.495 -17.310   3.810  1.00  0.00     0.004 C 
ENDBRANCH  18  19
ENDBRANCH  17  18
ENDBRANCH  16  17
ENDBRANCH  15  16
ENDBRANCH  14  15
ENDBRANCH  13  14
ENDBRANCH   2  13
TORSDOF 15
ENDMDL
MODEL 3
REMARK VINA RESULT:    -5.398     14.270     15.820
REMARK INTER + INTRA:         -11.878
REMARK INTER:                  -9.904
REMARK INTRA:                  -1.974
REMARK UNBOUND:                -1.747
REMARK SMILES CCCCCCCCC=CCCCCCCCC(=O)[O-]
REMARK SMILES IDX 10 1 9 2 11 3 12 4 13 5 14 6 15 7 16 8 17 9 18 10 19 11
REMARK SMILES IDX 20 12 8 13 7 14 6 15 5 16 4 17 3 18 2 19 1 20
REMARK H PARENT
REMARK Flexibility Score: inf
ROOT
ATOM      1  C   UNL     1      15.336  -4.364  10.803  1.00  0.00    -0.031 C 
ATOM      2  C   UNL     1      15.261  -5.294  11.772  1.00  0.00    -0.031 C 
ENDROOT
BRANCH   1   3
ATOM      3  C   UNL     1      16.350  -4.460   9.700  1.00  0.00     0.027 C 
BRANCH   3   4
ATOM      4  C   UNL     1      16.186  -3.287   8.721  1.00  0.00     0.004 C 
BRANCH   4   5
ATOM      5  C   UNL     1      17.506  -2.544   8.449  1.00  0.00     0.000 C 
BRANCH   5   6
ATOM      6  C   UNL     1      17.987  -1.630   9.595  1.00  0.00     0.000 C 
BRANCH   6   7
ATOM      7  C   UNL     1      19.346  -2.018  10.217  1.00  0.00     0.000 C 
BRANCH   7   8
ATOM      8  C   UNL     1      19.366  -2.067  11.761  1.00  0.00     0.006 C 
BRANCH   8   9
ATOM      9  C   UNL     1      18.062  -2.575  12.397  1.00  0.00     0.053 C 
BRANCH   9  10
ATOM     10  C   UNL     1      18.251  -2.954  13.835  1.00  0.00     0.041 C 
ATOM     11  O   UNL     1      19.370  -2.791  14.392  1.00  0.00    -0.550 OA
ATOM     12  O   UNL     1      17.183  -3.455  14.570  1.00  0.00    -0.550 OA
ENDBRANCH   9  10
ENDBRANCH   8   9
ENDBRANCH   7   8
ENDBRANCH   6   7
ENDBRANCH   5   6
ENDBRANCH   4   5
ENDBRANCH   3   4
ENDBRANCH   1   3
BRANCH   2  13
ATOM     13  C   UNL     1      14.243  -5.207  12.877  1.00  0.00     0.027 C 
BRANCH  13  14
ATOM     14  C   UNL     1      13.142  -4.186  12.554  1.00  0.00     0.004 C 
BRANCH  14  15
ATOM     15  C   UNL     1      11.864  -4.793  11.939  1.00  0.00     0.000 C 
BRANCH  15  16
ATOM     16  C   UNL     1      10.821  -3.774  11.442  1.00  0.00     0.000 C 
BRANCH  16  17
ATOM     17  C   UNL     1      10.673  -3.763   9.911  1.00  0.00    -0.000 C 
BRANCH  17  18
ATOM     18  C   UNL     1      11.583  -4.796   9.218  1.00  0.00    -0.000 C 
BRANCH  18  19
ATOM     19  C   UNL     1      12.643  -4.201   8.271  1.00  0.00    -0.003 C 
ATOM     20  C   UNL     1      12.099  -3.070   7.395  1.00  0.00     0.004 C 
ENDBRANCH  18  19
ENDBRANCH  17  18
ENDBRANCH  16  17
ENDBRANCH  15  16
ENDBRANCH  14  15
ENDBRANCH  13  14
ENDBRANCH   2  13
TORSDOF 15
ENDMDL
MODEL 4
REMARK VINA RESULT:    -5.385     14.077     16.367
REMARK INTER + INTRA:         -11.853
REMARK INTER:                  -9.999
REMARK INTRA:                  -1.854
REMARK UNBOUND:                -1.747
REMARK SMILES CCCCCCCCC=CCCCCCCCC(=O)[O-]
REMARK SMILES IDX 10 1 9 2 11 3 12 4 13 5 14 6 15 7 16 8 17 9 18 10 19 11
REMARK SMILES IDX 20 12 8 13 7 14 6 15 5 16 4 17 3 18 2 19 1 20
REMARK H PARENT
REMARK Flexibility Score: inf
ROOT
ATOM      1  C   UNL     1      15.330  -5.867  11.402  1.00  0.00    -0.031 C 
ATOM      2  C   UNL     1      14.672  -4.897  10.742  1.00  0.00    -0.031 C 
ENDROOT
BRANCH   1   3
ATOM      3  C   UNL     1      14.751  -6.514  12.627  1.00  0.00     0.027 C 
BRANCH   3   4
ATOM      4  C   UNL     1      15.165  -5.737  13.886  1.00  0.00     0.004 C 
BRANCH   4   5
ATOM      5  C   UNL     1      16.430  -4.887  13.676  1.00  0.00     0.000 C 
BRANCH   5   6
ATOM      6  C   UNL     1      16.373  -3.471  14.289  1.00  0.00     0.000 C 
BRANCH   6   7
ATOM      7  C   UNL     1      17.733  -2.748  14.398  1.00  0.00     0.000 C 
BRANCH   7   8
ATOM      8  C   UNL     1      18.941  -3.546  13.859  1.00  0.00     0.006 C 
BRANCH   8   9
ATOM      9  C   UNL     1      20.153  -2.682  13.475  1.00  0.00     0.053 C 
BRANCH   9  10
ATOM     10  C   UNL     1      20.914  -2.219  14.680  1.00  0.00     0.041 C 
ATOM     11  O   UNL     1      21.470  -1.087  14.683  1.00  0.00    -0.550 OA
ATOM     12  O   UNL     1      20.981  -3.021  15.813  1.00  0.00    -0.550 OA
ENDBRANCH   9  10
ENDBRANCH   8   9
ENDBRANCH   7   8
ENDBRANCH   6   7
ENDBRANCH   5   6
ENDBRANCH   4   5
ENDBRANCH   3   4
ENDBRANCH   1   3
BRANCH   2  13
ATOM     13  C   UNL     1      15.244  -4.249   9.511  1.00  0.00     0.027 C 
BRANCH  13  14
ATOM     14  C   UNL     1      16.735  -3.919   9.683  1.00  0.00     0.004 C 
BRANCH  14  15
ATOM     15  C   UNL     1      17.020  -2.662  10.530  1.00  0.00     0.000 C 
BRANCH  15  16
ATOM     16  C   UNL     1      18.407  -2.025  10.321  1.00  0.00     0.000 C 
BRANCH  16  17
ATOM     17  C   UNL     1      18.407  -0.925   9.247  1.00  0.00    -0.000 C 
BRANCH  17  18
ATOM     18  C   UNL     1      19.612  -1.025   8.292  1.00  0.00    -0.000 C 
BRANCH  18  19
ATOM     19  C   UNL     1      19.687  -2.326   7.469  1.00  0.00    -0.003 C 
ATOM     20  C   UNL     1      18.823  -2.288   6.206  1.00  0.00     0.004 C 
ENDBRANCH  18  19
ENDBRANCH  17  18
ENDBRANCH  16  17
ENDBRANCH  15  16
ENDBRANCH  14  15
ENDBRANCH  13  14
ENDBRANCH   2  13
TORSDOF 15
ENDMDL
MODEL 5
REMARK VINA RESULT:    -5.371      2.407      6.127
REMARK INTER + INTRA:         -11.827
REMARK INTER:                  -9.868
REMARK INTRA:                  -1.959
REMARK UNBOUND:                -1.747
REMARK SMILES CCCCCCCCC=CCCCCCCCC(=O)[O-]
REMARK SMILES IDX 10 1 9 2 11 3 12 4 13 5 14 6 15 7 16 8 17 9 18 10 19 11
REMARK SMILES IDX 20 12 8 13 7 14 6 15 5 16 4 17 3 18 2 19 1 20
REMARK H PARENT
REMARK Flexibility Score: inf
ROOT
ATOM      1  C   UNL     1      14.625 -18.431   7.800  1.00  0.00    -0.031 C 
ATOM      2  C   UNL     1      13.370 -18.124   7.424  1.00  0.00    -0.031 C 
ENDROOT
BRANCH   1   3
ATOM      3  C   UNL     1      15.119 -18.141   9.188  1.00  0.00     0.027 C 
BRANCH   3   4
ATOM      4  C   UNL     1      16.569 -18.625   9.349  1.00  0.00     0.004 C 
BRANCH   4   5
ATOM      5  C   UNL     1      17.292 -18.808   8.003  1.00  0.00     0.000 C 
BRANCH   5   6
ATOM      6  C   UNL     1      18.510 -17.884   7.787  1.00  0.00     0.000 C 
BRANCH   6   7
ATOM      7  C   UNL     1      18.193 -16.521   7.135  1.00  0.00     0.000 C 
BRANCH   7   8
ATOM      8  C   UNL     1      17.237 -16.585   5.923  1.00  0.00     0.006 C 
BRANCH   8   9
ATOM      9  C   UNL     1      17.770 -17.406   4.737  1.00  0.00     0.053 C 
BRANCH   9  10
ATOM     10  C   UNL     1      19.144 -16.971   4.328  1.00  0.00     0.041 C 
ATOM     11  O   UNL     1      20.102 -17.791   4.349  1.00  0.00    -0.550 OA
ATOM     12  O   UNL     1      19.362 -15.670   3.890  1.00  0.00    -0.550 OA
ENDBRANCH   9  10
ENDBRANCH   8   9
ENDBRANCH   7   8
ENDBRANCH   6   7
ENDBRANCH   5   6
ENDBRANCH   4   5
ENDBRANCH   3   4
ENDBRANCH   1   3
BRANCH   2  13
ATOM     13  C   UNL     1      12.867 -18.417   6.037  1.00  0.00     0.027 C 
BRANCH  13  14
ATOM     14  C   UNL     1      14.018 -18.729   5.069  1.00  0.00     0.004 C 
BRANCH  14  15
ATOM     15  C   UNL     1      13.871 -18.093   3.671  1.00  0.00     0.000 C 
BRANCH  15  16
ATOM     16  C   UNL     1      12.755 -17.039   3.537  1.00  0.00     0.000 C 
BRANCH  16  17
ATOM     17  C   UNL     1      13.252 -15.604   3.779  1.00  0.00    -0.000 C 
BRANCH  17  18
ATOM     18  C   UNL     1      12.390 -14.840   4.803  1.00  0.00    -0.000 C 
BRANCH  18  19
ATOM     19  C   UNL     1      11.092 -14.232   4.238  1.00  0.00    -0.003 C 
ATOM     20  C   UNL     1      10.208 -13.599   5.315  1.00  0.00     0.004 C 
ENDBRANCH  18  19
ENDBRANCH  17  18
ENDBRANCH  16  17
ENDBRANCH  15  16
ENDBRANCH  14  15
ENDBRANCH  13  14
ENDBRANCH   2  13
TORSDOF 15
ENDMDL
MODEL 6
REMARK VINA RESULT:    -5.347     14.207     15.656
REMARK INTER + INTRA:         -11.782
REMARK INTER:                  -9.007
REMARK INTRA:                  -2.775
REMARK UNBOUND:                -1.747
REMARK SMILES CCCCCCCCC=CCCCCCCCC(=O)[O-]
REMARK SMILES IDX 10 1 9 2 11 3 12 4 13 5 14 6 15 7 16 8 17 9 18 10 19 11
REMARK SMILES IDX 20 12 8 13 7 14 6 15 5 16 4 17 3 18 2 19 1 20
REMARK H PARENT
REMARK Flexibility Score: inf
ROOT
ATOM      1  C   UNL     1      13.111  -4.989  12.072  1.00  0.00    -0.031 C 
ATOM      2  C   UNL     1      11.769  -5.075  12.108  1.00  0.00    -0.031 C 
ENDROOT
BRANCH   1   3
ATOM      3  C   UNL     1      13.976  -6.216  12.125  1.00  0.00     0.027 C 
BRANCH   3   4
ATOM      4  C   UNL     1      15.459  -5.819  12.197  1.00  0.00     0.004 C 
BRANCH   4   5
ATOM      5  C   UNL     1      15.696  -4.329  11.894  1.00  0.00     0.000 C 
BRANCH   5   6
ATOM      6  C   UNL     1      16.444  -4.044  10.574  1.00  0.00     0.000 C 
BRANCH   6   7
ATOM      7  C   UNL     1      15.789  -4.636   9.308  1.00  0.00     0.000 C 
BRANCH   7   8
ATOM      8  C   UNL     1      14.594  -3.830   8.753  1.00  0.00     0.006 C 
BRANCH   8   9
ATOM      9  C   UNL     1      13.260  -4.595   8.746  1.00  0.00     0.053 C 
BRANCH   9  10
ATOM     10  C   UNL     1      12.181  -3.832   8.041  1.00  0.00     0.041 C 
ATOM     11  O   UNL     1      10.973  -4.164   8.184  1.00  0.00    -0.550 OA
ATOM     12  O   UNL     1      12.504  -2.733   7.255  1.00  0.00    -0.550 OA
ENDBRANCH   9  10
ENDBRANCH   8   9
ENDBRANCH   7   8
ENDBRANCH   6   7
ENDBRANCH   5   6
ENDBRANCH   4   5
ENDBRANCH   3   4
ENDBRANCH   1   3
BRANCH   2  13
ATOM     13  C   UNL     1      10.896  -3.850  12.049  1.00  0.00     0.027 C 
BRANCH  13  14
ATOM     14  C   UNL     1      10.577  -3.313  13.453  1.00  0.00     0.004 C 
BRANCH  14  15
ATOM     15  C   UNL     1      11.457  -2.129  13.902  1.00  0.00     0.000 C 
BRANCH  15  16
ATOM     16  C   UNL     1      12.804  -2.512  14.544  1.00  0.00     0.000 C 
BRANCH  16  17
ATOM     17  C   UNL     1      12.653  -3.494  15.718  1.00  0.00    -0.000 C 
BRANCH  17  18
ATOM     18  C   UNL     1      13.720  -4.604  15.707  1.00  0.00    -0.000 C 
BRANCH  18  19
ATOM     19  C   UNL     1      13.168  -6.041  15.625  1.00  0.00    -0.003 C 
ATOM     20  C   UNL     1      11.639  -6.100  15.667  1.00  0.00     0.004 C 
ENDBRANCH  18  19
ENDBRANCH  17  18
ENDBRANCH  16  17
ENDBRANCH  15  16
ENDBRANCH  14  15
ENDBRANCH  13  14
ENDBRANCH   2  13
TORSDOF 15
ENDMDL
MODEL 7
REMARK VINA RESULT:    -5.329      2.436      5.720
REMARK INTER + INTRA:         -11.749
REMARK INTER:                 -10.074
REMARK INTRA:                  -1.675
REMARK UNBOUND:                -1.747
REMARK SMILES CCCCCCCCC=CCCCCCCCC(=O)[O-]
REMARK SMILES IDX 10 1 9 2 11 3 12 4 13 5 14 6 15 7 16 8 17 9 18 10 19 11
REMARK SMILES IDX 20 12 8 13 7 14 6 15 5 16 4 17 3 18 2 19 1 20
REMARK H PARENT
REMARK Flexibility Score: inf
ROOT
ATOM      1  C   UNL     1      17.234 -18.797   9.361  1.00  0.00    -0.031 C 
ATOM      2  C   UNL     1      17.339 -19.668  10.381  1.00  0.00    -0.031 C 
ENDROOT
BRANCH   1   3
ATOM      3  C   UNL     1      16.154 -17.754   9.330  1.00  0.00     0.027 C 
BRANCH   3   4
ATOM      4  C   UNL     1      14.815 -18.387   8.921  1.00  0.00     0.004 C 
BRANCH   4   5
ATOM      5  C   UNL     1      14.572 -18.347   7.402  1.00  0.00     0.000 C 
BRANCH   5   6
ATOM      6  C   UNL     1      13.114 -18.063   6.982  1.00  0.00     0.000 C 
BRANCH   6   7
ATOM      7  C   UNL     1      12.608 -18.880   5.773  1.00  0.00     0.000 C 
BRANCH   7   8
ATOM      8  C   UNL     1      13.580 -18.939   4.574  1.00  0.00     0.006 C 
BRANCH   8   9
ATOM      9  C   UNL     1      13.422 -17.785   3.571  1.00  0.00     0.053 C 
BRANCH   9  10
ATOM     10  C   UNL     1      14.250 -16.595   3.952  1.00  0.00     0.041 C 
ATOM     11  O   UNL     1      15.459 -16.742   4.278  1.00  0.00    -0.550 OA
ATOM     12  O   UNL     1      13.697 -15.321   3.915  1.00  0.00    -0.550 OA
ENDBRANCH   9  10
ENDBRANCH   8   9
ENDBRANCH   7   8
ENDBRANCH   6   7
ENDBRANCH   5   6
ENDBRANCH   4   5
ENDBRANCH   3   4
ENDBRANCH   1   3
BRANCH   2  13
ATOM     13  C   UNL     1      18.423 -20.711  10.422  1.00  0.00     0.027 C 
BRANCH  13  14
ATOM     14  C   UNL     1      19.103 -20.878   9.055  1.00  0.00     0.004 C 
BRANCH  14  15
ATOM     15  C   UNL     1      20.637 -20.724   9.078  1.00  0.00     0.000 C 
BRANCH  15  16
ATOM     16  C   UNL     1      21.223 -19.768   8.021  1.00  0.00     0.000 C 
BRANCH  16  17
ATOM     17  C   UNL     1      20.988 -18.286   8.356  1.00  0.00    -0.000 C 
BRANCH  17  18
ATOM     18  C   UNL     1      20.306 -17.517   7.209  1.00  0.00    -0.000 C 
BRANCH  18  19
ATOM     19  C   UNL     1      19.335 -16.406   7.653  1.00  0.00    -0.003 C 
ATOM     20  C   UNL     1      18.240 -16.119   6.624  1.00  0.00     0.004 C 
ENDBRANCH  18  19
ENDBRANCH  17  18
ENDBRANCH  16  17
ENDBRANCH  15  16
ENDBRANCH  14  15
ENDBRANCH  13  14
ENDBRANCH   2  13
TORSDOF 15
ENDMDL
MODEL 8
REMARK VINA RESULT:    -5.324     13.757     15.232
REMARK INTER + INTRA:         -11.739
REMARK INTER:                  -9.681
REMARK INTRA:                  -2.058
REMARK UNBOUND:                -1.747
REMARK SMILES CCCCCCCCC=CCCCCCCCC(=O)[O-]
REMARK SMILES IDX 10 1 9 2 11 3 12 4 13 5 14 6 15 7 16 8 17 9 18 10 19 11
REMARK SMILES IDX 20 12 8 13 7 14 6 15 5 16 4 17 3 18 2 19 1 20
REMARK H PARENT
REMARK Flexibility Score: inf
ROOT
ATOM      1  C   UNL     1      13.663  -4.626   9.157  1.00  0.00    -0.031 C 
ATOM      2  C   UNL     1      12.578  -4.538   8.366  1.00  0.00    -0.031 C 
ENDROOT
BRANCH   1   3
ATOM      3  C   UNL     1      14.968  -3.995   8.768  1.00  0.00     0.027 C 
BRANCH   3   4
ATOM      4  C   UNL     1      16.130  -4.673   9.512  1.00  0.00     0.004 C 
BRANCH   4   5
ATOM      5  C   UNL     1      16.988  -3.679  10.315  1.00  0.00     0.000 C 
BRANCH   5   6
ATOM      6  C   UNL     1      16.747  -2.192   9.981  1.00  0.00     0.000 C 
BRANCH   6   7
ATOM      7  C   UNL     1      17.994  -1.287  10.080  1.00  0.00     0.000 C 
BRANCH   7   8
ATOM      8  C   UNL     1      19.315  -1.946   9.625  1.00  0.00     0.006 C 
BRANCH   8   9
ATOM      9  C   UNL     1      19.859  -1.420   8.286  1.00  0.00     0.053 C 
BRANCH   9  10
ATOM     10  C   UNL     1      19.601  -2.378   7.162  1.00  0.00     0.041 C 
ATOM     11  O   UNL     1      20.561  -2.823   6.476  1.00  0.00    -0.550 OA
ATOM     12  O   UNL     1      18.307  -2.807   6.894  1.00  0.00    -0.550 OA
ENDBRANCH   9  10
ENDBRANCH   8   9
ENDBRANCH   7   8
ENDBRANCH   6   7
ENDBRANCH   5   6
ENDBRANCH   4   5
ENDBRANCH   3   4
ENDBRANCH   1   3
BRANCH   2  13
ATOM     13  C   UNL     1      11.264  -5.163   8.752  1.00  0.00     0.027 C 
BRANCH  13  14
ATOM     14  C   UNL     1      11.077  -5.192  10.277  1.00  0.00     0.004 C 
BRANCH  14  15
ATOM     15  C   UNL     1      10.723  -3.829  10.906  1.00  0.00     0.000 C 
BRANCH  15  16
ATOM     16  C   UNL     1      10.650  -3.810  12.445  1.00  0.00     0.000 C 
BRANCH  16  17
ATOM     17  C   UNL     1      11.851  -4.501  13.112  1.00  0.00    -0.000 C 
BRANCH  17  18
ATOM     18  C   UNL     1      13.179  -3.765  12.855  1.00  0.00    -0.000 C 
BRANCH  18  19
ATOM     19  C   UNL     1      14.430  -4.665  12.830  1.00  0.00    -0.003 C 
ATOM     20  C   UNL     1      14.116  -6.120  12.476  1.00  0.00     0.004 C 
ENDBRANCH  18  19
ENDBRANCH  17  18
ENDBRANCH  16  17
ENDBRANCH  15  16
ENDBRANCH  14  15
ENDBRANCH  13  14
ENDBRANCH   2  13
TORSDOF 15
ENDMDL
MODEL 9
REMARK VINA RESULT:    -5.301     13.662     15.637
REMARK INTER + INTRA:         -11.696
REMARK INTER:                 -10.041
REMARK INTRA:                  -1.655
REMARK UNBOUND:                -1.747
REMARK SMILES CCCCCCCCC=CCCCCCCCC(=O)[O-]
REMARK SMILES IDX 10 1 9 2 11 3 12 4 13 5 14 6 15 7 16 8 17 9 18 10 19 11
REMARK SMILES IDX 20 12 8 13 7 14 6 15 5 16 4 17 3 18 2 19 1 20
REMARK H PARENT
REMARK Flexibility Score: inf
ROOT
ATOM      1  C   UNL     1      13.063  -4.232   8.380  1.00  0.00    -0.031 C 
ATOM      2  C   UNL     1      14.176  -4.337   9.128  1.00  0.00    -0.031 C 
ENDROOT
BRANCH   1   3
ATOM      3  C   UNL     1      11.791  -4.931   8.767  1.00  0.00     0.027 C 
BRANCH   3   4
ATOM      4  C   UNL     1      10.883  -3.982   9.564  1.00  0.00     0.004 C 
BRANCH   4   5
ATOM      5  C   UNL     1      10.612  -4.474  10.997  1.00  0.00     0.000 C 
BRANCH   5   6
ATOM      6  C   UNL     1      11.052  -3.505  12.114  1.00  0.00     0.000 C 
BRANCH   6   7
ATOM      7  C   UNL     1      12.502  -3.691  12.611  1.00  0.00     0.000 C 
BRANCH   7   8
ATOM      8  C   UNL     1      13.010  -5.149  12.608  1.00  0.00     0.006 C 
BRANCH   8   9
ATOM      9  C   UNL     1      13.530  -5.644  13.968  1.00  0.00     0.053 C 
BRANCH   9  10
ATOM     10  C   UNL     1      14.355  -6.887  13.833  1.00  0.00     0.041 C 
ATOM     11  O   UNL     1      14.775  -7.250  12.700  1.00  0.00    -0.550 OA
ATOM     12  O   UNL     1      14.690  -7.628  14.960  1.00  0.00    -0.550 OA
ENDBRANCH   9  10
ENDBRANCH   8   9
ENDBRANCH   7   8
ENDBRANCH   6   7
ENDBRANCH   5   6
ENDBRANCH   4   5
ENDBRANCH   3   4
ENDBRANCH   1   3
BRANCH   2  13
ATOM     13  C   UNL     1      15.452  -3.635   8.750  1.00  0.00     0.027 C 
BRANCH  13  14
ATOM     14  C   UNL     1      16.609  -4.016   9.686  1.00  0.00     0.004 C 
BRANCH  14  15
ATOM     15  C   UNL     1      16.902  -2.986  10.796  1.00  0.00     0.000 C 
BRANCH  15  16
ATOM     16  C   UNL     1      18.230  -2.218  10.653  1.00  0.00     0.000 C 
BRANCH  16  17
ATOM     17  C   UNL     1      18.241  -1.254   9.456  1.00  0.00    -0.000 C 
BRANCH  17  18
ATOM     18  C   UNL     1      19.611  -1.192   8.754  1.00  0.00    -0.000 C 
BRANCH  18  19
ATOM     19  C   UNL     1      19.765  -2.128   7.539  1.00  0.00    -0.003 C 
ATOM     20  C   UNL     1      18.446  -2.382   6.805  1.00  0.00     0.004 C 
ENDBRANCH  18  19
ENDBRANCH  17  18
ENDBRANCH  16  17
ENDBRANCH  15  16
ENDBRANCH  14  15
ENDBRANCH  13  14
ENDBRANCH   2  13
TORSDOF 15
ENDMDL
