MODEL 1
REMARK VINA RESULT:    -3.844      0.000      0.000
REMARK INTER + INTRA:          -5.573
REMARK INTER:                  -5.866
REMARK INTRA:                   0.293
REMARK UNBOUND:                 0.293
REMARK SMILES CC1=CCC[C@@H](C)C(=O)C[C@H](C(C)C)C(=O)C1
REMARK SMILES IDX 8 1 9 2 6 3 7 4 5 5 4 6 3 7 2 8 1 9 10 11 11 12 15 13 16 14
REMARK SMILES IDX 17 15 12 17 13 18 14 19
REMARK H PARENT
REMARK Flexibility Score: 70.00
ROOT
ATOM      1  C   UNL     1       8.874  -1.238  40.621  1.00  0.00     0.136 C 
ATOM      2  O   UNL     1      10.011  -1.174  40.181  1.00  0.00    -0.299 OA
ENDROOT
BRANCH   1   3
ATOM      3  C   UNL     1       8.665  -0.944  42.100  1.00  0.00     0.053 C 
ATOM      4  C   UNL     1       9.289   0.380  42.569  1.00  0.00     0.016 C 
BRANCH   3   5
ATOM      5  C   UNL     1       9.044  -2.150  42.986  1.00  0.00     0.015 C 
BRANCH   5   6
ATOM      6  C   UNL     1       8.153  -3.394  42.805  1.00  0.00     0.028 C 
BRANCH   6   7
ATOM      7  C   UNL     1       8.996  -4.592  42.448  1.00  0.00    -0.028 C 
ATOM      8  C   UNL     1       8.913  -5.268  41.278  1.00  0.00    -0.070 CG0
ATOM      9  C   UNL     1       9.742  -6.517  41.121  1.00  0.00     0.039 C 
ATOM     10  G   UNL     1       8.062  -4.793  40.110  1.00  0.00     0.000 G0
ENDBRANCH   6   7
ENDBRANCH   5   6
ENDBRANCH   3   5
ENDBRANCH   1   3
BRANCH   1  11
ATOM     11  C   UNL     1       7.746  -1.612  39.677  1.00  0.00     0.087 C 
BRANCH  11  12
ATOM     12  C   UNL     1       8.103  -2.660  38.576  1.00  0.00     0.066 C 
BRANCH  12  13
ATOM     13  C   UNL     1       8.767  -3.921  39.120  1.00  0.00     0.140 C 
ATOM     14  O   UNL     1       9.920  -4.187  38.814  1.00  0.00    -0.299 OA
BRANCH  13  15
ATOM     15  C   UNL     1       8.043  -4.802  40.111  1.00  0.00     0.106 CG0
ATOM     16  G   UNL     1       8.926  -5.238  41.270  1.00  0.00     0.000 G0
ENDBRANCH  13  15
ENDBRANCH  12  13
BRANCH  12  17
ATOM     17  C   UNL     1       6.953  -2.996  37.570  1.00  0.00    -0.006 C 
ATOM     18  C   UNL     1       5.934  -1.864  37.363  1.00  0.00     0.008 C 
ATOM     19  C   UNL     1       7.504  -3.453  36.208  1.00  0.00     0.008 C 
ENDBRANCH  12  17
ENDBRANCH  11  12
ENDBRANCH   1  11
TORSDOF 1
ENDMDL
MODEL 2
REMARK VINA RESULT:    -3.741     14.923     17.666
REMARK INTER + INTRA:          -5.416
REMARK INTER:                  -5.140
REMARK INTRA:                  -0.276
REMARK UNBOUND:                 0.293
REMARK SMILES CC1=CCC[C@@H](C)C(=O)C[C@H](C(C)C)C(=O)C1
REMARK SMILES IDX 8 1 9 2 6 3 7 4 5 5 4 6 3 7 2 8 1 9 10 11 11 12 15 13 16 14
REMARK SMILES IDX 17 15 12 17 13 18 14 19
REMARK H PARENT
REMARK Flexibility Score: 70.00
ROOT
ATOM      1  C   UNL     1      19.706 -12.980  43.988  1.00  0.00     0.136 C 
ATOM      2  O   UNL     1      19.395 -13.117  42.815  1.00  0.00    -0.299 OA
ENDROOT
BRANCH   1   3
ATOM      3  C   UNL     1      19.624 -11.584  44.589  1.00  0.00     0.053 C 
ATOM      4  C   UNL     1      18.567 -10.682  43.933  1.00  0.00     0.016 C 
BRANCH   3   5
ATOM      5  C   UNL     1      21.014 -10.922  44.699  1.00  0.00     0.015 C 
BRANCH   5   6
ATOM      6  C   UNL     1      21.566 -10.807  46.133  1.00  0.00     0.028 C 
BRANCH   6   7
ATOM      7  C   UNL     1      22.999 -11.276  46.179  1.00  0.00    -0.028 C 
ATOM      8  C   UNL     1      23.390 -12.507  46.584  1.00  0.00    -0.070 CG0
ATOM      9  C   UNL     1      24.869 -12.783  46.686  1.00  0.00     0.039 C 
ATOM     10  G   UNL     1      22.406 -13.626  46.890  1.00  0.00     0.000 G0
ENDBRANCH   6   7
ENDBRANCH   5   6
ENDBRANCH   3   5
ENDBRANCH   1   3
BRANCH   1  11
ATOM     11  C   UNL     1      20.161 -14.200  44.768  1.00  0.00     0.087 C 
BRANCH  11  12
ATOM     12  C   UNL     1      21.652 -14.616  44.568  1.00  0.00     0.066 C 
BRANCH  12  13
ATOM     13  C   UNL     1      22.429 -14.762  45.871  1.00  0.00     0.140 C 
ATOM     14  O   UNL     1      23.129 -15.746  46.061  1.00  0.00    -0.299 OA
BRANCH  13  15
ATOM     15  C   UNL     1      22.418 -13.655  46.899  1.00  0.00     0.106 CG0
ATOM     16  G   UNL     1      23.388 -12.531  46.568  1.00  0.00     0.000 G0
ENDBRANCH  13  15
ENDBRANCH  12  13
BRANCH  12  17
ATOM     17  C   UNL     1      21.887 -15.830  43.610  1.00  0.00    -0.006 C 
ATOM     18  C   UNL     1      20.706 -16.809  43.515  1.00  0.00     0.008 C 
ATOM     19  C   UNL     1      22.294 -15.370  42.198  1.00  0.00     0.008 C 
ENDBRANCH  12  17
ENDBRANCH  11  12
ENDBRANCH   1  11
TORSDOF 1
ENDMDL
MODEL 3
REMARK VINA RESULT:    -3.588      3.257      5.977
REMARK INTER + INTRA:          -5.183
REMARK INTER:                  -5.089
REMARK INTRA:                  -0.094
REMARK UNBOUND:                 0.293
REMARK SMILES CC1=CCC[C@@H](C)C(=O)C[C@H](C(C)C)C(=O)C1
REMARK SMILES IDX 8 1 9 2 6 3 7 4 5 5 4 6 3 7 2 8 1 9 10 11 11 12 15 13 16 14
REMARK SMILES IDX 17 15 12 17 13 18 14 19
REMARK H PARENT
REMARK Flexibility Score: 70.00
ROOT
ATOM      1  C   UNL     1       8.671  -2.261  42.691  1.00  0.00     0.136 C 
ATOM      2  O   UNL     1       7.889  -2.777  43.474  1.00  0.00    -0.299 OA
ENDROOT
BRANCH   1   3
ATOM      3  C   UNL     1       9.233  -3.126  41.571  1.00  0.00     0.053 C 
ATOM      4  C   UNL     1       8.180  -3.595  40.555  1.00  0.00     0.016 C 
BRANCH   3   5
ATOM      5  C   UNL     1      10.116  -4.270  42.114  1.00  0.00     0.015 C 
BRANCH   5   6
ATOM      6  C   UNL     1      11.611  -3.925  42.256  1.00  0.00     0.028 C 
BRANCH   6   7
ATOM      7  C   UNL     1      11.985  -2.823  41.297  1.00  0.00    -0.028 C 
ATOM      8  C   UNL     1      12.286  -1.556  41.664  1.00  0.00    -0.070 CG0
ATOM      9  C   UNL     1      12.524  -0.539  40.576  1.00  0.00     0.039 C 
ATOM     10  G   UNL     1      12.441  -1.133  43.118  1.00  0.00     0.000 G0
ENDBRANCH   6   7
ENDBRANCH   5   6
ENDBRANCH   3   5
ENDBRANCH   1   3
BRANCH   1  11
ATOM     11  C   UNL     1       9.041  -0.802  42.885  1.00  0.00     0.087 C 
BRANCH  11  12
ATOM     12  C   UNL     1      10.054  -0.507  44.035  1.00  0.00     0.066 C 
BRANCH  12  13
ATOM     13  C   UNL     1      11.439  -0.097  43.545  1.00  0.00     0.140 C 
ATOM     14  O   UNL     1      11.774   1.078  43.563  1.00  0.00    -0.299 OA
BRANCH  13  15
ATOM     15  C   UNL     1      12.442  -1.145  43.119  1.00  0.00     0.106 CG0
ATOM     16  G   UNL     1      12.280  -1.560  41.665  1.00  0.00     0.000 G0
ENDBRANCH  13  15
ENDBRANCH  12  13
BRANCH  12  17
ATOM     17  C   UNL     1       9.532   0.443  45.163  1.00  0.00    -0.006 C 
ATOM     18  C   UNL     1       8.005   0.613  45.200  1.00  0.00     0.008 C 
ATOM     19  C   UNL     1      10.039   0.012  46.550  1.00  0.00     0.008 C 
ENDBRANCH  12  17
ENDBRANCH  11  12
ENDBRANCH   1  11
TORSDOF 1
ENDMDL
MODEL 4
REMARK VINA RESULT:    -3.574     16.415     18.375
REMARK INTER + INTRA:          -5.161
REMARK INTER:                  -4.878
REMARK INTRA:                  -0.284
REMARK UNBOUND:                 0.293
REMARK SMILES CC1=CCC[C@@H](C)C(=O)C[C@H](C(C)C)C(=O)C1
REMARK SMILES IDX 8 1 9 2 6 3 7 4 5 5 4 6 3 7 2 8 1 9 10 11 11 12 15 13 16 14
REMARK SMILES IDX 17 15 12 17 13 18 14 19
REMARK H PARENT
REMARK Flexibility Score: 70.00
ROOT
ATOM      1  C   UNL     1      24.224 -14.168  44.786  1.00  0.00     0.136 C 
ATOM      2  O   UNL     1      25.093 -13.623  44.124  1.00  0.00    -0.299 OA
ENDROOT
BRANCH   1   3
ATOM      3  C   UNL     1      24.580 -14.622  46.195  1.00  0.00     0.053 C 
ATOM      4  C   UNL     1      23.473 -15.430  46.890  1.00  0.00     0.016 C 
BRANCH   3   5
ATOM      5  C   UNL     1      25.125 -13.460  47.054  1.00  0.00     0.015 C 
BRANCH   5   6
ATOM      6  C   UNL     1      24.120 -12.322  47.319  1.00  0.00     0.028 C 
BRANCH   6   7
ATOM      7  C   UNL     1      24.491 -11.101  46.516  1.00  0.00    -0.028 C 
ATOM      8  C   UNL     1      23.683 -10.505  45.608  1.00  0.00    -0.070 CG0
ATOM      9  C   UNL     1      24.245  -9.362  44.801  1.00  0.00     0.039 C 
ATOM     10  G   UNL     1      22.230 -10.908  45.408  1.00  0.00     0.000 G0
ENDBRANCH   6   7
ENDBRANCH   5   6
ENDBRANCH   3   5
ENDBRANCH   1   3
BRANCH   1  11
ATOM     11  C   UNL     1      22.853 -14.366  44.167  1.00  0.00     0.087 C 
BRANCH  11  12
ATOM     12  C   UNL     1      21.744 -13.375  44.641  1.00  0.00     0.066 C 
BRANCH  12  13
ATOM     13  C   UNL     1      22.031 -11.919  44.292  1.00  0.00     0.140 C 
ATOM     14  O   UNL     1      22.032 -11.557  43.125  1.00  0.00    -0.299 OA
BRANCH  13  15
ATOM     15  C   UNL     1      22.224 -10.893  45.384  1.00  0.00     0.106 CG0
ATOM     16  G   UNL     1      23.686 -10.544  45.615  1.00  0.00     0.000 G0
ENDBRANCH  13  15
ENDBRANCH  12  13
BRANCH  12  17
ATOM     17  C   UNL     1      20.278 -13.784  44.278  1.00  0.00    -0.006 C 
ATOM     18  C   UNL     1      20.096 -14.306  42.844  1.00  0.00     0.008 C 
ATOM     19  C   UNL     1      19.708 -14.805  45.279  1.00  0.00     0.008 C 
ENDBRANCH  12  17
ENDBRANCH  11  12
ENDBRANCH   1  11
TORSDOF 1
ENDMDL
MODEL 5
REMARK VINA RESULT:    -3.501     16.304     18.598
REMARK INTER + INTRA:          -5.050
REMARK INTER:                  -5.073
REMARK INTRA:                   0.024
REMARK UNBOUND:                 0.293
REMARK SMILES CC1=CCC[C@@H](C)C(=O)C[C@H](C(C)C)C(=O)C1
REMARK SMILES IDX 8 1 9 2 6 3 7 4 5 5 4 6 3 7 2 8 1 9 10 11 11 12 15 13 16 14
REMARK SMILES IDX 17 15 12 17 13 18 14 19
REMARK H PARENT
REMARK Flexibility Score: 70.00
ROOT
ATOM      1  C   UNL     1      20.495 -14.208  45.606  1.00  0.00     0.136 C 
ATOM      2  O   UNL     1      19.393 -13.988  46.085  1.00  0.00    -0.299 OA
ENDROOT
BRANCH   1   3
ATOM      3  C   UNL     1      20.627 -14.199  44.090  1.00  0.00     0.053 C 
ATOM      4  C   UNL     1      20.893 -15.584  43.477  1.00  0.00     0.016 C 
BRANCH   3   5
ATOM      5  C   UNL     1      21.612 -13.113  43.603  1.00  0.00     0.015 C 
BRANCH   5   6
ATOM      6  C   UNL     1      21.271 -11.680  44.054  1.00  0.00     0.028 C 
BRANCH   6   7
ATOM      7  C   UNL     1      22.532 -10.867  44.206  1.00  0.00    -0.028 C 
ATOM      8  C   UNL     1      23.174 -10.659  45.379  1.00  0.00    -0.070 CG0
ATOM      9  C   UNL     1      24.357  -9.725  45.383  1.00  0.00     0.039 C 
ATOM     10  G   UNL     1      22.783 -11.364  46.669  1.00  0.00     0.000 G0
ENDBRANCH   6   7
ENDBRANCH   5   6
ENDBRANCH   3   5
ENDBRANCH   1   3
BRANCH   1  11
ATOM     11  C   UNL     1      21.655 -14.482  46.544  1.00  0.00     0.087 C 
BRANCH  11  12
ATOM     12  C   UNL     1      23.040 -13.919  46.093  1.00  0.00     0.066 C 
BRANCH  12  13
ATOM     13  C   UNL     1      23.486 -12.688  46.874  1.00  0.00     0.140 C 
ATOM     14  O   UNL     1      24.463 -12.746  47.607  1.00  0.00    -0.299 OA
BRANCH  13  15
ATOM     15  C   UNL     1      22.787 -11.363  46.680  1.00  0.00     0.106 CG0
ATOM     16  G   UNL     1      23.165 -10.680  45.373  1.00  0.00     0.000 G0
ENDBRANCH  13  15
ENDBRANCH  12  13
BRANCH  12  17
ATOM     17  C   UNL     1      24.186 -14.977  45.968  1.00  0.00    -0.006 C 
ATOM     18  C   UNL     1      23.717 -16.439  46.024  1.00  0.00     0.008 C 
ATOM     19  C   UNL     1      25.032 -14.751  44.703  1.00  0.00     0.008 C 
ENDBRANCH  12  17
ENDBRANCH  11  12
ENDBRANCH   1  11
TORSDOF 1
ENDMDL
MODEL 6
REMARK VINA RESULT:    -3.465      2.165      3.417
REMARK INTER + INTRA:          -4.996
REMARK INTER:                  -5.528
REMARK INTRA:                   0.532
REMARK UNBOUND:                 0.293
REMARK SMILES CC1=CCC[C@@H](C)C(=O)C[C@H](C(C)C)C(=O)C1
REMARK SMILES IDX 8 1 9 2 6 3 7 4 5 5 4 6 3 7 2 8 1 9 10 11 11 12 15 13 16 14
REMARK SMILES IDX 17 15 12 17 13 18 14 19
REMARK H PARENT
REMARK Flexibility Score: 70.00
ROOT
ATOM      1  C   UNL     1       8.598  -1.998  41.426  1.00  0.00     0.136 C 
ATOM      2  O   UNL     1       8.665  -0.936  40.827  1.00  0.00    -0.299 OA
ENDROOT
BRANCH   1   3
ATOM      3  C   UNL     1       9.525  -2.204  42.616  1.00  0.00     0.053 C 
ATOM      4  C   UNL     1       9.229  -1.278  43.807  1.00  0.00     0.016 C 
BRANCH   3   5
ATOM      5  C   UNL     1      11.011  -2.208  42.195  1.00  0.00     0.015 C 
BRANCH   5   6
ATOM      6  C   UNL     1      11.703  -3.582  42.275  1.00  0.00     0.028 C 
BRANCH   6   7
ATOM      7  C   UNL     1      12.415  -3.884  40.980  1.00  0.00    -0.028 C 
ATOM      8  C   UNL     1      11.970  -4.755  40.046  1.00  0.00    -0.070 CG0
ATOM      9  C   UNL     1      12.856  -5.035  38.858  1.00  0.00     0.039 C 
ATOM     10  G   UNL     1      10.603  -5.419  40.121  1.00  0.00     0.000 G0
ENDBRANCH   6   7
ENDBRANCH   5   6
ENDBRANCH   3   5
ENDBRANCH   1   3
BRANCH   1  11
ATOM     11  C   UNL     1       7.610  -3.045  40.947  1.00  0.00     0.087 C 
BRANCH  11  12
ATOM     12  C   UNL     1       8.199  -4.467  40.690  1.00  0.00     0.066 C 
BRANCH  12  13
ATOM     13  C   UNL     1       9.457  -4.465  39.828  1.00  0.00     0.140 C 
ATOM     14  O   UNL     1       9.588  -3.639  38.937  1.00  0.00    -0.299 OA
BRANCH  13  15
ATOM     15  C   UNL     1      10.590  -5.419  40.124  1.00  0.00     0.106 CG0
ATOM     16  G   UNL     1      11.957  -4.758  40.038  1.00  0.00     0.000 G0
ENDBRANCH  13  15
ENDBRANCH  12  13
BRANCH  12  17
ATOM     17  C   UNL     1       8.365  -5.365  41.960  1.00  0.00    -0.006 C 
ATOM     18  C   UNL     1       7.454  -4.984  43.137  1.00  0.00     0.008 C 
ATOM     19  C   UNL     1       8.187  -6.858  41.629  1.00  0.00     0.008 C 
ENDBRANCH  12  17
ENDBRANCH  11  12
ENDBRANCH   1  11
TORSDOF 1
ENDMDL
MODEL 7
REMARK VINA RESULT:    -3.326     16.215     18.731
REMARK INTER + INTRA:          -4.783
REMARK INTER:                  -4.787
REMARK INTRA:                   0.004
REMARK UNBOUND:                 0.293
REMARK SMILES CC1=CCC[C@@H](C)C(=O)C[C@H](C(C)C)C(=O)C1
REMARK SMILES IDX 8 1 9 2 6 3 7 4 5 5 4 6 3 7 2 8 1 9 10 11 11 12 15 13 16 14
REMARK SMILES IDX 17 15 12 17 13 18 14 19
REMARK H PARENT
REMARK Flexibility Score: 70.00
ROOT
ATOM      1  C   UNL     1      22.444 -13.528  46.473  1.00  0.00     0.136 C 
ATOM      2  O   UNL     1      22.144 -14.638  46.882  1.00  0.00    -0.299 OA
ENDROOT
BRANCH   1   3
ATOM      3  C   UNL     1      23.630 -12.826  47.121  1.00  0.00     0.053 C 
ATOM      4  C   UNL     1      23.636 -11.301  46.928  1.00  0.00     0.016 C 
BRANCH   3   5
ATOM      5  C   UNL     1      24.970 -13.498  46.751  1.00  0.00     0.015 C 
BRANCH   5   6
ATOM      6  C   UNL     1      25.124 -13.861  45.261  1.00  0.00     0.028 C 
BRANCH   6   7
ATOM      7  C   UNL     1      24.958 -15.347  45.067  1.00  0.00    -0.028 C 
ATOM      8  C   UNL     1      24.194 -15.915  44.105  1.00  0.00    -0.070 CG0
ATOM      9  C   UNL     1      24.037 -17.415  44.117  1.00  0.00     0.039 C 
ATOM     10  G   UNL     1      23.533 -15.111  42.995  1.00  0.00     0.000 G0
ENDBRANCH   6   7
ENDBRANCH   5   6
ENDBRANCH   3   5
ENDBRANCH   1   3
BRANCH   1  11
ATOM     11  C   UNL     1      21.619 -12.914  45.357  1.00  0.00     0.087 C 
BRANCH  11  12
ATOM     12  C   UNL     1      22.222 -13.036  43.922  1.00  0.00     0.066 C 
BRANCH  12  13
ATOM     13  C   UNL     1      22.235 -14.461  43.380  1.00  0.00     0.140 C 
ATOM     14  O   UNL     1      21.184 -15.059  43.200  1.00  0.00    -0.299 OA
BRANCH  13  15
ATOM     15  C   UNL     1      23.535 -15.114  42.973  1.00  0.00     0.106 CG0
ATOM     16  G   UNL     1      24.177 -15.907  44.102  1.00  0.00     0.000 G0
ENDBRANCH  13  15
ENDBRANCH  12  13
BRANCH  12  17
ATOM     17  C   UNL     1      21.666 -12.018  42.872  1.00  0.00    -0.006 C 
ATOM     18  C   UNL     1      20.228 -11.546  43.137  1.00  0.00     0.008 C 
ATOM     19  C   UNL     1      22.592 -10.799  42.717  1.00  0.00     0.008 C 
ENDBRANCH  12  17
ENDBRANCH  11  12
ENDBRANCH   1  11
TORSDOF 1
ENDMDL
MODEL 8
REMARK VINA RESULT:    -3.324      2.722      4.713
REMARK INTER + INTRA:          -4.781
REMARK INTER:                  -4.627
REMARK INTRA:                  -0.154
REMARK UNBOUND:                 0.293
REMARK SMILES CC1=CCC[C@@H](C)C(=O)C[C@H](C(C)C)C(=O)C1
REMARK SMILES IDX 8 1 9 2 6 3 7 4 5 5 4 6 3 7 2 8 1 9 10 11 11 12 15 13 16 14
REMARK SMILES IDX 17 15 12 17 13 18 14 19
REMARK H PARENT
REMARK Flexibility Score: 70.00
ROOT
ATOM      1  C   UNL     1       9.791  -4.962  41.353  1.00  0.00     0.136 C 
ATOM      2  O   UNL     1       9.597  -6.146  41.122  1.00  0.00    -0.299 OA
ENDROOT
BRANCH   1   3
ATOM      3  C   UNL     1       8.599  -4.111  41.766  1.00  0.00     0.053 C 
ATOM      4  C   UNL     1       7.644  -4.808  42.748  1.00  0.00     0.016 C 
BRANCH   3   5
ATOM      5  C   UNL     1       7.883  -3.491  40.547  1.00  0.00     0.015 C 
BRANCH   5   6
ATOM      6  C   UNL     1       8.196  -2.003  40.298  1.00  0.00     0.028 C 
BRANCH   6   7
ATOM      7  C   UNL     1       8.717  -1.362  41.559  1.00  0.00    -0.028 C 
ATOM      8  C   UNL     1       9.978  -0.894  41.718  1.00  0.00    -0.070 CG0
ATOM      9  C   UNL     1      10.380  -0.388  43.081  1.00  0.00     0.039 C 
ATOM     10  G   UNL     1      10.978  -0.815  40.574  1.00  0.00     0.000 G0
ENDBRANCH   6   7
ENDBRANCH   5   6
ENDBRANCH   3   5
ENDBRANCH   1   3
BRANCH   1  11
ATOM     11  C   UNL     1      11.198  -4.413  41.205  1.00  0.00     0.087 C 
BRANCH  11  12
ATOM     12  C   UNL     1      11.403  -3.369  40.063  1.00  0.00     0.066 C 
BRANCH  12  13
ATOM     13  C   UNL     1      11.919  -2.019  40.550  1.00  0.00     0.140 C 
ATOM     14  O   UNL     1      13.098  -1.881  40.839  1.00  0.00    -0.299 OA
BRANCH  13  15
ATOM     15  C   UNL     1      11.003  -0.818  40.591  1.00  0.00     0.106 CG0
ATOM     16  G   UNL     1       9.975  -0.898  41.710  1.00  0.00     0.000 G0
ENDBRANCH  13  15
ENDBRANCH  12  13
BRANCH  12  17
ATOM     17  C   UNL     1      12.199  -3.882  38.818  1.00  0.00    -0.006 C 
ATOM     18  C   UNL     1      12.989  -5.179  39.054  1.00  0.00     0.008 C 
ATOM     19  C   UNL     1      11.288  -4.046  37.589  1.00  0.00     0.008 C 
ENDBRANCH  12  17
ENDBRANCH  11  12
ENDBRANCH   1  11
TORSDOF 1
ENDMDL
MODEL 9
REMARK VINA RESULT:    -3.108     15.314     18.104
REMARK INTER + INTRA:          -4.451
REMARK INTER:                  -4.395
REMARK INTRA:                  -0.056
REMARK UNBOUND:                 0.293
REMARK SMILES CC1=CCC[C@@H](C)C(=O)C[C@H](C(C)C)C(=O)C1
REMARK SMILES IDX 8 1 9 2 6 3 7 4 5 5 4 6 3 7 2 8 1 9 10 11 11 12 15 13 16 14
REMARK SMILES IDX 17 15 12 17 13 18 14 19
REMARK H PARENT
REMARK Flexibility Score: 70.00
ROOT
ATOM      1  C   UNL     1      21.607 -11.863  43.121  1.00  0.00     0.136 C 
ATOM      2  O   UNL     1      21.354 -10.755  42.673  1.00  0.00    -0.299 OA
ENDROOT
BRANCH   1   3
ATOM      3  C   UNL     1      20.438 -12.775  43.468  1.00  0.00     0.053 C 
ATOM      4  C   UNL     1      19.265 -12.693  42.479  1.00  0.00     0.016 C 
BRANCH   3   5
ATOM      5  C   UNL     1      20.009 -12.626  44.943  1.00  0.00     0.015 C 
BRANCH   5   6
ATOM      6  C   UNL     1      20.328 -13.839  45.838  1.00  0.00     0.028 C 
BRANCH   6   7
ATOM      7  C   UNL     1      20.550 -15.067  44.992  1.00  0.00    -0.028 C 
ATOM      8  C   UNL     1      21.752 -15.657  44.796  1.00  0.00    -0.070 CG0
ATOM      9  C   UNL     1      21.827 -16.809  43.826  1.00  0.00     0.039 C 
ATOM     10  G   UNL     1      23.007 -15.239  45.547  1.00  0.00     0.000 G0
ENDBRANCH   6   7
ENDBRANCH   5   6
ENDBRANCH   3   5
ENDBRANCH   1   3
BRANCH   1  11
ATOM     11  C   UNL     1      23.059 -12.259  43.310  1.00  0.00     0.087 C 
BRANCH  11  12
ATOM     12  C   UNL     1      23.444 -12.767  44.735  1.00  0.00     0.066 C 
BRANCH  12  13
ATOM     13  C   UNL     1      23.846 -14.238  44.775  1.00  0.00     0.140 C 
ATOM     14  O   UNL     1      24.888 -14.603  44.251  1.00  0.00    -0.299 OA
BRANCH  13  15
ATOM     15  C   UNL     1      23.012 -15.240  45.539  1.00  0.00     0.106 CG0
ATOM     16  G   UNL     1      21.758 -15.661  44.787  1.00  0.00     0.000 G0
ENDBRANCH  13  15
ENDBRANCH  12  13
BRANCH  12  17
ATOM     17  C   UNL     1      24.452 -11.866  45.521  1.00  0.00    -0.006 C 
ATOM     18  C   UNL     1      24.266 -10.356  45.302  1.00  0.00     0.008 C 
ATOM     19  C   UNL     1      24.439 -12.177  47.028  1.00  0.00     0.008 C 
ENDBRANCH  12  17
ENDBRANCH  11  12
ENDBRANCH   1  11
TORSDOF 1
ENDMDL
