MODEL 1
REMARK VINA RESULT:    -3.058      0.000      0.000
REMARK INTER + INTRA:          -3.800
REMARK INTER:                  -3.594
REMARK INTRA:                  -0.206
REMARK UNBOUND:                -0.206
REMARK SMILES [NH3+][C@@H](CO)C(=O)[O-]
REMARK SMILES IDX 3 1 2 2 1 3 5 7 6 8 7 9 4 10
REMARK H PARENT 1 4 1 5 1 6 4 11
REMARK Flexibility Score: inf
ROOT
ATOM      1  C   UNL     1       1.165  10.734  -8.981  1.00  0.00     0.227 C 
ENDROOT
BRANCH   1   2
ATOM      2  C   UNL     1       2.660  10.799  -8.620  1.00  0.00     0.253 C 
BRANCH   2   3
ATOM      3  N   UNL     1       3.197   9.451  -8.399  1.00  0.00    -0.348 N 
ATOM      4  H   UNL     1       3.374   9.285  -7.381  1.00  0.00     0.345 HD
ATOM      5  H   UNL     1       4.093   9.336  -8.927  1.00  0.00     0.345 HD
ATOM      6  H   UNL     1       2.516   8.738  -8.749  1.00  0.00     0.345 HD
ENDBRANCH   2   3
BRANCH   2   7
ATOM      7  C   UNL     1       2.871  11.652  -7.397  1.00  0.00     0.102 C 
ATOM      8  O   UNL     1       3.529  12.722  -7.477  1.00  0.00    -0.544 OA
ATOM      9  O   UNL     1       2.331  11.270  -6.174  1.00  0.00    -0.544 OA
ENDBRANCH   2   7
ENDBRANCH   1   2
BRANCH   1  10
ATOM     10  O   UNL     1       0.403  10.327  -7.877  1.00  0.00    -0.390 OA
ATOM     11  H   UNL     1      -0.541  10.288  -8.183  1.00  0.00     0.210 HD
ENDBRANCH   1  10
TORSDOF 4
ENDMDL
MODEL 2
REMARK VINA RESULT:    -2.856      1.189      2.514
REMARK INTER + INTRA:          -3.563
REMARK INTER:                  -3.337
REMARK INTRA:                  -0.226
REMARK UNBOUND:                -0.206
REMARK SMILES [NH3+][C@@H](CO)C(=O)[O-]
REMARK SMILES IDX 3 1 2 2 1 3 5 7 6 8 7 9 4 10
REMARK H PARENT 1 4 1 5 1 6 4 11
REMARK Flexibility Score: inf
ROOT
ATOM      1  C   UNL     1       3.816  11.956  -8.375  1.00  0.00     0.227 C 
ENDROOT
BRANCH   1   2
ATOM      2  C   UNL     1       2.959  10.905  -7.647  1.00  0.00     0.253 C 
BRANCH   2   3
ATOM      3  N   UNL     1       2.619   9.800  -8.550  1.00  0.00    -0.348 N 
ATOM      4  H   UNL     1       2.165  10.160  -9.422  1.00  0.00     0.345 HD
ATOM      5  H   UNL     1       1.966   9.138  -8.071  1.00  0.00     0.345 HD
ATOM      6  H   UNL     1       3.486   9.275  -8.808  1.00  0.00     0.345 HD
ENDBRANCH   2   3
BRANCH   2   7
ATOM      7  C   UNL     1       1.706  11.534  -7.097  1.00  0.00     0.102 C 
ATOM      8  O   UNL     1       1.783  12.481  -6.271  1.00  0.00    -0.544 OA
ATOM      9  O   UNL     1       0.457  11.081  -7.505  1.00  0.00    -0.544 OA
ENDBRANCH   2   7
ENDBRANCH   1   2
BRANCH   1  10
ATOM     10  O   UNL     1       4.401  12.843  -7.460  1.00  0.00    -0.390 OA
ATOM     11  H   UNL     1       4.607  13.675  -7.962  1.00  0.00     0.210 HD
ENDBRANCH   1  10
TORSDOF 4
ENDMDL
MODEL 3
REMARK VINA RESULT:    -2.783     10.570     11.458
REMARK INTER + INTRA:          -3.478
REMARK INTER:                  -3.108
REMARK INTRA:                  -0.370
REMARK UNBOUND:                -0.206
REMARK SMILES [NH3+][C@@H](CO)C(=O)[O-]
REMARK SMILES IDX 3 1 2 2 1 3 5 7 6 8 7 9 4 10
REMARK H PARENT 1 4 1 5 1 6 4 11
REMARK Flexibility Score: inf
ROOT
ATOM      1  C   UNL     1       3.948   7.262   3.697  1.00  0.00     0.227 C 
ENDROOT
BRANCH   1   2
ATOM      2  C   UNL     1       2.511   7.792   3.546  1.00  0.00     0.253 C 
BRANCH   2   3
ATOM      3  N   UNL     1       1.549   6.851   4.131  1.00  0.00    -0.348 N 
ATOM      4  H   UNL     1       1.771   6.672   5.138  1.00  0.00     0.345 HD
ATOM      5  H   UNL     1       1.575   5.946   3.607  1.00  0.00     0.345 HD
ATOM      6  H   UNL     1       0.582   7.244   4.058  1.00  0.00     0.345 HD
ENDBRANCH   2   3
BRANCH   2   7
ATOM      7  C   UNL     1       2.187   8.035   2.095  1.00  0.00     0.102 C 
ATOM      8  O   UNL     1       1.654   7.128   1.405  1.00  0.00    -0.544 OA
ATOM      9  O   UNL     1       2.466   9.265   1.511  1.00  0.00    -0.544 OA
ENDBRANCH   2   7
ENDBRANCH   1   2
BRANCH   1  10
ATOM     10  O   UNL     1       4.669   7.432   2.506  1.00  0.00    -0.390 OA
ATOM     11  H   UNL     1       4.029   7.785   1.834  1.00  0.00     0.210 HD
ENDBRANCH   1  10
TORSDOF 4
ENDMDL
MODEL 4
REMARK VINA RESULT:    -2.723     10.528     11.360
REMARK INTER + INTRA:          -3.407
REMARK INTER:                  -3.192
REMARK INTRA:                  -0.214
REMARK UNBOUND:                -0.206
REMARK SMILES [NH3+][C@@H](CO)C(=O)[O-]
REMARK SMILES IDX 3 1 2 2 1 3 5 7 6 8 7 9 4 10
REMARK H PARENT 1 4 1 5 1 6 4 11
REMARK Flexibility Score: inf
ROOT
ATOM      1  C   UNL     1       3.767   7.561   3.565  1.00  0.00     0.227 C 
ENDROOT
BRANCH   1   2
ATOM      2  C   UNL     1       2.493   6.770   3.221  1.00  0.00     0.253 C 
BRANCH   2   3
ATOM      3  N   UNL     1       2.832   5.412   2.781  1.00  0.00    -0.348 N 
ATOM      4  H   UNL     1       3.561   5.436   2.029  1.00  0.00     0.345 HD
ATOM      5  H   UNL     1       1.976   4.934   2.415  1.00  0.00     0.345 HD
ATOM      6  H   UNL     1       3.195   4.858   3.591  1.00  0.00     0.345 HD
ENDBRANCH   2   3
BRANCH   2   7
ATOM      7  C   UNL     1       1.701   7.482   2.155  1.00  0.00     0.102 C 
ATOM      8  O   UNL     1       2.240   8.384   1.463  1.00  0.00    -0.544 OA
ATOM      9  O   UNL     1       0.374   7.140   1.923  1.00  0.00    -0.544 OA
ENDBRANCH   2   7
ENDBRANCH   1   2
BRANCH   1  10
ATOM     10  O   UNL     1       4.692   7.500   2.513  1.00  0.00    -0.390 OA
ATOM     11  H   UNL     1       4.776   8.422   2.153  1.00  0.00     0.210 HD
ENDBRANCH   1  10
TORSDOF 4
ENDMDL
MODEL 5
REMARK VINA RESULT:    -2.718     10.735     11.125
REMARK INTER + INTRA:          -3.400
REMARK INTER:                  -3.184
REMARK INTRA:                  -0.217
REMARK UNBOUND:                -0.206
REMARK SMILES [NH3+][C@@H](CO)C(=O)[O-]
REMARK SMILES IDX 3 1 2 2 1 3 5 7 6 8 7 9 4 10
REMARK H PARENT 1 4 1 5 1 6 4 11
REMARK Flexibility Score: inf
ROOT
ATOM      1  C   UNL     1       1.665   6.379   2.550  1.00  0.00     0.227 C 
ENDROOT
BRANCH   1   2
ATOM      2  C   UNL     1       2.466   7.400   3.378  1.00  0.00     0.253 C 
BRANCH   2   3
ATOM      3  N   UNL     1       1.562   8.310   4.091  1.00  0.00    -0.348 N 
ATOM      4  H   UNL     1       1.385   9.174   3.527  1.00  0.00     0.345 HD
ATOM      5  H   UNL     1       1.983   8.579   5.010  1.00  0.00     0.345 HD
ATOM      6  H   UNL     1       0.652   7.829   4.275  1.00  0.00     0.345 HD
ENDBRANCH   2   3
BRANCH   2   7
ATOM      7  C   UNL     1       3.401   8.182   2.491  1.00  0.00     0.102 C 
ATOM      8  O   UNL     1       2.945   9.038   1.689  1.00  0.00    -0.544 OA
ATOM      9  O   UNL     1       4.773   7.970   2.560  1.00  0.00    -0.544 OA
ENDBRANCH   2   7
ENDBRANCH   1   2
BRANCH   1  10
ATOM     10  O   UNL     1       1.789   6.643   1.178  1.00  0.00    -0.390 OA
ATOM     11  H   UNL     1       2.722   6.950   1.030  1.00  0.00     0.210 HD
ENDBRANCH   1  10
TORSDOF 4
ENDMDL
MODEL 6
REMARK VINA RESULT:    -2.626     10.761     11.155
REMARK INTER + INTRA:          -3.293
REMARK INTER:                  -2.898
REMARK INTRA:                  -0.395
REMARK UNBOUND:                -0.206
REMARK SMILES [NH3+][C@@H](CO)C(=O)[O-]
REMARK SMILES IDX 3 1 2 2 1 3 5 7 6 8 7 9 4 10
REMARK H PARENT 1 4 1 5 1 6 4 11
REMARK Flexibility Score: inf
ROOT
ATOM      1  C   UNL     1       0.583   6.527   2.356  1.00  0.00     0.227 C 
ENDROOT
BRANCH   1   2
ATOM      2  C   UNL     1      -0.731   7.198   2.792  1.00  0.00     0.253 C 
BRANCH   2   3
ATOM      3  N   UNL     1      -1.885   6.385   2.391  1.00  0.00    -0.348 N 
ATOM      4  H   UNL     1      -1.601   5.657   1.695  1.00  0.00     0.345 HD
ATOM      5  H   UNL     1      -2.621   6.997   1.969  1.00  0.00     0.345 HD
ATOM      6  H   UNL     1      -2.294   5.914   3.231  1.00  0.00     0.345 HD
ENDBRANCH   2   3
BRANCH   2   7
ATOM      7  C   UNL     1      -0.838   8.581   2.205  1.00  0.00     0.102 C 
ATOM      8  O   UNL     1      -1.475   8.767   1.134  1.00  0.00    -0.544 OA
ATOM      9  O   UNL     1      -0.244   9.663   2.844  1.00  0.00    -0.544 OA
ENDBRANCH   2   7
ENDBRANCH   1   2
BRANCH   1  10
ATOM     10  O   UNL     1       1.305   7.361   1.490  1.00  0.00    -0.390 OA
ATOM     11  H   UNL     1       2.054   6.817   1.131  1.00  0.00     0.210 HD
ENDBRANCH   1  10
TORSDOF 4
ENDMDL
MODEL 7
REMARK VINA RESULT:    -2.547      2.090      2.169
REMARK INTER + INTRA:          -3.199
REMARK INTER:                  -2.980
REMARK INTRA:                  -0.219
REMARK UNBOUND:                -0.206
REMARK SMILES [NH3+][C@@H](CO)C(=O)[O-]
REMARK SMILES IDX 3 1 2 2 1 3 5 7 6 8 7 9 4 10
REMARK H PARENT 1 4 1 5 1 6 4 11
REMARK Flexibility Score: inf
ROOT
ATOM      1  C   UNL     1       1.692  10.734  -8.988  1.00  0.00     0.227 C 
ENDROOT
BRANCH   1   2
ATOM      2  C   UNL     1       0.863  11.264  -7.805  1.00  0.00     0.253 C 
BRANCH   2   3
ATOM      3  N   UNL     1      -0.083  12.292  -8.255  1.00  0.00    -0.348 N 
ATOM      4  H   UNL     1      -0.667  11.936  -9.047  1.00  0.00     0.345 HD
ATOM      5  H   UNL     1       0.440  13.142  -8.569  1.00  0.00     0.345 HD
ATOM      6  H   UNL     1      -0.710  12.566  -7.464  1.00  0.00     0.345 HD
ENDBRANCH   2   3
BRANCH   2   7
ATOM      7  C   UNL     1       1.766  11.820  -6.734  1.00  0.00     0.102 C 
ATOM      8  O   UNL     1       2.875  12.327  -7.043  1.00  0.00    -0.544 OA
ATOM      9  O   UNL     1       1.376  11.785  -5.401  1.00  0.00    -0.544 OA
ENDBRANCH   2   7
ENDBRANCH   1   2
BRANCH   1  10
ATOM     10  O   UNL     1       2.537   9.693  -8.578  1.00  0.00    -0.390 OA
ATOM     11  H   UNL     1       3.412   9.845  -9.023  1.00  0.00     0.210 HD
ENDBRANCH   1  10
TORSDOF 4
ENDMDL
MODEL 8
REMARK VINA RESULT:    -2.524     10.891     11.433
REMARK INTER + INTRA:          -3.173
REMARK INTER:                  -2.789
REMARK INTRA:                  -0.384
REMARK UNBOUND:                -0.206
REMARK SMILES [NH3+][C@@H](CO)C(=O)[O-]
REMARK SMILES IDX 3 1 2 2 1 3 5 7 6 8 7 9 4 10
REMARK H PARENT 1 4 1 5 1 6 4 11
REMARK Flexibility Score: inf
ROOT
ATOM      1  C   UNL     1       2.006   7.868   2.302  1.00  0.00     0.227 C 
ENDROOT
BRANCH   1   2
ATOM      2  C   UNL     1       0.710   8.154   3.082  1.00  0.00     0.253 C 
BRANCH   2   3
ATOM      3  N   UNL     1       0.809   7.642   4.453  1.00  0.00    -0.348 N 
ATOM      4  H   UNL     1       0.103   6.886   4.618  1.00  0.00     0.345 HD
ATOM      5  H   UNL     1       0.646   8.419   5.135  1.00  0.00     0.345 HD
ATOM      6  H   UNL     1       1.768   7.257   4.618  1.00  0.00     0.345 HD
ENDBRANCH   2   3
BRANCH   2   7
ATOM      7  C   UNL     1      -0.474   7.542   2.380  1.00  0.00     0.102 C 
ATOM      8  O   UNL     1      -1.157   8.229   1.575  1.00  0.00    -0.544 OA
ATOM      9  O   UNL     1      -0.815   6.214   2.608  1.00  0.00    -0.544 OA
ENDBRANCH   2   7
ENDBRANCH   1   2
BRANCH   1  10
ATOM     10  O   UNL     1       1.767   6.971   1.251  1.00  0.00    -0.390 OA
ATOM     11  H   UNL     1       1.405   6.142   1.661  1.00  0.00     0.210 HD
ENDBRANCH   1  10
TORSDOF 4
ENDMDL
MODEL 9
REMARK VINA RESULT:    -2.515     11.320     11.845
REMARK INTER + INTRA:          -3.162
REMARK INTER:                  -2.793
REMARK INTRA:                  -0.369
REMARK UNBOUND:                -0.206
REMARK SMILES [NH3+][C@@H](CO)C(=O)[O-]
REMARK SMILES IDX 3 1 2 2 1 3 5 7 6 8 7 9 4 10
REMARK H PARENT 1 4 1 5 1 6 4 11
REMARK Flexibility Score: inf
ROOT
ATOM      1  C   UNL     1      -2.183   6.543   3.545  1.00  0.00     0.227 C 
ENDROOT
BRANCH   1   2
ATOM      2  C   UNL     1      -1.642   7.980   3.438  1.00  0.00     0.253 C 
BRANCH   2   3
ATOM      3  N   UNL     1      -2.720   8.955   3.638  1.00  0.00    -0.348 N 
ATOM      4  H   UNL     1      -3.390   8.936   2.834  1.00  0.00     0.345 HD
ATOM      5  H   UNL     1      -2.317   9.916   3.728  1.00  0.00     0.345 HD
ATOM      6  H   UNL     1      -3.237   8.733   4.520  1.00  0.00     0.345 HD
ENDBRANCH   2   3
BRANCH   2   7
ATOM      7  C   UNL     1      -0.982   8.198   2.101  1.00  0.00     0.102 C 
ATOM      8  O   UNL     1       0.184   7.772   1.894  1.00  0.00    -0.544 OA
ATOM      9  O   UNL     1      -1.660   8.861   1.085  1.00  0.00    -0.544 OA
ENDBRANCH   2   7
ENDBRANCH   1   2
BRANCH   1  10
ATOM     10  O   UNL     1      -2.259   5.944   2.279  1.00  0.00    -0.390 OA
ATOM     11  H   UNL     1      -2.228   4.962   2.427  1.00  0.00     0.210 HD
ENDBRANCH   1  10
TORSDOF 4
ENDMDL
