MODEL 1
REMARK VINA RESULT:     2.425      0.000      0.000
REMARK INTER + INTRA:           3.411
REMARK INTER:                   3.701
REMARK INTRA:                  -0.289
REMARK UNBOUND:                -0.289
REMARK SMILES O=C([O-])CCCCCCCCC(=O)[O-]
REMARK SMILES IDX 7 1 6 2 5 3 4 4 2 5 1 6 3 7 8 8 9 9 10 10 11 11 12 12 13 13
REMARK SMILES IDX 14 14
REMARK H PARENT
REMARK Flexibility Score: inf
ROOT
ATOM      1  C   UNL     1      10.889  -2.112 -16.755  1.00  0.00     0.000 C 
ENDROOT
BRANCH   1   2
ATOM      2  C   UNL     1      12.124  -1.251 -16.451  1.00  0.00     0.000 C 
BRANCH   2   3
ATOM      3  C   UNL     1      12.067   0.125 -17.134  1.00  0.00     0.006 C 
BRANCH   3   4
ATOM      4  C   UNL     1      13.374   0.914 -16.982  1.00  0.00     0.053 C 
BRANCH   4   5
ATOM      5  C   UNL     1      14.066   1.037 -18.303  1.00  0.00     0.041 C 
ATOM      6  O   UNL     1      13.662   1.872 -19.155  1.00  0.00    -0.550 OA
ATOM      7  O   UNL     1      15.186   0.262 -18.576  1.00  0.00    -0.550 OA
ENDBRANCH   4   5
ENDBRANCH   3   4
ENDBRANCH   2   3
ENDBRANCH   1   2
BRANCH   1   8
ATOM      8  C   UNL     1      11.145  -3.583 -16.403  1.00  0.00     0.000 C 
BRANCH   8   9
ATOM      9  C   UNL     1      11.206  -4.449 -17.669  1.00  0.00     0.000 C 
BRANCH   9  10
ATOM     10  C   UNL     1      12.169  -5.642 -17.531  1.00  0.00     0.006 C 
BRANCH  10  11
ATOM     11  C   UNL     1      12.825  -6.081 -18.851  1.00  0.00     0.053 C 
BRANCH  11  12
ATOM     12  C   UNL     1      14.243  -6.519 -18.653  1.00  0.00     0.041 C 
ATOM     13  O   UNL     1      14.522  -7.393 -17.791  1.00  0.00    -0.550 OA
ATOM     14  O   UNL     1      15.262  -5.938 -19.398  1.00  0.00    -0.550 OA
ENDBRANCH  11  12
ENDBRANCH  10  11
ENDBRANCH   9  10
ENDBRANCH   8   9
ENDBRANCH   1   8
TORSDOF 9
ENDMDL
MODEL 2
REMARK VINA RESULT:     2.472      0.148      6.399
REMARK INTER + INTRA:           3.484
REMARK INTER:                   3.760
REMARK INTRA:                  -0.276
REMARK UNBOUND:                -0.289
REMARK SMILES O=C([O-])CCCCCCCCC(=O)[O-]
REMARK SMILES IDX 7 1 6 2 5 3 4 4 2 5 1 6 3 7 8 8 9 9 10 10 11 11 12 12 13 13
REMARK SMILES IDX 14 14
REMARK H PARENT
REMARK Flexibility Score: inf
ROOT
ATOM      1  C   UNL     1      11.174  -3.696 -16.403  1.00  0.00     0.000 C 
ENDROOT
BRANCH   1   2
ATOM      2  C   UNL     1      11.238  -4.571 -17.665  1.00  0.00     0.000 C 
BRANCH   2   3
ATOM      3  C   UNL     1      12.248  -5.722 -17.536  1.00  0.00     0.006 C 
BRANCH   3   4
ATOM      4  C   UNL     1      12.898  -6.091 -18.876  1.00  0.00     0.053 C 
BRANCH   4   5
ATOM      5  C   UNL     1      14.310  -6.539 -18.664  1.00  0.00     0.041 C 
ATOM      6  O   UNL     1      14.569  -7.442 -17.826  1.00  0.00    -0.550 OA
ATOM      7  O   UNL     1      15.334  -5.994 -19.428  1.00  0.00    -0.550 OA
ENDBRANCH   4   5
ENDBRANCH   3   4
ENDBRANCH   2   3
ENDBRANCH   1   2
BRANCH   1   8
ATOM      8  C   UNL     1      10.814  -2.248 -16.757  1.00  0.00     0.000 C 
BRANCH   8   9
ATOM      9  C   UNL     1      11.913  -1.279 -16.297  1.00  0.00     0.000 C 
BRANCH   9  10
ATOM     10  C   UNL     1      12.101  -0.090 -17.256  1.00  0.00     0.006 C 
BRANCH  10  11
ATOM     11  C   UNL     1      13.367   0.741 -16.992  1.00  0.00     0.053 C 
BRANCH  11  12
ATOM     12  C   UNL     1      14.101   1.062 -18.257  1.00  0.00     0.041 C 
ATOM     13  O   UNL     1      13.704   1.999 -18.999  1.00  0.00    -0.550 OA
ATOM     14  O   UNL     1      15.203   0.305 -18.634  1.00  0.00    -0.550 OA
ENDBRANCH  11  12
ENDBRANCH  10  11
ENDBRANCH   9  10
ENDBRANCH   8   9
ENDBRANCH   1   8
TORSDOF 9
ENDMDL
MODEL 3
REMARK VINA RESULT:     5.053      2.429      2.747
REMARK INTER + INTRA:           7.422
REMARK INTER:                   7.737
REMARK INTRA:                  -0.316
REMARK UNBOUND:                -0.289
REMARK SMILES O=C([O-])CCCCCCCCC(=O)[O-]
REMARK SMILES IDX 7 1 6 2 5 3 4 4 2 5 1 6 3 7 8 8 9 9 10 10 11 11 12 12 13 13
REMARK SMILES IDX 14 14
REMARK H PARENT
REMARK Flexibility Score: inf
ROOT
ATOM      1  C   UNL     1      10.789  -2.336 -16.691  1.00  0.00     0.000 C 
ENDROOT
BRANCH   1   2
ATOM      2  C   UNL     1      12.031  -1.489 -17.006  1.00  0.00     0.000 C 
BRANCH   2   3
ATOM      3  C   UNL     1      11.847  -0.009 -16.637  1.00  0.00     0.006 C 
BRANCH   3   4
ATOM      4  C   UNL     1      12.003   0.248 -15.132  1.00  0.00     0.053 C 
BRANCH   4   5
ATOM      5  C   UNL     1      10.925   1.166 -14.646  1.00  0.00     0.041 C 
ATOM      6  O   UNL     1      10.882   2.360 -15.043  1.00  0.00    -0.550 OA
ATOM      7  O   UNL     1       9.939   0.688 -13.791  1.00  0.00    -0.550 OA
ENDBRANCH   4   5
ENDBRANCH   3   4
ENDBRANCH   2   3
ENDBRANCH   1   2
BRANCH   1   8
ATOM      8  C   UNL     1      11.177  -3.789 -16.392  1.00  0.00     0.000 C 
BRANCH   8   9
ATOM      9  C   UNL     1      11.161  -4.637 -17.673  1.00  0.00     0.000 C 
BRANCH   9  10
ATOM     10  C   UNL     1      12.208  -5.765 -17.656  1.00  0.00     0.006 C 
BRANCH  10  11
ATOM     11  C   UNL     1      13.062  -5.855 -18.932  1.00  0.00     0.053 C 
BRANCH  11  12
ATOM     12  C   UNL     1      14.377  -6.525 -18.682  1.00  0.00     0.041 C 
ATOM     13  O   UNL     1      14.498  -7.351 -17.740  1.00  0.00    -0.550 OA
ATOM     14  O   UNL     1      15.479  -6.210 -19.467  1.00  0.00    -0.550 OA
ENDBRANCH  11  12
ENDBRANCH  10  11
ENDBRANCH   9  10
ENDBRANCH   8   9
ENDBRANCH   1   8
TORSDOF 9
ENDMDL
