MODEL 1
REMARK VINA RESULT:     7.444      0.000      0.000
REMARK INTER + INTRA:          13.321
REMARK INTER:                  14.406
REMARK INTRA:                  -1.085
REMARK UNBOUND:                -1.085
REMARK SMILES CCCCCCCCCCCCCCCCCC(=O)[O-]
REMARK SMILES IDX 10 1 11 2 12 3 13 4 14 5 15 6 16 7 17 8 18 9 19 10 20 11
REMARK SMILES IDX 9 12 8 13 7 14 6 15 5 16 4 17 3 18 2 19 1 20
REMARK H PARENT
REMARK Flexibility Score: inf
ROOT
ATOM      1  C   UNL     1      15.900  14.737 -12.786  1.00  0.00     0.000 C 
ENDROOT
BRANCH   1   2
ATOM      2  C   UNL     1      17.265  14.161 -13.199  1.00  0.00     0.000 C 
BRANCH   2   3
ATOM      3  C   UNL     1      18.275  15.256 -13.583  1.00  0.00     0.000 C 
BRANCH   3   4
ATOM      4  C   UNL     1      17.885  16.639 -13.034  1.00  0.00     0.000 C 
BRANCH   4   5
ATOM      5  C   UNL     1      18.949  17.221 -12.089  1.00  0.00     0.000 C 
BRANCH   5   6
ATOM      6  C   UNL     1      18.346  17.833 -10.815  1.00  0.00     0.000 C 
BRANCH   6   7
ATOM      7  C   UNL     1      18.088  19.336 -10.997  1.00  0.00     0.006 C 
BRANCH   7   8
ATOM      8  C   UNL     1      18.471  19.826 -12.399  1.00  0.00     0.053 C 
BRANCH   8   9
ATOM      9  C   UNL     1      19.639  20.762 -12.361  1.00  0.00     0.041 C 
ATOM     10  O   UNL     1      19.460  22.006 -12.453  1.00  0.00    -0.550 OA
ATOM     11  O   UNL     1      20.931  20.259 -12.261  1.00  0.00    -0.550 OA
ENDBRANCH   8   9
ENDBRANCH   7   8
ENDBRANCH   6   7
ENDBRANCH   5   6
ENDBRANCH   4   5
ENDBRANCH   3   4
ENDBRANCH   2   3
ENDBRANCH   1   2
BRANCH   1  12
ATOM     12  C   UNL     1      14.968  13.680 -12.169  1.00  0.00     0.000 C 
BRANCH  12  13
ATOM     13  C   UNL     1      14.655  13.877 -10.672  1.00  0.00    -0.000 C 
BRANCH  13  14
ATOM     14  C   UNL     1      14.613  15.358 -10.235  1.00  0.00    -0.000 C 
BRANCH  14  15
ATOM     15  C   UNL     1      15.703  15.687  -9.200  1.00  0.00    -0.000 C 
BRANCH  15  16
ATOM     16  C   UNL     1      15.239  15.448  -7.754  1.00  0.00    -0.000 C 
BRANCH  16  17
ATOM     17  C   UNL     1      13.950  16.220  -7.418  1.00  0.00    -0.000 C 
BRANCH  17  18
ATOM     18  C   UNL     1      14.203  17.401  -6.467  1.00  0.00    -0.000 C 
BRANCH  18  19
ATOM     19  C   UNL     1      12.961  17.772  -5.644  1.00  0.00    -0.003 C 
ATOM     20  C   UNL     1      11.920  16.657  -5.687  1.00  0.00     0.004 C 
ENDBRANCH  18  19
ENDBRANCH  17  18
ENDBRANCH  16  17
ENDBRANCH  15  16
ENDBRANCH  14  15
ENDBRANCH  13  14
ENDBRANCH  12  13
ENDBRANCH   1  12
TORSDOF 16
ENDMDL
MODEL 2
REMARK VINA RESULT:     7.589      3.276      6.972
REMARK INTER + INTRA:          13.603
REMARK INTER:                  14.923
REMARK INTRA:                  -1.320
REMARK UNBOUND:                -1.085
REMARK SMILES CCCCCCCCCCCCCCCCCC(=O)[O-]
REMARK SMILES IDX 10 1 11 2 12 3 13 4 14 5 15 6 16 7 17 8 18 9 19 10 20 11
REMARK SMILES IDX 9 12 8 13 7 14 6 15 5 16 4 17 3 18 2 19 1 20
REMARK H PARENT
REMARK Flexibility Score: inf
ROOT
ATOM      1  C   UNL     1      17.430  13.797 -12.993  1.00  0.00     0.000 C 
ENDROOT
BRANCH   1   2
ATOM      2  C   UNL     1      16.005  14.353 -13.161  1.00  0.00     0.000 C 
BRANCH   2   3
ATOM      3  C   UNL     1      15.132  14.123 -11.917  1.00  0.00     0.000 C 
BRANCH   3   4
ATOM      4  C   UNL     1      14.881  15.417 -11.123  1.00  0.00     0.000 C 
BRANCH   4   5
ATOM      5  C   UNL     1      14.588  15.150  -9.637  1.00  0.00     0.000 C 
BRANCH   5   6
ATOM      6  C   UNL     1      15.605  15.819  -8.700  1.00  0.00     0.000 C 
BRANCH   6   7
ATOM      7  C   UNL     1      15.095  15.825  -7.251  1.00  0.00     0.006 C 
BRANCH   7   8
ATOM      8  C   UNL     1      13.614  16.216  -7.158  1.00  0.00     0.053 C 
BRANCH   8   9
ATOM      9  C   UNL     1      13.396  17.341  -6.193  1.00  0.00     0.041 C 
ATOM     10  O   UNL     1      14.227  18.285  -6.120  1.00  0.00    -0.550 OA
ATOM     11  O   UNL     1      12.294  17.327  -5.348  1.00  0.00    -0.550 OA
ENDBRANCH   8   9
ENDBRANCH   7   8
ENDBRANCH   6   7
ENDBRANCH   5   6
ENDBRANCH   4   5
ENDBRANCH   3   4
ENDBRANCH   2   3
ENDBRANCH   1   2
BRANCH   1  12
ATOM     12  C   UNL     1      18.514  14.781 -13.466  1.00  0.00     0.000 C 
BRANCH  12  13
ATOM     13  C   UNL     1      18.161  16.273 -13.300  1.00  0.00    -0.000 C 
BRANCH  13  14
ATOM     14  C   UNL     1      18.886  16.956 -12.121  1.00  0.00    -0.000 C 
BRANCH  14  15
ATOM     15  C   UNL     1      17.901  17.622 -11.143  1.00  0.00    -0.000 C 
BRANCH  15  16
ATOM     16  C   UNL     1      18.151  19.131 -10.987  1.00  0.00    -0.000 C 
BRANCH  16  17
ATOM     17  C   UNL     1      18.410  19.824 -12.337  1.00  0.00    -0.000 C 
BRANCH  17  18
ATOM     18  C   UNL     1      19.095  21.190 -12.174  1.00  0.00    -0.000 C 
BRANCH  18  19
ATOM     19  C   UNL     1      20.587  21.151 -12.537  1.00  0.00    -0.003 C 
ATOM     20  C   UNL     1      21.186  19.779 -12.246  1.00  0.00     0.004 C 
ENDBRANCH  18  19
ENDBRANCH  17  18
ENDBRANCH  16  17
ENDBRANCH  15  16
ENDBRANCH  14  15
ENDBRANCH  13  14
ENDBRANCH  12  13
ENDBRANCH   1  12
TORSDOF 16
ENDMDL
MODEL 3
REMARK VINA RESULT:     7.973      6.851     11.602
REMARK INTER + INTRA:          14.345
REMARK INTER:                  15.074
REMARK INTRA:                  -0.729
REMARK UNBOUND:                -1.085
REMARK SMILES CCCCCCCCCCCCCCCCCC(=O)[O-]
REMARK SMILES IDX 10 1 11 2 12 3 13 4 14 5 15 6 16 7 17 8 18 9 19 10 20 11
REMARK SMILES IDX 9 12 8 13 7 14 6 15 5 16 4 17 3 18 2 19 1 20
REMARK H PARENT
REMARK Flexibility Score: inf
ROOT
ATOM      1  C   UNL     1      11.706  15.854  -4.438  1.00  0.00     0.000 C 
ENDROOT
BRANCH   1   2
ATOM      2  C   UNL     1      10.903  14.544  -4.515  1.00  0.00     0.000 C 
BRANCH   2   3
ATOM      3  C   UNL     1      11.162  13.623  -3.311  1.00  0.00     0.000 C 
BRANCH   3   4
ATOM      4  C   UNL     1      11.047  14.361  -1.966  1.00  0.00     0.000 C 
BRANCH   4   5
ATOM      5  C   UNL     1      10.576  13.442  -0.827  1.00  0.00     0.000 C 
BRANCH   5   6
ATOM      6  C   UNL     1      11.654  13.221   0.246  1.00  0.00     0.000 C 
BRANCH   6   7
ATOM      7  C   UNL     1      11.348  14.041   1.508  1.00  0.00     0.006 C 
BRANCH   7   8
ATOM      8  C   UNL     1       9.966  14.704   1.450  1.00  0.00     0.053 C 
BRANCH   8   9
ATOM      9  C   UNL     1      10.051  16.184   1.667  1.00  0.00     0.041 C 
ATOM     10  O   UNL     1       9.007  16.853   1.890  1.00  0.00    -0.550 OA
ATOM     11  O   UNL     1      11.278  16.829   1.587  1.00  0.00    -0.550 OA
ENDBRANCH   8   9
ENDBRANCH   7   8
ENDBRANCH   6   7
ENDBRANCH   5   6
ENDBRANCH   4   5
ENDBRANCH   3   4
ENDBRANCH   2   3
ENDBRANCH   1   2
BRANCH   1  12
ATOM     12  C   UNL     1      11.923  16.502  -5.817  1.00  0.00     0.000 C 
BRANCH  12  13
ATOM     13  C   UNL     1      12.963  17.640  -5.848  1.00  0.00    -0.000 C 
BRANCH  13  14
ATOM     14  C   UNL     1      14.305  17.240  -6.499  1.00  0.00    -0.000 C 
BRANCH  14  15
ATOM     15  C   UNL     1      14.223  15.873  -7.202  1.00  0.00    -0.000 C 
BRANCH  15  16
ATOM     16  C   UNL     1      15.262  15.720  -8.324  1.00  0.00    -0.000 C 
BRANCH  16  17
ATOM     17  C   UNL     1      14.618  15.342  -9.670  1.00  0.00    -0.000 C 
BRANCH  17  18
ATOM     18  C   UNL     1      15.490  15.739 -10.872  1.00  0.00    -0.000 C 
BRANCH  18  19
ATOM     19  C   UNL     1      15.502  14.668 -11.972  1.00  0.00    -0.003 C 
ATOM     20  C   UNL     1      16.591  14.953 -13.003  1.00  0.00     0.004 C 
ENDBRANCH  18  19
ENDBRANCH  17  18
ENDBRANCH  16  17
ENDBRANCH  15  16
ENDBRANCH  14  15
ENDBRANCH  13  14
ENDBRANCH  12  13
ENDBRANCH   1  12
TORSDOF 16
ENDMDL
MODEL 4
REMARK VINA RESULT:     8.682      6.481     11.239
REMARK INTER + INTRA:          15.718
REMARK INTER:                  16.346
REMARK INTRA:                  -0.628
REMARK UNBOUND:                -1.085
REMARK SMILES CCCCCCCCCCCCCCCCCC(=O)[O-]
REMARK SMILES IDX 10 1 11 2 12 3 13 4 14 5 15 6 16 7 17 8 18 9 19 10 20 11
REMARK SMILES IDX 9 12 8 13 7 14 6 15 5 16 4 17 3 18 2 19 1 20
REMARK H PARENT
REMARK Flexibility Score: inf
ROOT
ATOM      1  C   UNL     1      12.610  17.130  -5.574  1.00  0.00     0.000 C 
ENDROOT
BRANCH   1   2
ATOM      2  C   UNL     1      11.983  15.730  -5.456  1.00  0.00     0.000 C 
BRANCH   2   3
ATOM      3  C   UNL     1      11.123  15.575  -4.191  1.00  0.00     0.000 C 
BRANCH   3   4
ATOM      4  C   UNL     1      11.136  14.139  -3.639  1.00  0.00     0.000 C 
BRANCH   4   5
ATOM      5  C   UNL     1      11.563  14.077  -2.163  1.00  0.00     0.000 C 
BRANCH   5   6
ATOM      6  C   UNL     1      10.397  13.746  -1.219  1.00  0.00     0.000 C 
BRANCH   6   7
ATOM      7  C   UNL     1      10.830  13.866   0.250  1.00  0.00     0.006 C 
BRANCH   7   8
ATOM      8  C   UNL     1       9.764  14.548   1.116  1.00  0.00     0.053 C 
BRANCH   8   9
ATOM      9  C   UNL     1      10.089  15.988   1.366  1.00  0.00     0.041 C 
ATOM     10  O   UNL     1       9.166  16.823   1.557  1.00  0.00    -0.550 OA
ATOM     11  O   UNL     1      11.411  16.415   1.353  1.00  0.00    -0.550 OA
ENDBRANCH   8   9
ENDBRANCH   7   8
ENDBRANCH   6   7
ENDBRANCH   5   6
ENDBRANCH   4   5
ENDBRANCH   3   4
ENDBRANCH   2   3
ENDBRANCH   1   2
BRANCH   1  12
ATOM     12  C   UNL     1      13.810  17.167  -6.537  1.00  0.00     0.000 C 
BRANCH  12  13
ATOM     13  C   UNL     1      14.277  15.790  -7.053  1.00  0.00    -0.000 C 
BRANCH  13  14
ATOM     14  C   UNL     1      15.215  15.870  -8.276  1.00  0.00    -0.000 C 
BRANCH  14  15
ATOM     15  C   UNL     1      14.642  15.126  -9.496  1.00  0.00    -0.000 C 
BRANCH  15  16
ATOM     16  C   UNL     1      15.203  15.650 -10.827  1.00  0.00    -0.000 C 
BRANCH  16  17
ATOM     17  C   UNL     1      15.452  14.519 -11.842  1.00  0.00    -0.000 C 
BRANCH  17  18
ATOM     18  C   UNL     1      16.021  15.038 -13.173  1.00  0.00    -0.000 C 
BRANCH  18  19
ATOM     19  C   UNL     1      17.555  14.988 -13.219  1.00  0.00    -0.003 C 
ATOM     20  C   UNL     1      18.156  16.376 -13.018  1.00  0.00     0.004 C 
ENDBRANCH  18  19
ENDBRANCH  17  18
ENDBRANCH  16  17
ENDBRANCH  15  16
ENDBRANCH  14  15
ENDBRANCH  13  14
ENDBRANCH  12  13
ENDBRANCH   1  12
TORSDOF 16
ENDMDL
MODEL 5
REMARK VINA RESULT:     8.976      6.057     10.288
REMARK INTER + INTRA:          16.286
REMARK INTER:                  15.577
REMARK INTRA:                   0.708
REMARK UNBOUND:                -1.085
REMARK SMILES CCCCCCCCCCCCCCCCCC(=O)[O-]
REMARK SMILES IDX 10 1 11 2 12 3 13 4 14 5 15 6 16 7 17 8 18 9 19 10 20 11
REMARK SMILES IDX 9 12 8 13 7 14 6 15 5 16 4 17 3 18 2 19 1 20
REMARK H PARENT
REMARK Flexibility Score: inf
ROOT
ATOM      1  C   UNL     1      10.772  14.206  -1.060  1.00  0.00     0.000 C 
ENDROOT
BRANCH   1   2
ATOM      2  C   UNL     1      10.208  13.916  -2.462  1.00  0.00     0.000 C 
BRANCH   2   3
ATOM      3  C   UNL     1      11.276  14.030  -3.562  1.00  0.00     0.000 C 
BRANCH   3   4
ATOM      4  C   UNL     1      11.616  15.490  -3.907  1.00  0.00     0.000 C 
BRANCH   4   5
ATOM      5  C   UNL     1      11.668  15.742  -5.422  1.00  0.00     0.000 C 
BRANCH   5   6
ATOM      6  C   UNL     1      12.312  17.090  -5.781  1.00  0.00     0.000 C 
BRANCH   6   7
ATOM      7  C   UNL     1      13.841  16.962  -5.870  1.00  0.00     0.006 C 
BRANCH   7   8
ATOM      8  C   UNL     1      14.361  17.183  -7.295  1.00  0.00     0.053 C 
BRANCH   8   9
ATOM      9  C   UNL     1      14.809  15.903  -7.929  1.00  0.00     0.041 C 
ATOM     10  O   UNL     1      15.408  15.031  -7.244  1.00  0.00    -0.550 OA
ATOM     11  O   UNL     1      14.599  15.687  -9.285  1.00  0.00    -0.550 OA
ENDBRANCH   8   9
ENDBRANCH   7   8
ENDBRANCH   6   7
ENDBRANCH   5   6
ENDBRANCH   4   5
ENDBRANCH   3   4
ENDBRANCH   2   3
ENDBRANCH   1   2
BRANCH   1  12
ATOM     12  C   UNL     1      11.909  13.248  -0.665  1.00  0.00     0.000 C 
BRANCH  12  13
ATOM     13  C   UNL     1      12.144  13.102   0.852  1.00  0.00    -0.000 C 
BRANCH  13  14
ATOM     14  C   UNL     1      11.168  13.932   1.715  1.00  0.00    -0.000 C 
BRANCH  14  15
ATOM     15  C   UNL     1       9.698  13.659   1.353  1.00  0.00    -0.000 C 
BRANCH  15  16
ATOM     16  C   UNL     1       8.722  14.585   2.096  1.00  0.00    -0.000 C 
BRANCH  16  17
ATOM     17  C   UNL     1       9.207  16.045   2.123  1.00  0.00    -0.000 C 
BRANCH  17  18
ATOM     18  C   UNL     1       9.675  16.536   0.744  1.00  0.00    -0.000 C 
BRANCH  18  19
ATOM     19  C   UNL     1      11.059  17.198   0.790  1.00  0.00    -0.003 C 
ATOM     20  C   UNL     1      11.813  16.806   2.057  1.00  0.00     0.004 C 
ENDBRANCH  18  19
ENDBRANCH  17  18
ENDBRANCH  16  17
ENDBRANCH  15  16
ENDBRANCH  14  15
ENDBRANCH  13  14
ENDBRANCH  12  13
ENDBRANCH   1  12
TORSDOF 16
ENDMDL
MODEL 6
REMARK VINA RESULT:     9.025      5.687      9.540
REMARK INTER + INTRA:          16.382
REMARK INTER:                  16.424
REMARK INTRA:                  -0.041
REMARK UNBOUND:                -1.085
REMARK SMILES CCCCCCCCCCCCCCCCCC(=O)[O-]
REMARK SMILES IDX 10 1 11 2 12 3 13 4 14 5 15 6 16 7 17 8 18 9 19 10 20 11
REMARK SMILES IDX 9 12 8 13 7 14 6 15 5 16 4 17 3 18 2 19 1 20
REMARK H PARENT
REMARK Flexibility Score: inf
ROOT
ATOM      1  C   UNL     1      11.020  13.573  -3.513  1.00  0.00     0.000 C 
ENDROOT
BRANCH   1   2
ATOM      2  C   UNL     1      10.563  14.735  -4.411  1.00  0.00     0.000 C 
BRANCH   2   3
ATOM      3  C   UNL     1      11.660  15.795  -4.606  1.00  0.00     0.000 C 
BRANCH   3   4
ATOM      4  C   UNL     1      11.665  16.387  -6.027  1.00  0.00     0.000 C 
BRANCH   4   5
ATOM      5  C   UNL     1      12.289  17.791  -6.079  1.00  0.00     0.000 C 
BRANCH   5   6
ATOM      6  C   UNL     1      13.706  17.837  -5.487  1.00  0.00     0.000 C 
BRANCH   6   7
ATOM      7  C   UNL     1      14.636  16.854  -6.214  1.00  0.00     0.006 C 
BRANCH   7   8
ATOM      8  C   UNL     1      14.133  16.510  -7.621  1.00  0.00     0.053 C 
BRANCH   8   9
ATOM      9  C   UNL     1      15.058  15.567  -8.327  1.00  0.00     0.041 C 
ATOM     10  O   UNL     1      15.937  14.937  -7.681  1.00  0.00    -0.550 OA
ATOM     11  O   UNL     1      14.973  15.412  -9.705  1.00  0.00    -0.550 OA
ENDBRANCH   8   9
ENDBRANCH   7   8
ENDBRANCH   6   7
ENDBRANCH   5   6
ENDBRANCH   4   5
ENDBRANCH   3   4
ENDBRANCH   2   3
ENDBRANCH   1   2
BRANCH   1  12
ATOM     12  C   UNL     1      10.625  13.767  -2.039  1.00  0.00     0.000 C 
BRANCH  12  13
ATOM     13  C   UNL     1      11.807  13.879  -1.054  1.00  0.00    -0.000 C 
BRANCH  13  14
ATOM     14  C   UNL     1      11.501  13.316   0.351  1.00  0.00    -0.000 C 
BRANCH  14  15
ATOM     15  C   UNL     1      11.712  14.367   1.455  1.00  0.00    -0.000 C 
BRANCH  15  16
ATOM     16  C   UNL     1      11.204  15.760   1.052  1.00  0.00    -0.000 C 
BRANCH  16  17
ATOM     17  C   UNL     1      10.234  16.352   2.091  1.00  0.00    -0.000 C 
BRANCH  17  18
ATOM     18  C   UNL     1       8.859  16.683   1.490  1.00  0.00    -0.000 C 
BRANCH  18  19
ATOM     19  C   UNL     1       7.806  15.606   1.791  1.00  0.00    -0.003 C 
ATOM     20  C   UNL     1       8.467  14.272   2.124  1.00  0.00     0.004 C 
ENDBRANCH  18  19
ENDBRANCH  17  18
ENDBRANCH  16  17
ENDBRANCH  15  16
ENDBRANCH  14  15
ENDBRANCH  13  14
ENDBRANCH  12  13
ENDBRANCH   1  12
TORSDOF 16
ENDMDL
MODEL 7
REMARK VINA RESULT:     9.106      4.061      7.055
REMARK INTER + INTRA:          16.538
REMARK INTER:                  17.270
REMARK INTRA:                  -0.733
REMARK UNBOUND:                -1.085
REMARK SMILES CCCCCCCCCCCCCCCCCC(=O)[O-]
REMARK SMILES IDX 10 1 11 2 12 3 13 4 14 5 15 6 16 7 17 8 18 9 19 10 20 11
REMARK SMILES IDX 9 12 8 13 7 14 6 15 5 16 4 17 3 18 2 19 1 20
REMARK H PARENT
REMARK Flexibility Score: inf
ROOT
ATOM      1  C   UNL     1      12.603  17.247  -5.908  1.00  0.00     0.000 C 
ENDROOT
BRANCH   1   2
ATOM      2  C   UNL     1      14.066  17.288  -6.382  1.00  0.00     0.000 C 
BRANCH   2   3
ATOM      3  C   UNL     1      14.522  15.956  -7.001  1.00  0.00     0.000 C 
BRANCH   3   4
ATOM      4  C   UNL     1      14.145  15.837  -8.488  1.00  0.00     0.000 C 
BRANCH   4   5
ATOM      5  C   UNL     1      15.377  15.790  -9.407  1.00  0.00     0.000 C 
BRANCH   5   6
ATOM      6  C   UNL     1      15.158  14.919 -10.654  1.00  0.00     0.000 C 
BRANCH   6   7
ATOM      7  C   UNL     1      15.592  15.662 -11.926  1.00  0.00     0.006 C 
BRANCH   7   8
ATOM      8  C   UNL     1      16.288  14.737 -12.932  1.00  0.00     0.053 C 
BRANCH   8   9
ATOM      9  C   UNL     1      17.723  15.114 -13.132  1.00  0.00     0.041 C 
ATOM     10  O   UNL     1      18.598  14.221 -13.290  1.00  0.00    -0.550 OA
ATOM     11  O   UNL     1      18.101  16.451 -13.108  1.00  0.00    -0.550 OA
ENDBRANCH   8   9
ENDBRANCH   7   8
ENDBRANCH   6   7
ENDBRANCH   5   6
ENDBRANCH   4   5
ENDBRANCH   3   4
ENDBRANCH   2   3
ENDBRANCH   1   2
BRANCH   1  12
ATOM     12  C   UNL     1      12.372  16.238  -4.769  1.00  0.00     0.000 C 
BRANCH  12  13
ATOM     13  C   UNL     1      11.153  15.312  -4.952  1.00  0.00    -0.000 C 
BRANCH  13  14
ATOM     14  C   UNL     1      11.095  14.150  -3.937  1.00  0.00    -0.000 C 
BRANCH  14  15
ATOM     15  C   UNL     1      11.203  14.645  -2.484  1.00  0.00    -0.000 C 
BRANCH  15  16
ATOM     16  C   UNL     1      10.719  13.601  -1.465  1.00  0.00    -0.000 C 
BRANCH  16  17
ATOM     17  C   UNL     1      11.743  13.363  -0.340  1.00  0.00    -0.000 C 
BRANCH  17  18
ATOM     18  C   UNL     1      11.222  13.812   1.034  1.00  0.00    -0.000 C 
BRANCH  18  19
ATOM     19  C   UNL     1       9.868  14.530   0.947  1.00  0.00    -0.003 C 
ATOM     20  C   UNL     1       9.985  15.981   1.404  1.00  0.00     0.004 C 
ENDBRANCH  18  19
ENDBRANCH  17  18
ENDBRANCH  16  17
ENDBRANCH  15  16
ENDBRANCH  14  15
ENDBRANCH  13  14
ENDBRANCH  12  13
ENDBRANCH   1  12
TORSDOF 16
ENDMDL
MODEL 8
REMARK VINA RESULT:     9.134      4.120      7.326
REMARK INTER + INTRA:          16.593
REMARK INTER:                  17.578
REMARK INTRA:                  -0.985
REMARK UNBOUND:                -1.085
REMARK SMILES CCCCCCCCCCCCCCCCCC(=O)[O-]
REMARK SMILES IDX 10 1 11 2 12 3 13 4 14 5 15 6 16 7 17 8 18 9 19 10 20 11
REMARK SMILES IDX 9 12 8 13 7 14 6 15 5 16 4 17 3 18 2 19 1 20
REMARK H PARENT
REMARK Flexibility Score: inf
ROOT
ATOM      1  C   UNL     1      19.511  21.106 -12.120  1.00  0.00     0.000 C 
ENDROOT
BRANCH   1   2
ATOM      2  C   UNL     1      20.955  20.579 -12.196  1.00  0.00     0.000 C 
BRANCH   2   3
ATOM      3  C   UNL     1      21.642  20.934 -13.524  1.00  0.00     0.000 C 
BRANCH   3   4
ATOM      4  C   UNL     1      21.927  22.440 -13.658  1.00  0.00     0.000 C 
BRANCH   4   5
ATOM      5  C   UNL     1      22.394  22.829 -15.071  1.00  0.00     0.000 C 
BRANCH   5   6
ATOM      6  C   UNL     1      21.985  24.258 -15.462  1.00  0.00     0.000 C 
BRANCH   6   7
ATOM      7  C   UNL     1      20.476  24.341 -15.736  1.00  0.00     0.006 C 
BRANCH   7   8
ATOM      8  C   UNL     1      20.030  25.760 -16.111  1.00  0.00     0.053 C 
BRANCH   8   9
ATOM      9  C   UNL     1      18.574  25.976 -15.838  1.00  0.00     0.041 C 
ATOM     10  O   UNL     1      17.996  27.014 -16.257  1.00  0.00    -0.550 OA
ATOM     11  O   UNL     1      17.862  25.048 -15.087  1.00  0.00    -0.550 OA
ENDBRANCH   8   9
ENDBRANCH   7   8
ENDBRANCH   6   7
ENDBRANCH   5   6
ENDBRANCH   4   5
ENDBRANCH   3   4
ENDBRANCH   2   3
ENDBRANCH   1   2
BRANCH   1  12
ATOM     12  C   UNL     1      18.467  20.041 -12.500  1.00  0.00     0.000 C 
BRANCH  12  13
ATOM     13  C   UNL     1      18.120  19.036 -11.384  1.00  0.00    -0.000 C 
BRANCH  13  14
ATOM     14  C   UNL     1      18.755  17.643 -11.581  1.00  0.00    -0.000 C 
BRANCH  14  15
ATOM     15  C   UNL     1      18.195  16.921 -12.820  1.00  0.00    -0.000 C 
BRANCH  15  16
ATOM     16  C   UNL     1      16.826  16.273 -12.561  1.00  0.00    -0.000 C 
BRANCH  16  17
ATOM     17  C   UNL     1      16.776  14.806 -13.025  1.00  0.00    -0.000 C 
BRANCH  17  18
ATOM     18  C   UNL     1      17.992  14.418 -13.882  1.00  0.00    -0.000 C 
BRANCH  18  19
ATOM     19  C   UNL     1      18.866  13.344 -13.218  1.00  0.00    -0.003 C 
ATOM     20  C   UNL     1      20.043  13.974 -12.479  1.00  0.00     0.004 C 
ENDBRANCH  18  19
ENDBRANCH  17  18
ENDBRANCH  16  17
ENDBRANCH  15  16
ENDBRANCH  14  15
ENDBRANCH  13  14
ENDBRANCH  12  13
ENDBRANCH   1  12
TORSDOF 16
ENDMDL
MODEL 9
REMARK VINA RESULT:     9.221      2.710      4.128
REMARK INTER + INTRA:          16.762
REMARK INTER:                  17.316
REMARK INTRA:                  -0.554
REMARK UNBOUND:                -1.085
REMARK SMILES CCCCCCCCCCCCCCCCCC(=O)[O-]
REMARK SMILES IDX 10 1 11 2 12 3 13 4 14 5 15 6 16 7 17 8 18 9 19 10 20 11
REMARK SMILES IDX 9 12 8 13 7 14 6 15 5 16 4 17 3 18 2 19 1 20
REMARK H PARENT
REMARK Flexibility Score: inf
ROOT
ATOM      1  C   UNL     1      18.054  17.023 -11.984  1.00  0.00     0.000 C 
ENDROOT
BRANCH   1   2
ATOM      2  C   UNL     1      18.891  18.130 -12.649  1.00  0.00     0.000 C 
BRANCH   2   3
ATOM      3  C   UNL     1      18.753  19.483 -11.932  1.00  0.00     0.000 C 
BRANCH   3   4
ATOM      4  C   UNL     1      19.663  20.567 -12.536  1.00  0.00     0.000 C 
BRANCH   4   5
ATOM      5  C   UNL     1      19.201  21.990 -12.181  1.00  0.00     0.000 C 
BRANCH   5   6
ATOM      6  C   UNL     1      18.299  22.611 -13.259  1.00  0.00     0.000 C 
BRANCH   6   7
ATOM      7  C   UNL     1      19.007  23.779 -13.961  1.00  0.00     0.006 C 
BRANCH   7   8
ATOM      8  C   UNL     1      18.015  24.788 -14.553  1.00  0.00     0.053 C 
BRANCH   8   9
ATOM      9  C   UNL     1      18.616  25.556 -15.690  1.00  0.00     0.041 C 
ATOM     10  O   UNL     1      18.020  26.561 -16.162  1.00  0.00    -0.550 OA
ATOM     11  O   UNL     1      19.816  25.140 -16.253  1.00  0.00    -0.550 OA
ENDBRANCH   8   9
ENDBRANCH   7   8
ENDBRANCH   6   7
ENDBRANCH   5   6
ENDBRANCH   4   5
ENDBRANCH   3   4
ENDBRANCH   2   3
ENDBRANCH   1   2
BRANCH   1  12
ATOM     12  C   UNL     1      17.879  15.786 -12.883  1.00  0.00     0.000 C 
BRANCH  12  13
ATOM     13  C   UNL     1      16.418  15.395 -13.181  1.00  0.00    -0.000 C 
BRANCH  13  14
ATOM     14  C   UNL     1      15.743  14.595 -12.045  1.00  0.00    -0.000 C 
BRANCH  14  15
ATOM     15  C   UNL     1      14.948  15.503 -11.090  1.00  0.00    -0.000 C 
BRANCH  15  16
ATOM     16  C   UNL     1      14.916  14.965  -9.651  1.00  0.00    -0.000 C 
BRANCH  16  17
ATOM     17  C   UNL     1      15.199  16.063  -8.609  1.00  0.00    -0.000 C 
BRANCH  17  18
ATOM     18  C   UNL     1      14.337  15.912  -7.346  1.00  0.00    -0.000 C 
BRANCH  18  19
ATOM     19  C   UNL     1      14.277  17.201  -6.514  1.00  0.00    -0.003 C 
ATOM     20  C   UNL     1      12.899  17.384  -5.885  1.00  0.00     0.004 C 
ENDBRANCH  18  19
ENDBRANCH  17  18
ENDBRANCH  16  17
ENDBRANCH  15  16
ENDBRANCH  14  15
ENDBRANCH  13  14
ENDBRANCH  12  13
ENDBRANCH   1  12
TORSDOF 16
ENDMDL
