MODEL 1
REMARK VINA RESULT:    -0.183      0.000      0.000
REMARK INTER + INTRA:          -0.437
REMARK INTER:                  -0.200
REMARK INTRA:                  -0.237
REMARK UNBOUND:                -0.237
REMARK SMILES CC1(C)CC[C@@]2(C(=O)[O-])CC[C@]3(C)C(=CC[C@@H]4[C@]5(C)CC[C@H](O)C(C)(C)[C@H]5CC[C@]43C)[C@H]2C1
REMARK SMILES IDX 6 1 5 2 10 3 32 4 4 5 11 6 14 7 33 8 2 9 12 10 15 11 1 12
REMARK SMILES IDX 3 13 13 14 30 15 16 16 17 17 29 18 31 19 18 20 28 21 27 22
REMARK SMILES IDX 20 23 19 24 24 25 21 26 22 27 25 28 26 29 7 30 8 31 9 32
REMARK SMILES IDX 23 33
REMARK H PARENT 23 34
REMARK Flexibility Score: inf
ROOT
ATOM      1  C   UNL     1      22.961  25.581  48.827  1.00  0.00     0.017 C 
ATOM      2  C   UNL     1      23.522  24.348  49.605  1.00  0.00     0.014 C 
ATOM      3  C   UNL     1      22.852  26.763  49.840  1.00  0.00     0.014 C 
ATOM      4  C   UNL     1      23.874  26.005  47.594  1.00  0.00     0.028 C 
ATOM      5  C   UNL     1      25.030  24.171  49.409  1.00  0.00     0.007 C 
ATOM      6  C   UNL     1      22.606  28.105  49.140  1.00  0.00     0.013 C 
ATOM      7  C   UNL     1      24.658  27.317  47.845  1.00  0.00    -0.064 C 
ATOM      8  C   UNL     1      24.649  24.809  46.950  1.00  0.00     0.015 C 
ATOM      9  C   UNL     1      25.378  23.827  47.941  1.00  0.00    -0.035 C 
ATOM     10  C   UNL     1      23.812  28.554  48.233  1.00  0.00    -0.006 C 
ATOM     11  C   UNL     1      25.970  27.456  47.527  1.00  0.00    -0.027 C 
ATOM     12  C   UNL     1      26.921  23.889  47.772  1.00  0.00     0.011 C 
ATOM     13  C   UNL     1      24.954  22.361  47.623  1.00  0.00     0.011 C 
ATOM     14  C   UNL     1      23.218  29.078  46.875  1.00  0.00     0.017 C 
ATOM     15  C   UNL     1      24.715  29.665  48.972  1.00  0.00    -0.020 C 
ATOM     16  C   UNL     1      26.798  28.686  47.803  1.00  0.00     0.032 C 
ATOM     17  C   UNL     1      25.961  29.967  48.053  1.00  0.00     0.006 C 
ATOM     18  C   UNL     1      23.869  30.976  49.259  1.00  0.00     0.008 C 
ATOM     19  C   UNL     1      25.224  29.113  50.345  1.00  0.00     0.012 C 
ATOM     20  C   UNL     1      26.830  31.284  48.356  1.00  0.00    -0.025 C 
ATOM     21  C   UNL     1      24.507  32.285  48.762  1.00  0.00     0.005 C 
ATOM     22  C   UNL     1      25.986  32.311  49.188  1.00  0.00     0.003 C 
ATOM     23  C   UNL     1      28.148  31.008  49.163  1.00  0.00     0.010 C 
ATOM     24  C   UNL     1      27.229  31.845  46.952  1.00  0.00     0.012 C 
ATOM     25  C   UNL     1      26.641  33.734  49.424  1.00  0.00    -0.006 C 
ATOM     26  C   UNL     1      28.657  32.189  50.032  1.00  0.00     0.033 C 
ATOM     27  C   UNL     1      28.209  33.594  49.548  1.00  0.00     0.120 C 
ATOM     28  C   UNL     1      26.055  34.333  50.739  1.00  0.00     0.014 C 
ATOM     29  C   UNL     1      26.301  34.735  48.289  1.00  0.00     0.014 C 
ENDROOT
BRANCH   1  30
ATOM     30  C   UNL     1      21.560  25.207  48.344  1.00  0.00     0.048 C 
ATOM     31  O   UNL     1      20.705  24.746  49.154  1.00  0.00    -0.550 OA
ATOM     32  O   UNL     1      21.160  25.489  47.034  1.00  0.00    -0.550 OA
ENDBRANCH   1  30
BRANCH  27  33
ATOM     33  O   UNL     1      28.773  34.600  50.361  1.00  0.00    -0.393 OA
ATOM     34  H   UNL     1      29.722  34.368  50.534  1.00  0.00     0.210 HD
ENDBRANCH  27  33
TORSDOF 2
ENDMDL
MODEL 2
REMARK VINA RESULT:    -0.181      1.095      1.358
REMARK INTER + INTRA:          -0.434
REMARK INTER:                  -0.207
REMARK INTRA:                  -0.226
REMARK UNBOUND:                -0.237
REMARK SMILES CC1(C)CC[C@@]2(C(=O)[O-])CC[C@]3(C)C(=CC[C@@H]4[C@]5(C)CC[C@H](O)C(C)(C)[C@H]5CC[C@]43C)[C@H]2C1
REMARK SMILES IDX 6 1 5 2 10 3 32 4 4 5 11 6 14 7 33 8 2 9 12 10 15 11 1 12
REMARK SMILES IDX 3 13 13 14 30 15 16 16 17 17 29 18 31 19 18 20 28 21 27 22
REMARK SMILES IDX 20 23 19 24 24 25 21 26 22 27 25 28 26 29 7 30 8 31 9 32
REMARK SMILES IDX 23 33
REMARK H PARENT 23 34
REMARK Flexibility Score: inf
ROOT
ATOM      1  C   UNL     1      22.679  26.091  48.669  1.00  0.00     0.017 C 
ATOM      2  C   UNL     1      22.817  24.742  49.445  1.00  0.00     0.014 C 
ATOM      3  C   UNL     1      22.800  27.246  49.712  1.00  0.00     0.014 C 
ATOM      4  C   UNL     1      23.780  26.269  47.533  1.00  0.00     0.028 C 
ATOM      5  C   UNL     1      24.233  24.168  49.369  1.00  0.00     0.007 C 
ATOM      6  C   UNL     1      22.985  28.613  49.044  1.00  0.00     0.013 C 
ATOM      7  C   UNL     1      24.860  27.317  47.896  1.00  0.00    -0.064 C 
ATOM      8  C   UNL     1      24.261  24.916  46.912  1.00  0.00     0.015 C 
ATOM      9  C   UNL     1      24.608  23.762  47.924  1.00  0.00    -0.035 C 
ATOM     10  C   UNL     1      24.344  28.732  48.257  1.00  0.00    -0.006 C 
ATOM     11  C   UNL     1      26.184  27.101  47.694  1.00  0.00    -0.027 C 
ATOM     12  C   UNL     1      26.121  23.407  47.887  1.00  0.00     0.011 C 
ATOM     13  C   UNL     1      23.838  22.469  47.518  1.00  0.00     0.011 C 
ATOM     14  C   UNL     1      24.037  29.414  46.875  1.00  0.00     0.017 C 
ATOM     15  C   UNL     1      25.441  29.548  49.109  1.00  0.00    -0.020 C 
ATOM     16  C   UNL     1      27.283  28.059  48.083  1.00  0.00     0.032 C 
ATOM     17  C   UNL     1      26.800  29.515  48.309  1.00  0.00     0.006 C 
ATOM     18  C   UNL     1      24.954  31.036  49.372  1.00  0.00     0.008 C 
ATOM     19  C   UNL     1      25.657  28.862  50.499  1.00  0.00     0.012 C 
ATOM     20  C   UNL     1      27.958  30.544  48.732  1.00  0.00    -0.025 C 
ATOM     21  C   UNL     1      25.961  32.130  48.979  1.00  0.00     0.005 C 
ATOM     22  C   UNL     1      27.348  31.750  49.527  1.00  0.00     0.003 C 
ATOM     23  C   UNL     1      29.077  29.913  49.635  1.00  0.00     0.010 C 
ATOM     24  C   UNL     1      28.618  30.996  47.388  1.00  0.00     0.012 C 
ATOM     25  C   UNL     1      28.336  32.941  49.869  1.00  0.00    -0.006 C 
ATOM     26  C   UNL     1      29.802  30.902  50.586  1.00  0.00     0.033 C 
ATOM     27  C   UNL     1      29.792  32.382  50.119  1.00  0.00     0.120 C 
ATOM     28  C   UNL     1      27.816  33.659  51.152  1.00  0.00     0.014 C 
ATOM     29  C   UNL     1      28.380  34.011  48.747  1.00  0.00     0.014 C 
ENDROOT
BRANCH   1  30
ATOM     30  C   UNL     1      21.278  26.115  48.058  1.00  0.00     0.048 C 
ATOM     31  O   UNL     1      21.102  26.526  46.875  1.00  0.00    -0.550 OA
ATOM     32  O   UNL     1      20.193  25.565  48.746  1.00  0.00    -0.550 OA
ENDBRANCH   1  30
BRANCH  27  33
ATOM     33  O   UNL     1      30.529  33.188  51.012  1.00  0.00    -0.393 OA
ATOM     34  H   UNL     1      31.402  33.402  50.593  1.00  0.00     0.210 HD
ENDBRANCH  27  33
TORSDOF 2
ENDMDL
MODEL 3
REMARK VINA RESULT:    -0.180      3.757      5.511
REMARK INTER + INTRA:          -0.432
REMARK INTER:                  -0.190
REMARK INTRA:                  -0.243
REMARK UNBOUND:                -0.237
REMARK SMILES CC1(C)CC[C@@]2(C(=O)[O-])CC[C@]3(C)C(=CC[C@@H]4[C@]5(C)CC[C@H](O)C(C)(C)[C@H]5CC[C@]43C)[C@H]2C1
REMARK SMILES IDX 6 1 5 2 10 3 32 4 4 5 11 6 14 7 33 8 2 9 12 10 15 11 1 12
REMARK SMILES IDX 3 13 13 14 30 15 16 16 17 17 29 18 31 19 18 20 28 21 27 22
REMARK SMILES IDX 20 23 19 24 24 25 21 26 22 27 25 28 26 29 7 30 8 31 9 32
REMARK SMILES IDX 23 33
REMARK H PARENT 23 34
REMARK Flexibility Score: inf
ROOT
ATOM      1  C   UNL     1      23.583  27.048  48.796  1.00  0.00     0.017 C 
ATOM      2  C   UNL     1      22.692  26.011  49.555  1.00  0.00     0.014 C 
ATOM      3  C   UNL     1      24.609  27.622  49.823  1.00  0.00     0.014 C 
ATOM      4  C   UNL     1      24.352  26.414  47.555  1.00  0.00     0.028 C 
ATOM      5  C   UNL     1      23.159  24.571  49.336  1.00  0.00     0.007 C 
ATOM      6  C   UNL     1      25.729  28.415  49.139  1.00  0.00     0.013 C 
ATOM      7  C   UNL     1      25.870  26.243  47.808  1.00  0.00    -0.064 C 
ATOM      8  C   UNL     1      23.588  25.223  46.889  1.00  0.00     0.015 C 
ATOM      9  C   UNL     1      22.995  24.136  47.860  1.00  0.00    -0.035 C 
ATOM     10  C   UNL     1      26.642  27.520  48.219  1.00  0.00    -0.006 C 
ATOM     11  C   UNL     1      26.543  25.113  47.473  1.00  0.00    -0.027 C 
ATOM     12  C   UNL     1      23.694  22.761  47.671  1.00  0.00     0.011 C 
ATOM     13  C   UNL     1      21.487  23.916  47.534  1.00  0.00     0.011 C 
ATOM     14  C   UNL     1      26.875  28.301  46.875  1.00  0.00     0.017 C 
ATOM     15  C   UNL     1      28.025  27.149  48.956  1.00  0.00    -0.020 C 
ATOM     16  C   UNL     1      28.005  24.867  47.749  1.00  0.00     0.032 C 
ATOM     17  C   UNL     1      28.821  26.157  48.023  1.00  0.00     0.006 C 
ATOM     18  C   UNL     1      28.865  28.459  49.267  1.00  0.00     0.008 C 
ATOM     19  C   UNL     1      27.731  26.434  50.317  1.00  0.00     0.012 C 
ATOM     20  C   UNL     1      30.379  25.909  48.326  1.00  0.00    -0.025 C 
ATOM     21  C   UNL     1      30.322  28.432  48.774  1.00  0.00     0.005 C 
ATOM     22  C   UNL     1      30.959  27.090  49.180  1.00  0.00     0.003 C 
ATOM     23  C   UNL     1      30.674  24.582  49.112  1.00  0.00     0.010 C 
ATOM     24  C   UNL     1      31.060  25.803  46.923  1.00  0.00     0.012 C 
ATOM     25  C   UNL     1      32.525  27.083  49.420  1.00  0.00    -0.006 C 
ATOM     26  C   UNL     1      31.957  24.597  49.986  1.00  0.00     0.033 C 
ATOM     27  C   UNL     1      33.050  25.596  49.521  1.00  0.00     0.120 C 
ATOM     28  C   UNL     1      32.823  27.843  50.749  1.00  0.00     0.014 C 
ATOM     29  C   UNL     1      33.297  27.827  48.300  1.00  0.00     0.014 C 
ENDROOT
BRANCH   1  30
ATOM     30  C   UNL     1      22.661  28.174  48.330  1.00  0.00     0.048 C 
ATOM     31  O   UNL     1      21.815  28.680  49.122  1.00  0.00    -0.550 OA
ATOM     32  O   UNL     1      22.826  28.751  47.067  1.00  0.00    -0.550 OA
ENDBRANCH   1  30
BRANCH  27  33
ATOM     33  O   UNL     1      34.197  25.489  50.336  1.00  0.00    -0.393 OA
ATOM     34  H   UNL     1      34.005  24.843  51.064  1.00  0.00     0.210 HD
ENDBRANCH  27  33
TORSDOF 2
ENDMDL
MODEL 4
REMARK VINA RESULT:    -0.173      4.404      7.688
REMARK INTER + INTRA:          -0.425
REMARK INTER:                  -0.182
REMARK INTRA:                  -0.243
REMARK UNBOUND:                -0.237
REMARK SMILES CC1(C)CC[C@@]2(C(=O)[O-])CC[C@]3(C)C(=CC[C@@H]4[C@]5(C)CC[C@H](O)C(C)(C)[C@H]5CC[C@]43C)[C@H]2C1
REMARK SMILES IDX 6 1 5 2 10 3 32 4 4 5 11 6 14 7 33 8 2 9 12 10 15 11 1 12
REMARK SMILES IDX 3 13 13 14 30 15 16 16 17 17 29 18 31 19 18 20 28 21 27 22
REMARK SMILES IDX 20 23 19 24 24 25 21 26 22 27 25 28 26 29 7 30 8 31 9 32
REMARK SMILES IDX 23 33
REMARK H PARENT 23 34
REMARK Flexibility Score: inf
ROOT
ATOM      1  C   UNL     1      30.726  24.449  51.228  1.00  0.00     0.017 C 
ATOM      2  C   UNL     1      31.920  25.431  51.001  1.00  0.00     0.014 C 
ATOM      3  C   UNL     1      29.544  25.278  51.822  1.00  0.00     0.014 C 
ATOM      4  C   UNL     1      30.260  23.719  49.893  1.00  0.00     0.028 C 
ATOM      5  C   UNL     1      32.012  25.911  49.551  1.00  0.00     0.007 C 
ATOM      6  C   UNL     1      28.225  24.498  51.805  1.00  0.00     0.013 C 
ATOM      7  C   UNL     1      28.904  24.242  49.359  1.00  0.00    -0.064 C 
ATOM      8  C   UNL     1      31.416  23.510  48.859  1.00  0.00     0.015 C 
ATOM      9  C   UNL     1      32.347  24.749  48.585  1.00  0.00    -0.035 C 
ATOM     10  C   UNL     1      27.714  24.187  50.348  1.00  0.00    -0.006 C 
ATOM     11  C   UNL     1      28.694  24.518  48.047  1.00  0.00    -0.027 C 
ATOM     12  C   UNL     1      32.199  25.262  47.126  1.00  0.00     0.011 C 
ATOM     13  C   UNL     1      33.837  24.326  48.759  1.00  0.00     0.011 C 
ATOM     14  C   UNL     1      27.235  22.691  50.320  1.00  0.00     0.017 C 
ATOM     15  C   UNL     1      26.548  25.209  49.909  1.00  0.00    -0.020 C 
ATOM     16  C   UNL     1      27.416  25.086  47.480  1.00  0.00     0.032 C 
ATOM     17  C   UNL     1      26.183  24.909  48.404  1.00  0.00     0.006 C 
ATOM     18  C   UNL     1      25.285  25.061  50.857  1.00  0.00     0.008 C 
ATOM     19  C   UNL     1      27.060  26.684  50.019  1.00  0.00     0.012 C 
ATOM     20  C   UNL     1      24.817  25.516  47.816  1.00  0.00    -0.025 C 
ATOM     21  C   UNL     1      23.946  24.847  50.131  1.00  0.00     0.005 C 
ATOM     22  C   UNL     1      23.833  25.869  48.985  1.00  0.00     0.003 C 
ATOM     23  C   UNL     1      25.011  26.822  46.965  1.00  0.00     0.010 C 
ATOM     24  C   UNL     1      24.244  24.406  46.876  1.00  0.00     0.012 C 
ATOM     25  C   UNL     1      22.374  26.320  48.566  1.00  0.00    -0.006 C 
ATOM     26  C   UNL     1      23.796  27.788  46.941  1.00  0.00     0.033 C 
ATOM     27  C   UNL     1      22.423  27.114  47.201  1.00  0.00     0.120 C 
ATOM     28  C   UNL     1      21.798  27.233  49.692  1.00  0.00     0.014 C 
ATOM     29  C   UNL     1      21.402  25.119  48.429  1.00  0.00     0.014 C 
ENDROOT
BRANCH   1  30
ATOM     30  C   UNL     1      31.182  23.420  52.263  1.00  0.00     0.048 C 
ATOM     31  O   UNL     1      31.782  23.790  53.313  1.00  0.00    -0.550 OA
ATOM     32  O   UNL     1      30.833  22.073  52.129  1.00  0.00    -0.550 OA
ENDBRANCH   1  30
BRANCH  27  33
ATOM     33  O   UNL     1      21.380  28.059  47.094  1.00  0.00    -0.393 OA
ATOM     34  H   UNL     1      20.705  27.861  47.793  1.00  0.00     0.210 HD
ENDBRANCH  27  33
TORSDOF 2
ENDMDL
MODEL 5
REMARK VINA RESULT:    -0.171      3.420      5.095
REMARK INTER + INTRA:          -0.422
REMARK INTER:                  -0.181
REMARK INTRA:                  -0.242
REMARK UNBOUND:                -0.237
REMARK SMILES CC1(C)CC[C@@]2(C(=O)[O-])CC[C@]3(C)C(=CC[C@@H]4[C@]5(C)CC[C@H](O)C(C)(C)[C@H]5CC[C@]43C)[C@H]2C1
REMARK SMILES IDX 6 1 5 2 10 3 32 4 4 5 11 6 14 7 33 8 2 9 12 10 15 11 1 12
REMARK SMILES IDX 3 13 13 14 30 15 16 16 17 17 29 18 31 19 18 20 28 21 27 22
REMARK SMILES IDX 20 23 19 24 24 25 21 26 22 27 25 28 26 29 7 30 8 31 9 32
REMARK SMILES IDX 23 33
REMARK H PARENT 23 34
REMARK Flexibility Score: inf
ROOT
ATOM      1  C   UNL     1      25.784  24.204  48.717  1.00  0.00     0.017 C 
ATOM      2  C   UNL     1      25.711  23.189  49.903  1.00  0.00     0.014 C 
ATOM      3  C   UNL     1      24.325  24.438  48.212  1.00  0.00     0.014 C 
ATOM      4  C   UNL     1      26.445  25.592  49.128  1.00  0.00     0.028 C 
ATOM      5  C   UNL     1      25.742  23.882  51.267  1.00  0.00     0.007 C 
ATOM      6  C   UNL     1      24.229  25.636  47.259  1.00  0.00     0.013 C 
ATOM      7  C   UNL     1      25.418  26.746  49.224  1.00  0.00    -0.064 C 
ATOM      8  C   UNL     1      27.504  25.465  50.273  1.00  0.00     0.015 C 
ATOM      9  C   UNL     1      27.094  24.592  51.516  1.00  0.00    -0.035 C 
ATOM     10  C   UNL     1      24.562  27.006  47.961  1.00  0.00    -0.006 C 
ATOM     11  C   UNL     1      25.411  27.634  50.251  1.00  0.00    -0.027 C 
ATOM     12  C   UNL     1      26.969  25.454  52.803  1.00  0.00     0.011 C 
ATOM     13  C   UNL     1      28.205  23.535  51.796  1.00  0.00     0.011 C 
ATOM     14  C   UNL     1      25.501  27.818  46.997  1.00  0.00     0.017 C 
ATOM     15  C   UNL     1      23.218  27.815  48.327  1.00  0.00    -0.020 C 
ATOM     16  C   UNL     1      24.400  28.739  50.428  1.00  0.00     0.032 C 
ATOM     17  C   UNL     1      23.634  29.107  49.132  1.00  0.00     0.006 C 
ATOM     18  C   UNL     1      22.406  28.180  47.014  1.00  0.00     0.008 C 
ATOM     19  C   UNL     1      22.294  26.934  49.233  1.00  0.00     0.012 C 
ATOM     20  C   UNL     1      22.548  30.277  49.307  1.00  0.00    -0.025 C 
ATOM     21  C   UNL     1      22.025  29.664  46.875  1.00  0.00     0.005 C 
ATOM     22  C   UNL     1      21.434  30.153  48.210  1.00  0.00     0.003 C 
ATOM     23  C   UNL     1      21.826  30.276  50.701  1.00  0.00     0.010 C 
ATOM     24  C   UNL     1      23.356  31.610  49.181  1.00  0.00     0.012 C 
ATOM     25  C   UNL     1      20.380  31.333  48.139  1.00  0.00    -0.006 C 
ATOM     26  C   UNL     1      20.395  30.878  50.711  1.00  0.00     0.033 C 
ATOM     27  C   UNL     1      20.115  31.910  49.586  1.00  0.00     0.120 C 
ATOM     28  C   UNL     1      19.053  30.772  47.540  1.00  0.00     0.014 C 
ATOM     29  C   UNL     1      20.840  32.480  47.203  1.00  0.00     0.014 C 
ENDROOT
BRANCH   1  30
ATOM     30  C   UNL     1      26.595  23.538  47.607  1.00  0.00     0.048 C 
ATOM     31  O   UNL     1      26.339  22.353  47.248  1.00  0.00    -0.550 OA
ATOM     32  O   UNL     1      27.544  24.268  46.884  1.00  0.00    -0.550 OA
ENDBRANCH   1  30
BRANCH  27  33
ATOM     33  O   UNL     1      18.816  32.446  49.719  1.00  0.00    -0.393 OA
ATOM     34  H   UNL     1      18.164  31.700  49.677  1.00  0.00     0.210 HD
ENDBRANCH  27  33
TORSDOF 2
ENDMDL
MODEL 6
REMARK VINA RESULT:    -0.167      2.795      4.666
REMARK INTER + INTRA:          -0.419
REMARK INTER:                  -0.192
REMARK INTRA:                  -0.227
REMARK UNBOUND:                -0.237
REMARK SMILES CC1(C)CC[C@@]2(C(=O)[O-])CC[C@]3(C)C(=CC[C@@H]4[C@]5(C)CC[C@H](O)C(C)(C)[C@H]5CC[C@]43C)[C@H]2C1
REMARK SMILES IDX 6 1 5 2 10 3 32 4 4 5 11 6 14 7 33 8 2 9 12 10 15 11 1 12
REMARK SMILES IDX 3 13 13 14 30 15 16 16 17 17 29 18 31 19 18 20 28 21 27 22
REMARK SMILES IDX 20 23 19 24 24 25 21 26 22 27 25 28 26 29 7 30 8 31 9 32
REMARK SMILES IDX 23 33
REMARK H PARENT 23 34
REMARK Flexibility Score: inf
ROOT
ATOM      1  C   UNL     1      24.237  25.836  47.747  1.00  0.00     0.017 C 
ATOM      2  C   UNL     1      23.350  24.889  46.876  1.00  0.00     0.014 C 
ATOM      3  C   UNL     1      24.573  27.090  46.880  1.00  0.00     0.014 C 
ATOM      4  C   UNL     1      23.525  26.285  49.098  1.00  0.00     0.028 C 
ATOM      5  C   UNL     1      21.859  25.043  47.180  1.00  0.00     0.007 C 
ATOM      6  C   UNL     1      25.178  28.225  47.715  1.00  0.00     0.013 C 
ATOM      7  C   UNL     1      23.071  27.765  49.079  1.00  0.00    -0.064 C 
ATOM      8  C   UNL     1      22.520  25.224  49.656  1.00  0.00     0.015 C 
ATOM      9  C   UNL     1      21.520  24.589  48.620  1.00  0.00    -0.035 C 
ATOM     10  C   UNL     1      24.169  28.812  48.773  1.00  0.00    -0.006 C 
ATOM     11  C   UNL     1      21.852  28.161  49.526  1.00  0.00    -0.027 C 
ATOM     12  C   UNL     1      20.050  24.985  48.930  1.00  0.00     0.011 C 
ATOM     13  C   UNL     1      21.592  23.035  48.718  1.00  0.00     0.011 C 
ATOM     14  C   UNL     1      24.948  28.988  50.127  1.00  0.00     0.017 C 
ATOM     15  C   UNL     1      23.524  30.195  48.258  1.00  0.00    -0.020 C 
ATOM     16  C   UNL     1      21.334  29.577  49.476  1.00  0.00     0.032 C 
ATOM     17  C   UNL     1      22.442  30.648  49.312  1.00  0.00     0.006 C 
ATOM     18  C   UNL     1      24.646  31.300  48.060  1.00  0.00     0.008 C 
ATOM     19  C   UNL     1      22.820  29.976  46.877  1.00  0.00     0.012 C 
ATOM     20  C   UNL     1      21.903  32.161  49.251  1.00  0.00    -0.025 C 
ATOM     21  C   UNL     1      24.374  32.639  48.768  1.00  0.00     0.005 C 
ATOM     22  C   UNL     1      22.924  33.068  48.480  1.00  0.00     0.003 C 
ATOM     23  C   UNL     1      20.514  32.316  48.535  1.00  0.00     0.010 C 
ATOM     24  C   UNL     1      21.732  32.598  50.742  1.00  0.00     0.012 C 
ATOM     25  C   UNL     1      22.623  34.623  48.478  1.00  0.00    -0.006 C 
ATOM     26  C   UNL     1      20.261  33.693  47.865  1.00  0.00     0.033 C 
ATOM     27  C   UNL     1      21.063  34.873  48.476  1.00  0.00     0.120 C 
ATOM     28  C   UNL     1      23.262  35.248  47.200  1.00  0.00     0.014 C 
ATOM     29  C   UNL     1      23.259  35.348  49.693  1.00  0.00     0.014 C 
ENDROOT
BRANCH   1  30
ATOM     30  C   UNL     1      25.530  25.082  48.055  1.00  0.00     0.048 C 
ATOM     31  O   UNL     1      26.058  25.156  49.202  1.00  0.00    -0.550 OA
ATOM     32  O   UNL     1      26.079  24.199  47.119  1.00  0.00    -0.550 OA
ENDBRANCH   1  30
BRANCH  27  33
ATOM     33  O   UNL     1      20.716  36.086  47.845  1.00  0.00    -0.393 OA
ATOM     34  H   UNL     1      21.167  36.121  46.963  1.00  0.00     0.210 HD
ENDBRANCH  27  33
TORSDOF 2
ENDMDL
MODEL 7
REMARK VINA RESULT:    -0.163      1.692      8.457
REMARK INTER + INTRA:          -0.414
REMARK INTER:                  -0.171
REMARK INTRA:                  -0.243
REMARK UNBOUND:                -0.237
REMARK SMILES CC1(C)CC[C@@]2(C(=O)[O-])CC[C@]3(C)C(=CC[C@@H]4[C@]5(C)CC[C@H](O)C(C)(C)[C@H]5CC[C@]43C)[C@H]2C1
REMARK SMILES IDX 6 1 5 2 10 3 32 4 4 5 11 6 14 7 33 8 2 9 12 10 15 11 1 12
REMARK SMILES IDX 3 13 13 14 30 15 16 16 17 17 29 18 31 19 18 20 28 21 27 22
REMARK SMILES IDX 20 23 19 24 24 25 21 26 22 27 25 28 26 29 7 30 8 31 9 32
REMARK SMILES IDX 23 33
REMARK H PARENT 23 34
REMARK Flexibility Score: inf
ROOT
ATOM      1  C   UNL     1      26.054  33.787  51.833  1.00  0.00     0.017 C 
ATOM      2  C   UNL     1      25.048  34.979  51.740  1.00  0.00     0.014 C 
ATOM      3  C   UNL     1      25.257  32.539  52.326  1.00  0.00     0.014 C 
ATOM      4  C   UNL     1      26.764  33.465  50.445  1.00  0.00     0.028 C 
ATOM      5  C   UNL     1      24.537  35.202  50.316  1.00  0.00     0.007 C 
ATOM      6  C   UNL     1      26.057  31.241  52.167  1.00  0.00     0.013 C 
ATOM      7  C   UNL     1      26.252  32.157  49.794  1.00  0.00    -0.064 C 
ATOM      8  C   UNL     1      26.932  34.718  49.524  1.00  0.00     0.015 C 
ATOM      9  C   UNL     1      25.673  35.648  49.365  1.00  0.00    -0.035 C 
ATOM     10  C   UNL     1      26.346  30.879  50.662  1.00  0.00    -0.006 C 
ATOM     11  C   UNL     1      25.953  32.069  48.473  1.00  0.00    -0.027 C 
ATOM     12  C   UNL     1      25.133  35.632  47.908  1.00  0.00     0.011 C 
ATOM     13  C   UNL     1      26.076  37.122  49.673  1.00  0.00     0.011 C 
ATOM     14  C   UNL     1      27.850  30.432  50.559  1.00  0.00     0.017 C 
ATOM     15  C   UNL     1      25.335  29.742  50.132  1.00  0.00    -0.020 C 
ATOM     16  C   UNL     1      25.394  30.841  47.796  1.00  0.00     0.032 C 
ATOM     17  C   UNL     1      25.609  29.529  48.593  1.00  0.00     0.006 C 
ATOM     18  C   UNL     1      25.523  28.397  50.951  1.00  0.00     0.008 C 
ATOM     19  C   UNL     1      23.855  30.214  50.319  1.00  0.00     0.012 C 
ATOM     20  C   UNL     1      25.013  28.215  47.888  1.00  0.00    -0.025 C 
ATOM     21  C   UNL     1      25.744  27.138  50.095  1.00  0.00     0.005 C 
ATOM     22  C   UNL     1      24.700  27.117  48.963  1.00  0.00     0.003 C 
ATOM     23  C   UNL     1      23.687  28.466  47.084  1.00  0.00     0.010 C 
ATOM     24  C   UNL     1      26.113  27.755  46.876  1.00  0.00     0.012 C 
ATOM     25  C   UNL     1      24.265  25.696  48.414  1.00  0.00    -0.006 C 
ATOM     26  C   UNL     1      22.741  27.242  46.961  1.00  0.00     0.033 C 
ATOM     27  C   UNL     1      23.442  25.862  47.076  1.00  0.00     0.120 C 
ATOM     28  C   UNL     1      23.384  24.999  49.496  1.00  0.00     0.014 C 
ATOM     29  C   UNL     1      25.478  24.764  48.161  1.00  0.00     0.014 C 
ENDROOT
BRANCH   1  30
ATOM     30  C   UNL     1      27.096  34.161  52.887  1.00  0.00     0.048 C 
ATOM     31  O   UNL     1      26.738  34.645  53.999  1.00  0.00    -0.550 OA
ATOM     32  O   UNL     1      28.446  33.855  52.692  1.00  0.00    -0.550 OA
ENDBRANCH   1  30
BRANCH  27  33
ATOM     33  O   UNL     1      22.513  24.817  46.886  1.00  0.00    -0.393 OA
ATOM     34  H   UNL     1      22.938  24.117  46.328  1.00  0.00     0.210 HD
ENDBRANCH  27  33
TORSDOF 2
ENDMDL
MODEL 8
REMARK VINA RESULT:    -0.162      3.630      7.548
REMARK INTER + INTRA:          -0.413
REMARK INTER:                  -0.186
REMARK INTRA:                  -0.227
REMARK UNBOUND:                -0.237
REMARK SMILES CC1(C)CC[C@@]2(C(=O)[O-])CC[C@]3(C)C(=CC[C@@H]4[C@]5(C)CC[C@H](O)C(C)(C)[C@H]5CC[C@]43C)[C@H]2C1
REMARK SMILES IDX 6 1 5 2 10 3 32 4 4 5 11 6 14 7 33 8 2 9 12 10 15 11 1 12
REMARK SMILES IDX 3 13 13 14 30 15 16 16 17 17 29 18 31 19 18 20 28 21 27 22
REMARK SMILES IDX 20 23 19 24 24 25 21 26 22 27 25 28 26 29 7 30 8 31 9 32
REMARK SMILES IDX 23 33
REMARK H PARENT 23 34
REMARK Flexibility Score: inf
ROOT
ATOM      1  C   UNL     1      23.654  27.637  48.427  1.00  0.00     0.017 C 
ATOM      2  C   UNL     1      23.487  28.802  49.455  1.00  0.00     0.014 C 
ATOM      3  C   UNL     1      25.074  27.774  47.792  1.00  0.00     0.014 C 
ATOM      4  C   UNL     1      23.491  26.198  49.087  1.00  0.00     0.028 C 
ATOM      5  C   UNL     1      23.770  28.357  50.892  1.00  0.00     0.007 C 
ATOM      6  C   UNL     1      25.475  26.526  46.997  1.00  0.00     0.013 C 
ATOM      7  C   UNL     1      24.832  25.435  49.213  1.00  0.00    -0.064 C 
ATOM      8  C   UNL     1      22.527  26.182  50.319  1.00  0.00     0.015 C 
ATOM      9  C   UNL     1      22.728  27.324  51.384  1.00  0.00    -0.035 C 
ATOM     10  C   UNL     1      25.636  25.248  47.904  1.00  0.00    -0.006 C 
ATOM     11  C   UNL     1      25.187  24.765  50.338  1.00  0.00    -0.027 C 
ATOM     12  C   UNL     1      23.206  26.753  52.748  1.00  0.00     0.011 C 
ATOM     13  C   UNL     1      21.364  28.029  51.650  1.00  0.00     0.011 C 
ATOM     14  C   UNL     1      24.935  24.049  47.167  1.00  0.00     0.017 C 
ATOM     15  C   UNL     1      27.188  24.947  48.215  1.00  0.00    -0.020 C 
ATOM     16  C   UNL     1      26.504  24.056  50.539  1.00  0.00     0.032 C 
ATOM     17  C   UNL     1      27.255  23.735  49.222  1.00  0.00     0.006 C 
ATOM     18  C   UNL     1      27.981  24.639  46.875  1.00  0.00     0.008 C 
ATOM     19  C   UNL     1      27.851  26.196  48.887  1.00  0.00     0.012 C 
ATOM     20  C   UNL     1      28.662  22.986  49.421  1.00  0.00    -0.025 C 
ATOM     21  C   UNL     1      28.797  23.335  46.887  1.00  0.00     0.005 C 
ATOM     22  C   UNL     1      29.602  23.263  48.197  1.00  0.00     0.003 C 
ATOM     23  C   UNL     1      29.442  23.425  50.712  1.00  0.00     0.010 C 
ATOM     24  C   UNL     1      28.306  21.470  49.562  1.00  0.00     0.012 C 
ATOM     25  C   UNL     1      30.966  22.458  48.159  1.00  0.00    -0.006 C 
ATOM     26  C   UNL     1      30.987  23.288  50.635  1.00  0.00     0.033 C 
ATOM     27  C   UNL     1      31.498  22.224  49.628  1.00  0.00     0.120 C 
ATOM     28  C   UNL     1      32.005  23.288  47.344  1.00  0.00     0.014 C 
ATOM     29  C   UNL     1      30.824  21.092  47.438  1.00  0.00     0.014 C 
ENDROOT
BRANCH   1  30
ATOM     30  C   UNL     1      22.600  27.845  47.340  1.00  0.00     0.048 C 
ATOM     31  O   UNL     1      21.956  26.861  46.875  1.00  0.00    -0.550 OA
ATOM     32  O   UNL     1      22.240  29.134  46.936  1.00  0.00    -0.550 OA
ENDBRANCH   1  30
BRANCH  27  33
ATOM     33  O   UNL     1      32.904  22.129  49.679  1.00  0.00    -0.393 OA
ATOM     34  H   UNL     1      33.210  22.470  50.559  1.00  0.00     0.210 HD
ENDBRANCH  27  33
TORSDOF 2
ENDMDL
MODEL 9
REMARK VINA RESULT:    -0.159      2.467      4.047
REMARK INTER + INTRA:          -0.410
REMARK INTER:                  -0.167
REMARK INTRA:                  -0.243
REMARK UNBOUND:                -0.237
REMARK SMILES CC1(C)CC[C@@]2(C(=O)[O-])CC[C@]3(C)C(=CC[C@@H]4[C@]5(C)CC[C@H](O)C(C)(C)[C@H]5CC[C@]43C)[C@H]2C1
REMARK SMILES IDX 6 1 5 2 10 3 32 4 4 5 11 6 14 7 33 8 2 9 12 10 15 11 1 12
REMARK SMILES IDX 3 13 13 14 30 15 16 16 17 17 29 18 31 19 18 20 28 21 27 22
REMARK SMILES IDX 20 23 19 24 24 25 21 26 22 27 25 28 26 29 7 30 8 31 9 32
REMARK SMILES IDX 23 33
REMARK H PARENT 23 34
REMARK Flexibility Score: inf
ROOT
ATOM      1  C   UNL     1      22.316  24.064  48.670  1.00  0.00     0.017 C 
ATOM      2  C   UNL     1      21.256  24.120  49.818  1.00  0.00     0.014 C 
ATOM      3  C   UNL     1      22.486  25.514  48.119  1.00  0.00     0.014 C 
ATOM      4  C   UNL     1      23.723  23.498  49.152  1.00  0.00     0.028 C 
ATOM      5  C   UNL     1      21.901  24.177  51.204  1.00  0.00     0.007 C 
ATOM      6  C   UNL     1      23.709  25.646  47.205  1.00  0.00     0.013 C 
ATOM      7  C   UNL     1      24.814  24.592  49.249  1.00  0.00    -0.064 C 
ATOM      8  C   UNL     1      23.615  22.475  50.330  1.00  0.00     0.015 C 
ATOM      9  C   UNL     1      22.676  22.877  51.527  1.00  0.00    -0.035 C 
ATOM     10  C   UNL     1      25.070  25.416  47.964  1.00  0.00    -0.006 C 
ATOM     11  C   UNL     1      25.662  24.686  50.304  1.00  0.00    -0.027 C 
ATOM     12  C   UNL     1      23.483  23.096  52.837  1.00  0.00     0.011 C 
ATOM     13  C   UNL     1      21.673  21.718  51.812  1.00  0.00     0.011 C 
ATOM     14  C   UNL     1      25.968  24.493  47.064  1.00  0.00     0.017 C 
ATOM     15  C   UNL     1      25.789  26.817  48.307  1.00  0.00    -0.020 C 
ATOM     16  C   UNL     1      26.702  25.765  50.481  1.00  0.00     0.032 C 
ATOM     17  C   UNL     1      27.072  26.505  49.170  1.00  0.00     0.006 C 
ATOM     18  C   UNL     1      26.155  27.602  46.978  1.00  0.00     0.008 C 
ATOM     19  C   UNL     1      24.825  27.721  49.147  1.00  0.00     0.012 C 
ATOM     20  C   UNL     1      28.173  27.661  49.344  1.00  0.00    -0.025 C 
ATOM     21  C   UNL     1      27.619  28.063  46.875  1.00  0.00     0.005 C 
ATOM     22  C   UNL     1      28.026  28.727  48.203  1.00  0.00     0.003 C 
ATOM     23  C   UNL     1      28.081  28.431  50.710  1.00  0.00     0.010 C 
ATOM     24  C   UNL     1      29.553  26.928  49.294  1.00  0.00     0.012 C 
ATOM     25  C   UNL     1      29.146  29.844  48.133  1.00  0.00    -0.006 C 
ATOM     26  C   UNL     1      28.601  29.893  50.687  1.00  0.00     0.033 C 
ATOM     27  C   UNL     1      29.655  30.193  49.588  1.00  0.00     0.120 C 
ATOM     28  C   UNL     1      28.534  31.114  47.466  1.00  0.00     0.014 C 
ATOM     29  C   UNL     1      30.350  29.418  47.254  1.00  0.00     0.014 C 
ENDROOT
BRANCH   1  30
ATOM     30  C   UNL     1      21.737  23.177  47.568  1.00  0.00     0.048 C 
ATOM     31  O   UNL     1      20.541  23.326  47.187  1.00  0.00    -0.550 OA
ATOM     32  O   UNL     1      22.554  22.277  46.877  1.00  0.00    -0.550 OA
ENDBRANCH   1  30
BRANCH  27  33
ATOM     33  O   UNL     1      30.112  31.524  49.690  1.00  0.00    -0.393 OA
ATOM     34  H   UNL     1      30.852  31.651  49.042  1.00  0.00     0.210 HD
ENDBRANCH  27  33
TORSDOF 2
ENDMDL
