MODEL 1
REMARK VINA RESULT:    -4.317      0.000      0.000
REMARK INTER + INTRA:          -6.483
REMARK INTER:                  -5.831
REMARK INTRA:                  -0.651
REMARK UNBOUND:                -0.651
REMARK SMILES CCCCCCC=CC(=O)[O-]
REMARK SMILES IDX 5 1 6 2 7 3 8 4 9 5 10 6 11 7 4 8 3 9 2 10 1 11
REMARK H PARENT
REMARK Flexibility Score: inf
ROOT
ATOM      1  C   UNL     1      -3.256  13.021  -2.383  1.00  0.00     0.004 C 
ENDROOT
BRANCH   1   2
ATOM      2  C   UNL     1      -4.386  13.857  -2.996  1.00  0.00     0.027 C 
BRANCH   2   3
ATOM      3  C   UNL     1      -4.837  13.283  -4.309  1.00  0.00    -0.025 C 
ATOM      4  C   UNL     1      -5.837  12.398  -4.378  1.00  0.00     0.020 C 
BRANCH   4   5
ATOM      5  C   UNL     1      -6.279  11.818  -5.655  1.00  0.00     0.064 C 
ATOM      6  O   UNL     1      -6.112  10.588  -5.870  1.00  0.00    -0.545 OA
ATOM      7  O   UNL     1      -6.881  12.606  -6.630  1.00  0.00    -0.545 OA
ENDBRANCH   4   5
ENDBRANCH   2   3
ENDBRANCH   1   2
BRANCH   1   8
ATOM      8  C   UNL     1      -3.598  12.606  -0.945  1.00  0.00     0.000 C 
BRANCH   8   9
ATOM      9  C   UNL     1      -3.587  11.080  -0.742  1.00  0.00    -0.000 C 
BRANCH   9  10
ATOM     10  C   UNL     1      -3.380  10.258  -2.027  1.00  0.00    -0.003 C 
ATOM     11  C   UNL     1      -4.651   9.552  -2.497  1.00  0.00     0.004 C 
ENDBRANCH   9  10
ENDBRANCH   8   9
ENDBRANCH   1   8
TORSDOF 6
ENDMDL
MODEL 2
REMARK VINA RESULT:    -4.256      1.160      3.037
REMARK INTER + INTRA:          -6.399
REMARK INTER:                  -5.864
REMARK INTRA:                  -0.536
REMARK UNBOUND:                -0.651
REMARK SMILES CCCCCCC=CC(=O)[O-]
REMARK SMILES IDX 5 1 6 2 7 3 8 4 9 5 10 6 11 7 4 8 3 9 2 10 1 11
REMARK H PARENT
REMARK Flexibility Score: inf
ROOT
ATOM      1  C   UNL     1      -3.518  10.226  -2.137  1.00  0.00     0.004 C 
ENDROOT
BRANCH   1   2
ATOM      2  C   UNL     1      -4.753   9.328  -1.989  1.00  0.00     0.027 C 
BRANCH   2   3
ATOM      3  C   UNL     1      -5.456   9.147  -3.304  1.00  0.00    -0.025 C 
ATOM      4  C   UNL     1      -5.810  10.194  -4.056  1.00  0.00     0.020 C 
BRANCH   4   5
ATOM      5  C   UNL     1      -6.510  10.031  -5.339  1.00  0.00     0.064 C 
ATOM      6  O   UNL     1      -7.251   9.029  -5.520  1.00  0.00    -0.545 OA
ATOM      7  O   UNL     1      -6.370  10.968  -6.357  1.00  0.00    -0.545 OA
ENDBRANCH   4   5
ENDBRANCH   2   3
ENDBRANCH   1   2
BRANCH   1   8
ATOM      8  C   UNL     1      -3.689  11.529  -1.343  1.00  0.00     0.000 C 
BRANCH   8   9
ATOM      9  C   UNL     1      -3.168  12.764  -2.098  1.00  0.00    -0.000 C 
BRANCH   9  10
ATOM     10  C   UNL     1      -4.263  13.713  -2.618  1.00  0.00    -0.003 C 
ATOM     11  C   UNL     1      -4.503  13.585  -4.121  1.00  0.00     0.004 C 
ENDBRANCH   9  10
ENDBRANCH   8   9
ENDBRANCH   1   8
TORSDOF 6
ENDMDL
MODEL 3
REMARK VINA RESULT:    -4.188      0.795      1.320
REMARK INTER + INTRA:          -6.308
REMARK INTER:                  -5.817
REMARK INTRA:                  -0.491
REMARK UNBOUND:                -0.651
REMARK SMILES CCCCCCC=CC(=O)[O-]
REMARK SMILES IDX 5 1 6 2 7 3 8 4 9 5 10 6 11 7 4 8 3 9 2 10 1 11
REMARK H PARENT
REMARK Flexibility Score: inf
ROOT
ATOM      1  C   UNL     1      -4.335  13.764  -2.479  1.00  0.00     0.004 C 
ENDROOT
BRANCH   1   2
ATOM      2  C   UNL     1      -4.654  13.829  -3.978  1.00  0.00     0.027 C 
BRANCH   2   3
ATOM      3  C   UNL     1      -5.392  12.602  -4.431  1.00  0.00    -0.025 C 
ATOM      4  C   UNL     1      -6.054  12.574  -5.592  1.00  0.00     0.020 C 
BRANCH   4   5
ATOM      5  C   UNL     1      -6.792  11.384  -6.042  1.00  0.00     0.064 C 
ATOM      6  O   UNL     1      -7.220  11.328  -7.225  1.00  0.00    -0.545 OA
ATOM      7  O   UNL     1      -7.025  10.317  -5.181  1.00  0.00    -0.545 OA
ENDBRANCH   4   5
ENDBRANCH   2   3
ENDBRANCH   1   2
BRANCH   1   8
ATOM      8  C   UNL     1      -3.163  12.810  -2.209  1.00  0.00     0.000 C 
BRANCH   8   9
ATOM      9  C   UNL     1      -3.557  11.605  -1.337  1.00  0.00    -0.000 C 
BRANCH   9  10
ATOM     10  C   UNL     1      -3.321  10.231  -1.989  1.00  0.00    -0.003 C 
ATOM     11  C   UNL     1      -4.577   9.654  -2.642  1.00  0.00     0.004 C 
ENDBRANCH   9  10
ENDBRANCH   8   9
ENDBRANCH   1   8
TORSDOF 6
ENDMDL
MODEL 4
REMARK VINA RESULT:    -4.099      1.947      2.902
REMARK INTER + INTRA:          -6.188
REMARK INTER:                  -5.596
REMARK INTRA:                  -0.592
REMARK UNBOUND:                -0.651
REMARK SMILES CCCCCCC=CC(=O)[O-]
REMARK SMILES IDX 5 1 6 2 7 3 8 4 9 5 10 6 11 7 4 8 3 9 2 10 1 11
REMARK H PARENT
REMARK Flexibility Score: inf
ROOT
ATOM      1  C   UNL     1      -5.646  12.631  -3.615  1.00  0.00     0.004 C 
ENDROOT
BRANCH   1   2
ATOM      2  C   UNL     1      -5.857  12.364  -5.111  1.00  0.00     0.027 C 
BRANCH   2   3
ATOM      3  C   UNL     1      -6.338  10.962  -5.351  1.00  0.00    -0.025 C 
ATOM      4  C   UNL     1      -6.010   9.961  -4.529  1.00  0.00     0.020 C 
BRANCH   4   5
ATOM      5  C   UNL     1      -6.464   8.580  -4.759  1.00  0.00     0.064 C 
ATOM      6  O   UNL     1      -5.625   7.696  -5.075  1.00  0.00    -0.545 OA
ATOM      7  O   UNL     1      -7.805   8.236  -4.633  1.00  0.00    -0.545 OA
ENDBRANCH   4   5
ENDBRANCH   2   3
ENDBRANCH   1   2
BRANCH   1   8
ATOM      8  C   UNL     1      -4.351  13.419  -3.375  1.00  0.00     0.000 C 
BRANCH   8   9
ATOM      9  C   UNL     1      -3.381  12.704  -2.418  1.00  0.00    -0.000 C 
BRANCH   9  10
ATOM     10  C   UNL     1      -3.981  11.499  -1.671  1.00  0.00    -0.003 C 
ATOM     11  C   UNL     1      -3.276  10.183  -1.993  1.00  0.00     0.004 C 
ENDBRANCH   9  10
ENDBRANCH   8   9
ENDBRANCH   1   8
TORSDOF 6
ENDMDL
MODEL 5
REMARK VINA RESULT:    -4.091      2.462      3.979
REMARK INTER + INTRA:          -6.178
REMARK INTER:                  -5.889
REMARK INTRA:                  -0.289
REMARK UNBOUND:                -0.651
REMARK SMILES CCCCCCC=CC(=O)[O-]
REMARK SMILES IDX 5 1 6 2 7 3 8 4 9 5 10 6 11 7 4 8 3 9 2 10 1 11
REMARK H PARENT
REMARK Flexibility Score: inf
ROOT
ATOM      1  C   UNL     1      -3.646  10.144  -2.175  1.00  0.00     0.004 C 
ENDROOT
BRANCH   1   2
ATOM      2  C   UNL     1      -5.047  10.135  -2.801  1.00  0.00     0.027 C 
BRANCH   2   3
ATOM      3  C   UNL     1      -5.426   8.759  -3.268  1.00  0.00    -0.025 C 
ATOM      4  C   UNL     1      -5.927   8.549  -4.490  1.00  0.00     0.020 C 
BRANCH   4   5
ATOM      5  C   UNL     1      -6.315   7.209  -4.955  1.00  0.00     0.064 C 
ATOM      6  O   UNL     1      -7.275   7.084  -5.761  1.00  0.00    -0.545 OA
ATOM      7  O   UNL     1      -5.636   6.075  -4.521  1.00  0.00    -0.545 OA
ENDBRANCH   4   5
ENDBRANCH   2   3
ENDBRANCH   1   2
BRANCH   1   8
ATOM      8  C   UNL     1      -3.630  10.965  -0.879  1.00  0.00     0.000 C 
BRANCH   8   9
ATOM      9  C   UNL     1      -3.790  12.476  -1.122  1.00  0.00    -0.000 C 
BRANCH   9  10
ATOM     10  C   UNL     1      -2.983  13.028  -2.311  1.00  0.00    -0.003 C 
ATOM     11  C   UNL     1      -3.864  13.595  -3.422  1.00  0.00     0.004 C 
ENDBRANCH   9  10
ENDBRANCH   8   9
ENDBRANCH   1   8
TORSDOF 6
ENDMDL
MODEL 6
REMARK VINA RESULT:    -3.994      2.231      3.674
REMARK INTER + INTRA:          -6.047
REMARK INTER:                  -5.704
REMARK INTRA:                  -0.342
REMARK UNBOUND:                -0.651
REMARK SMILES CCCCCCC=CC(=O)[O-]
REMARK SMILES IDX 5 1 6 2 7 3 8 4 9 5 10 6 11 7 4 8 3 9 2 10 1 11
REMARK H PARENT
REMARK Flexibility Score: inf
ROOT
ATOM      1  C   UNL     1      -5.326  12.496  -3.771  1.00  0.00     0.004 C 
ENDROOT
BRANCH   1   2
ATOM      2  C   UNL     1      -5.135  11.109  -3.143  1.00  0.00     0.027 C 
BRANCH   2   3
ATOM      3  C   UNL     1      -5.967  10.074  -3.846  1.00  0.00    -0.025 C 
ATOM      4  C   UNL     1      -5.521   8.828  -4.031  1.00  0.00     0.020 C 
BRANCH   4   5
ATOM      5  C   UNL     1      -6.320   7.809  -4.729  1.00  0.00     0.064 C 
ATOM      6  O   UNL     1      -5.789   6.711  -5.044  1.00  0.00    -0.545 OA
ATOM      7  O   UNL     1      -7.655   8.038  -5.046  1.00  0.00    -0.545 OA
ENDBRANCH   4   5
ENDBRANCH   2   3
ENDBRANCH   1   2
BRANCH   1   8
ATOM      8  C   UNL     1      -4.294  13.492  -3.225  1.00  0.00     0.000 C 
BRANCH   8   9
ATOM      9  C   UNL     1      -3.342  12.864  -2.191  1.00  0.00    -0.000 C 
BRANCH   9  10
ATOM     10  C   UNL     1      -3.456  13.447  -0.771  1.00  0.00    -0.003 C 
ATOM     11  C   UNL     1      -4.458  14.596  -0.674  1.00  0.00     0.004 C 
ENDBRANCH   9  10
ENDBRANCH   8   9
ENDBRANCH   1   8
TORSDOF 6
ENDMDL
MODEL 7
REMARK VINA RESULT:    -3.949      1.167      2.897
REMARK INTER + INTRA:          -5.985
REMARK INTER:                  -5.530
REMARK INTRA:                  -0.455
REMARK UNBOUND:                -0.651
REMARK SMILES CCCCCCC=CC(=O)[O-]
REMARK SMILES IDX 5 1 6 2 7 3 8 4 9 5 10 6 11 7 4 8 3 9 2 10 1 11
REMARK H PARENT
REMARK Flexibility Score: inf
ROOT
ATOM      1  C   UNL     1      -5.365  10.108  -2.730  1.00  0.00     0.004 C 
ENDROOT
BRANCH   1   2
ATOM      2  C   UNL     1      -5.466   9.132  -3.909  1.00  0.00     0.027 C 
BRANCH   2   3
ATOM      3  C   UNL     1      -6.168   9.762  -5.078  1.00  0.00    -0.025 C 
ATOM      4  C   UNL     1      -6.249  11.089  -5.211  1.00  0.00     0.020 C 
BRANCH   4   5
ATOM      5  C   UNL     1      -6.945  11.719  -6.343  1.00  0.00     0.064 C 
ATOM      6  O   UNL     1      -7.345  11.006  -7.301  1.00  0.00    -0.545 OA
ATOM      7  O   UNL     1      -7.171  13.091  -6.373  1.00  0.00    -0.545 OA
ENDBRANCH   4   5
ENDBRANCH   2   3
ENDBRANCH   1   2
BRANCH   1   8
ATOM      8  C   UNL     1      -3.901  10.319  -2.317  1.00  0.00     0.000 C 
BRANCH   8   9
ATOM      9  C   UNL     1      -3.682  11.623  -1.529  1.00  0.00    -0.000 C 
BRANCH   9  10
ATOM     10  C   UNL     1      -3.303  12.842  -2.390  1.00  0.00    -0.003 C 
ATOM     11  C   UNL     1      -4.497  13.738  -2.717  1.00  0.00     0.004 C 
ENDBRANCH   9  10
ENDBRANCH   8   9
ENDBRANCH   1   8
TORSDOF 6
ENDMDL
MODEL 8
REMARK VINA RESULT:    -3.913      2.953      4.484
REMARK INTER + INTRA:          -5.937
REMARK INTER:                  -5.368
REMARK INTRA:                  -0.569
REMARK UNBOUND:                -0.651
REMARK SMILES CCCCCCC=CC(=O)[O-]
REMARK SMILES IDX 5 1 6 2 7 3 8 4 9 5 10 6 11 7 4 8 3 9 2 10 1 11
REMARK H PARENT
REMARK Flexibility Score: inf
ROOT
ATOM      1  C   UNL     1      -5.717  12.855  -5.137  1.00  0.00     0.004 C 
ENDROOT
BRANCH   1   2
ATOM      2  C   UNL     1      -4.642  13.506  -4.258  1.00  0.00     0.027 C 
BRANCH   2   3
ATOM      3  C   UNL     1      -4.652  12.932  -2.870  1.00  0.00    -0.025 C 
ATOM      4  C   UNL     1      -3.517  12.659  -2.219  1.00  0.00     0.020 C 
BRANCH   4   5
ATOM      5  C   UNL     1      -3.512  12.084  -0.865  1.00  0.00     0.064 C 
ATOM      6  O   UNL     1      -3.600  12.846   0.134  1.00  0.00    -0.545 OA
ATOM      7  O   UNL     1      -3.415  10.711  -0.670  1.00  0.00    -0.545 OA
ENDBRANCH   4   5
ENDBRANCH   2   3
ENDBRANCH   1   2
BRANCH   1   8
ATOM      8  C   UNL     1      -6.267  11.582  -4.479  1.00  0.00     0.000 C 
BRANCH   8   9
ATOM      9  C   UNL     1      -6.113  10.333  -5.364  1.00  0.00    -0.000 C 
BRANCH   9  10
ATOM     10  C   UNL     1      -5.859   9.024  -4.596  1.00  0.00    -0.003 C 
ATOM     11  C   UNL     1      -5.181   9.244  -3.245  1.00  0.00     0.004 C 
ENDBRANCH   9  10
ENDBRANCH   8   9
ENDBRANCH   1   8
TORSDOF 6
ENDMDL
MODEL 9
REMARK VINA RESULT:    -3.881      2.364      3.939
REMARK INTER + INTRA:          -5.893
REMARK INTER:                  -5.470
REMARK INTRA:                  -0.423
REMARK UNBOUND:                -0.651
REMARK SMILES CCCCCCC=CC(=O)[O-]
REMARK SMILES IDX 5 1 6 2 7 3 8 4 9 5 10 6 11 7 4 8 3 9 2 10 1 11
REMARK H PARENT
REMARK Flexibility Score: inf
ROOT
ATOM      1  C   UNL     1      -6.211   8.418  -4.535  1.00  0.00     0.004 C 
ENDROOT
BRANCH   1   2
ATOM      2  C   UNL     1      -7.685   8.828  -4.655  1.00  0.00     0.027 C 
BRANCH   2   3
ATOM      3  C   UNL     1      -7.935   9.592  -5.924  1.00  0.00    -0.025 C 
ATOM      4  C   UNL     1      -7.389  10.793  -6.136  1.00  0.00     0.020 C 
BRANCH   4   5
ATOM      5  C   UNL     1      -7.638  11.557  -7.368  1.00  0.00     0.064 C 
ATOM      6  O   UNL     1      -7.597  12.815  -7.337  1.00  0.00    -0.545 OA
ATOM      7  O   UNL     1      -7.915  10.912  -8.568  1.00  0.00    -0.545 OA
ENDBRANCH   4   5
ENDBRANCH   2   3
ENDBRANCH   1   2
BRANCH   1   8
ATOM      8  C   UNL     1      -5.786   8.325  -3.063  1.00  0.00     0.000 C 
BRANCH   8   9
ATOM      9  C   UNL     1      -5.863   9.675  -2.329  1.00  0.00    -0.000 C 
BRANCH   9  10
ATOM     10  C   UNL     1      -4.662  10.608  -2.564  1.00  0.00    -0.003 C 
ATOM     11  C   UNL     1      -3.343  10.023  -2.064  1.00  0.00     0.004 C 
ENDBRANCH   9  10
ENDBRANCH   8   9
ENDBRANCH   1   8
TORSDOF 6
ENDMDL
