MODEL 1
REMARK VINA RESULT:    -5.705      0.000      0.000
REMARK INTER + INTRA:          -8.443
REMARK INTER:                  -7.706
REMARK INTRA:                  -0.737
REMARK UNBOUND:                -0.737
REMARK SMILES CC(=O)CCC=C(C)CCC=C(C)C
REMARK SMILES IDX 7 1 6 2 8 3 9 4 10 5 11 6 13 7 12 8 14 9 5 10 4 11 2 12 3 13
REMARK SMILES IDX 1 14
REMARK H PARENT
REMARK Flexibility Score: inf
ROOT
ATOM      1  C   UNL     1     -12.960 -19.637  29.501  1.00  0.00    -0.077 C 
ATOM      2  C   UNL     1     -12.233 -18.575  29.087  1.00  0.00    -0.028 C 
ATOM      3  C   UNL     1     -14.007 -20.278  28.619  1.00  0.00     0.039 C 
ENDROOT
BRANCH   1   4
ATOM      4  C   UNL     1     -12.732 -20.187  30.892  1.00  0.00     0.034 C 
BRANCH   4   5
ATOM      5  C   UNL     1     -12.237 -19.085  31.836  1.00  0.00     0.032 C 
BRANCH   5   6
ATOM      6  C   UNL     1     -13.284 -18.013  32.000  1.00  0.00    -0.028 C 
ATOM      7  C   UNL     1     -11.614 -16.253  32.622  1.00  0.00     0.039 C 
ATOM      8  C   UNL     1     -13.023 -16.742  32.377  1.00  0.00    -0.080 C 
ATOM      9  C   UNL     1     -14.179 -15.789  32.538  1.00  0.00     0.039 C 
ENDBRANCH   5   6
ENDBRANCH   4   5
ENDBRANCH   1   4
BRANCH   2  10
ATOM     10  C   UNL     1     -12.312 -17.966  27.708  1.00  0.00     0.035 C 
BRANCH  10  11
ATOM     11  C   UNL     1     -11.349 -16.782  27.553  1.00  0.00     0.079 C 
BRANCH  11  12
ATOM     12  C   UNL     1     -11.533 -15.768  28.651  1.00  0.00     0.130 C 
ATOM     13  O   UNL     1     -10.593 -15.488  29.378  1.00  0.00    -0.300 OA
ATOM     14  C   UNL     1     -12.867 -15.126  28.893  1.00  0.00     0.087 C 
ENDBRANCH  11  12
ENDBRANCH  10  11
ENDBRANCH   2  10
TORSDOF 6
ENDMDL
MODEL 2
REMARK VINA RESULT:    -5.670      2.098      4.502
REMARK INTER + INTRA:          -8.395
REMARK INTER:                  -7.557
REMARK INTRA:                  -0.838
REMARK UNBOUND:                -0.737
REMARK SMILES CC(=O)CCC=C(C)CCC=C(C)C
REMARK SMILES IDX 7 1 6 2 8 3 9 4 10 5 11 6 13 7 12 8 14 9 5 10 4 11 2 12 3 13
REMARK SMILES IDX 1 14
REMARK H PARENT
REMARK Flexibility Score: inf
ROOT
ATOM      1  C   UNL     1     -12.107 -18.531  30.754  1.00  0.00    -0.077 C 
ATOM      2  C   UNL     1     -12.256 -17.314  31.326  1.00  0.00    -0.028 C 
ATOM      3  C   UNL     1     -12.869 -19.740  31.245  1.00  0.00     0.039 C 
ENDROOT
BRANCH   1   4
ATOM      4  C   UNL     1     -11.136 -18.688  29.605  1.00  0.00     0.034 C 
BRANCH   4   5
ATOM      5  C   UNL     1     -10.910 -17.347  28.898  1.00  0.00     0.032 C 
BRANCH   5   6
ATOM      6  C   UNL     1     -11.862 -17.188  27.739  1.00  0.00    -0.028 C 
ATOM      7  C   UNL     1     -12.909 -15.115  28.676  1.00  0.00     0.039 C 
ATOM      8  C   UNL     1     -12.783 -16.204  27.636  1.00  0.00    -0.080 C 
ATOM      9  C   UNL     1     -13.693 -16.195  26.436  1.00  0.00     0.039 C 
ENDBRANCH   5   6
ENDBRANCH   4   5
ENDBRANCH   1   4
BRANCH   2  10
ATOM     10  C   UNL     1     -13.232 -17.001  32.435  1.00  0.00     0.035 C 
BRANCH  10  11
ATOM     11  C   UNL     1     -12.805 -15.764  33.235  1.00  0.00     0.079 C 
BRANCH  11  12
ATOM     12  C   UNL     1     -13.948 -14.802  33.422  1.00  0.00     0.130 C 
ATOM     13  O   UNL     1     -13.943 -14.035  34.373  1.00  0.00    -0.300 OA
ATOM     14  C   UNL     1     -15.117 -14.798  32.482  1.00  0.00     0.087 C 
ENDBRANCH  11  12
ENDBRANCH  10  11
ENDBRANCH   2  10
TORSDOF 6
ENDMDL
MODEL 3
REMARK VINA RESULT:    -5.625      2.054      4.470
REMARK INTER + INTRA:          -8.334
REMARK INTER:                  -7.514
REMARK INTRA:                  -0.820
REMARK UNBOUND:                -0.737
REMARK SMILES CC(=O)CCC=C(C)CCC=C(C)C
REMARK SMILES IDX 7 1 6 2 8 3 9 4 10 5 11 6 13 7 12 8 14 9 5 10 4 11 2 12 3 13
REMARK SMILES IDX 1 14
REMARK H PARENT
REMARK Flexibility Score: inf
ROOT
ATOM      1  C   UNL     1     -12.380 -18.266  31.641  1.00  0.00    -0.077 C 
ATOM      2  C   UNL     1     -13.110 -17.198  32.038  1.00  0.00    -0.028 C 
ATOM      3  C   UNL     1     -10.887 -18.336  31.863  1.00  0.00     0.039 C 
ENDROOT
BRANCH   1   4
ATOM      4  C   UNL     1     -13.075 -19.411  30.938  1.00  0.00     0.034 C 
BRANCH   4   5
ATOM      5  C   UNL     1     -12.522 -19.593  29.521  1.00  0.00     0.032 C 
BRANCH   5   6
ATOM      6  C   UNL     1     -13.128 -18.586  28.577  1.00  0.00    -0.028 C 
ATOM      7  C   UNL     1     -10.981 -17.329  28.283  1.00  0.00     0.039 C 
ATOM      8  C   UNL     1     -12.455 -17.548  28.032  1.00  0.00    -0.080 C 
ATOM      9  C   UNL     1     -13.205 -16.598  27.134  1.00  0.00     0.039 C 
ENDBRANCH   5   6
ENDBRANCH   4   5
ENDBRANCH   1   4
BRANCH   2  10
ATOM     10  C   UNL     1     -12.559 -16.019  32.803  1.00  0.00     0.035 C 
BRANCH  10  11
ATOM     11  C   UNL     1     -13.676 -15.183  33.440  1.00  0.00     0.079 C 
BRANCH  11  12
ATOM     12  C   UNL     1     -14.833 -14.990  32.497  1.00  0.00     0.130 C 
ATOM     13  O   UNL     1     -15.938 -15.413  32.801  1.00  0.00    -0.300 OA
ATOM     14  C   UNL     1     -14.643 -14.322  31.167  1.00  0.00     0.087 C 
ENDBRANCH  11  12
ENDBRANCH  10  11
ENDBRANCH   2  10
TORSDOF 6
ENDMDL
MODEL 4
REMARK VINA RESULT:    -5.575      1.682      4.745
REMARK INTER + INTRA:          -8.267
REMARK INTER:                  -7.585
REMARK INTRA:                  -0.682
REMARK UNBOUND:                -0.737
REMARK SMILES CC(=O)CCC=C(C)CCC=C(C)C
REMARK SMILES IDX 7 1 6 2 8 3 9 4 10 5 11 6 13 7 12 8 14 9 5 10 4 11 2 12 3 13
REMARK SMILES IDX 1 14
REMARK H PARENT
REMARK Flexibility Score: inf
ROOT
ATOM      1  C   UNL     1     -12.661 -15.486  29.179  1.00  0.00    -0.077 C 
ATOM      2  C   UNL     1     -12.912 -15.744  30.483  1.00  0.00    -0.028 C 
ATOM      3  C   UNL     1     -13.598 -14.652  28.337  1.00  0.00     0.039 C 
ENDROOT
BRANCH   1   4
ATOM      4  C   UNL     1     -11.417 -16.066  28.542  1.00  0.00     0.034 C 
BRANCH   4   5
ATOM      5  C   UNL     1     -11.207 -17.518  28.985  1.00  0.00     0.032 C 
BRANCH   5   6
ATOM      6  C   UNL     1     -12.316 -18.400  28.468  1.00  0.00    -0.028 C 
ATOM      7  C   UNL     1     -12.742 -19.449  30.702  1.00  0.00     0.039 C 
ATOM      8  C   UNL     1     -12.999 -19.290  29.221  1.00  0.00    -0.080 C 
ATOM      9  C   UNL     1     -14.056 -20.132  28.555  1.00  0.00     0.039 C 
ENDBRANCH   5   6
ENDBRANCH   4   5
ENDBRANCH   1   4
BRANCH   2  10
ATOM     10  C   UNL     1     -14.078 -15.180  31.259  1.00  0.00     0.035 C 
BRANCH  10  11
ATOM     11  C   UNL     1     -14.173 -15.790  32.664  1.00  0.00     0.079 C 
BRANCH  11  12
ATOM     12  C   UNL     1     -13.164 -15.184  33.602  1.00  0.00     0.130 C 
ATOM     13  O   UNL     1     -12.018 -15.606  33.612  1.00  0.00    -0.300 OA
ATOM     14  C   UNL     1     -13.554 -14.095  34.558  1.00  0.00     0.087 C 
ENDBRANCH  11  12
ENDBRANCH  10  11
ENDBRANCH   2  10
TORSDOF 6
ENDMDL
MODEL 5
REMARK VINA RESULT:    -5.507      3.653      6.443
REMARK INTER + INTRA:          -8.175
REMARK INTER:                  -7.653
REMARK INTRA:                  -0.521
REMARK UNBOUND:                -0.737
REMARK SMILES CC(=O)CCC=C(C)CCC=C(C)C
REMARK SMILES IDX 7 1 6 2 8 3 9 4 10 5 11 6 13 7 12 8 14 9 5 10 4 11 2 12 3 13
REMARK SMILES IDX 1 14
REMARK H PARENT
REMARK Flexibility Score: inf
ROOT
ATOM      1  C   UNL     1     -13.688 -15.453  32.692  1.00  0.00    -0.077 C 
ATOM      2  C   UNL     1     -12.927 -15.139  33.765  1.00  0.00    -0.028 C 
ATOM      3  C   UNL     1     -15.008 -14.769  32.424  1.00  0.00     0.039 C 
ENDROOT
BRANCH   1   4
ATOM      4  C   UNL     1     -13.212 -16.533  31.746  1.00  0.00     0.034 C 
BRANCH   4   5
ATOM      5  C   UNL     1     -11.986 -16.061  30.956  1.00  0.00     0.032 C 
BRANCH   5   6
ATOM      6  C   UNL     1     -11.999 -16.629  29.560  1.00  0.00    -0.028 C 
ATOM      7  C   UNL     1     -13.332 -14.726  28.624  1.00  0.00     0.039 C 
ATOM      8  C   UNL     1     -12.620 -16.054  28.506  1.00  0.00    -0.080 C 
ATOM      9  C   UNL     1     -12.580 -16.760  27.176  1.00  0.00     0.039 C 
ENDBRANCH   5   6
ENDBRANCH   4   5
ENDBRANCH   1   4
BRANCH   2  10
ATOM     10  C   UNL     1     -13.249 -14.042  34.753  1.00  0.00     0.035 C 
BRANCH  10  11
ATOM     11  C   UNL     1     -12.150 -13.891  35.812  1.00  0.00     0.079 C 
BRANCH  11  12
ATOM     12  C   UNL     1     -12.336 -12.643  36.632  1.00  0.00     0.130 C 
ATOM     13  O   UNL     1     -13.228 -12.595  37.465  1.00  0.00    -0.300 OA
ATOM     14  C   UNL     1     -11.469 -11.438  36.414  1.00  0.00     0.087 C 
ENDBRANCH  11  12
ENDBRANCH  10  11
ENDBRANCH   2  10
TORSDOF 6
ENDMDL
MODEL 6
REMARK VINA RESULT:    -5.453      1.631      2.599
REMARK INTER + INTRA:          -8.102
REMARK INTER:                  -6.950
REMARK INTRA:                  -1.152
REMARK UNBOUND:                -0.737
REMARK SMILES CC(=O)CCC=C(C)CCC=C(C)C
REMARK SMILES IDX 7 1 6 2 8 3 9 4 10 5 11 6 13 7 12 8 14 9 5 10 4 11 2 12 3 13
REMARK SMILES IDX 1 14
REMARK H PARENT
REMARK Flexibility Score: inf
ROOT
ATOM      1  C   UNL     1     -11.849 -18.466  31.276  1.00  0.00    -0.077 C 
ATOM      2  C   UNL     1     -11.581 -18.147  29.989  1.00  0.00    -0.028 C 
ATOM      3  C   UNL     1     -12.864 -19.524  31.640  1.00  0.00     0.039 C 
ENDROOT
BRANCH   1   4
ATOM      4  C   UNL     1     -11.126 -17.728  32.382  1.00  0.00     0.034 C 
BRANCH   4   5
ATOM      5  C   UNL     1     -11.400 -16.222  32.298  1.00  0.00     0.032 C 
BRANCH   5   6
ATOM      6  C   UNL     1     -12.783 -15.902  32.806  1.00  0.00    -0.028 C 
ATOM      7  C   UNL     1     -13.624 -15.207  30.551  1.00  0.00     0.039 C 
ATOM      8  C   UNL     1     -13.786 -15.422  32.038  1.00  0.00    -0.080 C 
ATOM      9  C   UNL     1     -15.106 -15.111  32.695  1.00  0.00     0.039 C 
ENDBRANCH   5   6
ENDBRANCH   4   5
ENDBRANCH   1   4
BRANCH   2  10
ATOM     10  C   UNL     1     -12.181 -18.843  28.791  1.00  0.00     0.035 C 
BRANCH  10  11
ATOM     11  C   UNL     1     -13.302 -18.012  28.155  1.00  0.00     0.079 C 
BRANCH  11  12
ATOM     12  C   UNL     1     -12.756 -16.958  27.229  1.00  0.00     0.130 C 
ATOM     13  O   UNL     1     -13.375 -15.918  27.066  1.00  0.00    -0.300 OA
ATOM     14  C   UNL     1     -11.482 -17.181  26.470  1.00  0.00     0.087 C 
ENDBRANCH  11  12
ENDBRANCH  10  11
ENDBRANCH   2  10
TORSDOF 6
ENDMDL
MODEL 7
REMARK VINA RESULT:    -5.395      2.140      3.729
REMARK INTER + INTRA:          -8.024
REMARK INTER:                  -6.743
REMARK INTRA:                  -1.281
REMARK UNBOUND:                -0.737
REMARK SMILES CC(=O)CCC=C(C)CCC=C(C)C
REMARK SMILES IDX 7 1 6 2 8 3 9 4 10 5 11 6 13 7 12 8 14 9 5 10 4 11 2 12 3 13
REMARK SMILES IDX 1 14
REMARK H PARENT
REMARK Flexibility Score: inf
ROOT
ATOM      1  C   UNL     1     -10.647 -18.198  31.729  1.00  0.00    -0.077 C 
ATOM      2  C   UNL     1     -11.623 -19.103  31.972  1.00  0.00    -0.028 C 
ATOM      3  C   UNL     1      -9.945 -18.123  30.394  1.00  0.00     0.039 C 
ENDROOT
BRANCH   1   4
ATOM      4  C   UNL     1     -10.235 -17.249  32.833  1.00  0.00     0.034 C 
BRANCH   4   5
ATOM      5  C   UNL     1     -10.847 -15.861  32.611  1.00  0.00     0.032 C 
BRANCH   5   6
ATOM      6  C   UNL     1     -12.291 -15.839  33.047  1.00  0.00    -0.028 C 
ATOM      7  C   UNL     1     -13.165 -15.750  30.701  1.00  0.00     0.039 C 
ATOM      8  C   UNL     1     -13.343 -15.764  32.202  1.00  0.00    -0.080 C 
ATOM      9  C   UNL     1     -14.731 -15.711  32.787  1.00  0.00     0.039 C 
ENDBRANCH   5   6
ENDBRANCH   4   5
ENDBRANCH   1   4
BRANCH   2  10
ATOM     10  C   UNL     1     -12.175 -20.065  30.947  1.00  0.00     0.035 C 
BRANCH  10  11
ATOM     11  C   UNL     1     -13.537 -19.605  30.412  1.00  0.00     0.079 C 
BRANCH  11  12
ATOM     12  C   UNL     1     -13.546 -19.528  28.908  1.00  0.00     0.130 C 
ATOM     13  O   UNL     1     -14.053 -20.430  28.260  1.00  0.00    -0.300 OA
ATOM     14  C   UNL     1     -12.904 -18.378  28.189  1.00  0.00     0.087 C 
ENDBRANCH  11  12
ENDBRANCH  10  11
ENDBRANCH   2  10
TORSDOF 6
ENDMDL
MODEL 8
REMARK VINA RESULT:    -5.393      2.781      4.638
REMARK INTER + INTRA:          -8.022
REMARK INTER:                  -7.473
REMARK INTRA:                  -0.549
REMARK UNBOUND:                -0.737
REMARK SMILES CC(=O)CCC=C(C)CCC=C(C)C
REMARK SMILES IDX 7 1 6 2 8 3 9 4 10 5 11 6 13 7 12 8 14 9 5 10 4 11 2 12 3 13
REMARK SMILES IDX 1 14
REMARK H PARENT
REMARK Flexibility Score: inf
ROOT
ATOM      1  C   UNL     1     -14.073 -15.009  31.551  1.00  0.00    -0.077 C 
ATOM      2  C   UNL     1     -13.120 -15.930  31.281  1.00  0.00    -0.028 C 
ATOM      3  C   UNL     1     -14.700 -14.169  30.463  1.00  0.00     0.039 C 
ENDROOT
BRANCH   1   4
ATOM      4  C   UNL     1     -14.508 -14.802  32.985  1.00  0.00     0.034 C 
BRANCH   4   5
ATOM      5  C   UNL     1     -13.309 -14.894  33.935  1.00  0.00     0.032 C 
BRANCH   5   6
ATOM      6  C   UNL     1     -13.393 -13.835  35.005  1.00  0.00    -0.028 C 
ATOM      7  C   UNL     1     -10.994 -14.094  35.676  1.00  0.00     0.039 C 
ATOM      8  C   UNL     1     -12.369 -13.481  35.813  1.00  0.00    -0.080 C 
ATOM      9  C   UNL     1     -12.613 -12.432  36.866  1.00  0.00     0.039 C 
ENDBRANCH   5   6
ENDBRANCH   4   5
ENDBRANCH   1   4
BRANCH   2  10
ATOM     10  C   UNL     1     -12.637 -16.283  29.894  1.00  0.00     0.035 C 
BRANCH  10  11
ATOM     11  C   UNL     1     -12.875 -17.764  29.570  1.00  0.00     0.079 C 
BRANCH  11  12
ATOM     12  C   UNL     1     -12.067 -18.665  30.465  1.00  0.00     0.130 C 
ATOM     13  O   UNL     1     -10.850 -18.685  30.362  1.00  0.00    -0.300 OA
ATOM     14  C   UNL     1     -12.735 -19.574  31.454  1.00  0.00     0.087 C 
ENDBRANCH  11  12
ENDBRANCH  10  11
ENDBRANCH   2  10
TORSDOF 6
ENDMDL
MODEL 9
REMARK VINA RESULT:    -5.369      2.455      3.410
REMARK INTER + INTRA:          -7.989
REMARK INTER:                  -6.968
REMARK INTRA:                  -1.020
REMARK UNBOUND:                -0.737
REMARK SMILES CC(=O)CCC=C(C)CCC=C(C)C
REMARK SMILES IDX 7 1 6 2 8 3 9 4 10 5 11 6 13 7 12 8 14 9 5 10 4 11 2 12 3 13
REMARK SMILES IDX 1 14
REMARK H PARENT
REMARK Flexibility Score: inf
ROOT
ATOM      1  C   UNL     1     -10.202 -16.470  31.048  1.00  0.00    -0.077 C 
ATOM      2  C   UNL     1     -10.513 -15.662  30.009  1.00  0.00    -0.028 C 
ATOM      3  C   UNL     1     -10.191 -17.975  30.912  1.00  0.00     0.039 C 
ENDROOT
BRANCH   1   4
ATOM      4  C   UNL     1      -9.876 -15.849  32.389  1.00  0.00     0.034 C 
BRANCH   4   5
ATOM      5  C   UNL     1     -10.913 -16.255  33.442  1.00  0.00     0.032 C 
BRANCH   5   6
ATOM      6  C   UNL     1     -12.141 -15.386  33.344  1.00  0.00    -0.028 C 
ATOM      7  C   UNL     1     -13.547 -17.209  32.356  1.00  0.00     0.039 C 
ATOM      8  C   UNL     1     -13.326 -15.793  32.835  1.00  0.00    -0.080 C 
ATOM      9  C   UNL     1     -14.457 -14.799  32.766  1.00  0.00     0.039 C 
ENDBRANCH   5   6
ENDBRANCH   4   5
ENDBRANCH   1   4
BRANCH   2  10
ATOM     10  C   UNL     1     -10.797 -16.142  28.605  1.00  0.00     0.035 C 
BRANCH  10  11
ATOM     11  C   UNL     1     -12.299 -16.127  28.294  1.00  0.00     0.079 C 
BRANCH  11  12
ATOM     12  C   UNL     1     -12.577 -16.561  26.879  1.00  0.00     0.130 C 
ATOM     13  O   UNL     1     -13.704 -16.445  26.422  1.00  0.00    -0.300 OA
ATOM     14  C   UNL     1     -11.500 -17.173  26.033  1.00  0.00     0.087 C 
ENDBRANCH  11  12
ENDBRANCH  10  11
ENDBRANCH   2  10
TORSDOF 6
ENDMDL
