MODEL 1
REMARK VINA RESULT:    -3.640      0.000      0.000
REMARK INTER + INTRA:          -9.123
REMARK INTER:                  -7.045
REMARK INTRA:                  -2.078
REMARK UNBOUND:                -2.078
REMARK SMILES CCCCCCCCCCCCCCCCCC(=O)[O-]
REMARK SMILES IDX 10 1 11 2 12 3 13 4 14 5 15 6 16 7 17 8 18 9 19 10 20 11
REMARK SMILES IDX 9 12 8 13 7 14 6 15 5 16 4 17 3 18 2 19 1 20
REMARK H PARENT
REMARK Flexibility Score: inf
ROOT
ATOM      1  C   UNL     1      27.261  31.464  36.122  1.00  0.00     0.000 C 
ENDROOT
BRANCH   1   2
ATOM      2  C   UNL     1      26.365  32.517  36.811  1.00  0.00     0.000 C 
BRANCH   2   3
ATOM      3  C   UNL     1      25.394  33.231  35.850  1.00  0.00     0.000 C 
BRANCH   3   4
ATOM      4  C   UNL     1      25.939  33.478  34.429  1.00  0.00     0.000 C 
BRANCH   4   5
ATOM      5  C   UNL     1      26.547  34.876  34.197  1.00  0.00     0.000 C 
BRANCH   5   6
ATOM      6  C   UNL     1      27.860  34.832  33.398  1.00  0.00     0.000 C 
BRANCH   6   7
ATOM      7  C   UNL     1      27.852  33.765  32.287  1.00  0.00     0.006 C 
BRANCH   7   8
ATOM      8  C   UNL     1      27.417  34.298  30.908  1.00  0.00     0.053 C 
BRANCH   8   9
ATOM      9  C   UNL     1      25.999  33.950  30.570  1.00  0.00     0.041 C 
ATOM     10  O   UNL     1      25.395  33.047  31.209  1.00  0.00    -0.550 OA
ATOM     11  O   UNL     1      25.334  34.641  29.564  1.00  0.00    -0.550 OA
ENDBRANCH   8   9
ENDBRANCH   7   8
ENDBRANCH   6   7
ENDBRANCH   5   6
ENDBRANCH   4   5
ENDBRANCH   3   4
ENDBRANCH   2   3
ENDBRANCH   1   2
BRANCH   1  12
ATOM     12  C   UNL     1      28.530  31.154  36.933  1.00  0.00     0.000 C 
BRANCH  12  13
ATOM     13  C   UNL     1      29.610  32.238  36.783  1.00  0.00    -0.000 C 
BRANCH  13  14
ATOM     14  C   UNL     1      29.938  32.543  35.313  1.00  0.00    -0.000 C 
BRANCH  14  15
ATOM     15  C   UNL     1      30.802  31.428  34.703  1.00  0.00    -0.000 C 
BRANCH  15  16
ATOM     16  C   UNL     1      30.351  31.036  33.286  1.00  0.00    -0.000 C 
BRANCH  16  17
ATOM     17  C   UNL     1      30.266  29.514  33.087  1.00  0.00    -0.000 C 
BRANCH  17  18
ATOM     18  C   UNL     1      29.826  28.818  34.384  1.00  0.00    -0.000 C 
BRANCH  18  19
ATOM     19  C   UNL     1      30.792  27.702  34.811  1.00  0.00    -0.003 C 
ATOM     20  C   UNL     1      30.094  26.354  34.997  1.00  0.00     0.004 C 
ENDBRANCH  18  19
ENDBRANCH  17  18
ENDBRANCH  16  17
ENDBRANCH  15  16
ENDBRANCH  14  15
ENDBRANCH  13  14
ENDBRANCH  12  13
ENDBRANCH   1  12
TORSDOF 16
ENDMDL
MODEL 2
REMARK VINA RESULT:    -3.596      1.182      1.721
REMARK INTER + INTRA:          -9.038
REMARK INTER:                  -7.483
REMARK INTRA:                  -1.555
REMARK UNBOUND:                -2.078
REMARK SMILES CCCCCCCCCCCCCCCCCC(=O)[O-]
REMARK SMILES IDX 10 1 11 2 12 3 13 4 14 5 15 6 16 7 17 8 18 9 19 10 20 11
REMARK SMILES IDX 9 12 8 13 7 14 6 15 5 16 4 17 3 18 2 19 1 20
REMARK H PARENT
REMARK Flexibility Score: inf
ROOT
ATOM      1  C   UNL     1      25.799  32.502  37.105  1.00  0.00     0.000 C 
ENDROOT
BRANCH   1   2
ATOM      2  C   UNL     1      24.933  33.224  36.049  1.00  0.00     0.000 C 
BRANCH   2   3
ATOM      3  C   UNL     1      25.500  34.587  35.607  1.00  0.00     0.000 C 
BRANCH   3   4
ATOM      4  C   UNL     1      26.341  34.562  34.316  1.00  0.00     0.000 C 
BRANCH   4   5
ATOM      5  C   UNL     1      26.682  35.947  33.731  1.00  0.00     0.000 C 
BRANCH   5   6
ATOM      6  C   UNL     1      27.425  35.863  32.387  1.00  0.00     0.000 C 
BRANCH   6   7
ATOM      7  C   UNL     1      27.898  34.436  32.051  1.00  0.00     0.006 C 
BRANCH   7   8
ATOM      8  C   UNL     1      27.436  33.930  30.672  1.00  0.00     0.053 C 
BRANCH   8   9
ATOM      9  C   UNL     1      25.948  33.779  30.575  1.00  0.00     0.041 C 
ATOM     10  O   UNL     1      25.320  33.099  31.430  1.00  0.00    -0.550 OA
ATOM     11  O   UNL     1      25.250  34.412  29.553  1.00  0.00    -0.550 OA
ENDBRANCH   8   9
ENDBRANCH   7   8
ENDBRANCH   6   7
ENDBRANCH   5   6
ENDBRANCH   4   5
ENDBRANCH   3   4
ENDBRANCH   2   3
ENDBRANCH   1   2
BRANCH   1  12
ATOM     12  C   UNL     1      27.015  31.796  36.481  1.00  0.00     0.000 C 
BRANCH  12  13
ATOM     13  C   UNL     1      28.350  32.426  36.909  1.00  0.00    -0.000 C 
BRANCH  13  14
ATOM     14  C   UNL     1      29.155  32.966  35.717  1.00  0.00    -0.000 C 
BRANCH  14  15
ATOM     15  C   UNL     1      30.528  32.281  35.629  1.00  0.00    -0.000 C 
BRANCH  15  16
ATOM     16  C   UNL     1      30.513  30.849  36.189  1.00  0.00    -0.000 C 
BRANCH  16  17
ATOM     17  C   UNL     1      31.052  29.812  35.189  1.00  0.00    -0.000 C 
BRANCH  17  18
ATOM     18  C   UNL     1      29.910  29.213  34.355  1.00  0.00    -0.000 C 
BRANCH  18  19
ATOM     19  C   UNL     1      30.413  28.507  33.086  1.00  0.00    -0.003 C 
ATOM     20  C   UNL     1      30.717  29.482  31.947  1.00  0.00     0.004 C 
ENDBRANCH  18  19
ENDBRANCH  17  18
ENDBRANCH  16  17
ENDBRANCH  15  16
ENDBRANCH  14  15
ENDBRANCH  13  14
ENDBRANCH  12  13
ENDBRANCH   1  12
TORSDOF 16
ENDMDL
MODEL 3
REMARK VINA RESULT:    -3.582      3.229      6.435
REMARK INTER + INTRA:          -9.012
REMARK INTER:                  -7.019
REMARK INTRA:                  -1.993
REMARK UNBOUND:                -2.078
REMARK SMILES CCCCCCCCCCCCCCCCCC(=O)[O-]
REMARK SMILES IDX 10 1 11 2 12 3 13 4 14 5 15 6 16 7 17 8 18 9 19 10 20 11
REMARK SMILES IDX 9 12 8 13 7 14 6 15 5 16 4 17 3 18 2 19 1 20
REMARK H PARENT
REMARK Flexibility Score: inf
ROOT
ATOM      1  C   UNL     1      26.853  31.354  36.712  1.00  0.00     0.000 C 
ENDROOT
BRANCH   1   2
ATOM      2  C   UNL     1      28.351  31.469  37.074  1.00  0.00     0.000 C 
BRANCH   2   3
ATOM      3  C   UNL     1      28.951  32.862  36.799  1.00  0.00     0.000 C 
BRANCH   3   4
ATOM      4  C   UNL     1      30.001  32.914  35.672  1.00  0.00     0.000 C 
BRANCH   4   5
ATOM      5  C   UNL     1      30.663  31.563  35.334  1.00  0.00     0.000 C 
BRANCH   5   6
ATOM      6  C   UNL     1      30.176  30.976  33.998  1.00  0.00     0.000 C 
BRANCH   6   7
ATOM      7  C   UNL     1      29.652  29.533  34.132  1.00  0.00     0.006 C 
BRANCH   7   8
ATOM      8  C   UNL     1      30.691  28.536  34.678  1.00  0.00     0.053 C 
BRANCH   8   9
ATOM      9  C   UNL     1      30.196  27.771  35.868  1.00  0.00     0.041 C 
ATOM     10  O   UNL     1      29.938  26.541  35.772  1.00  0.00    -0.550 OA
ATOM     11  O   UNL     1      30.042  28.412  37.092  1.00  0.00    -0.550 OA
ENDBRANCH   8   9
ENDBRANCH   7   8
ENDBRANCH   6   7
ENDBRANCH   5   6
ENDBRANCH   4   5
ENDBRANCH   3   4
ENDBRANCH   2   3
ENDBRANCH   1   2
BRANCH   1  12
ATOM     12  C   UNL     1      26.493  32.152  35.448  1.00  0.00     0.000 C 
BRANCH  12  13
ATOM     13  C   UNL     1      25.373  33.177  35.693  1.00  0.00    -0.000 C 
BRANCH  13  14
ATOM     14  C   UNL     1      25.547  34.451  34.852  1.00  0.00    -0.000 C 
BRANCH  14  15
ATOM     15  C   UNL     1      27.000  34.596  34.372  1.00  0.00    -0.000 C 
BRANCH  15  16
ATOM     16  C   UNL     1      27.100  35.164  32.947  1.00  0.00    -0.000 C 
BRANCH  16  17
ATOM     17  C   UNL     1      28.084  34.384  32.061  1.00  0.00    -0.000 C 
BRANCH  17  18
ATOM     18  C   UNL     1      27.442  34.030  30.711  1.00  0.00    -0.000 C 
BRANCH  18  19
ATOM     19  C   UNL     1      25.939  33.733  30.833  1.00  0.00    -0.003 C 
ATOM     20  C   UNL     1      25.098  34.506  29.815  1.00  0.00     0.004 C 
ENDBRANCH  18  19
ENDBRANCH  17  18
ENDBRANCH  16  17
ENDBRANCH  15  16
ENDBRANCH  14  15
ENDBRANCH  13  14
ENDBRANCH  12  13
ENDBRANCH   1  12
TORSDOF 16
ENDMDL
MODEL 4
REMARK VINA RESULT:    -3.373      2.402      5.927
REMARK INTER + INTRA:          -8.607
REMARK INTER:                  -6.702
REMARK INTRA:                  -1.904
REMARK UNBOUND:                -2.078
REMARK SMILES CCCCCCCCCCCCCCCCCC(=O)[O-]
REMARK SMILES IDX 10 1 11 2 12 3 13 4 14 5 15 6 16 7 17 8 18 9 19 10 20 11
REMARK SMILES IDX 9 12 8 13 7 14 6 15 5 16 4 17 3 18 2 19 1 20
REMARK H PARENT
REMARK Flexibility Score: inf
ROOT
ATOM      1  C   UNL     1      24.934  33.509  36.233  1.00  0.00     0.000 C 
ENDROOT
BRANCH   1   2
ATOM      2  C   UNL     1      25.866  32.660  37.125  1.00  0.00     0.000 C 
BRANCH   2   3
ATOM      3  C   UNL     1      27.343  33.100  37.076  1.00  0.00     0.000 C 
BRANCH   3   4
ATOM      4  C   UNL     1      28.363  31.957  36.911  1.00  0.00     0.000 C 
BRANCH   4   5
ATOM      5  C   UNL     1      28.825  31.698  35.462  1.00  0.00     0.000 C 
BRANCH   5   6
ATOM      6  C   UNL     1      30.353  31.748  35.303  1.00  0.00     0.000 C 
BRANCH   6   7
ATOM      7  C   UNL     1      30.980  30.358  35.080  1.00  0.00     0.006 C 
BRANCH   7   8
ATOM      8  C   UNL     1      30.018  29.329  34.456  1.00  0.00     0.053 C 
BRANCH   8   9
ATOM      9  C   UNL     1      30.318  29.051  33.014  1.00  0.00     0.041 C 
ATOM     10  O   UNL     1      30.362  29.994  32.180  1.00  0.00    -0.550 OA
ATOM     11  O   UNL     1      30.574  27.751  32.595  1.00  0.00    -0.550 OA
ENDBRANCH   8   9
ENDBRANCH   7   8
ENDBRANCH   6   7
ENDBRANCH   5   6
ENDBRANCH   4   5
ENDBRANCH   3   4
ENDBRANCH   2   3
ENDBRANCH   1   2
BRANCH   1  12
ATOM     12  C   UNL     1      24.706  32.874  34.851  1.00  0.00     0.000 C 
BRANCH  12  13
ATOM     13  C   UNL     1      25.694  33.390  33.792  1.00  0.00    -0.000 C 
BRANCH  13  14
ATOM     14  C   UNL     1      26.275  34.767  34.151  1.00  0.00    -0.000 C 
BRANCH  14  15
ATOM     15  C   UNL     1      27.764  34.846  33.776  1.00  0.00    -0.000 C 
BRANCH  15  16
ATOM     16  C   UNL     1      27.984  35.156  32.286  1.00  0.00    -0.000 C 
BRANCH  16  17
ATOM     17  C   UNL     1      28.276  33.898  31.452  1.00  0.00    -0.000 C 
BRANCH  17  18
ATOM     18  C   UNL     1      27.128  33.615  30.471  1.00  0.00    -0.000 C 
BRANCH  18  19
ATOM     19  C   UNL     1      26.087  34.745  30.440  1.00  0.00    -0.003 C 
ATOM     20  C   UNL     1      24.843  34.381  29.628  1.00  0.00     0.004 C 
ENDBRANCH  18  19
ENDBRANCH  17  18
ENDBRANCH  16  17
ENDBRANCH  15  16
ENDBRANCH  14  15
ENDBRANCH  13  14
ENDBRANCH  12  13
ENDBRANCH   1  12
TORSDOF 16
ENDMDL
MODEL 5
REMARK VINA RESULT:    -3.256      2.551      6.236
REMARK INTER + INTRA:          -8.380
REMARK INTER:                  -7.046
REMARK INTRA:                  -1.334
REMARK UNBOUND:                -2.078
REMARK SMILES CCCCCCCCCCCCCCCCCC(=O)[O-]
REMARK SMILES IDX 10 1 11 2 12 3 13 4 14 5 15 6 16 7 17 8 18 9 19 10 20 11
REMARK SMILES IDX 9 12 8 13 7 14 6 15 5 16 4 17 3 18 2 19 1 20
REMARK H PARENT
REMARK Flexibility Score: inf
ROOT
ATOM      1  C   UNL     1      26.330  31.862  36.190  1.00  0.00     0.000 C 
ENDROOT
BRANCH   1   2
ATOM      2  C   UNL     1      27.683  31.756  36.927  1.00  0.00     0.000 C 
BRANCH   2   3
ATOM      3  C   UNL     1      28.801  32.610  36.299  1.00  0.00     0.000 C 
BRANCH   3   4
ATOM      4  C   UNL     1      30.160  32.549  37.025  1.00  0.00     0.000 C 
BRANCH   4   5
ATOM      5  C   UNL     1      31.125  31.461  36.514  1.00  0.00     0.000 C 
BRANCH   5   6
ATOM      6  C   UNL     1      30.646  30.036  36.839  1.00  0.00     0.000 C 
BRANCH   6   7
ATOM      7  C   UNL     1      30.813  29.062  35.657  1.00  0.00     0.006 C 
BRANCH   7   8
ATOM      8  C   UNL     1      29.933  29.398  34.438  1.00  0.00     0.053 C 
BRANCH   8   9
ATOM      9  C   UNL     1      30.307  28.614  33.216  1.00  0.00     0.041 C 
ATOM     10  O   UNL     1      30.583  27.387  33.307  1.00  0.00    -0.550 OA
ATOM     11  O   UNL     1      30.325  29.231  31.972  1.00  0.00    -0.550 OA
ENDBRANCH   8   9
ENDBRANCH   7   8
ENDBRANCH   6   7
ENDBRANCH   5   6
ENDBRANCH   4   5
ENDBRANCH   3   4
ENDBRANCH   2   3
ENDBRANCH   1   2
BRANCH   1  12
ATOM     12  C   UNL     1      25.406  32.923  36.810  1.00  0.00     0.000 C 
BRANCH  12  13
ATOM     13  C   UNL     1      25.366  34.225  35.994  1.00  0.00    -0.000 C 
BRANCH  13  14
ATOM     14  C   UNL     1      25.836  34.026  34.545  1.00  0.00    -0.000 C 
BRANCH  14  15
ATOM     15  C   UNL     1      26.823  35.129  34.133  1.00  0.00    -0.000 C 
BRANCH  15  16
ATOM     16  C   UNL     1      26.649  35.564  32.668  1.00  0.00    -0.000 C 
BRANCH  16  17
ATOM     17  C   UNL     1      27.811  35.112  31.770  1.00  0.00    -0.000 C 
BRANCH  17  18
ATOM     18  C   UNL     1      27.409  33.889  30.931  1.00  0.00    -0.000 C 
BRANCH  18  19
ATOM     19  C   UNL     1      25.888  33.672  30.897  1.00  0.00    -0.003 C 
ATOM     20  C   UNL     1      25.207  34.430  29.757  1.00  0.00     0.004 C 
ENDBRANCH  18  19
ENDBRANCH  17  18
ENDBRANCH  16  17
ENDBRANCH  15  16
ENDBRANCH  14  15
ENDBRANCH  13  14
ENDBRANCH  12  13
ENDBRANCH   1  12
TORSDOF 16
ENDMDL
MODEL 6
REMARK VINA RESULT:    -2.982      1.315      2.688
REMARK INTER + INTRA:          -7.850
REMARK INTER:                  -6.514
REMARK INTRA:                  -1.336
REMARK UNBOUND:                -2.078
REMARK SMILES CCCCCCCCCCCCCCCCCC(=O)[O-]
REMARK SMILES IDX 10 1 11 2 12 3 13 4 14 5 15 6 16 7 17 8 18 9 19 10 20 11
REMARK SMILES IDX 9 12 8 13 7 14 6 15 5 16 4 17 3 18 2 19 1 20
REMARK H PARENT
REMARK Flexibility Score: inf
ROOT
ATOM      1  C   UNL     1      28.944  31.109  35.170  1.00  0.00     0.000 C 
ENDROOT
BRANCH   1   2
ATOM      2  C   UNL     1      28.939  32.073  36.377  1.00  0.00     0.000 C 
BRANCH   2   3
ATOM      3  C   UNL     1      27.673  32.947  36.470  1.00  0.00     0.000 C 
BRANCH   3   4
ATOM      4  C   UNL     1      26.451  32.417  35.694  1.00  0.00     0.000 C 
BRANCH   4   5
ATOM      5  C   UNL     1      26.198  33.094  34.332  1.00  0.00     0.000 C 
BRANCH   5   6
ATOM      6  C   UNL     1      26.274  34.628  34.403  1.00  0.00     0.000 C 
BRANCH   6   7
ATOM      7  C   UNL     1      27.180  35.235  33.316  1.00  0.00     0.006 C 
BRANCH   7   8
ATOM      8  C   UNL     1      26.439  35.613  32.019  1.00  0.00     0.053 C 
BRANCH   8   9
ATOM      9  C   UNL     1      26.605  34.593  30.934  1.00  0.00     0.041 C 
ATOM     10  O   UNL     1      27.635  33.868  30.895  1.00  0.00    -0.550 OA
ATOM     11  O   UNL     1      25.610  34.425  29.979  1.00  0.00    -0.550 OA
ENDBRANCH   8   9
ENDBRANCH   7   8
ENDBRANCH   6   7
ENDBRANCH   5   6
ENDBRANCH   4   5
ENDBRANCH   3   4
ENDBRANCH   2   3
ENDBRANCH   1   2
BRANCH   1  12
ATOM     12  C   UNL     1      30.365  30.813  34.662  1.00  0.00     0.000 C 
BRANCH  12  13
ATOM     13  C   UNL     1      30.480  30.910  33.132  1.00  0.00    -0.000 C 
BRANCH  13  14
ATOM     14  C   UNL     1      30.806  29.558  32.479  1.00  0.00    -0.000 C 
BRANCH  14  15
ATOM     15  C   UNL     1      30.025  28.421  33.156  1.00  0.00    -0.000 C 
BRANCH  15  16
ATOM     16  C   UNL     1      30.942  27.311  33.695  1.00  0.00    -0.000 C 
BRANCH  16  17
ATOM     17  C   UNL     1      30.170  26.209  34.439  1.00  0.00    -0.000 C 
BRANCH  17  18
ATOM     18  C   UNL     1      30.862  25.857  35.765  1.00  0.00    -0.000 C 
BRANCH  18  19
ATOM     19  C   UNL     1      31.125  27.093  36.639  1.00  0.00    -0.003 C 
ATOM     20  C   UNL     1      29.837  27.762  37.121  1.00  0.00     0.004 C 
ENDBRANCH  18  19
ENDBRANCH  17  18
ENDBRANCH  16  17
ENDBRANCH  15  16
ENDBRANCH  14  15
ENDBRANCH  13  14
ENDBRANCH  12  13
ENDBRANCH   1  12
TORSDOF 16
ENDMDL
MODEL 7
REMARK VINA RESULT:    -2.947      1.342      2.275
REMARK INTER + INTRA:          -7.782
REMARK INTER:                  -6.127
REMARK INTRA:                  -1.655
REMARK UNBOUND:                -2.078
REMARK SMILES CCCCCCCCCCCCCCCCCC(=O)[O-]
REMARK SMILES IDX 10 1 11 2 12 3 13 4 14 5 15 6 16 7 17 8 18 9 19 10 20 11
REMARK SMILES IDX 9 12 8 13 7 14 6 15 5 16 4 17 3 18 2 19 1 20
REMARK H PARENT
REMARK Flexibility Score: inf
ROOT
ATOM      1  C   UNL     1      24.965  32.726  36.104  1.00  0.00     0.000 C 
ENDROOT
BRANCH   1   2
ATOM      2  C   UNL     1      25.018  33.464  34.748  1.00  0.00     0.000 C 
BRANCH   2   3
ATOM      3  C   UNL     1      25.662  34.862  34.826  1.00  0.00     0.000 C 
BRANCH   3   4
ATOM      4  C   UNL     1      26.929  35.049  33.968  1.00  0.00     0.000 C 
BRANCH   4   5
ATOM      5  C   UNL     1      27.835  33.806  33.860  1.00  0.00     0.000 C 
BRANCH   5   6
ATOM      6  C   UNL     1      28.651  33.771  32.557  1.00  0.00     0.000 C 
BRANCH   6   7
ATOM      7  C   UNL     1      28.036  34.634  31.440  1.00  0.00     0.006 C 
BRANCH   7   8
ATOM      8  C   UNL     1      27.333  33.824  30.335  1.00  0.00     0.053 C 
BRANCH   8   9
ATOM      9  C   UNL     1      25.838  33.865  30.443  1.00  0.00     0.041 C 
ATOM     10  O   UNL     1      25.156  34.501  29.595  1.00  0.00    -0.550 OA
ATOM     11  O   UNL     1      25.196  33.179  31.467  1.00  0.00    -0.550 OA
ENDBRANCH   8   9
ENDBRANCH   7   8
ENDBRANCH   6   7
ENDBRANCH   5   6
ENDBRANCH   4   5
ENDBRANCH   3   4
ENDBRANCH   2   3
ENDBRANCH   1   2
BRANCH   1  12
ATOM     12  C   UNL     1      25.959  33.304  37.125  1.00  0.00     0.000 C 
BRANCH  12  13
ATOM     13  C   UNL     1      27.314  32.577  37.110  1.00  0.00    -0.000 C 
BRANCH  13  14
ATOM     14  C   UNL     1      27.176  31.082  36.778  1.00  0.00    -0.000 C 
BRANCH  14  15
ATOM     15  C   UNL     1      28.526  30.364  36.920  1.00  0.00    -0.000 C 
BRANCH  15  16
ATOM     16  C   UNL     1      29.403  30.493  35.663  1.00  0.00    -0.000 C 
BRANCH  16  17
ATOM     17  C   UNL     1      30.353  29.300  35.473  1.00  0.00    -0.000 C 
BRANCH  17  18
ATOM     18  C   UNL     1      30.665  28.630  36.820  1.00  0.00    -0.000 C 
BRANCH  18  19
ATOM     19  C   UNL     1      30.237  27.155  36.859  1.00  0.00    -0.003 C 
ATOM     20  C   UNL     1      30.113  26.537  35.465  1.00  0.00     0.004 C 
ENDBRANCH  18  19
ENDBRANCH  17  18
ENDBRANCH  16  17
ENDBRANCH  15  16
ENDBRANCH  14  15
ENDBRANCH  13  14
ENDBRANCH  12  13
ENDBRANCH   1  12
TORSDOF 16
ENDMDL
MODEL 8
REMARK VINA RESULT:    -2.938      1.286      2.648
REMARK INTER + INTRA:          -7.764
REMARK INTER:                  -5.862
REMARK INTRA:                  -1.902
REMARK UNBOUND:                -2.078
REMARK SMILES CCCCCCCCCCCCCCCCCC(=O)[O-]
REMARK SMILES IDX 10 1 11 2 12 3 13 4 14 5 15 6 16 7 17 8 18 9 19 10 20 11
REMARK SMILES IDX 9 12 8 13 7 14 6 15 5 16 4 17 3 18 2 19 1 20
REMARK H PARENT
REMARK Flexibility Score: inf
ROOT
ATOM      1  C   UNL     1      25.133  33.984  35.985  1.00  0.00     0.000 C 
ENDROOT
BRANCH   1   2
ATOM      2  C   UNL     1      25.316  33.347  34.590  1.00  0.00     0.000 C 
BRANCH   2   3
ATOM      3  C   UNL     1      25.920  34.304  33.544  1.00  0.00     0.000 C 
BRANCH   3   4
ATOM      4  C   UNL     1      27.244  34.976  33.957  1.00  0.00     0.000 C 
BRANCH   4   5
ATOM      5  C   UNL     1      28.400  34.814  32.949  1.00  0.00     0.000 C 
BRANCH   5   6
ATOM      6  C   UNL     1      28.306  33.514  32.134  1.00  0.00     0.000 C 
BRANCH   6   7
ATOM      7  C   UNL     1      27.920  33.754  30.663  1.00  0.00     0.006 C 
BRANCH   7   8
ATOM      8  C   UNL     1      26.763  34.752  30.472  1.00  0.00     0.053 C 
BRANCH   8   9
ATOM      9  C   UNL     1      25.563  34.135  29.820  1.00  0.00     0.041 C 
ATOM     10  O   UNL     1      24.710  34.860  29.241  1.00  0.00    -0.550 OA
ATOM     11  O   UNL     1      25.398  32.755  29.829  1.00  0.00    -0.550 OA
ENDBRANCH   8   9
ENDBRANCH   7   8
ENDBRANCH   6   7
ENDBRANCH   5   6
ENDBRANCH   4   5
ENDBRANCH   3   4
ENDBRANCH   2   3
ENDBRANCH   1   2
BRANCH   1  12
ATOM     12  C   UNL     1      25.437  32.997  37.125  1.00  0.00     0.000 C 
BRANCH  12  13
ATOM     13  C   UNL     1      26.740  32.214  36.898  1.00  0.00    -0.000 C 
BRANCH  13  14
ATOM     14  C   UNL     1      27.991  33.093  37.055  1.00  0.00    -0.000 C 
BRANCH  14  15
ATOM     15  C   UNL     1      29.216  32.420  36.417  1.00  0.00    -0.000 C 
BRANCH  15  16
ATOM     16  C   UNL     1      28.854  31.570  35.188  1.00  0.00    -0.000 C 
BRANCH  16  17
ATOM     17  C   UNL     1      29.253  30.094  35.344  1.00  0.00    -0.000 C 
BRANCH  17  18
ATOM     18  C   UNL     1      29.942  29.578  34.071  1.00  0.00    -0.000 C 
BRANCH  18  19
ATOM     19  C   UNL     1      30.967  30.575  33.509  1.00  0.00    -0.003 C 
ATOM     20  C   UNL     1      30.760  30.863  32.022  1.00  0.00     0.004 C 
ENDBRANCH  18  19
ENDBRANCH  17  18
ENDBRANCH  16  17
ENDBRANCH  15  16
ENDBRANCH  14  15
ENDBRANCH  13  14
ENDBRANCH  12  13
ENDBRANCH   1  12
TORSDOF 16
ENDMDL
MODEL 9
REMARK VINA RESULT:    -2.930      2.861      6.603
REMARK INTER + INTRA:          -7.749
REMARK INTER:                  -5.913
REMARK INTRA:                  -1.836
REMARK UNBOUND:                -2.078
REMARK SMILES CCCCCCCCCCCCCCCCCC(=O)[O-]
REMARK SMILES IDX 10 1 11 2 12 3 13 4 14 5 15 6 16 7 17 8 18 9 19 10 20 11
REMARK SMILES IDX 9 12 8 13 7 14 6 15 5 16 4 17 3 18 2 19 1 20
REMARK H PARENT
REMARK Flexibility Score: inf
ROOT
ATOM      1  C   UNL     1      24.487  32.522  33.960  1.00  0.00     0.000 C 
ENDROOT
BRANCH   1   2
ATOM      2  C   UNL     1      24.401  33.142  35.372  1.00  0.00     0.000 C 
BRANCH   2   3
ATOM      3  C   UNL     1      25.653  33.946  35.775  1.00  0.00     0.000 C 
BRANCH   3   4
ATOM      4  C   UNL     1      26.339  33.485  37.076  1.00  0.00     0.000 C 
BRANCH   4   5
ATOM      5  C   UNL     1      27.765  32.926  36.900  1.00  0.00     0.000 C 
BRANCH   5   6
ATOM      6  C   UNL     1      28.384  33.283  35.538  1.00  0.00     0.000 C 
BRANCH   6   7
ATOM      7  C   UNL     1      29.711  32.550  35.270  1.00  0.00     0.006 C 
BRANCH   7   8
ATOM      8  C   UNL     1      29.620  31.465  34.180  1.00  0.00     0.053 C 
BRANCH   8   9
ATOM      9  C   UNL     1      29.573  30.076  34.742  1.00  0.00     0.041 C 
ATOM     10  O   UNL     1      29.323  29.892  35.964  1.00  0.00    -0.550 OA
ATOM     11  O   UNL     1      29.780  28.982  33.911  1.00  0.00    -0.550 OA
ENDBRANCH   8   9
ENDBRANCH   7   8
ENDBRANCH   6   7
ENDBRANCH   5   6
ENDBRANCH   4   5
ENDBRANCH   3   4
ENDBRANCH   2   3
ENDBRANCH   1   2
BRANCH   1  12
ATOM     12  C   UNL     1      25.732  32.993  33.189  1.00  0.00     0.000 C 
BRANCH  12  13
ATOM     13  C   UNL     1      25.424  33.348  31.725  1.00  0.00    -0.000 C 
BRANCH  13  14
ATOM     14  C   UNL     1      26.624  33.985  31.009  1.00  0.00    -0.000 C 
BRANCH  14  15
ATOM     15  C   UNL     1      27.841  34.065  31.945  1.00  0.00    -0.000 C 
BRANCH  15  16
ATOM     16  C   UNL     1      28.139  35.501  32.408  1.00  0.00    -0.000 C 
BRANCH  16  17
ATOM     17  C   UNL     1      27.032  36.081  33.302  1.00  0.00    -0.000 C 
BRANCH  17  18
ATOM     18  C   UNL     1      26.670  37.509  32.865  1.00  0.00    -0.000 C 
BRANCH  18  19
ATOM     19  C   UNL     1      27.089  38.566  33.899  1.00  0.00    -0.003 C 
ATOM     20  C   UNL     1      26.864  39.997  33.409  1.00  0.00     0.004 C 
ENDBRANCH  18  19
ENDBRANCH  17  18
ENDBRANCH  16  17
ENDBRANCH  15  16
ENDBRANCH  14  15
ENDBRANCH  13  14
ENDBRANCH  12  13
ENDBRANCH   1  12
TORSDOF 16
ENDMDL
