MODEL 1
REMARK VINA RESULT:    -2.988      0.000      0.000
REMARK INTER + INTRA:          -4.956
REMARK INTER:                  -4.559
REMARK INTRA:                  -0.397
REMARK UNBOUND:                -0.397
REMARK SMILES CC1=CCC[C@@H](C)C(=O)C[C@@H](C(C)C)C(=O)C1
REMARK SMILES IDX 8 1 9 2 6 3 7 4 5 5 4 6 3 7 2 8 1 9 10 11 11 12 15 13 16 14
REMARK SMILES IDX 17 15 12 17 13 18 14 19
REMARK H PARENT
REMARK Flexibility Score: 70.00
ROOT
ATOM      1  C   UNL     1     160.027 163.171 196.455  1.00  0.00     0.136 C 
ATOM      2  O   UNL     1     159.858 162.419 195.506  1.00  0.00    -0.299 OA
ENDROOT
BRANCH   1   3
ATOM      3  C   UNL     1     161.225 162.948 197.359  1.00  0.00     0.053 C 
ATOM      4  C   UNL     1     162.524 163.343 196.648  1.00  0.00     0.016 C 
BRANCH   3   5
ATOM      5  C   UNL     1     161.290 161.495 197.867  1.00  0.00     0.015 C 
BRANCH   5   6
ATOM      6  C   UNL     1     160.462 161.293 199.148  1.00  0.00     0.028 C 
BRANCH   6   7
ATOM      7  C   UNL     1     159.193 160.540 198.847  1.00  0.00    -0.028 C 
ATOM      8  C   UNL     1     157.946 161.042 199.010  1.00  0.00    -0.070 CG0
ATOM      9  C   UNL     1     156.778 160.182 198.597  1.00  0.00     0.039 C 
ATOM     10  G   UNL     1     157.679 162.417 199.603  1.00  0.00     0.000 G0
ENDBRANCH   6   7
ENDBRANCH   5   6
ENDBRANCH   3   5
ENDBRANCH   1   3
BRANCH   1  11
ATOM     11  C   UNL     1     159.017 164.271 196.697  1.00  0.00     0.087 C 
BRANCH  11  12
ATOM     12  C   UNL     1     158.641 164.404 198.199  1.00  0.00     0.066 C 
BRANCH  12  13
ATOM     13  C   UNL     1     157.484 163.485 198.567  1.00  0.00     0.140 C 
ATOM     14  O   UNL     1     156.388 163.649 198.051  1.00  0.00    -0.299 OA
BRANCH  13  15
ATOM     15  C   UNL     1     157.648 162.409 199.613  1.00  0.00     0.106 CG0
ATOM     16  G   UNL     1     157.954 161.051 198.998  1.00  0.00     0.000 G0
ENDBRANCH  13  15
ENDBRANCH  12  13
BRANCH  12  17
ATOM     17  C   UNL     1     158.369 165.887 198.599  1.00  0.00    -0.006 C 
ATOM     18  C   UNL     1     158.893 166.268 199.995  1.00  0.00     0.008 C 
ATOM     19  C   UNL     1     158.914 166.864 197.546  1.00  0.00     0.008 C 
ENDBRANCH  12  17
ENDBRANCH  11  12
ENDBRANCH   1  11
TORSDOF 1
ENDMDL
MODEL 2
REMARK VINA RESULT:    -2.909      6.148      9.324
REMARK INTER + INTRA:          -4.836
REMARK INTER:                  -4.514
REMARK INTRA:                  -0.323
REMARK UNBOUND:                -0.397
REMARK SMILES CC1=CCC[C@@H](C)C(=O)C[C@@H](C(C)C)C(=O)C1
REMARK SMILES IDX 8 1 9 2 6 3 7 4 5 5 4 6 3 7 2 8 1 9 10 11 11 12 15 13 16 14
REMARK SMILES IDX 17 15 12 17 13 18 14 19
REMARK H PARENT
REMARK Flexibility Score: 70.00
ROOT
ATOM      1  C   UNL     1     150.003 160.427 198.387  1.00  0.00     0.136 C 
ATOM      2  O   UNL     1     149.181 161.138 197.827  1.00  0.00    -0.299 OA
ENDROOT
BRANCH   1   3
ATOM      3  C   UNL     1     149.701 159.923 199.786  1.00  0.00     0.053 C 
ATOM      4  C   UNL     1     148.224 160.141 200.135  1.00  0.00     0.016 C 
BRANCH   3   5
ATOM      5  C   UNL     1     150.622 160.575 200.836  1.00  0.00     0.015 C 
BRANCH   5   6
ATOM      6  C   UNL     1     151.572 159.554 201.485  1.00  0.00     0.028 C 
BRANCH   6   7
ATOM      7  C   UNL     1     153.008 159.923 201.222  1.00  0.00    -0.028 C 
ATOM      8  C   UNL     1     153.819 159.278 200.351  1.00  0.00    -0.070 CG0
ATOM      9  C   UNL     1     155.214 159.816 200.153  1.00  0.00     0.039 C 
ATOM     10  G   UNL     1     153.390 158.036 199.585  1.00  0.00     0.000 G0
ENDBRANCH   6   7
ENDBRANCH   5   6
ENDBRANCH   3   5
ENDBRANCH   1   3
BRANCH   1  11
ATOM     11  C   UNL     1     151.296 160.108 197.668  1.00  0.00     0.087 C 
BRANCH  11  12
ATOM     12  C   UNL     1     151.617 158.589 197.681  1.00  0.00     0.066 C 
BRANCH  12  13
ATOM     13  C   UNL     1     153.050 158.327 198.127  1.00  0.00     0.140 C 
ATOM     14  O   UNL     1     153.951 158.303 197.301  1.00  0.00    -0.299 OA
BRANCH  13  15
ATOM     15  C   UNL     1     153.373 158.030 199.572  1.00  0.00     0.106 CG0
ATOM     16  G   UNL     1     153.813 159.272 200.330  1.00  0.00     0.000 G0
ENDBRANCH  13  15
ENDBRANCH  12  13
BRANCH  12  17
ATOM     17  C   UNL     1     151.291 157.915 196.312  1.00  0.00    -0.006 C 
ATOM     18  C   UNL     1     149.969 157.127 196.299  1.00  0.00     0.008 C 
ATOM     19  C   UNL     1     151.310 158.935 195.164  1.00  0.00     0.008 C 
ENDBRANCH  12  17
ENDBRANCH  11  12
ENDBRANCH   1  11
TORSDOF 1
ENDMDL
MODEL 3
REMARK VINA RESULT:    -2.875      2.575      4.493
REMARK INTER + INTRA:          -4.785
REMARK INTER:                  -4.350
REMARK INTRA:                  -0.435
REMARK UNBOUND:                -0.397
REMARK SMILES CC1=CCC[C@@H](C)C(=O)C[C@@H](C(C)C)C(=O)C1
REMARK SMILES IDX 8 1 9 2 6 3 7 4 5 5 4 6 3 7 2 8 1 9 10 11 11 12 15 13 16 14
REMARK SMILES IDX 17 15 12 17 13 18 14 19
REMARK H PARENT
REMARK Flexibility Score: 70.00
ROOT
ATOM      1  C   UNL     1     157.170 161.795 198.076  1.00  0.00     0.136 C 
ATOM      2  O   UNL     1     156.877 160.842 198.784  1.00  0.00    -0.299 OA
ENDROOT
BRANCH   1   3
ATOM      3  C   UNL     1     158.602 162.298 198.084  1.00  0.00     0.053 C 
ATOM      4  C   UNL     1     159.547 161.255 197.477  1.00  0.00     0.016 C 
BRANCH   3   5
ATOM      5  C   UNL     1     159.055 162.700 199.500  1.00  0.00     0.015 C 
BRANCH   5   6
ATOM      6  C   UNL     1     158.382 164.000 199.976  1.00  0.00     0.028 C 
BRANCH   6   7
ATOM      7  C   UNL     1     158.788 165.157 199.102  1.00  0.00    -0.028 C 
ATOM      8  C   UNL     1     157.952 165.816 198.265  1.00  0.00    -0.070 CG0
ATOM      9  C   UNL     1     158.498 167.000 197.507  1.00  0.00     0.039 C 
ATOM     10  G   UNL     1     156.504 165.404 198.048  1.00  0.00     0.000 G0
ENDBRANCH   6   7
ENDBRANCH   5   6
ENDBRANCH   3   5
ENDBRANCH   1   3
BRANCH   1  11
ATOM     11  C   UNL     1     156.083 162.445 197.248  1.00  0.00     0.087 C 
BRANCH  11  12
ATOM     12  C   UNL     1     156.651 163.481 196.240  1.00  0.00     0.066 C 
BRANCH  12  13
ATOM     13  C   UNL     1     156.256 164.902 196.619  1.00  0.00     0.140 C 
ATOM     14  O   UNL     1     155.790 165.652 195.774  1.00  0.00    -0.299 OA
BRANCH  13  15
ATOM     15  C   UNL     1     156.491 165.428 198.015  1.00  0.00     0.106 CG0
ATOM     16  G   UNL     1     157.944 165.816 198.246  1.00  0.00     0.000 G0
ENDBRANCH  13  15
ENDBRANCH  12  13
BRANCH  12  17
ATOM     17  C   UNL     1     156.263 163.132 194.769  1.00  0.00    -0.006 C 
ATOM     18  C   UNL     1     157.467 162.920 193.835  1.00  0.00     0.008 C 
ATOM     19  C   UNL     1     155.326 161.916 194.708  1.00  0.00     0.008 C 
ENDBRANCH  12  17
ENDBRANCH  11  12
ENDBRANCH   1  11
TORSDOF 1
ENDMDL
MODEL 4
REMARK VINA RESULT:    -2.870      8.040      9.357
REMARK INTER + INTRA:          -4.777
REMARK INTER:                  -4.331
REMARK INTRA:                  -0.446
REMARK UNBOUND:                -0.397
REMARK SMILES CC1=CCC[C@@H](C)C(=O)C[C@@H](C(C)C)C(=O)C1
REMARK SMILES IDX 8 1 9 2 6 3 7 4 5 5 4 6 3 7 2 8 1 9 10 11 11 12 15 13 16 14
REMARK SMILES IDX 17 15 12 17 13 18 14 19
REMARK H PARENT
REMARK Flexibility Score: 70.00
ROOT
ATOM      1  C   UNL     1     153.269 158.789 200.891  1.00  0.00     0.136 C 
ATOM      2  O   UNL     1     154.485 158.900 200.957  1.00  0.00    -0.299 OA
ENDROOT
BRANCH   1   3
ATOM      3  C   UNL     1     152.625 157.505 201.380  1.00  0.00     0.053 C 
ATOM      4  C   UNL     1     153.002 157.229 202.840  1.00  0.00     0.016 C 
BRANCH   3   5
ATOM      5  C   UNL     1     152.987 156.309 200.478  1.00  0.00     0.015 C 
BRANCH   5   6
ATOM      6  C   UNL     1     151.856 155.964 199.493  1.00  0.00     0.028 C 
BRANCH   6   7
ATOM      7  C   UNL     1     152.231 156.368 198.092  1.00  0.00    -0.028 C 
ATOM      8  C   UNL     1     151.600 157.328 197.376  1.00  0.00    -0.070 CG0
ATOM      9  C   UNL     1     152.141 157.662 196.009  1.00  0.00     0.039 C 
ATOM     10  G   UNL     1     150.369 158.065 197.883  1.00  0.00     0.000 G0
ENDBRANCH   6   7
ENDBRANCH   5   6
ENDBRANCH   3   5
ENDBRANCH   1   3
BRANCH   1  11
ATOM     11  C   UNL     1     152.468 159.927 200.297  1.00  0.00     0.087 C 
BRANCH  11  12
ATOM     12  C   UNL     1     150.999 159.520 199.999  1.00  0.00     0.066 C 
BRANCH  12  13
ATOM     13  C   UNL     1     150.744 159.413 198.501  1.00  0.00     0.140 C 
ATOM     14  O   UNL     1     150.786 160.414 197.802  1.00  0.00    -0.299 OA
BRANCH  13  15
ATOM     15  C   UNL     1     150.373 158.093 197.868  1.00  0.00     0.106 CG0
ATOM     16  G   UNL     1     151.590 157.338 197.357  1.00  0.00     0.000 G0
ENDBRANCH  13  15
ENDBRANCH  12  13
BRANCH  12  17
ATOM     17  C   UNL     1     149.980 160.467 200.706  1.00  0.00    -0.006 C 
ATOM     18  C   UNL     1     148.507 160.142 200.406  1.00  0.00     0.008 C 
ATOM     19  C   UNL     1     150.213 160.512 202.224  1.00  0.00     0.008 C 
ENDBRANCH  12  17
ENDBRANCH  11  12
ENDBRANCH   1  11
TORSDOF 1
ENDMDL
MODEL 5
REMARK VINA RESULT:    -2.821      6.299      9.297
REMARK INTER + INTRA:          -4.702
REMARK INTER:                  -4.518
REMARK INTRA:                  -0.184
REMARK UNBOUND:                -0.397
REMARK SMILES CC1=CCC[C@@H](C)C(=O)C[C@@H](C(C)C)C(=O)C1
REMARK SMILES IDX 8 1 9 2 6 3 7 4 5 5 4 6 3 7 2 8 1 9 10 11 11 12 15 13 16 14
REMARK SMILES IDX 17 15 12 17 13 18 14 19
REMARK H PARENT
REMARK Flexibility Score: 70.00
ROOT
ATOM      1  C   UNL     1     151.824 158.840 201.699  1.00  0.00     0.136 C 
ATOM      2  O   UNL     1     151.459 158.433 202.792  1.00  0.00    -0.299 OA
ENDROOT
BRANCH   1   3
ATOM      3  C   UNL     1     151.329 160.192 201.220  1.00  0.00     0.053 C 
ATOM      4  C   UNL     1     151.224 161.178 202.390  1.00  0.00     0.016 C 
BRANCH   3   5
ATOM      5  C   UNL     1     149.987 160.074 200.472  1.00  0.00     0.015 C 
BRANCH   5   6
ATOM      6  C   UNL     1     150.095 160.548 199.012  1.00  0.00     0.028 C 
BRANCH   6   7
ATOM      7  C   UNL     1     149.640 159.468 198.068  1.00  0.00    -0.028 C 
ATOM      8  C   UNL     1     150.469 158.710 197.313  1.00  0.00    -0.070 CG0
ATOM      9  C   UNL     1     149.858 157.621 196.467  1.00  0.00     0.039 C 
ATOM     10  G   UNL     1     151.975 158.921 197.270  1.00  0.00     0.000 G0
ENDBRANCH   6   7
ENDBRANCH   5   6
ENDBRANCH   3   5
ENDBRANCH   1   3
BRANCH   1  11
ATOM     11  C   UNL     1     152.729 157.961 200.863  1.00  0.00     0.087 C 
BRANCH  11  12
ATOM     12  C   UNL     1     153.238 158.686 199.587  1.00  0.00     0.066 C 
BRANCH  12  13
ATOM     13  C   UNL     1     152.665 158.057 198.323  1.00  0.00     0.140 C 
ATOM     14  O   UNL     1     152.810 156.861 198.118  1.00  0.00    -0.299 OA
BRANCH  13  15
ATOM     15  C   UNL     1     151.972 158.901 197.280  1.00  0.00     0.106 CG0
ATOM     16  G   UNL     1     150.461 158.735 197.317  1.00  0.00     0.000 G0
ENDBRANCH  13  15
ENDBRANCH  12  13
BRANCH  12  17
ATOM     17  C   UNL     1     154.795 158.771 199.551  1.00  0.00    -0.006 C 
ATOM     18  C   UNL     1     155.346 159.772 198.521  1.00  0.00     0.008 C 
ATOM     19  C   UNL     1     155.375 159.072 200.942  1.00  0.00     0.008 C 
ENDBRANCH  12  17
ENDBRANCH  11  12
ENDBRANCH   1  11
TORSDOF 1
ENDMDL
MODEL 6
REMARK VINA RESULT:    -2.814      2.160      4.075
REMARK INTER + INTRA:          -4.691
REMARK INTER:                  -4.542
REMARK INTRA:                  -0.150
REMARK UNBOUND:                -0.397
REMARK SMILES CC1=CCC[C@@H](C)C(=O)C[C@@H](C(C)C)C(=O)C1
REMARK SMILES IDX 8 1 9 2 6 3 7 4 5 5 4 6 3 7 2 8 1 9 10 11 11 12 15 13 16 14
REMARK SMILES IDX 17 15 12 17 13 18 14 19
REMARK H PARENT
REMARK Flexibility Score: 70.00
ROOT
ATOM      1  C   UNL     1     156.735 165.052 198.148  1.00  0.00     0.136 C 
ATOM      2  O   UNL     1     155.557 165.372 198.205  1.00  0.00    -0.299 OA
ENDROOT
BRANCH   1   3
ATOM      3  C   UNL     1     157.487 164.799 199.442  1.00  0.00     0.053 C 
ATOM      4  C   UNL     1     158.797 165.594 199.474  1.00  0.00     0.016 C 
BRANCH   3   5
ATOM      5  C   UNL     1     157.744 163.296 199.666  1.00  0.00     0.015 C 
BRANCH   5   6
ATOM      6  C   UNL     1     159.238 162.989 199.869  1.00  0.00     0.028 C 
BRANCH   6   7
ATOM      7  C   UNL     1     159.647 161.782 199.067  1.00  0.00    -0.028 C 
ATOM      8  C   UNL     1     159.998 161.813 197.760  1.00  0.00    -0.070 CG0
ATOM      9  C   UNL     1     160.448 160.525 197.118  1.00  0.00     0.039 C 
ATOM     10  G   UNL     1     159.942 163.079 196.918  1.00  0.00     0.000 G0
ENDBRANCH   6   7
ENDBRANCH   5   6
ENDBRANCH   3   5
ENDBRANCH   1   3
BRANCH   1  11
ATOM     11  C   UNL     1     157.395 164.951 196.790  1.00  0.00     0.087 C 
BRANCH  11  12
ATOM     12  C   UNL     1     157.436 163.491 196.263  1.00  0.00     0.066 C 
BRANCH  12  13
ATOM     13  C   UNL     1     158.852 163.075 195.885  1.00  0.00     0.140 C 
ATOM     14  O   UNL     1     159.088 162.671 194.756  1.00  0.00    -0.299 OA
BRANCH  13  15
ATOM     15  C   UNL     1     159.965 163.091 196.905  1.00  0.00     0.106 CG0
ATOM     16  G   UNL     1     160.006 161.815 197.732  1.00  0.00     0.000 G0
ENDBRANCH  13  15
ENDBRANCH  12  13
BRANCH  12  17
ATOM     17  C   UNL     1     156.423 163.266 195.098  1.00  0.00    -0.006 C 
ATOM     18  C   UNL     1     155.420 162.126 195.347  1.00  0.00     0.008 C 
ATOM     19  C   UNL     1     155.673 164.561 194.745  1.00  0.00     0.008 C 
ENDBRANCH  12  17
ENDBRANCH  11  12
ENDBRANCH   1  11
TORSDOF 1
ENDMDL
MODEL 7
REMARK VINA RESULT:    -2.767      6.918      8.586
REMARK INTER + INTRA:          -4.620
REMARK INTER:                  -4.259
REMARK INTRA:                  -0.361
REMARK UNBOUND:                -0.397
REMARK SMILES CC1=CCC[C@@H](C)C(=O)C[C@@H](C(C)C)C(=O)C1
REMARK SMILES IDX 8 1 9 2 6 3 7 4 5 5 4 6 3 7 2 8 1 9 10 11 11 12 15 13 16 14
REMARK SMILES IDX 17 15 12 17 13 18 14 19
REMARK H PARENT
REMARK Flexibility Score: 70.00
ROOT
ATOM      1  C   UNL     1     150.820 158.406 198.329  1.00  0.00     0.136 C 
ATOM      2  O   UNL     1     150.333 157.575 197.575  1.00  0.00    -0.299 OA
ENDROOT
BRANCH   1   3
ATOM      3  C   UNL     1     151.413 159.671 197.737  1.00  0.00     0.053 C 
ATOM      4  C   UNL     1     150.463 160.284 196.702  1.00  0.00     0.016 C 
BRANCH   3   5
ATOM      5  C   UNL     1     152.806 159.415 197.130  1.00  0.00     0.015 C 
BRANCH   5   6
ATOM      6  C   UNL     1     153.939 159.853 198.075  1.00  0.00     0.028 C 
BRANCH   6   7
ATOM      7  C   UNL     1     154.655 158.654 198.637  1.00  0.00    -0.028 C 
ATOM      8  C   UNL     1     154.702 158.335 199.952  1.00  0.00    -0.070 CG0
ATOM      9  C   UNL     1     155.405 157.061 200.347  1.00  0.00     0.039 C 
ATOM     10  G   UNL     1     154.096 159.212 201.038  1.00  0.00     0.000 G0
ENDBRANCH   6   7
ENDBRANCH   5   6
ENDBRANCH   3   5
ENDBRANCH   1   3
BRANCH   1  11
ATOM     11  C   UNL     1     150.833 158.118 199.814  1.00  0.00     0.087 C 
BRANCH  11  12
ATOM     12  C   UNL     1     151.498 159.260 200.630  1.00  0.00     0.066 C 
BRANCH  12  13
ATOM     13  C   UNL     1     152.702 158.756 201.415  1.00  0.00     0.140 C 
ATOM     14  O   UNL     1     152.538 158.026 202.381  1.00  0.00    -0.299 OA
BRANCH  13  15
ATOM     15  C   UNL     1     154.102 159.196 201.058  1.00  0.00     0.106 CG0
ATOM     16  G   UNL     1     154.702 158.356 199.942  1.00  0.00     0.000 G0
ENDBRANCH  13  15
ENDBRANCH  12  13
BRANCH  12  17
ATOM     17  C   UNL     1     150.467 160.000 201.538  1.00  0.00    -0.006 C 
ATOM     18  C   UNL     1     151.054 161.193 202.312  1.00  0.00     0.008 C 
ATOM     19  C   UNL     1     149.231 160.443 200.742  1.00  0.00     0.008 C 
ENDBRANCH  12  17
ENDBRANCH  11  12
ENDBRANCH   1  11
TORSDOF 1
ENDMDL
MODEL 8
REMARK VINA RESULT:    -2.753      6.574      8.750
REMARK INTER + INTRA:          -4.599
REMARK INTER:                  -4.457
REMARK INTRA:                  -0.141
REMARK UNBOUND:                -0.397
REMARK SMILES CC1=CCC[C@@H](C)C(=O)C[C@@H](C(C)C)C(=O)C1
REMARK SMILES IDX 8 1 9 2 6 3 7 4 5 5 4 6 3 7 2 8 1 9 10 11 11 12 15 13 16 14
REMARK SMILES IDX 17 15 12 17 13 18 14 19
REMARK H PARENT
REMARK Flexibility Score: 70.00
ROOT
ATOM      1  C   UNL     1     152.594 159.771 200.601  1.00  0.00     0.136 C 
ATOM      2  O   UNL     1     152.014 159.493 201.641  1.00  0.00    -0.299 OA
ENDROOT
BRANCH   1   3
ATOM      3  C   UNL     1     154.110 159.834 200.605  1.00  0.00     0.053 C 
ATOM      4  C   UNL     1     154.638 160.320 199.250  1.00  0.00     0.016 C 
BRANCH   3   5
ATOM      5  C   UNL     1     154.734 158.479 200.990  1.00  0.00     0.015 C 
BRANCH   5   6
ATOM      6  C   UNL     1     154.948 157.572 199.765  1.00  0.00     0.028 C 
BRANCH   6   7
ATOM      7  C   UNL     1     153.937 156.456 199.748  1.00  0.00    -0.028 C 
ATOM      8  C   UNL     1     152.858 156.411 198.931  1.00  0.00    -0.070 CG0
ATOM      9  C   UNL     1     151.977 155.189 198.990  1.00  0.00     0.039 C 
ATOM     10  G   UNL     1     152.494 157.540 197.978  1.00  0.00     0.000 G0
ENDBRANCH   6   7
ENDBRANCH   5   6
ENDBRANCH   3   5
ENDBRANCH   1   3
BRANCH   1  11
ATOM     11  C   UNL     1     151.769 160.069 199.368  1.00  0.00     0.087 C 
BRANCH  11  12
ATOM     12  C   UNL     1     150.644 159.021 199.146  1.00  0.00     0.066 C 
BRANCH  12  13
ATOM     13  C   UNL     1     151.045 157.985 198.105  1.00  0.00     0.140 C 
ATOM     14  O   UNL     1     150.191 157.465 197.402  1.00  0.00    -0.299 OA
BRANCH  13  15
ATOM     15  C   UNL     1     152.480 157.535 197.969  1.00  0.00     0.106 CG0
ATOM     16  G   UNL     1     152.825 156.410 198.933  1.00  0.00     0.000 G0
ENDBRANCH  13  15
ENDBRANCH  12  13
BRANCH  12  17
ATOM     17  C   UNL     1     149.279 159.700 198.811  1.00  0.00    -0.006 C 
ATOM     18  C   UNL     1     148.467 160.124 200.047  1.00  0.00     0.008 C 
ATOM     19  C   UNL     1     149.462 160.895 197.863  1.00  0.00     0.008 C 
ENDBRANCH  12  17
ENDBRANCH  11  12
ENDBRANCH   1  11
TORSDOF 1
ENDMDL
MODEL 9
REMARK VINA RESULT:    -2.695      5.766      8.128
REMARK INTER + INTRA:          -4.510
REMARK INTER:                  -4.431
REMARK INTRA:                  -0.079
REMARK UNBOUND:                -0.397
REMARK SMILES CC1=CCC[C@@H](C)C(=O)C[C@@H](C(C)C)C(=O)C1
REMARK SMILES IDX 8 1 9 2 6 3 7 4 5 5 4 6 3 7 2 8 1 9 10 11 11 12 15 13 16 14
REMARK SMILES IDX 17 15 12 17 13 18 14 19
REMARK H PARENT
REMARK Flexibility Score: 70.00
ROOT
ATOM      1  C   UNL     1     154.250 158.893 199.038  1.00  0.00     0.136 C 
ATOM      2  O   UNL     1     154.533 158.081 198.169  1.00  0.00    -0.299 OA
ENDROOT
BRANCH   1   3
ATOM      3  C   UNL     1     155.350 159.398 199.952  1.00  0.00     0.053 C 
ATOM      4  C   UNL     1     156.352 160.258 199.174  1.00  0.00     0.016 C 
BRANCH   3   5
ATOM      5  C   UNL     1     156.060 158.240 200.679  1.00  0.00     0.015 C 
BRANCH   5   6
ATOM      6  C   UNL     1     155.358 157.866 201.997  1.00  0.00     0.028 C 
BRANCH   6   7
ATOM      7  C   UNL     1     154.760 156.487 201.907  1.00  0.00    -0.028 C 
ATOM      8  C   UNL     1     153.438 156.216 202.012  1.00  0.00    -0.070 CG0
ATOM      9  C   UNL     1     152.993 154.787 201.832  1.00  0.00     0.039 C 
ATOM     10  G   UNL     1     152.397 157.282 202.317  1.00  0.00     0.000 G0
ENDBRANCH   6   7
ENDBRANCH   5   6
ENDBRANCH   3   5
ENDBRANCH   1   3
BRANCH   1  11
ATOM     11  C   UNL     1     152.809 159.333 199.177  1.00  0.00     0.087 C 
BRANCH  11  12
ATOM     12  C   UNL     1     152.328 159.314 200.654  1.00  0.00     0.066 C 
BRANCH  12  13
ATOM     13  C   UNL     1     151.853 157.927 201.067  1.00  0.00     0.140 C 
ATOM     14  O   UNL     1     150.997 157.355 200.410  1.00  0.00    -0.299 OA
BRANCH  13  15
ATOM     15  C   UNL     1     152.378 157.268 202.321  1.00  0.00     0.106 CG0
ATOM     16  G   UNL     1     153.437 156.219 202.019  1.00  0.00     0.000 G0
ENDBRANCH  13  15
ENDBRANCH  12  13
BRANCH  12  17
ATOM     17  C   UNL     1     151.254 160.413 200.927  1.00  0.00    -0.006 C 
ATOM     18  C   UNL     1     150.156 160.500 199.853  1.00  0.00     0.008 C 
ATOM     19  C   UNL     1     150.621 160.248 202.318  1.00  0.00     0.008 C 
ENDBRANCH  12  17
ENDBRANCH  11  12
ENDBRANCH   1  11
TORSDOF 1
ENDMDL
