MODEL 1
REMARK VINA RESULT:    -5.704      0.000      0.000
REMARK INTER + INTRA:         -10.007
REMARK INTER:                  -7.705
REMARK INTRA:                  -2.301
REMARK UNBOUND:                -2.301
REMARK SMILES CC[C@@H](CC[C@@H](C)[C@@H]1CC[C@@H]2[C@H]3CC(=O)C4=CC(=O)CC[C@]4(C)[C@H]3CC[C@@]21C)C(C)C
REMARK SMILES IDX 4 1 3 2 2 3 1 4 29 5 30 6 31 7 5 8 6 9 7 10 8 11 9 12 27 13
REMARK SMILES IDX 10 14 11 15 26 16 28 17 12 18 25 19 24 20 13 21 22 22 14 23
REMARK SMILES IDX 16 24 21 25 23 26 15 27 17 28 20 29 18 30 19 31
REMARK H PARENT
REMARK Flexibility Score: inf
ROOT
ATOM      1  C   UNL     1      20.325  26.937  43.605  1.00  0.00     0.004 C 
ENDROOT
BRANCH   1   2
ATOM      2  C   UNL     1      21.705  27.282  42.952  1.00  0.00    -0.009 C 
BRANCH   2   3
ATOM      3  C   UNL     1      21.793  28.813  42.685  1.00  0.00     0.000 C 
ATOM      4  C   UNL     1      23.132  29.422  43.113  1.00  0.00     0.004 C 
ENDBRANCH   2   3
BRANCH   2   5
ATOM      5  C   UNL     1      21.948  26.453  41.637  1.00  0.00    -0.014 C 
ATOM      6  C   UNL     1      21.669  27.278  40.364  1.00  0.00     0.007 C 
ATOM      7  C   UNL     1      21.087  25.173  41.578  1.00  0.00     0.007 C 
ENDBRANCH   2   5
ENDBRANCH   1   2
BRANCH   1   8
ATOM      8  C   UNL     1      19.510  28.187  44.003  1.00  0.00     0.004 C 
BRANCH   8   9
ATOM      9  C   UNL     1      18.140  28.296  43.267  1.00  0.00    -0.011 C 
ATOM     10  C   UNL     1      17.476  29.645  43.639  1.00  0.00     0.008 C 
BRANCH   9  11
ATOM     11  C   UNL     1      18.320  28.017  41.729  1.00  0.00    -0.002 C 
ATOM     12  C   UNL     1      18.530  29.250  40.849  1.00  0.00     0.005 C 
ATOM     13  C   UNL     1      17.293  27.122  40.968  1.00  0.00    -0.026 C 
ATOM     14  C   UNL     1      18.228  28.797  39.421  1.00  0.00     0.005 C 
ATOM     15  C   UNL     1      17.743  27.336  39.497  1.00  0.00    -0.001 C 
ATOM     16  C   UNL     1      15.827  27.593  41.165  1.00  0.00     0.007 C 
ATOM     17  C   UNL     1      17.451  25.642  41.403  1.00  0.00     0.012 C 
ATOM     18  C   UNL     1      16.716  27.000  38.372  1.00  0.00     0.004 C 
ATOM     19  C   UNL     1      14.857  27.042  40.116  1.00  0.00     0.005 C 
ATOM     20  C   UNL     1      15.262  27.453  38.679  1.00  0.00     0.003 C 
ATOM     21  C   UNL     1      16.747  25.520  37.947  1.00  0.00     0.085 C 
ATOM     22  C   UNL     1      14.209  27.042  37.534  1.00  0.00    -0.000 C 
ATOM     23  C   UNL     1      15.995  25.372  36.665  1.00  0.00     0.159 C 
ATOM     24  C   UNL     1      14.882  26.303  36.367  1.00  0.00     0.005 C 
ATOM     25  C   UNL     1      13.543  28.351  37.002  1.00  0.00     0.020 C 
ATOM     26  C   UNL     1      13.097  26.086  38.055  1.00  0.00     0.017 C 
ATOM     27  O   UNL     1      16.301  24.446  35.864  1.00  0.00    -0.295 OA
ATOM     28  C   UNL     1      14.414  26.403  35.108  1.00  0.00     0.055 C 
ATOM     29  C   UNL     1      12.618  28.125  35.800  1.00  0.00     0.081 C 
ATOM     30  C   UNL     1      13.296  27.294  34.755  1.00  0.00     0.156 C 
ATOM     31  O   UNL     1      12.874  27.319  33.568  1.00  0.00    -0.295 OA
ENDBRANCH   9  11
ENDBRANCH   8   9
ENDBRANCH   1   8
TORSDOF 6
ENDMDL
MODEL 2
REMARK VINA RESULT:    -5.593      4.546      8.294
REMARK INTER + INTRA:          -9.856
REMARK INTER:                  -8.717
REMARK INTRA:                  -1.138
REMARK UNBOUND:                -2.301
REMARK SMILES CC[C@@H](CC[C@@H](C)[C@@H]1CC[C@@H]2[C@H]3CC(=O)C4=CC(=O)CC[C@]4(C)[C@H]3CC[C@@]21C)C(C)C
REMARK SMILES IDX 4 1 3 2 2 3 1 4 29 5 30 6 31 7 5 8 6 9 7 10 8 11 9 12 27 13
REMARK SMILES IDX 10 14 11 15 26 16 28 17 12 18 25 19 24 20 13 21 22 22 14 23
REMARK SMILES IDX 16 24 21 25 23 26 15 27 17 28 20 29 18 30 19 31
REMARK H PARENT
REMARK Flexibility Score: inf
ROOT
ATOM      1  C   UNL     1      13.116  25.709  42.727  1.00  0.00     0.004 C 
ENDROOT
BRANCH   1   2
ATOM      2  C   UNL     1      13.313  24.723  43.927  1.00  0.00    -0.009 C 
BRANCH   2   3
ATOM      3  C   UNL     1      13.963  23.403  43.422  1.00  0.00     0.000 C 
ATOM      4  C   UNL     1      15.099  22.909  44.324  1.00  0.00     0.004 C 
ENDBRANCH   2   3
BRANCH   2   5
ATOM      5  C   UNL     1      11.959  24.448  44.680  1.00  0.00    -0.014 C 
ATOM      6  C   UNL     1      10.828  25.388  44.214  1.00  0.00     0.007 C 
ATOM      7  C   UNL     1      12.097  24.585  46.212  1.00  0.00     0.007 C 
ENDBRANCH   2   5
ENDBRANCH   1   2
BRANCH   1   8
ATOM      8  C   UNL     1      13.406  27.181  43.094  1.00  0.00     0.004 C 
BRANCH   8   9
ATOM      9  C   UNL     1      14.539  27.824  42.237  1.00  0.00    -0.011 C 
ATOM     10  C   UNL     1      14.031  29.168  41.660  1.00  0.00     0.008 C 
BRANCH   9  11
ATOM     11  C   UNL     1      15.879  27.888  43.059  1.00  0.00    -0.002 C 
ATOM     12  C   UNL     1      16.271  29.271  43.584  1.00  0.00     0.005 C 
ATOM     13  C   UNL     1      17.187  27.267  42.479  1.00  0.00    -0.026 C 
ATOM     14  C   UNL     1      17.757  29.177  43.928  1.00  0.00     0.005 C 
ATOM     15  C   UNL     1      18.238  27.776  43.502  1.00  0.00    -0.001 C 
ATOM     16  C   UNL     1      17.515  27.786  41.054  1.00  0.00     0.007 C 
ATOM     17  C   UNL     1      17.089  25.719  42.484  1.00  0.00     0.012 C 
ATOM     18  C   UNL     1      19.734  27.779  43.059  1.00  0.00     0.004 C 
ATOM     19  C   UNL     1      18.971  27.560  40.637  1.00  0.00     0.005 C 
ATOM     20  C   UNL     1      19.965  28.256  41.598  1.00  0.00     0.003 C 
ATOM     21  C   UNL     1      20.443  26.436  43.312  1.00  0.00     0.085 C 
ATOM     22  C   UNL     1      21.507  28.193  41.141  1.00  0.00    -0.000 C 
ATOM     23  C   UNL     1      21.917  26.639  43.178  1.00  0.00     0.159 C 
ATOM     24  C   UNL     1      22.424  27.692  42.267  1.00  0.00     0.005 C 
ATOM     25  C   UNL     1      21.942  29.633  40.722  1.00  0.00     0.020 C 
ATOM     26  C   UNL     1      21.740  27.228  39.944  1.00  0.00     0.017 C 
ATOM     27  O   UNL     1      22.711  25.899  43.822  1.00  0.00    -0.295 OA
ATOM     28  C   UNL     1      23.700  28.108  42.373  1.00  0.00     0.055 C 
ATOM     29  C   UNL     1      23.437  29.754  40.400  1.00  0.00     0.081 C 
ATOM     30  C   UNL     1      24.266  29.135  41.482  1.00  0.00     0.156 C 
ATOM     31  O   UNL     1      25.479  29.459  41.601  1.00  0.00    -0.295 OA
ENDBRANCH   9  11
ENDBRANCH   8   9
ENDBRANCH   1   8
TORSDOF 6
ENDMDL
MODEL 3
REMARK VINA RESULT:    -5.578      3.476      6.218
REMARK INTER + INTRA:          -9.835
REMARK INTER:                  -8.436
REMARK INTRA:                  -1.399
REMARK UNBOUND:                -2.301
REMARK SMILES CC[C@@H](CC[C@@H](C)[C@@H]1CC[C@@H]2[C@H]3CC(=O)C4=CC(=O)CC[C@]4(C)[C@H]3CC[C@@]21C)C(C)C
REMARK SMILES IDX 4 1 3 2 2 3 1 4 29 5 30 6 31 7 5 8 6 9 7 10 8 11 9 12 27 13
REMARK SMILES IDX 10 14 11 15 26 16 28 17 12 18 25 19 24 20 13 21 22 22 14 23
REMARK SMILES IDX 16 24 21 25 23 26 15 27 17 28 20 29 18 30 19 31
REMARK H PARENT
REMARK Flexibility Score: inf
ROOT
ATOM      1  C   UNL     1      24.624  29.818  42.838  1.00  0.00     0.004 C 
ENDROOT
BRANCH   1   2
ATOM      2  C   UNL     1      24.619  30.864  41.674  1.00  0.00    -0.009 C 
BRANCH   2   3
ATOM      3  C   UNL     1      25.297  30.253  40.414  1.00  0.00     0.000 C 
ATOM      4  C   UNL     1      24.379  30.231  39.188  1.00  0.00     0.004 C 
ENDBRANCH   2   3
BRANCH   2   5
ATOM      5  C   UNL     1      25.308  32.212  42.103  1.00  0.00    -0.014 C 
ATOM      6  C   UNL     1      24.971  33.373  41.146  1.00  0.00     0.007 C 
ATOM      7  C   UNL     1      26.845  32.089  42.187  1.00  0.00     0.007 C 
ENDBRANCH   2   5
ENDBRANCH   1   2
BRANCH   1   8
ATOM      8  C   UNL     1      25.159  28.433  42.410  1.00  0.00     0.004 C 
BRANCH   8   9
ATOM      9  C   UNL     1      24.079  27.530  41.740  1.00  0.00    -0.011 C 
ATOM     10  C   UNL     1      24.729  26.183  41.341  1.00  0.00     0.008 C 
BRANCH   9  11
ATOM     11  C   UNL     1      22.800  27.436  42.651  1.00  0.00    -0.002 C 
ATOM     12  C   UNL     1      22.667  26.158  43.482  1.00  0.00     0.005 C 
ATOM     13  C   UNL     1      21.385  27.700  42.049  1.00  0.00    -0.026 C 
ATOM     14  C   UNL     1      21.200  26.089  43.904  1.00  0.00     0.005 C 
ATOM     15  C   UNL     1      20.473  27.268  43.229  1.00  0.00    -0.001 C 
ATOM     16  C   UNL     1      21.099  26.836  40.792  1.00  0.00     0.007 C 
ATOM     17  C   UNL     1      21.219  29.207  41.721  1.00  0.00     0.012 C 
ATOM     18  C   UNL     1      18.985  26.931  42.904  1.00  0.00     0.004 C 
ATOM     19  C   UNL     1      19.612  26.732  40.442  1.00  0.00     0.005 C 
ATOM     20  C   UNL     1      18.786  26.116  41.597  1.00  0.00     0.003 C 
ATOM     21  C   UNL     1      18.067  28.168  42.920  1.00  0.00     0.085 C 
ATOM     22  C   UNL     1      17.241  25.832  41.249  1.00  0.00    -0.000 C 
ATOM     23  C   UNL     1      16.645  27.710  42.938  1.00  0.00     0.159 C 
ATOM     24  C   UNL     1      16.292  26.417  42.308  1.00  0.00     0.005 C 
ATOM     25  C   UNL     1      17.041  24.285  41.175  1.00  0.00     0.020 C 
ATOM     26  C   UNL     1      16.804  26.462  39.895  1.00  0.00     0.017 C 
ATOM     27  O   UNL     1      15.760  28.438  43.467  1.00  0.00    -0.295 OA
ATOM     28  C   UNL     1      15.110  25.837  42.590  1.00  0.00     0.055 C 
ATOM     29  C   UNL     1      15.579  23.862  40.994  1.00  0.00     0.081 C 
ATOM     30  C   UNL     1      14.695  24.564  41.978  1.00  0.00     0.156 C 
ATOM     31  O   UNL     1      13.560  24.086  42.249  1.00  0.00    -0.295 OA
ENDBRANCH   9  11
ENDBRANCH   8   9
ENDBRANCH   1   8
TORSDOF 6
ENDMDL
MODEL 4
REMARK VINA RESULT:    -5.575      3.300      5.004
REMARK INTER + INTRA:          -9.832
REMARK INTER:                  -7.675
REMARK INTRA:                  -2.157
REMARK UNBOUND:                -2.301
REMARK SMILES CC[C@@H](CC[C@@H](C)[C@@H]1CC[C@@H]2[C@H]3CC(=O)C4=CC(=O)CC[C@]4(C)[C@H]3CC[C@@]21C)C(C)C
REMARK SMILES IDX 4 1 3 2 2 3 1 4 29 5 30 6 31 7 5 8 6 9 7 10 8 11 9 12 27 13
REMARK SMILES IDX 10 14 11 15 26 16 28 17 12 18 25 19 24 20 13 21 22 22 14 23
REMARK SMILES IDX 16 24 21 25 23 26 15 27 17 28 20 29 18 30 19 31
REMARK H PARENT
REMARK Flexibility Score: inf
ROOT
ATOM      1  C   UNL     1      22.231  26.859  40.821  1.00  0.00     0.004 C 
ENDROOT
BRANCH   1   2
ATOM      2  C   UNL     1      23.542  27.651  41.142  1.00  0.00    -0.009 C 
BRANCH   2   3
ATOM      3  C   UNL     1      24.251  27.018  42.375  1.00  0.00     0.000 C 
ATOM      4  C   UNL     1      25.709  26.637  42.099  1.00  0.00     0.004 C 
ENDBRANCH   2   3
BRANCH   2   5
ATOM      5  C   UNL     1      23.254  29.182  41.366  1.00  0.00    -0.014 C 
ATOM      6  C   UNL     1      23.197  29.555  42.861  1.00  0.00     0.007 C 
ATOM      7  C   UNL     1      21.934  29.637  40.706  1.00  0.00     0.007 C 
ENDBRANCH   2   5
ENDBRANCH   1   2
BRANCH   1   8
ATOM      8  C   UNL     1      21.999  25.656  41.763  1.00  0.00     0.004 C 
BRANCH   8   9
ATOM      9  C   UNL     1      20.839  25.879  42.780  1.00  0.00    -0.011 C 
ATOM     10  C   UNL     1      21.419  25.863  44.215  1.00  0.00     0.008 C 
BRANCH   9  11
ATOM     11  C   UNL     1      20.002  27.152  42.388  1.00  0.00    -0.002 C 
ATOM     12  C   UNL     1      19.937  28.256  43.444  1.00  0.00     0.005 C 
ATOM     13  C   UNL     1      18.548  26.999  41.843  1.00  0.00    -0.026 C 
ATOM     14  C   UNL     1      18.752  29.137  43.050  1.00  0.00     0.005 C 
ATOM     15  C   UNL     1      18.076  28.478  41.832  1.00  0.00    -0.001 C 
ATOM     16  C   UNL     1      17.647  26.145  42.774  1.00  0.00     0.007 C 
ATOM     17  C   UNL     1      18.576  26.398  40.413  1.00  0.00     0.012 C 
ATOM     18  C   UNL     1      16.540  28.745  41.797  1.00  0.00     0.004 C 
ATOM     19  C   UNL     1      16.148  26.333  42.522  1.00  0.00     0.005 C 
ATOM     20  C   UNL     1      15.708  27.805  42.713  1.00  0.00     0.003 C 
ATOM     21  C   UNL     1      15.961  28.768  40.371  1.00  0.00     0.085 C 
ATOM     22  C   UNL     1      14.122  28.057  42.616  1.00  0.00    -0.000 C 
ATOM     23  C   UNL     1      14.588  29.355  40.418  1.00  0.00     0.159 C 
ATOM     24  C   UNL     1      13.775  29.197  41.646  1.00  0.00     0.005 C 
ATOM     25  C   UNL     1      13.604  28.418  44.045  1.00  0.00     0.020 C 
ATOM     26  C   UNL     1      13.346  26.811  42.099  1.00  0.00     0.017 C 
ATOM     27  O   UNL     1      14.130  29.957  39.407  1.00  0.00    -0.295 OA
ATOM     28  C   UNL     1      12.694  29.978  41.835  1.00  0.00     0.055 C 
ATOM     29  C   UNL     1      12.127  28.828  44.077  1.00  0.00     0.081 C 
ATOM     30  C   UNL     1      11.835  29.852  43.025  1.00  0.00     0.156 C 
ATOM     31  O   UNL     1      10.813  30.583  43.132  1.00  0.00    -0.295 OA
ENDBRANCH   9  11
ENDBRANCH   8   9
ENDBRANCH   1   8
TORSDOF 6
ENDMDL
MODEL 5
REMARK VINA RESULT:    -5.561      3.651      7.932
REMARK INTER + INTRA:          -9.812
REMARK INTER:                  -7.671
REMARK INTRA:                  -2.141
REMARK UNBOUND:                -2.301
REMARK SMILES CC[C@@H](CC[C@@H](C)[C@@H]1CC[C@@H]2[C@H]3CC(=O)C4=CC(=O)CC[C@]4(C)[C@H]3CC[C@@]21C)C(C)C
REMARK SMILES IDX 4 1 3 2 2 3 1 4 29 5 30 6 31 7 5 8 6 9 7 10 8 11 9 12 27 13
REMARK SMILES IDX 10 14 11 15 26 16 28 17 12 18 25 19 24 20 13 21 22 22 14 23
REMARK SMILES IDX 16 24 21 25 23 26 15 27 17 28 20 29 18 30 19 31
REMARK H PARENT
REMARK Flexibility Score: inf
ROOT
ATOM      1  C   UNL     1      13.532  25.673  41.593  1.00  0.00     0.004 C 
ENDROOT
BRANCH   1   2
ATOM      2  C   UNL     1      14.183  26.031  40.216  1.00  0.00    -0.009 C 
BRANCH   2   3
ATOM      3  C   UNL     1      13.110  26.642  39.269  1.00  0.00     0.000 C 
ATOM      4  C   UNL     1      13.590  27.910  38.555  1.00  0.00     0.004 C 
ENDBRANCH   2   3
BRANCH   2   5
ATOM      5  C   UNL     1      14.884  24.782  39.564  1.00  0.00    -0.014 C 
ATOM      6  C   UNL     1      15.085  23.631  40.570  1.00  0.00     0.007 C 
ATOM      7  C   UNL     1      16.258  25.129  38.951  1.00  0.00     0.007 C 
ENDBRANCH   2   5
ENDBRANCH   1   2
BRANCH   1   8
ATOM      8  C   UNL     1      13.740  26.765  42.667  1.00  0.00     0.004 C 
BRANCH   8   9
ATOM      9  C   UNL     1      14.642  27.943  42.189  1.00  0.00    -0.011 C 
ATOM     10  C   UNL     1      13.801  29.243  42.167  1.00  0.00     0.008 C 
BRANCH   9  11
ATOM     11  C   UNL     1      15.970  27.994  43.031  1.00  0.00    -0.002 C 
ATOM     12  C   UNL     1      16.363  29.370  43.570  1.00  0.00     0.005 C 
ATOM     13  C   UNL     1      17.283  27.367  42.467  1.00  0.00    -0.026 C 
ATOM     14  C   UNL     1      17.843  29.265  43.936  1.00  0.00     0.005 C 
ATOM     15  C   UNL     1      18.322  27.863  43.509  1.00  0.00    -0.001 C 
ATOM     16  C   UNL     1      17.636  27.893  41.050  1.00  0.00     0.007 C 
ATOM     17  C   UNL     1      17.175  25.820  42.461  1.00  0.00     0.012 C 
ATOM     18  C   UNL     1      19.824  27.860  43.088  1.00  0.00     0.004 C 
ATOM     19  C   UNL     1      19.097  27.660  40.654  1.00  0.00     0.005 C 
ATOM     20  C   UNL     1      20.081  28.343  41.634  1.00  0.00     0.003 C 
ATOM     21  C   UNL     1      20.521  26.510  43.344  1.00  0.00     0.085 C 
ATOM     22  C   UNL     1      21.628  28.273  41.201  1.00  0.00    -0.000 C 
ATOM     23  C   UNL     1      21.998  26.704  43.234  1.00  0.00     0.159 C 
ATOM     24  C   UNL     1      22.525  27.759  42.338  1.00  0.00     0.005 C 
ATOM     25  C   UNL     1      22.080  29.713  40.797  1.00  0.00     0.020 C 
ATOM     26  C   UNL     1      21.874  27.313  40.001  1.00  0.00     0.017 C 
ATOM     27  O   UNL     1      22.777  25.955  43.886  1.00  0.00    -0.295 OA
ATOM     28  C   UNL     1      23.803  28.166  42.466  1.00  0.00     0.055 C 
ATOM     29  C   UNL     1      23.580  29.825  40.499  1.00  0.00     0.081 C 
ATOM     30  C   UNL     1      24.388  29.195  41.589  1.00  0.00     0.156 C 
ATOM     31  O   UNL     1      25.601  29.510  41.729  1.00  0.00    -0.295 OA
ENDBRANCH   9  11
ENDBRANCH   8   9
ENDBRANCH   1   8
TORSDOF 6
ENDMDL
MODEL 6
REMARK VINA RESULT:    -5.483      3.562      8.178
REMARK INTER + INTRA:          -9.707
REMARK INTER:                  -7.839
REMARK INTRA:                  -1.868
REMARK UNBOUND:                -2.301
REMARK SMILES CC[C@@H](CC[C@@H](C)[C@@H]1CC[C@@H]2[C@H]3CC(=O)C4=CC(=O)CC[C@]4(C)[C@H]3CC[C@@]21C)C(C)C
REMARK SMILES IDX 4 1 3 2 2 3 1 4 29 5 30 6 31 7 5 8 6 9 7 10 8 11 9 12 27 13
REMARK SMILES IDX 10 14 11 15 26 16 28 17 12 18 25 19 24 20 13 21 22 22 14 23
REMARK SMILES IDX 16 24 21 25 23 26 15 27 17 28 20 29 18 30 19 31
REMARK H PARENT
REMARK Flexibility Score: inf
ROOT
ATOM      1  C   UNL     1      11.713  27.232  41.897  1.00  0.00     0.004 C 
ENDROOT
BRANCH   1   2
ATOM      2  C   UNL     1      11.823  27.588  43.417  1.00  0.00    -0.009 C 
BRANCH   2   3
ATOM      3  C   UNL     1      10.402  27.649  44.048  1.00  0.00     0.000 C 
ATOM      4  C   UNL     1       9.691  28.983  43.799  1.00  0.00     0.004 C 
ENDBRANCH   2   3
BRANCH   2   5
ATOM      5  C   UNL     1      12.612  28.931  43.642  1.00  0.00    -0.014 C 
ATOM      6  C   UNL     1      13.028  29.596  42.314  1.00  0.00     0.007 C 
ATOM      7  C   UNL     1      13.882  28.733  44.499  1.00  0.00     0.007 C 
ENDBRANCH   2   5
ENDBRANCH   1   2
BRANCH   1   8
ATOM      8  C   UNL     1      12.299  25.845  41.553  1.00  0.00     0.004 C 
BRANCH   8   9
ATOM      9  C   UNL     1      13.524  25.452  42.433  1.00  0.00    -0.011 C 
ATOM     10  C   UNL     1      13.123  24.273  43.354  1.00  0.00     0.008 C 
BRANCH   9  11
ATOM     11  C   UNL     1      14.796  25.224  41.535  1.00  0.00    -0.002 C 
ATOM     12  C   UNL     1      15.473  23.860  41.675  1.00  0.00     0.005 C 
ATOM     13  C   UNL     1      15.950  26.273  41.527  1.00  0.00    -0.026 C 
ATOM     14  C   UNL     1      16.875  24.031  41.090  1.00  0.00     0.005 C 
ATOM     15  C   UNL     1      17.035  25.517  40.714  1.00  0.00    -0.001 C 
ATOM     16  C   UNL     1      16.468  26.604  42.952  1.00  0.00     0.007 C 
ATOM     17  C   UNL     1      15.491  27.565  40.803  1.00  0.00     0.012 C 
ATOM     18  C   UNL     1      18.511  26.001  40.854  1.00  0.00     0.004 C 
ATOM     19  C   UNL     1      17.850  27.263  42.968  1.00  0.00     0.005 C 
ATOM     20  C   UNL     1      18.927  26.369  42.305  1.00  0.00     0.003 C 
ATOM     21  C   UNL     1      18.870  27.139  39.880  1.00  0.00     0.085 C 
ATOM     22  C   UNL     1      20.432  26.924  42.419  1.00  0.00    -0.000 C 
ATOM     23  C   UNL     1      20.356  27.296  39.852  1.00  0.00     0.159 C 
ATOM     24  C   UNL     1      21.144  26.949  41.057  1.00  0.00     0.005 C 
ATOM     25  C   UNL     1      21.216  25.991  43.395  1.00  0.00     0.020 C 
ATOM     26  C   UNL     1      20.496  28.383  42.956  1.00  0.00     0.017 C 
ATOM     27  O   UNL     1      20.917  27.742  38.813  1.00  0.00    -0.295 OA
ATOM     28  C   UNL     1      22.475  26.770  40.955  1.00  0.00     0.055 C 
ATOM     29  C   UNL     1      22.712  26.315  43.486  1.00  0.00     0.081 C 
ATOM     30  C   UNL     1      23.313  26.446  42.121  1.00  0.00     0.156 C 
ATOM     31  O   UNL     1      24.560  26.327  41.975  1.00  0.00    -0.295 OA
ENDBRANCH   9  11
ENDBRANCH   8   9
ENDBRANCH   1   8
TORSDOF 6
ENDMDL
MODEL 7
REMARK VINA RESULT:    -5.470      3.485      6.101
REMARK INTER + INTRA:          -9.690
REMARK INTER:                  -8.685
REMARK INTRA:                  -1.004
REMARK UNBOUND:                -2.301
REMARK SMILES CC[C@@H](CC[C@@H](C)[C@@H]1CC[C@@H]2[C@H]3CC(=O)C4=CC(=O)CC[C@]4(C)[C@H]3CC[C@@]21C)C(C)C
REMARK SMILES IDX 4 1 3 2 2 3 1 4 29 5 30 6 31 7 5 8 6 9 7 10 8 11 9 12 27 13
REMARK SMILES IDX 10 14 11 15 26 16 28 17 12 18 25 19 24 20 13 21 22 22 14 23
REMARK SMILES IDX 16 24 21 25 23 26 15 27 17 28 20 29 18 30 19 31
REMARK H PARENT
REMARK Flexibility Score: inf
ROOT
ATOM      1  C   UNL     1      24.196  25.765  39.281  1.00  0.00     0.004 C 
ENDROOT
BRANCH   1   2
ATOM      2  C   UNL     1      22.962  24.941  38.781  1.00  0.00    -0.009 C 
BRANCH   2   3
ATOM      3  C   UNL     1      23.165  23.435  39.113  1.00  0.00     0.000 C 
ATOM      4  C   UNL     1      24.509  22.886  38.622  1.00  0.00     0.004 C 
ENDBRANCH   2   3
BRANCH   2   5
ATOM      5  C   UNL     1      22.703  25.163  37.244  1.00  0.00    -0.014 C 
ATOM      6  C   UNL     1      23.936  25.736  36.518  1.00  0.00     0.007 C 
ATOM      7  C   UNL     1      21.508  26.104  36.978  1.00  0.00     0.007 C 
ENDBRANCH   2   5
ENDBRANCH   1   2
BRANCH   1   8
ATOM      8  C   UNL     1      24.274  25.870  40.821  1.00  0.00     0.004 C 
BRANCH   8   9
ATOM      9  C   UNL     1      23.981  27.302  41.361  1.00  0.00    -0.011 C 
ATOM     10  C   UNL     1      23.861  28.276  40.163  1.00  0.00     0.008 C 
BRANCH   9  11
ATOM     11  C   UNL     1      22.759  27.276  42.353  1.00  0.00    -0.002 C 
ATOM     12  C   UNL     1      22.603  25.999  43.181  1.00  0.00     0.005 C 
ATOM     13  C   UNL     1      21.328  27.632  41.846  1.00  0.00    -0.026 C 
ATOM     14  C   UNL     1      21.165  26.015  43.698  1.00  0.00     0.005 C 
ATOM     15  C   UNL     1      20.469  27.243  43.080  1.00  0.00    -0.001 C 
ATOM     16  C   UNL     1      20.909  26.801  40.604  1.00  0.00     0.007 C 
ATOM     17  C   UNL     1      21.234  29.150  41.541  1.00  0.00     0.012 C 
ATOM     18  C   UNL     1      18.945  27.001  42.850  1.00  0.00     0.004 C 
ATOM     19  C   UNL     1      19.399  26.792  40.351  1.00  0.00     0.005 C 
ATOM     20  C   UNL     1      18.612  26.214  41.553  1.00  0.00     0.003 C 
ATOM     21  C   UNL     1      18.108  28.291  42.935  1.00  0.00     0.085 C 
ATOM     22  C   UNL     1      17.033  26.028  41.304  1.00  0.00    -0.000 C 
ATOM     23  C   UNL     1      16.664  27.921  43.042  1.00  0.00     0.159 C 
ATOM     24  C   UNL     1      16.193  26.658  42.427  1.00  0.00     0.005 C 
ATOM     25  C   UNL     1      16.735  24.497  41.232  1.00  0.00     0.020 C 
ATOM     26  C   UNL     1      16.550  26.699  39.986  1.00  0.00     0.017 C 
ATOM     27  O   UNL     1      15.862  28.695  43.633  1.00  0.00    -0.295 OA
ATOM     28  C   UNL     1      14.998  26.148  42.781  1.00  0.00     0.055 C 
ATOM     29  C   UNL     1      15.241  24.166  41.143  1.00  0.00     0.081 C 
ATOM     30  C   UNL     1      14.467  24.909  42.188  1.00  0.00     0.156 C 
ATOM     31  O   UNL     1      13.325  24.498  42.529  1.00  0.00    -0.295 OA
ENDBRANCH   9  11
ENDBRANCH   8   9
ENDBRANCH   1   8
TORSDOF 6
ENDMDL
MODEL 8
REMARK VINA RESULT:    -5.443      3.671      5.873
REMARK INTER + INTRA:          -9.653
REMARK INTER:                  -7.861
REMARK INTRA:                  -1.793
REMARK UNBOUND:                -2.301
REMARK SMILES CC[C@@H](CC[C@@H](C)[C@@H]1CC[C@@H]2[C@H]3CC(=O)C4=CC(=O)CC[C@]4(C)[C@H]3CC[C@@]21C)C(C)C
REMARK SMILES IDX 4 1 3 2 2 3 1 4 29 5 30 6 31 7 5 8 6 9 7 10 8 11 9 12 27 13
REMARK SMILES IDX 10 14 11 15 26 16 28 17 12 18 25 19 24 20 13 21 22 22 14 23
REMARK SMILES IDX 16 24 21 25 23 26 15 27 17 28 20 29 18 30 19 31
REMARK H PARENT
REMARK Flexibility Score: inf
ROOT
ATOM      1  C   UNL     1      23.001  27.339  38.593  1.00  0.00     0.004 C 
ENDROOT
BRANCH   1   2
ATOM      2  C   UNL     1      22.133  26.061  38.339  1.00  0.00    -0.009 C 
BRANCH   2   3
ATOM      3  C   UNL     1      23.059  24.829  38.125  1.00  0.00     0.000 C 
ATOM      4  C   UNL     1      22.798  23.700  39.127  1.00  0.00     0.004 C 
ENDBRANCH   2   3
BRANCH   2   5
ATOM      5  C   UNL     1      21.149  26.261  37.126  1.00  0.00    -0.014 C 
ATOM      6  C   UNL     1      21.683  25.623  35.828  1.00  0.00     0.007 C 
ATOM      7  C   UNL     1      20.854  27.750  36.845  1.00  0.00     0.007 C 
ENDBRANCH   2   5
ENDBRANCH   1   2
BRANCH   1   8
ATOM      8  C   UNL     1      22.860  27.895  40.027  1.00  0.00     0.004 C 
BRANCH   8   9
ATOM      9  C   UNL     1      22.386  26.830  41.063  1.00  0.00    -0.011 C 
ATOM     10  C   UNL     1      23.613  26.322  41.858  1.00  0.00     0.008 C 
BRANCH   9  11
ATOM     11  C   UNL     1      21.192  27.392  41.921  1.00  0.00    -0.002 C 
ATOM     12  C   UNL     1      21.108  26.879  43.360  1.00  0.00     0.005 C 
ATOM     13  C   UNL     1      19.735  27.343  41.366  1.00  0.00    -0.026 C 
ATOM     14  C   UNL     1      19.684  27.181  43.825  1.00  0.00     0.005 C 
ATOM     15  C   UNL     1      18.924  27.770  42.620  1.00  0.00    -0.001 C 
ATOM     16  C   UNL     1      19.318  25.922  40.903  1.00  0.00     0.007 C 
ATOM     17  C   UNL     1      19.572  28.361  40.207  1.00  0.00     0.012 C 
ATOM     18  C   UNL     1      17.406  27.413  42.653  1.00  0.00     0.004 C 
ATOM     19  C   UNL     1      17.803  25.735  40.775  1.00  0.00     0.005 C 
ATOM     20  C   UNL     1      17.072  25.994  42.115  1.00  0.00     0.003 C 
ATOM     21  C   UNL     1      16.520  28.474  41.975  1.00  0.00     0.085 C 
ATOM     22  C   UNL     1      15.496  25.670  42.101  1.00  0.00    -0.000 C 
ATOM     23  C   UNL     1      15.096  28.222  42.349  1.00  0.00     0.159 C 
ATOM     24  C   UNL     1      14.660  26.838  42.647  1.00  0.00     0.005 C 
ATOM     25  C   UNL     1      15.258  24.405  42.985  1.00  0.00     0.020 C 
ATOM     26  C   UNL     1      14.952  25.394  40.669  1.00  0.00     0.017 C 
ATOM     27  O   UNL     1      14.278  29.183  42.385  1.00  0.00    -0.295 OA
ATOM     28  C   UNL     1      13.496  26.629  43.291  1.00  0.00     0.055 C 
ATOM     29  C   UNL     1      13.776  24.064  43.182  1.00  0.00     0.081 C 
ATOM     30  C   UNL     1      13.000  25.276  43.595  1.00  0.00     0.156 C 
ATOM     31  O   UNL     1      11.885  25.138  44.167  1.00  0.00    -0.295 OA
ENDBRANCH   9  11
ENDBRANCH   8   9
ENDBRANCH   1   8
TORSDOF 6
ENDMDL
MODEL 9
REMARK VINA RESULT:    -5.424      4.112      8.064
REMARK INTER + INTRA:          -9.628
REMARK INTER:                  -7.901
REMARK INTRA:                  -1.728
REMARK UNBOUND:                -2.301
REMARK SMILES CC[C@@H](CC[C@@H](C)[C@@H]1CC[C@@H]2[C@H]3CC(=O)C4=CC(=O)CC[C@]4(C)[C@H]3CC[C@@]21C)C(C)C
REMARK SMILES IDX 4 1 3 2 2 3 1 4 29 5 30 6 31 7 5 8 6 9 7 10 8 11 9 12 27 13
REMARK SMILES IDX 10 14 11 15 26 16 28 17 12 18 25 19 24 20 13 21 22 22 14 23
REMARK SMILES IDX 16 24 21 25 23 26 15 27 17 28 20 29 18 30 19 31
REMARK H PARENT
REMARK Flexibility Score: inf
ROOT
ATOM      1  C   UNL     1      12.795  26.062  42.461  1.00  0.00     0.004 C 
ENDROOT
BRANCH   1   2
ATOM      2  C   UNL     1      13.824  25.029  41.891  1.00  0.00    -0.009 C 
BRANCH   2   3
ATOM      3  C   UNL     1      13.706  24.969  40.341  1.00  0.00     0.000 C 
ATOM      4  C   UNL     1      15.044  24.697  39.646  1.00  0.00     0.004 C 
ENDBRANCH   2   3
BRANCH   2   5
ATOM      5  C   UNL     1      13.638  23.607  42.540  1.00  0.00    -0.014 C 
ATOM      6  C   UNL     1      12.272  23.457  43.239  1.00  0.00     0.007 C 
ATOM      7  C   UNL     1      14.742  23.278  43.567  1.00  0.00     0.007 C 
ENDBRANCH   2   5
ENDBRANCH   1   2
BRANCH   1   8
ATOM      8  C   UNL     1      13.464  27.294  43.110  1.00  0.00     0.004 C 
BRANCH   8   9
ATOM      9  C   UNL     1      14.608  27.907  42.246  1.00  0.00    -0.011 C 
ATOM     10  C   UNL     1      14.119  29.249  41.648  1.00  0.00     0.008 C 
BRANCH   9  11
ATOM     11  C   UNL     1      15.947  27.966  43.069  1.00  0.00    -0.002 C 
ATOM     12  C   UNL     1      16.340  29.344  43.604  1.00  0.00     0.005 C 
ATOM     13  C   UNL     1      17.256  27.348  42.484  1.00  0.00    -0.026 C 
ATOM     14  C   UNL     1      17.826  29.247  43.948  1.00  0.00     0.005 C 
ATOM     15  C   UNL     1      18.307  27.849  43.512  1.00  0.00    -0.001 C 
ATOM     16  C   UNL     1      17.584  27.878  41.063  1.00  0.00     0.007 C 
ATOM     17  C   UNL     1      17.157  25.800  42.478  1.00  0.00     0.012 C 
ATOM     18  C   UNL     1      19.802  27.856  43.069  1.00  0.00     0.004 C 
ATOM     19  C   UNL     1      19.040  27.654  40.645  1.00  0.00     0.005 C 
ATOM     20  C   UNL     1      20.034  28.343  41.612  1.00  0.00     0.003 C 
ATOM     21  C   UNL     1      20.511  26.511  43.313  1.00  0.00     0.085 C 
ATOM     22  C   UNL     1      21.576  28.283  41.155  1.00  0.00    -0.000 C 
ATOM     23  C   UNL     1      21.986  26.713  43.181  1.00  0.00     0.159 C 
ATOM     24  C   UNL     1      22.493  27.773  42.278  1.00  0.00     0.005 C 
ATOM     25  C   UNL     1      22.012  29.726  40.747  1.00  0.00     0.020 C 
ATOM     26  C   UNL     1      21.810  27.326  39.951  1.00  0.00     0.017 C 
ATOM     27  O   UNL     1      22.779  25.969  43.820  1.00  0.00    -0.295 OA
ATOM     28  C   UNL     1      23.769  28.188  42.388  1.00  0.00     0.055 C 
ATOM     29  C   UNL     1      23.507  29.848  40.427  1.00  0.00     0.081 C 
ATOM     30  C   UNL     1      24.336  29.221  41.504  1.00  0.00     0.156 C 
ATOM     31  O   UNL     1      25.549  29.544  41.626  1.00  0.00    -0.295 OA
ENDBRANCH   9  11
ENDBRANCH   8   9
ENDBRANCH   1   8
TORSDOF 6
ENDMDL
