MODEL 1
REMARK VINA RESULT:    -3.864      0.000      0.000
REMARK INTER + INTRA:          -4.652
REMARK INTER:                  -4.541
REMARK INTRA:                  -0.111
REMARK UNBOUND:                -0.111
REMARK SMILES CCCCC(=O)[O-]
REMARK SMILES IDX 4 1 5 2 6 3 7 4 3 5 2 6 1 7
REMARK H PARENT
REMARK Flexibility Score: inf
ROOT
ATOM      1  C   UNL     1     -18.154 -30.506  23.982  1.00  0.00     0.053 C 
ENDROOT
BRANCH   1   2
ATOM      2  C   UNL     1     -19.339 -31.341  23.608  1.00  0.00     0.041 C 
ATOM      3  O   UNL     1     -19.190 -32.374  22.903  1.00  0.00    -0.550 OA
ATOM      4  O   UNL     1     -20.614 -30.960  24.009  1.00  0.00    -0.550 OA
ENDBRANCH   1   2
BRANCH   1   5
ATOM      5  C   UNL     1     -16.835 -31.167  23.561  1.00  0.00     0.006 C 
BRANCH   5   6
ATOM      6  C   UNL     1     -16.071 -30.331  22.523  1.00  0.00    -0.003 C 
ATOM      7  C   UNL     1     -16.542 -30.648  21.106  1.00  0.00     0.004 C 
ENDBRANCH   5   6
ENDBRANCH   1   5
TORSDOF 3
ENDMDL
MODEL 2
REMARK VINA RESULT:    -3.851      1.087      1.487
REMARK INTER + INTRA:          -4.637
REMARK INTER:                  -4.618
REMARK INTRA:                  -0.019
REMARK UNBOUND:                -0.111
REMARK SMILES CCCCC(=O)[O-]
REMARK SMILES IDX 4 1 5 2 6 3 7 4 3 5 2 6 1 7
REMARK H PARENT
REMARK Flexibility Score: inf
ROOT
ATOM      1  C   UNL     1     -19.068 -31.718  23.259  1.00  0.00     0.053 C 
ENDROOT
BRANCH   1   2
ATOM      2  C   UNL     1     -20.471 -31.360  23.639  1.00  0.00     0.041 C 
ATOM      3  O   UNL     1     -21.444 -31.965  23.117  1.00  0.00    -0.550 OA
ATOM      4  O   UNL     1     -20.706 -30.334  24.547  1.00  0.00    -0.550 OA
ENDBRANCH   1   2
BRANCH   1   5
ATOM      5  C   UNL     1     -18.060 -30.667  23.742  1.00  0.00     0.006 C 
BRANCH   5   6
ATOM      6  C   UNL     1     -16.606 -31.108  23.512  1.00  0.00    -0.003 C 
ATOM      7  C   UNL     1     -16.009 -30.421  22.287  1.00  0.00     0.004 C 
ENDBRANCH   5   6
ENDBRANCH   1   5
TORSDOF 3
ENDMDL
MODEL 3
REMARK VINA RESULT:    -3.710      1.610      2.591
REMARK INTER + INTRA:          -4.471
REMARK INTER:                  -4.454
REMARK INTRA:                  -0.018
REMARK UNBOUND:                -0.111
REMARK SMILES CCCCC(=O)[O-]
REMARK SMILES IDX 4 1 5 2 6 3 7 4 3 5 2 6 1 7
REMARK H PARENT
REMARK Flexibility Score: inf
ROOT
ATOM      1  C   UNL     1     -20.456 -30.830  24.001  1.00  0.00     0.053 C 
ENDROOT
BRANCH   1   2
ATOM      2  C   UNL     1     -21.592 -31.495  23.288  1.00  0.00     0.041 C 
ATOM      3  O   UNL     1     -22.678 -30.881  23.113  1.00  0.00    -0.550 OA
ATOM      4  O   UNL     1     -21.465 -32.805  22.844  1.00  0.00    -0.550 OA
ENDBRANCH   1   2
BRANCH   1   5
ATOM      5  C   UNL     1     -19.097 -31.368  23.534  1.00  0.00     0.006 C 
BRANCH   5   6
ATOM      6  C   UNL     1     -17.937 -30.444  23.937  1.00  0.00    -0.003 C 
ATOM      7  C   UNL     1     -16.596 -31.019  23.489  1.00  0.00     0.004 C 
ENDBRANCH   5   6
ENDBRANCH   1   5
TORSDOF 3
ENDMDL
MODEL 4
REMARK VINA RESULT:    -3.698      2.438      3.604
REMARK INTER + INTRA:          -4.457
REMARK INTER:                  -4.386
REMARK INTRA:                  -0.070
REMARK UNBOUND:                -0.111
REMARK SMILES CCCCC(=O)[O-]
REMARK SMILES IDX 4 1 5 2 6 3 7 4 3 5 2 6 1 7
REMARK H PARENT
REMARK Flexibility Score: inf
ROOT
ATOM      1  C   UNL     1     -16.624 -30.947  23.238  1.00  0.00     0.053 C 
ENDROOT
BRANCH   1   2
ATOM      2  C   UNL     1     -16.566 -30.142  21.976  1.00  0.00     0.041 C 
ATOM      3  O   UNL     1     -16.569 -30.718  20.856  1.00  0.00    -0.550 OA
ATOM      4  O   UNL     1     -16.475 -28.757  22.037  1.00  0.00    -0.550 OA
ENDBRANCH   1   2
BRANCH   1   5
ATOM      5  C   UNL     1     -17.887 -30.639  24.053  1.00  0.00     0.006 C 
BRANCH   5   6
ATOM      6  C   UNL     1     -19.131 -31.340  23.483  1.00  0.00    -0.003 C 
ATOM      7  C   UNL     1     -20.412 -30.704  24.014  1.00  0.00     0.004 C 
ENDBRANCH   5   6
ENDBRANCH   1   5
TORSDOF 3
ENDMDL
MODEL 5
REMARK VINA RESULT:    -3.605      2.277      3.902
REMARK INTER + INTRA:          -4.348
REMARK INTER:                  -4.330
REMARK INTRA:                  -0.018
REMARK UNBOUND:                -0.111
REMARK SMILES CCCCC(=O)[O-]
REMARK SMILES IDX 4 1 5 2 6 3 7 4 3 5 2 6 1 7
REMARK H PARENT
REMARK Flexibility Score: inf
ROOT
ATOM      1  C   UNL     1     -18.607 -30.333  24.058  1.00  0.00     0.053 C 
ENDROOT
BRANCH   1   2
ATOM      2  C   UNL     1     -17.363 -30.193  23.236  1.00  0.00     0.041 C 
ATOM      3  O   UNL     1     -17.307 -29.338  22.313  1.00  0.00    -0.550 OA
ATOM      4  O   UNL     1     -16.278 -31.029  23.466  1.00  0.00    -0.550 OA
ENDBRANCH   1   2
BRANCH   1   5
ATOM      5  C   UNL     1     -19.520 -31.447  23.526  1.00  0.00     0.006 C 
BRANCH   5   6
ATOM      6  C   UNL     1     -21.009 -31.113  23.706  1.00  0.00    -0.003 C 
ATOM      7  C   UNL     1     -21.893 -32.208  23.118  1.00  0.00     0.004 C 
ENDBRANCH   5   6
ENDBRANCH   1   5
TORSDOF 3
ENDMDL
MODEL 6
REMARK VINA RESULT:    -3.506      2.392      3.794
REMARK INTER + INTRA:          -4.231
REMARK INTER:                  -4.155
REMARK INTRA:                  -0.076
REMARK UNBOUND:                -0.111
REMARK SMILES CCCCC(=O)[O-]
REMARK SMILES IDX 4 1 5 2 6 3 7 4 3 5 2 6 1 7
REMARK H PARENT
REMARK Flexibility Score: inf
ROOT
ATOM      1  C   UNL     1     -18.081 -30.571  24.198  1.00  0.00     0.053 C 
ENDROOT
BRANCH   1   2
ATOM      2  C   UNL     1     -17.218 -30.135  23.054  1.00  0.00     0.041 C 
ATOM      3  O   UNL     1     -16.190 -30.794  22.748  1.00  0.00    -0.550 OA
ATOM      4  O   UNL     1     -17.531 -28.980  22.347  1.00  0.00    -0.550 OA
ENDBRANCH   1   2
BRANCH   1   5
ATOM      5  C   UNL     1     -19.553 -30.703  23.784  1.00  0.00     0.006 C 
BRANCH   5   6
ATOM      6  C   UNL     1     -20.500 -30.017  24.781  1.00  0.00    -0.003 C 
ATOM      7  C   UNL     1     -19.720 -29.193  25.802  1.00  0.00     0.004 C 
ENDBRANCH   5   6
ENDBRANCH   1   5
TORSDOF 3
ENDMDL
MODEL 7
REMARK VINA RESULT:    -3.455      8.038      9.468
REMARK INTER + INTRA:          -4.171
REMARK INTER:                  -4.078
REMARK INTRA:                  -0.094
REMARK UNBOUND:                -0.111
REMARK SMILES CCCCC(=O)[O-]
REMARK SMILES IDX 4 1 5 2 6 3 7 4 3 5 2 6 1 7
REMARK H PARENT
REMARK Flexibility Score: inf
ROOT
ATOM      1  C   UNL     1     -27.018 -31.475  26.241  1.00  0.00     0.053 C 
ENDROOT
BRANCH   1   2
ATOM      2  C   UNL     1     -28.227 -31.426  25.359  1.00  0.00     0.041 C 
ATOM      3  O   UNL     1     -28.211 -31.986  24.231  1.00  0.00    -0.550 OA
ATOM      4  O   UNL     1     -29.360 -30.734  25.767  1.00  0.00    -0.550 OA
ENDBRANCH   1   2
BRANCH   1   5
ATOM      5  C   UNL     1     -26.627 -32.916  26.594  1.00  0.00     0.006 C 
BRANCH   5   6
ATOM      6  C   UNL     1     -25.189 -33.249  26.168  1.00  0.00    -0.003 C 
ATOM      7  C   UNL     1     -24.606 -32.145  25.290  1.00  0.00     0.004 C 
ENDBRANCH   5   6
ENDBRANCH   1   5
TORSDOF 3
ENDMDL
MODEL 8
REMARK VINA RESULT:    -3.384      9.408     10.380
REMARK INTER + INTRA:          -4.088
REMARK INTER:                  -3.982
REMARK INTRA:                  -0.106
REMARK UNBOUND:                -0.111
REMARK SMILES CCCCC(=O)[O-]
REMARK SMILES IDX 4 1 5 2 6 3 7 4 3 5 2 6 1 7
REMARK H PARENT
REMARK Flexibility Score: inf
ROOT
ATOM      1  C   UNL     1     -26.939 -32.804  24.087  1.00  0.00     0.053 C 
ENDROOT
BRANCH   1   2
ATOM      2  C   UNL     1     -27.437 -32.463  25.458  1.00  0.00     0.041 C 
ATOM      3  O   UNL     1     -28.339 -31.596  25.607  1.00  0.00    -0.550 OA
ATOM      4  O   UNL     1     -26.884 -33.079  26.574  1.00  0.00    -0.550 OA
ENDBRANCH   1   2
BRANCH   1   5
ATOM      5  C   UNL     1     -27.986 -33.579  23.276  1.00  0.00     0.006 C 
BRANCH   5   6
ATOM      6  C   UNL     1     -28.382 -32.843  21.987  1.00  0.00    -0.003 C 
ATOM      7  C   UNL     1     -29.516 -31.855  22.244  1.00  0.00     0.004 C 
ENDBRANCH   5   6
ENDBRANCH   1   5
TORSDOF 3
ENDMDL
MODEL 9
REMARK VINA RESULT:    -3.334      8.769      9.838
REMARK INTER + INTRA:          -4.029
REMARK INTER:                  -4.007
REMARK INTRA:                  -0.022
REMARK UNBOUND:                -0.111
REMARK SMILES CCCCC(=O)[O-]
REMARK SMILES IDX 4 1 5 2 6 3 7 4 3 5 2 6 1 7
REMARK H PARENT
REMARK Flexibility Score: inf
ROOT
ATOM      1  C   UNL     1     -27.857 -33.462  23.280  1.00  0.00     0.053 C 
ENDROOT
BRANCH   1   2
ATOM      2  C   UNL     1     -28.142 -32.360  22.307  1.00  0.00     0.041 C 
ATOM      3  O   UNL     1     -27.195 -31.710  21.790  1.00  0.00    -0.550 OA
ATOM      4  O   UNL     1     -29.454 -32.029  21.994  1.00  0.00    -0.550 OA
ENDBRANCH   1   2
BRANCH   1   5
ATOM      5  C   UNL     1     -27.560 -32.919  24.685  1.00  0.00     0.006 C 
BRANCH   5   6
ATOM      6  C   UNL     1     -26.063 -32.642  24.896  1.00  0.00    -0.003 C 
ATOM      7  C   UNL     1     -25.582 -33.212  26.227  1.00  0.00     0.004 C 
ENDBRANCH   5   6
ENDBRANCH   1   5
TORSDOF 3
ENDMDL
