MODEL 1
REMARK VINA RESULT:    -3.589      0.000      0.000
REMARK INTER + INTRA:         -11.678
REMARK INTER:                  -7.786
REMARK INTRA:                  -3.892
REMARK UNBOUND:                -3.892
REMARK SMILES CCCCCCCCCCCCCCCCCCCCCC(=O)[O-]
REMARK SMILES IDX 12 1 11 2 10 3 9 4 8 5 7 6 6 7 5 8 4 9 3 10 2 11 1 12 13 13
REMARK SMILES IDX 14 14 15 15 16 16 17 17 18 18 19 19 20 20 21 21 22 22 23 23
REMARK SMILES IDX 24 24
REMARK H PARENT
REMARK Flexibility Score: inf
ROOT
ATOM      1  C   UNL     1       6.145  32.488   7.081  1.00  0.00     0.000 C 
ENDROOT
BRANCH   1   2
ATOM      2  C   UNL     1       5.994  32.659   8.601  1.00  0.00     0.000 C 
BRANCH   2   3
ATOM      3  C   UNL     1       7.084  33.564   9.202  1.00  0.00     0.000 C 
BRANCH   3   4
ATOM      4  C   UNL     1       8.134  32.778  10.009  1.00  0.00    -0.000 C 
BRANCH   4   5
ATOM      5  C   UNL     1       9.597  33.023   9.589  1.00  0.00    -0.000 C 
BRANCH   5   6
ATOM      6  C   UNL     1       9.803  34.163   8.573  1.00  0.00    -0.000 C 
BRANCH   6   7
ATOM      7  C   UNL     1      10.531  33.754   7.277  1.00  0.00    -0.000 C 
BRANCH   7   8
ATOM      8  C   UNL     1       9.976  32.489   6.591  1.00  0.00    -0.000 C 
BRANCH   8   9
ATOM      9  C   UNL     1      10.917  31.266   6.616  1.00  0.00    -0.000 C 
BRANCH   9  10
ATOM     10  C   UNL     1      10.223  29.919   6.888  1.00  0.00    -0.000 C 
BRANCH  10  11
ATOM     11  C   UNL     1       8.793  30.080   7.419  1.00  0.00    -0.003 C 
ATOM     12  C   UNL     1       8.603  29.315   8.725  1.00  0.00     0.004 C 
ENDBRANCH  10  11
ENDBRANCH   9  10
ENDBRANCH   8   9
ENDBRANCH   7   8
ENDBRANCH   6   7
ENDBRANCH   5   6
ENDBRANCH   4   5
ENDBRANCH   3   4
ENDBRANCH   2   3
ENDBRANCH   1   2
BRANCH   1  13
ATOM     13  C   UNL     1       6.366  33.829   6.361  1.00  0.00     0.000 C 
BRANCH  13  14
ATOM     14  C   UNL     1       5.063  34.448   5.824  1.00  0.00     0.000 C 
BRANCH  14  15
ATOM     15  C   UNL     1       5.168  35.101   4.433  1.00  0.00     0.000 C 
BRANCH  15  16
ATOM     16  C   UNL     1       4.313  34.393   3.370  1.00  0.00     0.000 C 
BRANCH  16  17
ATOM     17  C   UNL     1       4.660  32.901   3.226  1.00  0.00     0.000 C 
BRANCH  17  18
ATOM     18  C   UNL     1       6.077  32.649   2.663  1.00  0.00     0.000 C 
BRANCH  18  19
ATOM     19  C   UNL     1       6.582  31.232   2.984  1.00  0.00     0.000 C 
BRANCH  19  20
ATOM     20  C   UNL     1       7.713  31.232   4.027  1.00  0.00     0.006 C 
BRANCH  20  21
ATOM     21  C   UNL     1       9.006  30.604   3.488  1.00  0.00     0.053 C 
BRANCH  21  22
ATOM     22  C   UNL     1       8.799  29.151   3.202  1.00  0.00     0.041 C 
ATOM     23  O   UNL     1       9.058  28.687   2.060  1.00  0.00    -0.550 OA
ATOM     24  O   UNL     1       8.365  28.297   4.210  1.00  0.00    -0.550 OA
ENDBRANCH  21  22
ENDBRANCH  20  21
ENDBRANCH  19  20
ENDBRANCH  18  19
ENDBRANCH  17  18
ENDBRANCH  16  17
ENDBRANCH  15  16
ENDBRANCH  14  15
ENDBRANCH  13  14
ENDBRANCH   1  13
TORSDOF 20
ENDMDL
MODEL 2
REMARK VINA RESULT:    -3.580      2.145      4.521
REMARK INTER + INTRA:         -11.658
REMARK INTER:                  -8.017
REMARK INTRA:                  -3.641
REMARK UNBOUND:                -3.892
REMARK SMILES CCCCCCCCCCCCCCCCCCCCCC(=O)[O-]
REMARK SMILES IDX 12 1 11 2 10 3 9 4 8 5 7 6 6 7 5 8 4 9 3 10 2 11 1 12 13 13
REMARK SMILES IDX 14 14 15 15 16 16 17 17 18 18 19 19 20 20 21 21 22 22 23 23
REMARK SMILES IDX 24 24
REMARK H PARENT
REMARK Flexibility Score: inf
ROOT
ATOM      1  C   UNL     1      10.866  34.019   8.769  1.00  0.00     0.000 C 
ENDROOT
BRANCH   1   2
ATOM      2  C   UNL     1      11.972  32.958   8.895  1.00  0.00     0.000 C 
BRANCH   2   3
ATOM      3  C   UNL     1      11.836  32.118  10.177  1.00  0.00     0.000 C 
BRANCH   3   4
ATOM      4  C   UNL     1      10.376  31.750  10.498  1.00  0.00    -0.000 C 
BRANCH   4   5
ATOM      5  C   UNL     1       9.937  30.348  10.032  1.00  0.00    -0.000 C 
BRANCH   5   6
ATOM      6  C   UNL     1       9.021  30.329   8.793  1.00  0.00    -0.000 C 
BRANCH   6   7
ATOM      7  C   UNL     1       9.584  29.560   7.581  1.00  0.00    -0.000 C 
BRANCH   7   8
ATOM      8  C   UNL     1      10.529  30.375   6.675  1.00  0.00    -0.000 C 
BRANCH   8   9
ATOM      9  C   UNL     1       9.906  30.864   5.351  1.00  0.00    -0.000 C 
BRANCH   9  10
ATOM     10  C   UNL     1       8.535  30.251   5.013  1.00  0.00    -0.000 C 
BRANCH  10  11
ATOM     11  C   UNL     1       7.399  31.283   5.032  1.00  0.00    -0.003 C 
ATOM     12  C   UNL     1       6.383  30.961   6.124  1.00  0.00     0.004 C 
ENDBRANCH  10  11
ENDBRANCH   9  10
ENDBRANCH   8   9
ENDBRANCH   7   8
ENDBRANCH   6   7
ENDBRANCH   5   6
ENDBRANCH   4   5
ENDBRANCH   3   4
ENDBRANCH   2   3
ENDBRANCH   1   2
BRANCH   1  13
ATOM     13  C   UNL     1      10.173  33.979   7.396  1.00  0.00     0.000 C 
BRANCH  13  14
ATOM     14  C   UNL     1       8.677  33.629   7.485  1.00  0.00     0.000 C 
BRANCH  14  15
ATOM     15  C   UNL     1       8.021  33.884   8.855  1.00  0.00     0.000 C 
BRANCH  15  16
ATOM     16  C   UNL     1       6.488  33.971   8.781  1.00  0.00     0.000 C 
BRANCH  16  17
ATOM     17  C   UNL     1       6.001  34.968   7.715  1.00  0.00     0.000 C 
BRANCH  17  18
ATOM     18  C   UNL     1       4.945  34.377   6.755  1.00  0.00     0.000 C 
BRANCH  18  19
ATOM     19  C   UNL     1       4.910  35.116   5.406  1.00  0.00     0.000 C 
BRANCH  19  20
ATOM     20  C   UNL     1       5.511  34.283   4.262  1.00  0.00     0.006 C 
BRANCH  20  21
ATOM     21  C   UNL     1       4.618  34.272   3.014  1.00  0.00     0.053 C 
BRANCH  21  22
ATOM     22  C   UNL     1       5.201  33.381   1.964  1.00  0.00     0.041 C 
ATOM     23  O   UNL     1       4.533  33.091   0.936  1.00  0.00    -0.550 OA
ATOM     24  O   UNL     1       6.502  32.909   2.096  1.00  0.00    -0.550 OA
ENDBRANCH  21  22
ENDBRANCH  20  21
ENDBRANCH  19  20
ENDBRANCH  18  19
ENDBRANCH  17  18
ENDBRANCH  16  17
ENDBRANCH  15  16
ENDBRANCH  14  15
ENDBRANCH  13  14
ENDBRANCH   1  13
TORSDOF 20
ENDMDL
MODEL 3
REMARK VINA RESULT:    -3.579      2.316      4.003
REMARK INTER + INTRA:         -11.656
REMARK INTER:                  -8.100
REMARK INTRA:                  -3.556
REMARK UNBOUND:                -3.892
REMARK SMILES CCCCCCCCCCCCCCCCCCCCCC(=O)[O-]
REMARK SMILES IDX 12 1 11 2 10 3 9 4 8 5 7 6 6 7 5 8 4 9 3 10 2 11 1 12 13 13
REMARK SMILES IDX 14 14 15 15 16 16 17 17 18 18 19 19 20 20 21 21 22 22 23 23
REMARK SMILES IDX 24 24
REMARK H PARENT
REMARK Flexibility Score: inf
ROOT
ATOM      1  C   UNL     1       7.377  33.218   8.574  1.00  0.00     0.000 C 
ENDROOT
BRANCH   1   2
ATOM      2  C   UNL     1       8.427  33.741   7.580  1.00  0.00     0.000 C 
BRANCH   2   3
ATOM      3  C   UNL     1       9.749  34.123   8.269  1.00  0.00     0.000 C 
BRANCH   3   4
ATOM      4  C   UNL     1      10.897  33.152   7.938  1.00  0.00    -0.000 C 
BRANCH   4   5
ATOM      5  C   UNL     1      10.657  32.252   6.710  1.00  0.00    -0.000 C 
BRANCH   5   6
ATOM      6  C   UNL     1      10.427  30.762   7.027  1.00  0.00    -0.000 C 
BRANCH   6   7
ATOM      7  C   UNL     1       9.483  30.030   6.052  1.00  0.00    -0.000 C 
BRANCH   7   8
ATOM      8  C   UNL     1       9.436  30.617   4.626  1.00  0.00    -0.000 C 
BRANCH   8   9
ATOM      9  C   UNL     1       8.030  31.000   4.123  1.00  0.00    -0.000 C 
BRANCH   9  10
ATOM     10  C   UNL     1       7.133  31.692   5.165  1.00  0.00    -0.000 C 
BRANCH  10  11
ATOM     11  C   UNL     1       5.760  31.022   5.309  1.00  0.00    -0.003 C 
ATOM     12  C   UNL     1       5.487  30.636   6.760  1.00  0.00     0.004 C 
ENDBRANCH  10  11
ENDBRANCH   9  10
ENDBRANCH   8   9
ENDBRANCH   7   8
ENDBRANCH   6   7
ENDBRANCH   5   6
ENDBRANCH   4   5
ENDBRANCH   3   4
ENDBRANCH   2   3
ENDBRANCH   1   2
BRANCH   1  13
ATOM     13  C   UNL     1       6.687  34.355   9.347  1.00  0.00     0.000 C 
BRANCH  13  14
ATOM     14  C   UNL     1       5.549  35.021   8.553  1.00  0.00     0.000 C 
BRANCH  14  15
ATOM     15  C   UNL     1       4.523  34.054   7.932  1.00  0.00     0.000 C 
BRANCH  15  16
ATOM     16  C   UNL     1       4.216  34.367   6.459  1.00  0.00     0.000 C 
BRANCH  16  17
ATOM     17  C   UNL     1       5.399  35.031   5.734  1.00  0.00     0.000 C 
BRANCH  17  18
ATOM     18  C   UNL     1       5.178  35.193   4.214  1.00  0.00     0.000 C 
BRANCH  18  19
ATOM     19  C   UNL     1       4.084  34.249   3.685  1.00  0.00     0.000 C 
BRANCH  19  20
ATOM     20  C   UNL     1       4.489  33.553   2.375  1.00  0.00     0.006 C 
BRANCH  20  21
ATOM     21  C   UNL     1       6.012  33.427   2.226  1.00  0.00     0.053 C 
BRANCH  21  22
ATOM     22  C   UNL     1       6.450  33.950   0.896  1.00  0.00     0.041 C 
ATOM     23  O   UNL     1       6.028  33.419  -0.165  1.00  0.00    -0.550 OA
ATOM     24  O   UNL     1       7.289  35.057   0.825  1.00  0.00    -0.550 OA
ENDBRANCH  21  22
ENDBRANCH  20  21
ENDBRANCH  19  20
ENDBRANCH  18  19
ENDBRANCH  17  18
ENDBRANCH  16  17
ENDBRANCH  15  16
ENDBRANCH  14  15
ENDBRANCH  13  14
ENDBRANCH   1  13
TORSDOF 20
ENDMDL
MODEL 4
REMARK VINA RESULT:    -3.542     10.076     13.370
REMARK INTER + INTRA:         -11.576
REMARK INTER:                  -7.545
REMARK INTRA:                  -4.030
REMARK UNBOUND:                -3.892
REMARK SMILES CCCCCCCCCCCCCCCCCCCCCC(=O)[O-]
REMARK SMILES IDX 12 1 11 2 10 3 9 4 8 5 7 6 6 7 5 8 4 9 3 10 2 11 1 12 13 13
REMARK SMILES IDX 14 14 15 15 16 16 17 17 18 18 19 19 20 20 21 21 22 22 23 23
REMARK SMILES IDX 24 24
REMARK H PARENT
REMARK Flexibility Score: inf
ROOT
ATOM      1  C   UNL     1       5.826  36.034  -6.546  1.00  0.00     0.000 C 
ENDROOT
BRANCH   1   2
ATOM      2  C   UNL     1       5.259  36.330  -5.149  1.00  0.00     0.000 C 
BRANCH   2   3
ATOM      3  C   UNL     1       5.244  37.835  -4.827  1.00  0.00     0.000 C 
BRANCH   3   4
ATOM      4  C   UNL     1       5.623  38.708  -6.037  1.00  0.00    -0.000 C 
BRANCH   4   5
ATOM      5  C   UNL     1       4.530  39.689  -6.503  1.00  0.00    -0.000 C 
BRANCH   5   6
ATOM      6  C   UNL     1       3.753  39.252  -7.761  1.00  0.00    -0.000 C 
BRANCH   6   7
ATOM      7  C   UNL     1       2.700  38.151  -7.523  1.00  0.00    -0.000 C 
BRANCH   7   8
ATOM      8  C   UNL     1       1.896  38.292  -6.214  1.00  0.00    -0.000 C 
BRANCH   8   9
ATOM      9  C   UNL     1       1.560  36.963  -5.507  1.00  0.00    -0.000 C 
BRANCH   9  10
ATOM     10  C   UNL     1       1.673  36.996  -3.972  1.00  0.00    -0.000 C 
BRANCH  10  11
ATOM     11  C   UNL     1       0.604  36.143  -3.276  1.00  0.00    -0.003 C 
ATOM     12  C   UNL     1       0.700  36.274  -1.759  1.00  0.00     0.004 C 
ENDBRANCH  10  11
ENDBRANCH   9  10
ENDBRANCH   8   9
ENDBRANCH   7   8
ENDBRANCH   6   7
ENDBRANCH   5   6
ENDBRANCH   4   5
ENDBRANCH   3   4
ENDBRANCH   2   3
ENDBRANCH   1   2
BRANCH   1  13
ATOM     13  C   UNL     1       6.824  34.863  -6.536  1.00  0.00     0.000 C 
BRANCH  13  14
ATOM     14  C   UNL     1       6.773  34.039  -5.238  1.00  0.00     0.000 C 
BRANCH  14  15
ATOM     15  C   UNL     1       6.498  32.535  -5.421  1.00  0.00     0.000 C 
BRANCH  15  16
ATOM     16  C   UNL     1       5.883  32.198  -6.790  1.00  0.00     0.000 C 
BRANCH  16  17
ATOM     17  C   UNL     1       4.478  31.583  -6.674  1.00  0.00     0.000 C 
BRANCH  17  18
ATOM     18  C   UNL     1       3.345  32.550  -7.083  1.00  0.00     0.000 C 
BRANCH  18  19
ATOM     19  C   UNL     1       3.072  33.611  -6.003  1.00  0.00     0.000 C 
BRANCH  19  20
ATOM     20  C   UNL     1       2.600  32.991  -4.676  1.00  0.00     0.006 C 
BRANCH  20  21
ATOM     21  C   UNL     1       3.398  33.509  -3.472  1.00  0.00     0.053 C 
BRANCH  21  22
ATOM     22  C   UNL     1       4.021  32.369  -2.730  1.00  0.00     0.041 C 
ATOM     23  O   UNL     1       4.573  32.564  -1.615  1.00  0.00    -0.550 OA
ATOM     24  O   UNL     1       3.951  31.081  -3.248  1.00  0.00    -0.550 OA
ENDBRANCH  21  22
ENDBRANCH  20  21
ENDBRANCH  19  20
ENDBRANCH  18  19
ENDBRANCH  17  18
ENDBRANCH  16  17
ENDBRANCH  15  16
ENDBRANCH  14  15
ENDBRANCH  13  14
ENDBRANCH   1  13
TORSDOF 20
ENDMDL
MODEL 5
REMARK VINA RESULT:    -3.529      1.284      5.114
REMARK INTER + INTRA:         -11.547
REMARK INTER:                  -8.357
REMARK INTRA:                  -3.190
REMARK UNBOUND:                -3.892
REMARK SMILES CCCCCCCCCCCCCCCCCCCCCC(=O)[O-]
REMARK SMILES IDX 12 1 11 2 10 3 9 4 8 5 7 6 6 7 5 8 4 9 3 10 2 11 1 12 13 13
REMARK SMILES IDX 14 14 15 15 16 16 17 17 18 18 19 19 20 20 21 21 22 22 23 23
REMARK SMILES IDX 24 24
REMARK H PARENT
REMARK Flexibility Score: inf
ROOT
ATOM      1  C   UNL     1       8.521  32.737   8.721  1.00  0.00     0.000 C 
ENDROOT
BRANCH   1   2
ATOM      2  C   UNL     1       7.106  32.712   8.122  1.00  0.00     0.000 C 
BRANCH   2   3
ATOM      3  C   UNL     1       6.930  33.736   6.986  1.00  0.00     0.000 C 
BRANCH   3   4
ATOM      4  C   UNL     1       5.830  34.773   7.282  1.00  0.00    -0.000 C 
BRANCH   4   5
ATOM      5  C   UNL     1       4.388  34.266   7.092  1.00  0.00    -0.000 C 
BRANCH   5   6
ATOM      6  C   UNL     1       3.942  34.098   5.625  1.00  0.00    -0.000 C 
BRANCH   6   7
ATOM      7  C   UNL     1       4.393  35.228   4.677  1.00  0.00    -0.000 C 
BRANCH   7   8
ATOM      8  C   UNL     1       5.434  34.811   3.618  1.00  0.00    -0.000 C 
BRANCH   8   9
ATOM      9  C   UNL     1       5.750  33.302   3.570  1.00  0.00    -0.000 C 
BRANCH   9  10
ATOM     10  C   UNL     1       6.332  32.802   2.235  1.00  0.00    -0.000 C 
BRANCH  10  11
ATOM     11  C   UNL     1       5.581  31.585   1.676  1.00  0.00    -0.003 C 
ATOM     12  C   UNL     1       5.225  30.603   2.788  1.00  0.00     0.004 C 
ENDBRANCH  10  11
ENDBRANCH   9  10
ENDBRANCH   8   9
ENDBRANCH   7   8
ENDBRANCH   6   7
ENDBRANCH   5   6
ENDBRANCH   4   5
ENDBRANCH   3   4
ENDBRANCH   2   3
ENDBRANCH   1   2
BRANCH   1  13
ATOM     13  C   UNL     1       9.378  33.879   8.149  1.00  0.00     0.000 C 
BRANCH  13  14
ATOM     14  C   UNL     1      10.696  33.389   7.523  1.00  0.00     0.000 C 
BRANCH  14  15
ATOM     15  C   UNL     1      10.975  31.881   7.669  1.00  0.00     0.000 C 
BRANCH  15  16
ATOM     16  C   UNL     1      10.724  31.094   6.373  1.00  0.00     0.000 C 
BRANCH  16  17
ATOM     17  C   UNL     1       9.754  29.916   6.573  1.00  0.00     0.000 C 
BRANCH  17  18
ATOM     18  C   UNL     1       8.449  30.047   5.757  1.00  0.00     0.000 C 
BRANCH  18  19
ATOM     19  C   UNL     1       8.642  30.898   4.490  1.00  0.00     0.000 C 
BRANCH  19  20
ATOM     20  C   UNL     1       8.903  30.041   3.239  1.00  0.00     0.006 C 
BRANCH  20  21
ATOM     21  C   UNL     1       8.398  28.601   3.401  1.00  0.00     0.053 C 
BRANCH  21  22
ATOM     22  C   UNL     1       8.892  27.747   2.277  1.00  0.00     0.041 C 
ATOM     23  O   UNL     1       9.678  28.225   1.416  1.00  0.00    -0.550 OA
ATOM     24  O   UNL     1       8.522  26.409   2.205  1.00  0.00    -0.550 OA
ENDBRANCH  21  22
ENDBRANCH  20  21
ENDBRANCH  19  20
ENDBRANCH  18  19
ENDBRANCH  17  18
ENDBRANCH  16  17
ENDBRANCH  15  16
ENDBRANCH  14  15
ENDBRANCH  13  14
ENDBRANCH   1  13
TORSDOF 20
ENDMDL
MODEL 6
REMARK VINA RESULT:    -3.522      1.501      5.109
REMARK INTER + INTRA:         -11.532
REMARK INTER:                  -7.795
REMARK INTRA:                  -3.737
REMARK UNBOUND:                -3.892
REMARK SMILES CCCCCCCCCCCCCCCCCCCCCC(=O)[O-]
REMARK SMILES IDX 12 1 11 2 10 3 9 4 8 5 7 6 6 7 5 8 4 9 3 10 2 11 1 12 13 13
REMARK SMILES IDX 14 14 15 15 16 16 17 17 18 18 19 19 20 20 21 21 22 22 23 23
REMARK SMILES IDX 24 24
REMARK H PARENT
REMARK Flexibility Score: inf
ROOT
ATOM      1  C   UNL     1      10.989  32.436   9.967  1.00  0.00     0.000 C 
ENDROOT
BRANCH   1   2
ATOM      2  C   UNL     1      11.682  32.543   8.599  1.00  0.00     0.000 C 
BRANCH   2   3
ATOM      3  C   UNL     1      10.921  33.458   7.624  1.00  0.00     0.000 C 
BRANCH   3   4
ATOM      4  C   UNL     1       9.696  34.132   8.270  1.00  0.00    -0.000 C 
BRANCH   4   5
ATOM      5  C   UNL     1       8.338  33.750   7.649  1.00  0.00    -0.000 C 
BRANCH   5   6
ATOM      6  C   UNL     1       7.132  33.849   8.604  1.00  0.00    -0.000 C 
BRANCH   6   7
ATOM      7  C   UNL     1       6.172  35.022   8.317  1.00  0.00    -0.000 C 
BRANCH   7   8
ATOM      8  C   UNL     1       5.002  34.688   7.370  1.00  0.00    -0.000 C 
BRANCH   8   9
ATOM      9  C   UNL     1       5.262  34.987   5.879  1.00  0.00    -0.000 C 
BRANCH   9  10
ATOM     10  C   UNL     1       4.791  33.892   4.905  1.00  0.00    -0.000 C 
BRANCH  10  11
ATOM     11  C   UNL     1       5.888  32.867   4.585  1.00  0.00    -0.003 C 
ATOM     12  C   UNL     1       5.665  31.567   5.351  1.00  0.00     0.004 C 
ENDBRANCH  10  11
ENDBRANCH   9  10
ENDBRANCH   8   9
ENDBRANCH   7   8
ENDBRANCH   6   7
ENDBRANCH   5   6
ENDBRANCH   4   5
ENDBRANCH   3   4
ENDBRANCH   2   3
ENDBRANCH   1   2
BRANCH   1  13
ATOM     13  C   UNL     1      10.375  31.045  10.203  1.00  0.00     0.000 C 
BRANCH  13  14
ATOM     14  C   UNL     1       8.859  31.002   9.939  1.00  0.00     0.000 C 
BRANCH  14  15
ATOM     15  C   UNL     1       8.418  30.091   8.778  1.00  0.00     0.000 C 
BRANCH  15  16
ATOM     16  C   UNL     1       9.557  29.211   8.237  1.00  0.00     0.000 C 
BRANCH  16  17
ATOM     17  C   UNL     1      10.107  29.713   6.890  1.00  0.00     0.000 C 
BRANCH  17  18
ATOM     18  C   UNL     1       9.106  30.586   6.103  1.00  0.00     0.000 C 
BRANCH  18  19
ATOM     19  C   UNL     1       9.770  31.292   4.908  1.00  0.00     0.000 C 
BRANCH  19  20
ATOM     20  C   UNL     1       9.012  31.058   3.590  1.00  0.00     0.006 C 
BRANCH  20  21
ATOM     21  C   UNL     1       8.911  29.570   3.229  1.00  0.00     0.053 C 
BRANCH  21  22
ATOM     22  C   UNL     1       7.490  29.198   2.946  1.00  0.00     0.041 C 
ATOM     23  O   UNL     1       7.013  28.126   3.403  1.00  0.00    -0.550 OA
ATOM     24  O   UNL     1       6.676  30.060   2.219  1.00  0.00    -0.550 OA
ENDBRANCH  21  22
ENDBRANCH  20  21
ENDBRANCH  19  20
ENDBRANCH  18  19
ENDBRANCH  17  18
ENDBRANCH  16  17
ENDBRANCH  15  16
ENDBRANCH  14  15
ENDBRANCH  13  14
ENDBRANCH   1  13
TORSDOF 20
ENDMDL
MODEL 7
REMARK VINA RESULT:    -3.457      1.270      4.939
REMARK INTER + INTRA:         -11.391
REMARK INTER:                  -7.830
REMARK INTRA:                  -3.561
REMARK UNBOUND:                -3.892
REMARK SMILES CCCCCCCCCCCCCCCCCCCCCC(=O)[O-]
REMARK SMILES IDX 12 1 11 2 10 3 9 4 8 5 7 6 6 7 5 8 4 9 3 10 2 11 1 12 13 13
REMARK SMILES IDX 14 14 15 15 16 16 17 17 18 18 19 19 20 20 21 21 22 22 23 23
REMARK SMILES IDX 24 24
REMARK H PARENT
REMARK Flexibility Score: inf
ROOT
ATOM      1  C   UNL     1      10.433  31.938   6.278  1.00  0.00     0.000 C 
ENDROOT
BRANCH   1   2
ATOM      2  C   UNL     1      11.041  32.692   7.472  1.00  0.00     0.000 C 
BRANCH   2   3
ATOM      3  C   UNL     1      10.135  33.831   7.971  1.00  0.00     0.000 C 
BRANCH   3   4
ATOM      4  C   UNL     1       8.651  33.611   7.621  1.00  0.00    -0.000 C 
BRANCH   4   5
ATOM      5  C   UNL     1       7.647  34.265   8.590  1.00  0.00    -0.000 C 
BRANCH   5   6
ATOM      6  C   UNL     1       6.180  34.250   8.119  1.00  0.00    -0.000 C 
BRANCH   6   7
ATOM      7  C   UNL     1       5.989  34.293   6.589  1.00  0.00    -0.000 C 
BRANCH   7   8
ATOM      8  C   UNL     1       4.546  34.571   6.121  1.00  0.00    -0.000 C 
BRANCH   8   9
ATOM      9  C   UNL     1       4.420  35.150   4.697  1.00  0.00    -0.000 C 
BRANCH   9  10
ATOM     10  C   UNL     1       5.600  34.832   3.760  1.00  0.00    -0.000 C 
BRANCH  10  11
ATOM     11  C   UNL     1       5.173  34.059   2.505  1.00  0.00    -0.003 C 
ATOM     12  C   UNL     1       3.737  33.559   2.631  1.00  0.00     0.004 C 
ENDBRANCH  10  11
ENDBRANCH   9  10
ENDBRANCH   8   9
ENDBRANCH   7   8
ENDBRANCH   6   7
ENDBRANCH   5   6
ENDBRANCH   4   5
ENDBRANCH   3   4
ENDBRANCH   2   3
ENDBRANCH   1   2
BRANCH   1  13
ATOM     13  C   UNL     1      10.426  30.414   6.492  1.00  0.00     0.000 C 
BRANCH  13  14
ATOM     14  C   UNL     1       9.554  29.977   7.683  1.00  0.00     0.000 C 
BRANCH  14  15
ATOM     15  C   UNL     1       8.176  29.396   7.314  1.00  0.00     0.000 C 
BRANCH  15  16
ATOM     16  C   UNL     1       7.081  30.470   7.203  1.00  0.00     0.000 C 
BRANCH  16  17
ATOM     17  C   UNL     1       5.968  30.083   6.213  1.00  0.00     0.000 C 
BRANCH  17  18
ATOM     18  C   UNL     1       5.851  31.044   5.011  1.00  0.00     0.000 C 
BRANCH  18  19
ATOM     19  C   UNL     1       7.228  31.478   4.480  1.00  0.00     0.000 C 
BRANCH  19  20
ATOM     20  C   UNL     1       7.635  30.716   3.207  1.00  0.00     0.006 C 
BRANCH  20  21
ATOM     21  C   UNL     1       8.504  29.487   3.513  1.00  0.00     0.053 C 
BRANCH  21  22
ATOM     22  C   UNL     1       8.490  28.540   2.356  1.00  0.00     0.041 C 
ATOM     23  O   UNL     1       9.500  28.437   1.609  1.00  0.00    -0.550 OA
ATOM     24  O   UNL     1       7.381  27.733   2.129  1.00  0.00    -0.550 OA
ENDBRANCH  21  22
ENDBRANCH  20  21
ENDBRANCH  19  20
ENDBRANCH  18  19
ENDBRANCH  17  18
ENDBRANCH  16  17
ENDBRANCH  15  16
ENDBRANCH  14  15
ENDBRANCH  13  14
ENDBRANCH   1  13
TORSDOF 20
ENDMDL
MODEL 8
REMARK VINA RESULT:    -3.451      2.343      4.716
REMARK INTER + INTRA:         -11.379
REMARK INTER:                  -7.733
REMARK INTRA:                  -3.646
REMARK UNBOUND:                -3.892
REMARK SMILES CCCCCCCCCCCCCCCCCCCCCC(=O)[O-]
REMARK SMILES IDX 12 1 11 2 10 3 9 4 8 5 7 6 6 7 5 8 4 9 3 10 2 11 1 12 13 13
REMARK SMILES IDX 14 14 15 15 16 16 17 17 18 18 19 19 20 20 21 21 22 22 23 23
REMARK SMILES IDX 24 24
REMARK H PARENT
REMARK Flexibility Score: inf
ROOT
ATOM      1  C   UNL     1       9.385  29.253   8.418  1.00  0.00     0.000 C 
ENDROOT
BRANCH   1   2
ATOM      2  C   UNL     1       9.053  30.329   9.463  1.00  0.00     0.000 C 
BRANCH   2   3
ATOM      3  C   UNL     1      10.253  30.659  10.369  1.00  0.00     0.000 C 
BRANCH   3   4
ATOM      4  C   UNL     1      10.637  32.150  10.332  1.00  0.00    -0.000 C 
BRANCH   4   5
ATOM      5  C   UNL     1      11.647  32.537   9.234  1.00  0.00    -0.000 C 
BRANCH   5   6
ATOM      6  C   UNL     1      11.056  33.326   8.050  1.00  0.00    -0.000 C 
BRANCH   6   7
ATOM      7  C   UNL     1       9.692  33.988   8.328  1.00  0.00    -0.000 C 
BRANCH   7   8
ATOM      8  C   UNL     1       8.550  33.543   7.392  1.00  0.00    -0.000 C 
BRANCH   8   9
ATOM      9  C   UNL     1       7.320  32.940   8.101  1.00  0.00    -0.000 C 
BRANCH   9  10
ATOM     10  C   UNL     1       6.801  33.751   9.302  1.00  0.00    -0.000 C 
BRANCH  10  11
ATOM     11  C   UNL     1       6.000  34.992   8.883  1.00  0.00    -0.003 C 
ATOM     12  C   UNL     1       4.923  34.631   7.865  1.00  0.00     0.004 C 
ENDBRANCH  10  11
ENDBRANCH   9  10
ENDBRANCH   8   9
ENDBRANCH   7   8
ENDBRANCH   6   7
ENDBRANCH   5   6
ENDBRANCH   4   5
ENDBRANCH   3   4
ENDBRANCH   2   3
ENDBRANCH   1   2
BRANCH   1  13
ATOM     13  C   UNL     1       9.023  29.694   6.989  1.00  0.00     0.000 C 
BRANCH  13  14
ATOM     14  C   UNL     1      10.200  30.348   6.243  1.00  0.00     0.000 C 
BRANCH  14  15
ATOM     15  C   UNL     1       9.817  31.178   5.004  1.00  0.00     0.000 C 
BRANCH  15  16
ATOM     16  C   UNL     1       8.865  30.435   4.052  1.00  0.00     0.000 C 
BRANCH  16  17
ATOM     17  C   UNL     1       7.666  31.296   3.621  1.00  0.00     0.000 C 
BRANCH  17  18
ATOM     18  C   UNL     1       6.307  30.751   4.112  1.00  0.00     0.000 C 
BRANCH  18  19
ATOM     19  C   UNL     1       5.361  31.876   4.566  1.00  0.00     0.000 C 
BRANCH  19  20
ATOM     20  C   UNL     1       6.067  33.241   4.648  1.00  0.00     0.006 C 
BRANCH  20  21
ATOM     21  C   UNL     1       5.306  34.340   3.895  1.00  0.00     0.053 C 
BRANCH  21  22
ATOM     22  C   UNL     1       5.239  34.020   2.435  1.00  0.00     0.041 C 
ATOM     23  O   UNL     1       4.126  33.819   1.881  1.00  0.00    -0.550 OA
ATOM     24  O   UNL     1       6.403  33.991   1.675  1.00  0.00    -0.550 OA
ENDBRANCH  21  22
ENDBRANCH  20  21
ENDBRANCH  19  20
ENDBRANCH  18  19
ENDBRANCH  17  18
ENDBRANCH  16  17
ENDBRANCH  15  16
ENDBRANCH  14  15
ENDBRANCH  13  14
ENDBRANCH   1  13
TORSDOF 20
ENDMDL
MODEL 9
REMARK VINA RESULT:    -3.446     11.434     14.242
REMARK INTER + INTRA:         -11.368
REMARK INTER:                  -7.307
REMARK INTRA:                  -4.061
REMARK UNBOUND:                -3.892
REMARK SMILES CCCCCCCCCCCCCCCCCCCCCC(=O)[O-]
REMARK SMILES IDX 12 1 11 2 10 3 9 4 8 5 7 6 6 7 5 8 4 9 3 10 2 11 1 12 13 13
REMARK SMILES IDX 14 14 15 15 16 16 17 17 18 18 19 19 20 20 21 21 22 22 23 23
REMARK SMILES IDX 24 24
REMARK H PARENT
REMARK Flexibility Score: inf
ROOT
ATOM      1  C   UNL     1       5.867  35.916  -6.584  1.00  0.00     0.000 C 
ENDROOT
BRANCH   1   2
ATOM      2  C   UNL     1       6.844  34.812  -6.148  1.00  0.00     0.000 C 
BRANCH   2   3
ATOM      3  C   UNL     1       7.098  33.779  -7.260  1.00  0.00     0.000 C 
BRANCH   3   4
ATOM      4  C   UNL     1       6.062  33.858  -8.397  1.00  0.00    -0.000 C 
BRANCH   4   5
ATOM      5  C   UNL     1       4.999  32.742  -8.391  1.00  0.00    -0.000 C 
BRANCH   5   6
ATOM      6  C   UNL     1       3.543  33.225  -8.542  1.00  0.00    -0.000 C 
BRANCH   6   7
ATOM      7  C   UNL     1       2.934  33.855  -7.273  1.00  0.00    -0.000 C 
BRANCH   7   8
ATOM      8  C   UNL     1       2.841  32.911  -6.057  1.00  0.00    -0.000 C 
BRANCH   8   9
ATOM      9  C   UNL     1       3.618  33.376  -4.808  1.00  0.00    -0.000 C 
BRANCH   9  10
ATOM     10  C   UNL     1       4.333  32.254  -4.033  1.00  0.00    -0.000 C 
BRANCH  10  11
ATOM     11  C   UNL     1       5.571  31.718  -4.766  1.00  0.00    -0.003 C 
ATOM     12  C   UNL     1       5.333  30.302  -5.280  1.00  0.00     0.004 C 
ENDBRANCH  10  11
ENDBRANCH   9  10
ENDBRANCH   8   9
ENDBRANCH   7   8
ENDBRANCH   6   7
ENDBRANCH   5   6
ENDBRANCH   4   5
ENDBRANCH   3   4
ENDBRANCH   2   3
ENDBRANCH   1   2
BRANCH   1  13
ATOM     13  C   UNL     1       5.252  36.659  -5.385  1.00  0.00     0.000 C 
BRANCH  13  14
ATOM     14  C   UNL     1       5.587  38.161  -5.371  1.00  0.00     0.000 C 
BRANCH  14  15
ATOM     15  C   UNL     1       6.192  38.715  -6.674  1.00  0.00     0.000 C 
BRANCH  15  16
ATOM     16  C   UNL     1       5.344  39.831  -7.305  1.00  0.00     0.000 C 
BRANCH  16  17
ATOM     17  C   UNL     1       3.835  39.538  -7.240  1.00  0.00     0.000 C 
BRANCH  17  18
ATOM     18  C   UNL     1       3.345  38.581  -8.349  1.00  0.00     0.000 C 
BRANCH  18  19
ATOM     19  C   UNL     1       2.463  37.451  -7.790  1.00  0.00     0.000 C 
BRANCH  19  20
ATOM     20  C   UNL     1       1.593  37.913  -6.609  1.00  0.00     0.006 C 
BRANCH  20  21
ATOM     21  C   UNL     1       1.368  36.800  -5.577  1.00  0.00     0.053 C 
BRANCH  21  22
ATOM     22  C   UNL     1       1.767  37.267  -4.213  1.00  0.00     0.041 C 
ATOM     23  O   UNL     1       1.507  36.563  -3.201  1.00  0.00    -0.550 OA
ATOM     24  O   UNL     1       2.470  38.457  -4.062  1.00  0.00    -0.550 OA
ENDBRANCH  21  22
ENDBRANCH  20  21
ENDBRANCH  19  20
ENDBRANCH  18  19
ENDBRANCH  17  18
ENDBRANCH  16  17
ENDBRANCH  15  16
ENDBRANCH  14  15
ENDBRANCH  13  14
ENDBRANCH   1  13
TORSDOF 20
ENDMDL
