MODEL 1
REMARK VINA RESULT:    -7.032      0.000      0.000
REMARK INTER + INTRA:         -11.405
REMARK INTER:                  -9.909
REMARK INTRA:                  -1.496
REMARK UNBOUND:                -1.496
REMARK SMILES COc1c(O[C@H]2O[C@H](C(=O)[O-])[C@@H](O)[C@H](O)[C@H]2O)cc(O)c2c(=O)cc(-c3ccccc3)oc12
REMARK SMILES IDX 5 1 6 2 8 3 12 4 7 5 14 6 16 7 9 8 10 9 11 10 13 11 15 13
REMARK SMILES IDX 17 15 4 17 3 18 18 19 33 20 19 21 21 22 32 23 22 24 25 25
REMARK SMILES IDX 24 26 23 27 2 28 1 29 20 30 26 32 27 33 31 34 28 35 30 36
REMARK SMILES IDX 29 37
REMARK H PARENT 13 12 15 14 17 16 20 31
REMARK Flexibility Score: inf
ROOT
ATOM      1  O   UNL     1      -3.113   1.416 -25.290  1.00  0.00    -0.458 OA
ENDROOT
BRANCH   1   2
ATOM      2  C   UNL     1      -3.336   2.582 -26.104  1.00  0.00     0.339 C 
ATOM      3  C   UNL     1      -1.227   2.424 -27.145  1.00  0.00     0.199 C 
ATOM      4  C   UNL     1      -1.831   2.058 -28.517  1.00  0.00     0.180 C 
ATOM      5  O   UNL     1      -2.110   3.237 -26.390  1.00  0.00    -0.328 OA
ATOM      6  C   UNL     1      -3.196   1.374 -28.315  1.00  0.00     0.181 C 
ATOM      7  C   UNL     1      -4.090   2.232 -27.407  1.00  0.00     0.214 C 
BRANCH   3   8
ATOM      8  C   UNL     1       0.054   3.180 -27.340  1.00  0.00     0.073 C 
ATOM      9  O   UNL     1       0.883   3.281 -26.397  1.00  0.00    -0.547 OA
ATOM     10  O   UNL     1       0.348   3.751 -28.573  1.00  0.00    -0.547 OA
ENDBRANCH   3   8
BRANCH   4  11
ATOM     11  O   UNL     1      -0.960   1.189 -29.196  1.00  0.00    -0.387 OA
ATOM     12  H   UNL     1      -1.405   0.302 -29.224  1.00  0.00     0.211 HD
ENDBRANCH   4  11
BRANCH   6  13
ATOM     13  O   UNL     1      -3.825   1.130 -29.548  1.00  0.00    -0.387 OA
ATOM     14  H   UNL     1      -3.651   0.185 -29.796  1.00  0.00     0.211 HD
ENDBRANCH   6  13
BRANCH   7  15
ATOM     15  O   UNL     1      -5.275   1.537 -27.125  1.00  0.00    -0.384 OA
ATOM     16  H   UNL     1      -5.705   2.001 -26.359  1.00  0.00     0.211 HD
ENDBRANCH   7  15
ENDBRANCH   1   2
BRANCH   1  17
ATOM     17  C   UNL     1      -3.219   1.338 -23.885  1.00  0.00     0.172 A 
ATOM     18  C   UNL     1      -2.078   1.588 -23.097  1.00  0.00     0.205 A 
ATOM     19  C   UNL     1      -4.440   1.071 -23.239  1.00  0.00     0.097 A 
ATOM     20  C   UNL     1      -2.176   1.614 -21.699  1.00  0.00     0.188 A 
ATOM     21  C   UNL     1      -4.557   1.103 -21.846  1.00  0.00     0.134 A 
ATOM     22  C   UNL     1      -3.406   1.346 -21.048  1.00  0.00     0.111 A 
ATOM     23  O   UNL     1      -1.079   1.876 -20.994  1.00  0.00    -0.452 OA
ATOM     24  C   UNL     1      -3.385   1.296 -19.633  1.00  0.00     0.197 A 
ATOM     25  C   UNL     1      -1.045   1.893 -19.666  1.00  0.00     0.138 A 
ATOM     26  C   UNL     1      -2.206   1.588 -18.946  1.00  0.00     0.100 A 
ATOM     27  O   UNL     1      -4.394   0.961 -18.962  1.00  0.00    -0.289 OA
BRANCH  18  28
ATOM     28  O   UNL     1      -0.815   1.820 -23.662  1.00  0.00    -0.490 OA
ATOM     29  C   UNL     1       0.080   0.782 -24.045  1.00  0.00     0.278 C 
ENDBRANCH  18  28
BRANCH  21  30
ATOM     30  O   UNL     1      -5.842   0.921 -21.325  1.00  0.00    -0.507 OA
ATOM     31  H   UNL     1      -6.055   0.800 -20.346  1.00  0.00     0.293 HD
ENDBRANCH  21  30
BRANCH  25  32
ATOM     32  C   UNL     1       0.239   2.208 -18.989  1.00  0.00     0.017 A 
ATOM     33  C   UNL     1       0.662   3.547 -18.895  1.00  0.00     0.012 A 
ATOM     34  C   UNL     1       1.035   1.201 -18.406  1.00  0.00     0.012 A 
ATOM     35  C   UNL     1       1.862   3.869 -18.254  1.00  0.00     0.001 A 
ATOM     36  C   UNL     1       2.234   1.529 -17.766  1.00  0.00     0.001 A 
ATOM     37  C   UNL     1       2.649   2.861 -17.693  1.00  0.00     0.000 A 
ENDBRANCH  25  32
ENDBRANCH   1  17
TORSDOF 9
ENDMDL
MODEL 2
REMARK VINA RESULT:    -6.933      2.942      5.299
REMARK INTER + INTRA:         -11.266
REMARK INTER:                  -9.839
REMARK INTRA:                  -1.427
REMARK UNBOUND:                -1.496
REMARK SMILES COc1c(O[C@H]2O[C@H](C(=O)[O-])[C@@H](O)[C@H](O)[C@H]2O)cc(O)c2c(=O)cc(-c3ccccc3)oc12
REMARK SMILES IDX 5 1 6 2 8 3 12 4 7 5 14 6 16 7 9 8 10 9 11 10 13 11 15 13
REMARK SMILES IDX 17 15 4 17 3 18 18 19 33 20 19 21 21 22 32 23 22 24 25 25
REMARK SMILES IDX 24 26 23 27 2 28 1 29 20 30 26 32 27 33 31 34 28 35 30 36
REMARK SMILES IDX 29 37
REMARK H PARENT 13 12 15 14 17 16 20 31
REMARK Flexibility Score: inf
ROOT
ATOM      1  O   UNL     1       0.451   4.694 -26.372  1.00  0.00    -0.458 OA
ENDROOT
BRANCH   1   2
ATOM      2  C   UNL     1       1.031   3.976 -27.476  1.00  0.00     0.339 C 
ATOM      3  C   UNL     1      -0.407   2.127 -27.204  1.00  0.00     0.199 C 
ATOM      4  C   UNL     1      -1.157   2.402 -28.524  1.00  0.00     0.180 C 
ATOM      5  O   UNL     1       0.938   2.574 -27.269  1.00  0.00    -0.328 OA
ATOM      6  C   UNL     1      -1.077   3.902 -28.862  1.00  0.00     0.181 C 
ATOM      7  C   UNL     1       0.384   4.377 -28.820  1.00  0.00     0.214 C 
BRANCH   3   8
ATOM      8  C   UNL     1      -0.396   0.653 -26.924  1.00  0.00     0.073 C 
ATOM      9  O   UNL     1      -0.769  -0.164 -27.807  1.00  0.00    -0.547 OA
ATOM     10  O   UNL     1       0.055   0.177 -25.698  1.00  0.00    -0.547 OA
ENDBRANCH   3   8
BRANCH   4  11
ATOM     11  O   UNL     1      -2.502   2.017 -28.388  1.00  0.00    -0.387 OA
ATOM     12  H   UNL     1      -2.539   1.362 -27.644  1.00  0.00     0.211 HD
ENDBRANCH   4  11
BRANCH   6  13
ATOM     13  O   UNL     1      -1.653   4.168 -30.116  1.00  0.00    -0.387 OA
ATOM     14  H   UNL     1      -2.629   4.005 -30.043  1.00  0.00     0.211 HD
ENDBRANCH   6  13
BRANCH   7  15
ATOM     15  O   UNL     1       0.429   5.768 -28.998  1.00  0.00    -0.384 OA
ATOM     16  H   UNL     1       1.243   5.963 -29.532  1.00  0.00     0.211 HD
ENDBRANCH   7  15
ENDBRANCH   1   2
BRANCH   1  17
ATOM     17  C   UNL     1       1.105   5.081 -25.183  1.00  0.00     0.172 A 
ATOM     18  C   UNL     1       0.905   4.321 -24.013  1.00  0.00     0.205 A 
ATOM     19  C   UNL     1       1.993   6.170 -25.137  1.00  0.00     0.097 A 
ATOM     20  C   UNL     1       1.617   4.624 -22.844  1.00  0.00     0.188 A 
ATOM     21  C   UNL     1       2.719   6.478 -23.982  1.00  0.00     0.134 A 
ATOM     22  C   UNL     1       2.514   5.721 -22.798  1.00  0.00     0.111 A 
ATOM     23  O   UNL     1       1.416   3.868 -21.769  1.00  0.00    -0.452 OA
ATOM     24  C   UNL     1       3.111   6.008 -21.546  1.00  0.00     0.197 A 
ATOM     25  C   UNL     1       2.008   4.080 -20.598  1.00  0.00     0.138 A 
ATOM     26  C   UNL     1       2.869   5.174 -20.454  1.00  0.00     0.100 A 
ATOM     27  O   UNL     1       3.836   7.021 -21.370  1.00  0.00    -0.289 OA
BRANCH  18  28
ATOM     28  O   UNL     1       0.005   3.247 -23.963  1.00  0.00    -0.490 OA
ATOM     29  C   UNL     1      -1.409   3.404 -23.958  1.00  0.00     0.278 C 
ENDBRANCH  18  28
BRANCH  21  30
ATOM     30  O   UNL     1       3.646   7.522 -24.089  1.00  0.00    -0.507 OA
ATOM     31  H   UNL     1       4.621   7.404 -24.319  1.00  0.00     0.293 HD
ENDBRANCH  21  30
BRANCH  25  32
ATOM     32  C   UNL     1       1.710   3.161 -19.470  1.00  0.00     0.017 A 
ATOM     33  C   UNL     1       0.510   2.426 -19.474  1.00  0.00     0.012 A 
ATOM     34  C   UNL     1       2.615   2.979 -18.405  1.00  0.00     0.012 A 
ATOM     35  C   UNL     1       0.212   1.549 -18.428  1.00  0.00     0.001 A 
ATOM     36  C   UNL     1       2.312   2.099 -17.361  1.00  0.00     0.001 A 
ATOM     37  C   UNL     1       1.110   1.387 -17.371  1.00  0.00     0.000 A 
ENDBRANCH  25  32
ENDBRANCH   1  17
TORSDOF 9
ENDMDL
MODEL 3
REMARK VINA RESULT:    -6.840      2.081      4.822
REMARK INTER + INTRA:         -11.135
REMARK INTER:                  -9.691
REMARK INTRA:                  -1.444
REMARK UNBOUND:                -1.496
REMARK SMILES COc1c(O[C@H]2O[C@H](C(=O)[O-])[C@@H](O)[C@H](O)[C@H]2O)cc(O)c2c(=O)cc(-c3ccccc3)oc12
REMARK SMILES IDX 5 1 6 2 8 3 12 4 7 5 14 6 16 7 9 8 10 9 11 10 13 11 15 13
REMARK SMILES IDX 17 15 4 17 3 18 18 19 33 20 19 21 21 22 32 23 22 24 25 25
REMARK SMILES IDX 24 26 23 27 2 28 1 29 20 30 26 32 27 33 31 34 28 35 30 36
REMARK SMILES IDX 29 37
REMARK H PARENT 13 12 15 14 17 16 20 31
REMARK Flexibility Score: inf
ROOT
ATOM      1  O   UNL     1      -2.276   2.433 -26.424  1.00  0.00    -0.458 OA
ENDROOT
BRANCH   1   2
ATOM      2  C   UNL     1      -2.344   1.146 -27.063  1.00  0.00     0.339 C 
ATOM      3  C   UNL     1      -4.370   0.576 -26.000  1.00  0.00     0.199 C 
ATOM      4  C   UNL     1      -5.179   0.630 -27.313  1.00  0.00     0.180 C 
ATOM      5  O   UNL     1      -3.020   0.210 -26.237  1.00  0.00    -0.328 OA
ATOM      6  C   UNL     1      -4.497   1.595 -28.301  1.00  0.00     0.181 C 
ATOM      7  C   UNL     1      -3.011   1.234 -28.454  1.00  0.00     0.214 C 
BRANCH   3   8
ATOM      8  C   UNL     1      -4.974  -0.439 -25.074  1.00  0.00     0.073 C 
ATOM      9  O   UNL     1      -6.021  -1.056 -25.405  1.00  0.00    -0.547 OA
ATOM     10  O   UNL     1      -4.365  -0.725 -23.858  1.00  0.00    -0.547 OA
ENDBRANCH   3   8
BRANCH   4  11
ATOM     11  O   UNL     1      -6.485   1.073 -27.042  1.00  0.00    -0.387 OA
ATOM     12  H   UNL     1      -6.575   1.110 -26.054  1.00  0.00     0.211 HD
ENDBRANCH   4  11
BRANCH   6  13
ATOM     13  O   UNL     1      -5.145   1.581 -29.549  1.00  0.00    -0.387 OA
ATOM     14  H   UNL     1      -4.479   1.312 -30.233  1.00  0.00     0.211 HD
ENDBRANCH   6  13
BRANCH   7  15
ATOM     15  O   UNL     1      -2.375   2.199 -29.250  1.00  0.00    -0.384 OA
ATOM     16  H   UNL     1      -2.296   1.812 -30.162  1.00  0.00     0.211 HD
ENDBRANCH   7  15
ENDBRANCH   1   2
BRANCH   1  17
ATOM     17  C   UNL     1      -1.190   2.950 -25.685  1.00  0.00     0.172 A 
ATOM     18  C   UNL     1      -1.077   2.629 -24.318  1.00  0.00     0.205 A 
ATOM     19  C   UNL     1      -0.183   3.732 -26.280  1.00  0.00     0.097 A 
ATOM     20  C   UNL     1       0.042   3.046 -23.585  1.00  0.00     0.188 A 
ATOM     21  C   UNL     1       0.944   4.146 -25.565  1.00  0.00     0.134 A 
ATOM     22  C   UNL     1       1.057   3.833 -24.184  1.00  0.00     0.111 A 
ATOM     23  O   UNL     1       0.120   2.702 -22.302  1.00  0.00    -0.452 OA
ATOM     24  C   UNL     1       2.097   4.290 -23.339  1.00  0.00     0.197 A 
ATOM     25  C   UNL     1       1.115   3.069 -21.501  1.00  0.00     0.138 A 
ATOM     26  C   UNL     1       2.132   3.891 -22.003  1.00  0.00     0.100 A 
ATOM     27  O   UNL     1       2.987   5.082 -23.744  1.00  0.00    -0.289 OA
BRANCH  18  28
ATOM     28  O   UNL     1      -2.058   1.890 -23.639  1.00  0.00    -0.490 OA
ATOM     29  C   UNL     1      -3.204   2.474 -23.032  1.00  0.00     0.278 C 
ENDBRANCH  18  28
BRANCH  21  30
ATOM     30  O   UNL     1       1.924   4.834 -26.291  1.00  0.00    -0.507 OA
ATOM     31  H   UNL     1       1.750   5.373 -27.126  1.00  0.00     0.293 HD
ENDBRANCH  21  30
BRANCH  25  32
ATOM     32  C   UNL     1       1.098   2.615 -20.087  1.00  0.00     0.017 A 
ATOM     33  C   UNL     1       1.115   1.238 -19.801  1.00  0.00     0.012 A 
ATOM     34  C   UNL     1       1.096   3.532 -19.015  1.00  0.00     0.012 A 
ATOM     35  C   UNL     1       1.108   0.787 -18.478  1.00  0.00     0.001 A 
ATOM     36  C   UNL     1       1.090   3.075 -17.694  1.00  0.00     0.001 A 
ATOM     37  C   UNL     1       1.092   1.704 -17.425  1.00  0.00     0.000 A 
ENDBRANCH  25  32
ENDBRANCH   1  17
TORSDOF 9
ENDMDL
MODEL 4
REMARK VINA RESULT:    -6.791      1.143      1.871
REMARK INTER + INTRA:         -11.066
REMARK INTER:                 -10.144
REMARK INTRA:                  -0.922
REMARK UNBOUND:                -1.496
REMARK SMILES COc1c(O[C@H]2O[C@H](C(=O)[O-])[C@@H](O)[C@H](O)[C@H]2O)cc(O)c2c(=O)cc(-c3ccccc3)oc12
REMARK SMILES IDX 5 1 6 2 8 3 12 4 7 5 14 6 16 7 9 8 10 9 11 10 13 11 15 13
REMARK SMILES IDX 17 15 4 17 3 18 18 19 33 20 19 21 21 22 32 23 22 24 25 25
REMARK SMILES IDX 24 26 23 27 2 28 1 29 20 30 26 32 27 33 31 34 28 35 30 36
REMARK SMILES IDX 29 37
REMARK H PARENT 13 12 15 14 17 16 20 31
REMARK Flexibility Score: inf
ROOT
ATOM      1  O   UNL     1      -2.994   0.061 -25.111  1.00  0.00    -0.458 OA
ENDROOT
BRANCH   1   2
ATOM      2  C   UNL     1      -3.469   0.873 -26.199  1.00  0.00     0.339 C 
ATOM      3  C   UNL     1      -2.119   2.709 -25.597  1.00  0.00     0.199 C 
ATOM      4  C   UNL     1      -1.223   2.575 -26.846  1.00  0.00     0.180 C 
ATOM      5  O   UNL     1      -3.436   2.249 -25.852  1.00  0.00    -0.328 OA
ATOM      6  C   UNL     1      -1.227   1.113 -27.331  1.00  0.00     0.181 C 
ATOM      7  C   UNL     1      -2.671   0.613 -27.496  1.00  0.00     0.214 C 
BRANCH   3   8
ATOM      8  C   UNL     1      -2.198   4.148 -25.182  1.00  0.00     0.073 C 
ATOM      9  O   UNL     1      -3.317   4.716 -25.069  1.00  0.00    -0.547 OA
ATOM     10  O   UNL     1      -1.039   4.857 -24.891  1.00  0.00    -0.547 OA
ENDBRANCH   3   8
BRANCH   4  11
ATOM     11  O   UNL     1       0.089   2.965 -26.527  1.00  0.00    -0.387 OA
ATOM     12  H   UNL     1       0.021   3.830 -26.044  1.00  0.00     0.211 HD
ENDBRANCH   4  11
BRANCH   6  13
ATOM     13  O   UNL     1      -0.512   0.978 -28.534  1.00  0.00    -0.387 OA
ATOM     14  H   UNL     1      -1.133   0.615 -29.217  1.00  0.00     0.211 HD
ENDBRANCH   6  13
BRANCH   7  15
ATOM     15  O   UNL     1      -2.659  -0.755 -27.808  1.00  0.00    -0.384 OA
ATOM     16  H   UNL     1      -1.998  -0.876 -28.539  1.00  0.00     0.211 HD
ENDBRANCH   7  15
ENDBRANCH   1   2
BRANCH   1  17
ATOM     17  C   UNL     1      -3.167   0.313 -23.733  1.00  0.00     0.172 A 
ATOM     18  C   UNL     1      -2.053   0.702 -22.963  1.00  0.00     0.205 A 
ATOM     19  C   UNL     1      -4.427   0.244 -23.111  1.00  0.00     0.097 A 
ATOM     20  C   UNL     1      -2.214   1.054 -21.616  1.00  0.00     0.188 A 
ATOM     21  C   UNL     1      -4.605   0.603 -21.771  1.00  0.00     0.134 A 
ATOM     22  C   UNL     1      -3.483   0.985 -20.989  1.00  0.00     0.111 A 
ATOM     23  O   UNL     1      -1.140   1.436 -20.931  1.00  0.00    -0.452 OA
ATOM     24  C   UNL     1      -3.528   1.265 -19.601  1.00  0.00     0.197 A 
ATOM     25  C   UNL     1      -1.165   1.760 -19.642  1.00  0.00     0.138 A 
ATOM     26  C   UNL     1      -2.371   1.669 -18.936  1.00  0.00     0.100 A 
ATOM     27  O   UNL     1      -4.581   1.127 -18.927  1.00  0.00    -0.289 OA
BRANCH  18  28
ATOM     28  O   UNL     1      -0.756   0.754 -23.496  1.00  0.00    -0.490 OA
ATOM     29  C   UNL     1       0.009  -0.400 -23.823  1.00  0.00     0.278 C 
ENDBRANCH  18  28
BRANCH  21  30
ATOM     30  O   UNL     1      -5.921   0.588 -21.293  1.00  0.00    -0.507 OA
ATOM     31  H   UNL     1      -6.745   0.573 -21.875  1.00  0.00     0.293 HD
ENDBRANCH  21  30
BRANCH  25  32
ATOM     32  C   UNL     1       0.099   2.181 -18.987  1.00  0.00     0.017 A 
ATOM     33  C   UNL     1       0.423   3.549 -18.920  1.00  0.00     0.012 A 
ATOM     34  C   UNL     1       0.975   1.246 -18.397  1.00  0.00     0.012 A 
ATOM     35  C   UNL     1       1.603   3.969 -18.300  1.00  0.00     0.001 A 
ATOM     36  C   UNL     1       2.153   1.673 -17.778  1.00  0.00     0.001 A 
ATOM     37  C   UNL     1       2.469   3.033 -17.732  1.00  0.00     0.000 A 
ENDBRANCH  25  32
ENDBRANCH   1  17
TORSDOF 9
ENDMDL
MODEL 5
REMARK VINA RESULT:    -6.783      2.846      6.156
REMARK INTER + INTRA:         -11.054
REMARK INTER:                  -9.673
REMARK INTRA:                  -1.382
REMARK UNBOUND:                -1.496
REMARK SMILES COc1c(O[C@H]2O[C@H](C(=O)[O-])[C@@H](O)[C@H](O)[C@H]2O)cc(O)c2c(=O)cc(-c3ccccc3)oc12
REMARK SMILES IDX 5 1 6 2 8 3 12 4 7 5 14 6 16 7 9 8 10 9 11 10 13 11 15 13
REMARK SMILES IDX 17 15 4 17 3 18 18 19 33 20 19 21 21 22 32 23 22 24 25 25
REMARK SMILES IDX 24 26 23 27 2 28 1 29 20 30 26 32 27 33 31 34 28 35 30 36
REMARK SMILES IDX 29 37
REMARK H PARENT 13 12 15 14 17 16 20 31
REMARK Flexibility Score: inf
ROOT
ATOM      1  O   UNL     1      -1.661   2.974 -26.898  1.00  0.00    -0.458 OA
ENDROOT
BRANCH   1   2
ATOM      2  C   UNL     1      -1.758   1.543 -27.015  1.00  0.00     0.339 C 
ATOM      3  C   UNL     1      -3.742   1.439 -25.744  1.00  0.00     0.199 C 
ATOM      4  C   UNL     1      -4.602   1.019 -26.955  1.00  0.00     0.180 C 
ATOM      5  O   UNL     1      -2.403   0.988 -25.878  1.00  0.00    -0.328 OA
ATOM      6  C   UNL     1      -3.957   1.541 -28.253  1.00  0.00     0.181 C 
ATOM      7  C   UNL     1      -2.480   1.124 -28.316  1.00  0.00     0.214 C 
BRANCH   3   8
ATOM      8  C   UNL     1      -4.311   0.846 -24.489  1.00  0.00     0.073 C 
ATOM      9  O   UNL     1      -4.013   1.333 -23.366  1.00  0.00    -0.547 OA
ATOM     10  O   UNL     1      -5.193  -0.225 -24.559  1.00  0.00    -0.547 OA
ENDBRANCH   3   8
BRANCH   4  11
ATOM     11  O   UNL     1      -5.895   1.553 -26.819  1.00  0.00    -0.387 OA
ATOM     12  H   UNL     1      -6.530   0.831 -27.068  1.00  0.00     0.211 HD
ENDBRANCH   4  11
BRANCH   6  13
ATOM     13  O   UNL     1      -4.654   1.080 -29.383  1.00  0.00    -0.387 OA
ATOM     14  H   UNL     1      -5.459   1.649 -29.496  1.00  0.00     0.211 HD
ENDBRANCH   6  13
BRANCH   7  15
ATOM     15  O   UNL     1      -1.874   1.717 -29.434  1.00  0.00    -0.384 OA
ATOM     16  H   UNL     1      -0.946   1.953 -29.166  1.00  0.00     0.211 HD
ENDBRANCH   7  15
ENDBRANCH   1   2
BRANCH   1  17
ATOM     17  C   UNL     1      -0.478   3.728 -26.750  1.00  0.00     0.172 A 
ATOM     18  C   UNL     1      -0.071   4.118 -25.459  1.00  0.00     0.205 A 
ATOM     19  C   UNL     1       0.341   4.059 -27.844  1.00  0.00     0.097 A 
ATOM     20  C   UNL     1       1.149   4.782 -25.273  1.00  0.00     0.188 A 
ATOM     21  C   UNL     1       1.566   4.711 -27.675  1.00  0.00     0.134 A 
ATOM     22  C   UNL     1       1.976   5.115 -26.375  1.00  0.00     0.111 A 
ATOM     23  O   UNL     1       1.506   5.113 -24.035  1.00  0.00    -0.452 OA
ATOM     24  C   UNL     1       3.139   5.873 -26.098  1.00  0.00     0.197 A 
ATOM     25  C   UNL     1       2.621   5.773 -23.741  1.00  0.00     0.138 A 
ATOM     26  C   UNL     1       3.467   6.184 -24.779  1.00  0.00     0.100 A 
ATOM     27  O   UNL     1       3.882   6.313 -27.013  1.00  0.00    -0.289 OA
BRANCH  18  28
ATOM     28  O   UNL     1      -0.851   3.865 -24.320  1.00  0.00    -0.490 OA
ATOM     29  C   UNL     1      -0.702   2.709 -23.504  1.00  0.00     0.278 C 
ENDBRANCH  18  28
BRANCH  21  30
ATOM     30  O   UNL     1       2.338   4.897 -28.827  1.00  0.00    -0.507 OA
ATOM     31  H   UNL     1       2.986   5.657 -28.971  1.00  0.00     0.293 HD
ENDBRANCH  21  30
BRANCH  25  32
ATOM     32  C   UNL     1       2.917   6.078 -22.319  1.00  0.00     0.017 A 
ATOM     33  C   UNL     1       2.734   5.080 -21.344  1.00  0.00     0.012 A 
ATOM     34  C   UNL     1       3.409   7.337 -21.918  1.00  0.00     0.012 A 
ATOM     35  C   UNL     1       3.015   5.341 -19.999  1.00  0.00     0.001 A 
ATOM     36  C   UNL     1       3.689   7.592 -20.572  1.00  0.00     0.001 A 
ATOM     37  C   UNL     1       3.489   6.596 -19.613  1.00  0.00     0.000 A 
ENDBRANCH  25  32
ENDBRANCH   1  17
TORSDOF 9
ENDMDL
MODEL 6
REMARK VINA RESULT:    -6.710      3.166      6.225
REMARK INTER + INTRA:         -10.952
REMARK INTER:                  -9.589
REMARK INTRA:                  -1.363
REMARK UNBOUND:                -1.496
REMARK SMILES COc1c(O[C@H]2O[C@H](C(=O)[O-])[C@@H](O)[C@H](O)[C@H]2O)cc(O)c2c(=O)cc(-c3ccccc3)oc12
REMARK SMILES IDX 5 1 6 2 8 3 12 4 7 5 14 6 16 7 9 8 10 9 11 10 13 11 15 13
REMARK SMILES IDX 17 15 4 17 3 18 18 19 33 20 19 21 21 22 32 23 22 24 25 25
REMARK SMILES IDX 24 26 23 27 2 28 1 29 20 30 26 32 27 33 31 34 28 35 30 36
REMARK SMILES IDX 29 37
REMARK H PARENT 13 12 15 14 17 16 20 31
REMARK Flexibility Score: inf
ROOT
ATOM      1  O   UNL     1      -0.758   2.950 -26.976  1.00  0.00    -0.458 OA
ENDROOT
BRANCH   1   2
ATOM      2  C   UNL     1      -2.054   3.243 -27.527  1.00  0.00     0.339 C 
ATOM      3  C   UNL     1      -2.599   0.966 -27.804  1.00  0.00     0.199 C 
ATOM      4  C   UNL     1      -3.691   1.002 -26.714  1.00  0.00     0.180 C 
ATOM      5  O   UNL     1      -2.455   2.228 -28.435  1.00  0.00    -0.328 OA
ATOM      6  C   UNL     1      -3.368   2.110 -25.694  1.00  0.00     0.181 C 
ATOM      7  C   UNL     1      -3.114   3.440 -26.420  1.00  0.00     0.214 C 
BRANCH   3   8
ATOM      8  C   UNL     1      -2.964  -0.043 -28.853  1.00  0.00     0.073 C 
ATOM      9  O   UNL     1      -2.064  -0.612 -29.526  1.00  0.00    -0.547 OA
ATOM     10  O   UNL     1      -4.295  -0.378 -29.068  1.00  0.00    -0.547 OA
ENDBRANCH   3   8
BRANCH   4  11
ATOM     11  O   UNL     1      -3.745  -0.242 -26.062  1.00  0.00    -0.387 OA
ATOM     12  H   UNL     1      -2.926  -0.738 -26.324  1.00  0.00     0.211 HD
ENDBRANCH   4  11
BRANCH   6  13
ATOM     13  O   UNL     1      -4.402   2.246 -24.752  1.00  0.00    -0.387 OA
ATOM     14  H   UNL     1      -4.118   2.925 -24.086  1.00  0.00     0.211 HD
ENDBRANCH   6  13
BRANCH   7  15
ATOM     15  O   UNL     1      -2.691   4.406 -25.494  1.00  0.00    -0.384 OA
ATOM     16  H   UNL     1      -2.417   5.204 -26.016  1.00  0.00     0.211 HD
ENDBRANCH   7  15
ENDBRANCH   1   2
BRANCH   1  17
ATOM     17  C   UNL     1       0.266   3.879 -26.690  1.00  0.00     0.172 A 
ATOM     18  C   UNL     1       0.546   4.197 -25.347  1.00  0.00     0.205 A 
ATOM     19  C   UNL     1       1.053   4.460 -27.701  1.00  0.00     0.097 A 
ATOM     20  C   UNL     1       1.621   5.040 -25.031  1.00  0.00     0.188 A 
ATOM     21  C   UNL     1       2.135   5.294 -27.401  1.00  0.00     0.134 A 
ATOM     22  C   UNL     1       2.416   5.625 -26.048  1.00  0.00     0.111 A 
ATOM     23  O   UNL     1       1.865   5.297 -23.749  1.00  0.00    -0.452 OA
ATOM     24  C   UNL     1       3.414   6.540 -25.635  1.00  0.00     0.197 A 
ATOM     25  C   UNL     1       2.833   6.107 -23.331  1.00  0.00     0.138 A 
ATOM     26  C   UNL     1       3.631   6.765 -24.276  1.00  0.00     0.100 A 
ATOM     27  O   UNL     1       4.101   7.195 -26.461  1.00  0.00    -0.289 OA
BRANCH  18  28
ATOM     28  O   UNL     1      -0.218   3.696 -24.283  1.00  0.00    -0.490 OA
ATOM     29  C   UNL     1      -0.033   2.402 -23.721  1.00  0.00     0.278 C 
ENDBRANCH  18  28
BRANCH  21  30
ATOM     30  O   UNL     1       2.904   5.729 -28.486  1.00  0.00    -0.507 OA
ATOM     31  H   UNL     1       3.699   6.347 -28.417  1.00  0.00     0.293 HD
ENDBRANCH  21  30
BRANCH  25  32
ATOM     32  C   UNL     1       3.015   6.309 -21.872  1.00  0.00     0.017 A 
ATOM     33  C   UNL     1       2.879   5.214 -20.998  1.00  0.00     0.012 A 
ATOM     34  C   UNL     1       3.354   7.568 -21.335  1.00  0.00     0.012 A 
ATOM     35  C   UNL     1       3.055   5.378 -19.622  1.00  0.00     0.001 A 
ATOM     36  C   UNL     1       3.529   7.726 -19.957  1.00  0.00     0.001 A 
ATOM     37  C   UNL     1       3.376   6.633 -19.100  1.00  0.00     0.000 A 
ENDBRANCH  25  32
ENDBRANCH   1  17
TORSDOF 9
ENDMDL
MODEL 7
REMARK VINA RESULT:    -6.684      2.295      4.428
REMARK INTER + INTRA:         -10.916
REMARK INTER:                 -10.061
REMARK INTRA:                  -0.855
REMARK UNBOUND:                -1.496
REMARK SMILES COc1c(O[C@H]2O[C@H](C(=O)[O-])[C@@H](O)[C@H](O)[C@H]2O)cc(O)c2c(=O)cc(-c3ccccc3)oc12
REMARK SMILES IDX 5 1 6 2 8 3 12 4 7 5 14 6 16 7 9 8 10 9 11 10 13 11 15 13
REMARK SMILES IDX 17 15 4 17 3 18 18 19 33 20 19 21 21 22 32 23 22 24 25 25
REMARK SMILES IDX 24 26 23 27 2 28 1 29 20 30 26 32 27 33 31 34 28 35 30 36
REMARK SMILES IDX 29 37
REMARK H PARENT 13 12 15 14 17 16 20 31
REMARK Flexibility Score: inf
ROOT
ATOM      1  O   UNL     1      -2.698   3.094 -26.399  1.00  0.00    -0.458 OA
ENDROOT
BRANCH   1   2
ATOM      2  C   UNL     1      -2.807   2.153 -27.481  1.00  0.00     0.339 C 
ATOM      3  C   UNL     1      -1.709   0.444 -26.284  1.00  0.00     0.199 C 
ATOM      4  C   UNL     1      -2.985  -0.418 -26.168  1.00  0.00     0.180 C 
ATOM      5  O   UNL     1      -1.723   1.235 -27.461  1.00  0.00    -0.328 OA
ATOM      6  C   UNL     1      -4.228   0.489 -26.224  1.00  0.00     0.181 C 
ATOM      7  C   UNL     1      -4.160   1.407 -27.455  1.00  0.00     0.214 C 
BRANCH   3   8
ATOM      8  C   UNL     1      -0.500  -0.444 -26.332  1.00  0.00     0.073 C 
ATOM      9  O   UNL     1      -0.065  -0.864 -27.436  1.00  0.00    -0.547 OA
ATOM     10  O   UNL     1       0.164  -0.784 -25.159  1.00  0.00    -0.547 OA
ENDBRANCH   3   8
BRANCH   4  11
ATOM     11  O   UNL     1      -2.966  -1.123 -24.953  1.00  0.00    -0.387 OA
ATOM     12  H   UNL     1      -3.493  -0.588 -24.303  1.00  0.00     0.211 HD
ENDBRANCH   4  11
BRANCH   6  13
ATOM     13  O   UNL     1      -5.409  -0.274 -26.236  1.00  0.00    -0.387 OA
ATOM     14  H   UNL     1      -5.485  -0.701 -27.129  1.00  0.00     0.211 HD
ENDBRANCH   6  13
BRANCH   7  15
ATOM     15  O   UNL     1      -5.228   2.316 -27.420  1.00  0.00    -0.384 OA
ATOM     16  H   UNL     1      -4.836   3.214 -27.265  1.00  0.00     0.211 HD
ENDBRANCH   7  15
ENDBRANCH   1   2
BRANCH   1  17
ATOM     17  C   UNL     1      -1.521   3.445 -25.702  1.00  0.00     0.172 A 
ATOM     18  C   UNL     1      -1.370   3.033 -24.364  1.00  0.00     0.205 A 
ATOM     19  C   UNL     1      -0.468   4.146 -26.316  1.00  0.00     0.097 A 
ATOM     20  C   UNL     1      -0.172   3.281 -23.680  1.00  0.00     0.188 A 
ATOM     21  C   UNL     1       0.737   4.392 -25.651  1.00  0.00     0.134 A 
ATOM     22  C   UNL     1       0.891   3.987 -24.298  1.00  0.00     0.111 A 
ATOM     23  O   UNL     1      -0.062   2.856 -22.424  1.00  0.00    -0.452 OA
ATOM     24  C   UNL     1       2.021   4.276 -23.496  1.00  0.00     0.197 A 
ATOM     25  C   UNL     1       1.011   3.063 -21.668  1.00  0.00     0.138 A 
ATOM     26  C   UNL     1       2.084   3.797 -22.187  1.00  0.00     0.100 A 
ATOM     27  O   UNL     1       2.970   4.989 -23.912  1.00  0.00    -0.289 OA
BRANCH  18  28
ATOM     28  O   UNL     1      -2.388   2.367 -23.666  1.00  0.00    -0.490 OA
ATOM     29  C   UNL     1      -3.559   3.010 -23.177  1.00  0.00     0.278 C 
ENDBRANCH  18  28
BRANCH  21  30
ATOM     30  O   UNL     1       1.746   5.010 -26.399  1.00  0.00    -0.507 OA
ATOM     31  H   UNL     1       2.318   4.546 -27.088  1.00  0.00     0.293 HD
ENDBRANCH  21  30
BRANCH  25  32
ATOM     32  C   UNL     1       1.021   2.531 -20.281  1.00  0.00     0.017 A 
ATOM     33  C   UNL     1       1.068   1.140 -20.073  1.00  0.00     0.012 A 
ATOM     34  C   UNL     1       1.016   3.386 -19.160  1.00  0.00     0.012 A 
ATOM     35  C   UNL     1       1.087   0.617 -18.777  1.00  0.00     0.001 A 
ATOM     36  C   UNL     1       1.036   2.857 -17.866  1.00  0.00     0.001 A 
ATOM     37  C   UNL     1       1.068   1.473 -17.675  1.00  0.00     0.000 A 
ENDBRANCH  25  32
ENDBRANCH   1  17
TORSDOF 9
ENDMDL
MODEL 8
REMARK VINA RESULT:    -6.581      1.358      2.658
REMARK INTER + INTRA:         -10.771
REMARK INTER:                  -9.296
REMARK INTRA:                  -1.475
REMARK UNBOUND:                -1.496
REMARK SMILES COc1c(O[C@H]2O[C@H](C(=O)[O-])[C@@H](O)[C@H](O)[C@H]2O)cc(O)c2c(=O)cc(-c3ccccc3)oc12
REMARK SMILES IDX 5 1 6 2 8 3 12 4 7 5 14 6 16 7 9 8 10 9 11 10 13 11 15 13
REMARK SMILES IDX 17 15 4 17 3 18 18 19 33 20 19 21 21 22 32 23 22 24 25 25
REMARK SMILES IDX 24 26 23 27 2 28 1 29 20 30 26 32 27 33 31 34 28 35 30 36
REMARK SMILES IDX 29 37
REMARK H PARENT 13 12 15 14 17 16 20 31
REMARK Flexibility Score: inf
ROOT
ATOM      1  O   UNL     1      -2.856   1.075 -25.371  1.00  0.00    -0.458 OA
ENDROOT
BRANCH   1   2
ATOM      2  C   UNL     1      -2.790  -0.086 -26.217  1.00  0.00     0.339 C 
ATOM      3  C   UNL     1      -3.658   1.060 -28.086  1.00  0.00     0.199 C 
ATOM      4  C   UNL     1      -2.325   0.989 -28.861  1.00  0.00     0.180 C 
ATOM      5  O   UNL     1      -3.806  -0.045 -27.208  1.00  0.00    -0.328 OA
ATOM      6  C   UNL     1      -1.152   0.896 -27.866  1.00  0.00     0.181 C 
ATOM      7  C   UNL     1      -1.396  -0.243 -26.865  1.00  0.00     0.214 C 
BRANCH   3   8
ATOM      8  C   UNL     1      -4.806   1.048 -29.051  1.00  0.00     0.073 C 
ATOM      9  O   UNL     1      -4.847   1.873 -30.001  1.00  0.00    -0.547 OA
ATOM     10  O   UNL     1      -5.820   0.105 -28.919  1.00  0.00    -0.547 OA
ENDBRANCH   3   8
BRANCH   4  11
ATOM     11  O   UNL     1      -2.183   2.139 -29.656  1.00  0.00    -0.387 OA
ATOM     12  H   UNL     1      -3.041   2.634 -29.600  1.00  0.00     0.211 HD
ENDBRANCH   4  11
BRANCH   6  13
ATOM     13  O   UNL     1       0.068   0.715 -28.541  1.00  0.00    -0.387 OA
ATOM     14  H   UNL     1       0.542   1.587 -28.550  1.00  0.00     0.211 HD
ENDBRANCH   6  13
BRANCH   7  15
ATOM     15  O   UNL     1      -0.389  -0.230 -25.888  1.00  0.00    -0.384 OA
ATOM     16  H   UNL     1       0.148  -1.055 -26.019  1.00  0.00     0.211 HD
ENDBRANCH   7  15
ENDBRANCH   1   2
BRANCH   1  17
ATOM     17  C   UNL     1      -3.035   1.089 -23.971  1.00  0.00     0.172 A 
ATOM     18  C   UNL     1      -1.936   1.388 -23.142  1.00  0.00     0.205 A 
ATOM     19  C   UNL     1      -4.290   0.866 -23.375  1.00  0.00     0.097 A 
ATOM     20  C   UNL     1      -2.108   1.505 -21.756  1.00  0.00     0.188 A 
ATOM     21  C   UNL     1      -4.480   0.990 -21.995  1.00  0.00     0.134 A 
ATOM     22  C   UNL     1      -3.372   1.282 -21.155  1.00  0.00     0.111 A 
ATOM     23  O   UNL     1      -1.048   1.811 -21.013  1.00  0.00    -0.452 OA
ATOM     24  C   UNL     1      -3.425   1.325 -19.740  1.00  0.00     0.197 A 
ATOM     25  C   UNL     1      -1.083   1.915 -19.688  1.00  0.00     0.138 A 
ATOM     26  C   UNL     1      -2.283   1.659 -19.012  1.00  0.00     0.100 A 
ATOM     27  O   UNL     1      -4.470   1.036 -19.103  1.00  0.00    -0.289 OA
BRANCH  18  28
ATOM     28  O   UNL     1      -0.644   1.580 -23.653  1.00  0.00    -0.490 OA
ATOM     29  C   UNL     1      -0.156   2.837 -24.108  1.00  0.00     0.278 C 
ENDBRANCH  18  28
BRANCH  21  30
ATOM     30  O   UNL     1      -5.792   0.844 -21.532  1.00  0.00    -0.507 OA
ATOM     31  H   UNL     1      -6.108   0.107 -20.919  1.00  0.00     0.293 HD
ENDBRANCH  21  30
BRANCH  25  32
ATOM     32  C   UNL     1       0.164   2.271 -18.966  1.00  0.00     0.017 A 
ATOM     33  C   UNL     1       0.522   3.625 -18.828  1.00  0.00     0.012 A 
ATOM     34  C   UNL     1       0.990   1.287 -18.384  1.00  0.00     0.012 A 
ATOM     35  C   UNL     1       1.687   3.985 -18.145  1.00  0.00     0.001 A 
ATOM     36  C   UNL     1       2.153   1.654 -17.701  1.00  0.00     0.001 A 
ATOM     37  C   UNL     1       2.504   3.001 -17.585  1.00  0.00     0.000 A 
ENDBRANCH  25  32
ENDBRANCH   1  17
TORSDOF 9
ENDMDL
MODEL 9
REMARK VINA RESULT:    -6.515      2.284      7.726
REMARK INTER + INTRA:         -10.678
REMARK INTER:                  -9.485
REMARK INTRA:                  -1.193
REMARK UNBOUND:                -1.496
REMARK SMILES COc1c(O[C@H]2O[C@H](C(=O)[O-])[C@@H](O)[C@H](O)[C@H]2O)cc(O)c2c(=O)cc(-c3ccccc3)oc12
REMARK SMILES IDX 5 1 6 2 8 3 12 4 7 5 14 6 16 7 9 8 10 9 11 10 13 11 15 13
REMARK SMILES IDX 17 15 4 17 3 18 18 19 33 20 19 21 21 22 32 23 22 24 25 25
REMARK SMILES IDX 24 26 23 27 2 28 1 29 20 30 26 32 27 33 31 34 28 35 30 36
REMARK SMILES IDX 29 37
REMARK H PARENT 13 12 15 14 17 16 20 31
REMARK Flexibility Score: inf
ROOT
ATOM      1  O   UNL     1      -2.609   2.185 -22.961  1.00  0.00    -0.458 OA
ENDROOT
BRANCH   1   2
ATOM      2  C   UNL     1      -2.744   0.910 -22.308  1.00  0.00     0.339 C 
ATOM      3  C   UNL     1      -0.769   1.192 -21.052  1.00  0.00     0.199 C 
ATOM      4  C   UNL     1      -1.529   1.311 -19.714  1.00  0.00     0.180 C 
ATOM      5  O   UNL     1      -1.471   0.377 -21.977  1.00  0.00    -0.328 OA
ATOM      6  C   UNL     1      -2.950   1.846 -19.973  1.00  0.00     0.181 C 
ATOM      7  C   UNL     1      -3.644   1.004 -21.055  1.00  0.00     0.214 C 
BRANCH   3   8
ATOM      8  C   UNL     1       0.579   0.577 -20.816  1.00  0.00     0.073 C 
ATOM      9  O   UNL     1       0.981  -0.370 -21.543  1.00  0.00    -0.547 OA
ATOM     10  O   UNL     1       1.405   1.067 -19.812  1.00  0.00    -0.547 OA
ENDBRANCH   3   8
BRANCH   4  11
ATOM     11  O   UNL     1      -0.840   2.189 -18.860  1.00  0.00    -0.387 OA
ATOM     12  H   UNL     1      -1.006   3.107 -19.198  1.00  0.00     0.211 HD
ENDBRANCH   4  11
BRANCH   6  13
ATOM     13  O   UNL     1      -3.707   1.859 -18.789  1.00  0.00    -0.387 OA
ATOM     14  H   UNL     1      -3.123   2.191 -18.058  1.00  0.00     0.211 HD
ENDBRANCH   6  13
BRANCH   7  15
ATOM     15  O   UNL     1      -4.883   1.581 -21.374  1.00  0.00    -0.384 OA
ATOM     16  H   UNL     1      -5.169   2.102 -20.578  1.00  0.00     0.211 HD
ENDBRANCH   7  15
ENDBRANCH   1   2
BRANCH   1  17
ATOM     17  C   UNL     1      -2.441   2.408 -24.344  1.00  0.00     0.172 A 
ATOM     18  C   UNL     1      -1.283   3.073 -24.795  1.00  0.00     0.205 A 
ATOM     19  C   UNL     1      -3.365   1.942 -25.296  1.00  0.00     0.097 A 
ATOM     20  C   UNL     1      -1.043   3.221 -26.168  1.00  0.00     0.188 A 
ATOM     21  C   UNL     1      -3.135   2.072 -26.669  1.00  0.00     0.134 A 
ATOM     22  C   UNL     1      -1.974   2.750 -27.128  1.00  0.00     0.111 A 
ATOM     23  O   UNL     1       0.073   3.835 -26.551  1.00  0.00    -0.452 OA
ATOM     24  C   UNL     1      -1.692   3.034 -28.486  1.00  0.00     0.197 A 
ATOM     25  C   UNL     1       0.390   4.063 -27.821  1.00  0.00     0.138 A 
ATOM     26  C   UNL     1      -0.501   3.674 -28.829  1.00  0.00     0.100 A 
ATOM     27  O   UNL     1      -2.503   2.757 -29.407  1.00  0.00    -0.289 OA
BRANCH  18  28
ATOM     28  O   UNL     1      -0.334   3.606 -23.910  1.00  0.00    -0.490 OA
ATOM     29  C   UNL     1       0.911   2.982 -23.620  1.00  0.00     0.278 C 
ENDBRANCH  18  28
BRANCH  21  30
ATOM     30  O   UNL     1      -4.077   1.480 -27.518  1.00  0.00    -0.507 OA
ATOM     31  H   UNL     1      -4.568   0.620 -27.323  1.00  0.00     0.293 HD
ENDBRANCH  21  30
BRANCH  25  32
ATOM     32  C   UNL     1       1.669   4.751 -28.126  1.00  0.00     0.017 A 
ATOM     33  C   UNL     1       2.704   4.745 -27.172  1.00  0.00     0.012 A 
ATOM     34  C   UNL     1       1.892   5.386 -29.365  1.00  0.00     0.012 A 
ATOM     35  C   UNL     1       3.920   5.378 -27.440  1.00  0.00     0.001 A 
ATOM     36  C   UNL     1       3.112   6.017 -29.628  1.00  0.00     0.001 A 
ATOM     37  C   UNL     1       4.124   6.016 -28.665  1.00  0.00     0.000 A 
ENDBRANCH  25  32
ENDBRANCH   1  17
TORSDOF 9
ENDMDL
