MODEL 1
REMARK VINA RESULT:    -5.850      0.000      0.000
REMARK INTER + INTRA:         -11.780
REMARK INTER:                 -10.638
REMARK INTRA:                  -1.142
REMARK UNBOUND:                -1.142
REMARK SMILES CCCCCCCCCCCCCC[C@@H](C)C(=O)[O-]
REMARK SMILES IDX 9 1 10 2 11 3 12 4 13 5 14 6 15 7 16 8 17 9 18 10 19 11 8 12
REMARK SMILES IDX 7 13 6 14 5 15 4 16 3 17 2 18 1 19
REMARK H PARENT
REMARK Flexibility Score: inf
ROOT
ATOM      1  C   UNL     1      -6.757 -14.605  27.856  1.00  0.00     0.000 C 
ENDROOT
BRANCH   1   2
ATOM      2  C   UNL     1      -7.601 -14.184  26.639  1.00  0.00     0.000 C 
BRANCH   2   3
ATOM      3  C   UNL     1      -8.664 -15.227  26.257  1.00  0.00     0.000 C 
BRANCH   3   4
ATOM      4  C   UNL     1     -10.077 -14.627  26.169  1.00  0.00     0.000 C 
BRANCH   4   5
ATOM      5  C   UNL     1     -11.171 -15.601  26.645  1.00  0.00     0.001 C 
BRANCH   5   6
ATOM      6  C   UNL     1     -10.755 -16.368  27.922  1.00  0.00     0.009 C 
BRANCH   6   7
ATOM      7  C   UNL     1     -11.902 -16.652  28.919  1.00  0.00     0.032 C 
ATOM      8  C   UNL     1     -13.275 -16.219  28.389  1.00  0.00     0.014 C 
BRANCH   7   9
ATOM      9  C   UNL     1     -11.903 -18.093  29.361  1.00  0.00     0.044 C 
ATOM     10  O   UNL     1     -10.873 -18.799  29.200  1.00  0.00    -0.550 OA
ATOM     11  O   UNL     1     -13.044 -18.671  29.909  1.00  0.00    -0.550 OA
ENDBRANCH   7   9
ENDBRANCH   6   7
ENDBRANCH   5   6
ENDBRANCH   4   5
ENDBRANCH   3   4
ENDBRANCH   2   3
ENDBRANCH   1   2
BRANCH   1  12
ATOM     12  C   UNL     1      -7.541 -14.777  29.169  1.00  0.00     0.000 C 
BRANCH  12  13
ATOM     13  C   UNL     1      -7.055 -13.842  30.286  1.00  0.00    -0.000 C 
BRANCH  13  14
ATOM     14  C   UNL     1      -6.266 -14.618  31.348  1.00  0.00    -0.000 C 
BRANCH  14  15
ATOM     15  C   UNL     1      -6.124 -13.801  32.637  1.00  0.00    -0.000 C 
BRANCH  15  16
ATOM     16  C   UNL     1      -4.732 -13.156  32.729  1.00  0.00    -0.000 C 
BRANCH  16  17
ATOM     17  C   UNL     1      -4.786 -11.621  32.672  1.00  0.00    -0.000 C 
BRANCH  17  18
ATOM     18  C   UNL     1      -4.348 -11.065  31.308  1.00  0.00    -0.003 C 
ATOM     19  C   UNL     1      -5.556 -10.665  30.466  1.00  0.00     0.004 C 
ENDBRANCH  17  18
ENDBRANCH  16  17
ENDBRANCH  15  16
ENDBRANCH  14  15
ENDBRANCH  13  14
ENDBRANCH  12  13
ENDBRANCH   1  12
TORSDOF 14
ENDMDL
MODEL 2
REMARK VINA RESULT:    -5.809      1.410      2.023
REMARK INTER + INTRA:         -11.706
REMARK INTER:                 -10.442
REMARK INTRA:                  -1.264
REMARK UNBOUND:                -1.142
REMARK SMILES CCCCCCCCCCCCCC[C@@H](C)C(=O)[O-]
REMARK SMILES IDX 9 1 10 2 11 3 12 4 13 5 14 6 15 7 16 8 17 9 18 10 19 11 8 12
REMARK SMILES IDX 7 13 6 14 5 15 4 16 3 17 2 18 1 19
REMARK H PARENT
REMARK Flexibility Score: inf
ROOT
ATOM      1  C   UNL     1      -6.633 -14.057  26.934  1.00  0.00     0.000 C 
ENDROOT
BRANCH   1   2
ATOM      2  C   UNL     1      -7.574 -15.230  26.602  1.00  0.00     0.000 C 
BRANCH   2   3
ATOM      3  C   UNL     1      -8.968 -15.078  27.235  1.00  0.00     0.000 C 
BRANCH   3   4
ATOM      4  C   UNL     1     -10.087 -14.992  26.185  1.00  0.00     0.000 C 
BRANCH   4   5
ATOM      5  C   UNL     1     -11.407 -15.624  26.666  1.00  0.00     0.001 C 
BRANCH   5   6
ATOM      6  C   UNL     1     -11.197 -16.568  27.872  1.00  0.00     0.009 C 
BRANCH   6   7
ATOM      7  C   UNL     1     -11.995 -16.196  29.143  1.00  0.00     0.032 C 
ATOM      8  C   UNL     1     -13.430 -16.737  29.127  1.00  0.00     0.014 C 
BRANCH   7   9
ATOM      9  C   UNL     1     -11.259 -16.602  30.395  1.00  0.00     0.044 C 
ATOM     10  O   UNL     1     -11.906 -16.968  31.411  1.00  0.00    -0.550 OA
ATOM     11  O   UNL     1      -9.871 -16.537  30.459  1.00  0.00    -0.550 OA
ENDBRANCH   7   9
ENDBRANCH   6   7
ENDBRANCH   5   6
ENDBRANCH   4   5
ENDBRANCH   3   4
ENDBRANCH   2   3
ENDBRANCH   1   2
BRANCH   1  12
ATOM     12  C   UNL     1      -5.277 -14.458  27.543  1.00  0.00     0.000 C 
BRANCH  12  13
ATOM     13  C   UNL     1      -5.243 -14.326  29.073  1.00  0.00    -0.000 C 
BRANCH  13  14
ATOM     14  C   UNL     1      -6.332 -13.366  29.567  1.00  0.00    -0.000 C 
BRANCH  14  15
ATOM     15  C   UNL     1      -7.265 -14.059  30.567  1.00  0.00    -0.000 C 
BRANCH  15  16
ATOM     16  C   UNL     1      -6.758 -13.882  32.006  1.00  0.00    -0.000 C 
BRANCH  16  17
ATOM     17  C   UNL     1      -6.017 -12.551  32.213  1.00  0.00    -0.000 C 
BRANCH  17  18
ATOM     18  C   UNL     1      -4.634 -12.738  32.855  1.00  0.00    -0.003 C 
ATOM     19  C   UNL     1      -3.764 -11.501  32.654  1.00  0.00     0.004 C 
ENDBRANCH  17  18
ENDBRANCH  16  17
ENDBRANCH  15  16
ENDBRANCH  14  15
ENDBRANCH  13  14
ENDBRANCH  12  13
ENDBRANCH   1  12
TORSDOF 14
ENDMDL
MODEL 3
REMARK VINA RESULT:    -5.777      1.343      2.754
REMARK INTER + INTRA:         -11.648
REMARK INTER:                 -10.384
REMARK INTRA:                  -1.263
REMARK UNBOUND:                -1.142
REMARK SMILES CCCCCCCCCCCCCC[C@@H](C)C(=O)[O-]
REMARK SMILES IDX 9 1 10 2 11 3 12 4 13 5 14 6 15 7 16 8 17 9 18 10 19 11 8 12
REMARK SMILES IDX 7 13 6 14 5 15 4 16 3 17 2 18 1 19
REMARK H PARENT
REMARK Flexibility Score: inf
ROOT
ATOM      1  C   UNL     1      -8.826 -14.242  26.239  1.00  0.00     0.000 C 
ENDROOT
BRANCH   1   2
ATOM      2  C   UNL     1     -10.199 -14.924  26.092  1.00  0.00     0.000 C 
BRANCH   2   3
ATOM      3  C   UNL     1     -10.572 -15.789  27.307  1.00  0.00     0.000 C 
BRANCH   3   4
ATOM      4  C   UNL     1     -12.065 -16.154  27.337  1.00  0.00     0.000 C 
BRANCH   4   5
ATOM      5  C   UNL     1     -12.453 -16.986  28.574  1.00  0.00     0.001 C 
BRANCH   5   6
ATOM      6  C   UNL     1     -11.456 -18.137  28.838  1.00  0.00     0.009 C 
BRANCH   6   7
ATOM      7  C   UNL     1     -10.963 -18.255  30.299  1.00  0.00     0.032 C 
ATOM      8  C   UNL     1      -9.825 -17.280  30.626  1.00  0.00     0.014 C 
BRANCH   7   9
ATOM      9  C   UNL     1     -12.103 -18.131  31.277  1.00  0.00     0.044 C 
ATOM     10  O   UNL     1     -12.944 -19.063  31.380  1.00  0.00    -0.550 OA
ATOM     11  O   UNL     1     -12.267 -16.981  32.042  1.00  0.00    -0.550 OA
ENDBRANCH   7   9
ENDBRANCH   6   7
ENDBRANCH   5   6
ENDBRANCH   4   5
ENDBRANCH   3   4
ENDBRANCH   2   3
ENDBRANCH   1   2
BRANCH   1  12
ATOM     12  C   UNL     1      -7.914 -14.837  27.328  1.00  0.00     0.000 C 
BRANCH  12  13
ATOM     13  C   UNL     1      -6.459 -14.355  27.221  1.00  0.00    -0.000 C 
BRANCH  13  14
ATOM     14  C   UNL     1      -5.834 -14.182  28.611  1.00  0.00    -0.000 C 
BRANCH  14  15
ATOM     15  C   UNL     1      -6.915 -14.045  29.689  1.00  0.00    -0.000 C 
BRANCH  15  16
ATOM     16  C   UNL     1      -6.553 -14.862  30.939  1.00  0.00    -0.000 C 
BRANCH  16  17
ATOM     17  C   UNL     1      -6.532 -14.009  32.217  1.00  0.00    -0.000 C 
BRANCH  17  18
ATOM     18  C   UNL     1      -6.650 -12.505  31.927  1.00  0.00    -0.003 C 
ATOM     19  C   UNL     1      -5.292 -11.818  32.033  1.00  0.00     0.004 C 
ENDBRANCH  17  18
ENDBRANCH  16  17
ENDBRANCH  15  16
ENDBRANCH  14  15
ENDBRANCH  13  14
ENDBRANCH  12  13
ENDBRANCH   1  12
TORSDOF 14
ENDMDL
MODEL 4
REMARK VINA RESULT:    -5.772      3.357      7.102
REMARK INTER + INTRA:         -11.639
REMARK INTER:                 -10.277
REMARK INTRA:                  -1.362
REMARK UNBOUND:                -1.142
REMARK SMILES CCCCCCCCCCCCCC[C@@H](C)C(=O)[O-]
REMARK SMILES IDX 9 1 10 2 11 3 12 4 13 5 14 6 15 7 16 8 17 9 18 10 19 11 8 12
REMARK SMILES IDX 7 13 6 14 5 15 4 16 3 17 2 18 1 19
REMARK H PARENT
REMARK Flexibility Score: inf
ROOT
ATOM      1  C   UNL     1     -10.017 -15.565  27.441  1.00  0.00     0.000 C 
ENDROOT
BRANCH   1   2
ATOM      2  C   UNL     1      -9.182 -14.853  26.360  1.00  0.00     0.000 C 
BRANCH   2   3
ATOM      3  C   UNL     1      -7.693 -15.235  26.405  1.00  0.00     0.000 C 
BRANCH   3   4
ATOM      4  C   UNL     1      -6.807 -14.099  26.943  1.00  0.00     0.000 C 
BRANCH   4   5
ATOM      5  C   UNL     1      -6.036 -14.494  28.216  1.00  0.00     0.001 C 
BRANCH   5   6
ATOM      6  C   UNL     1      -5.678 -13.267  29.086  1.00  0.00     0.009 C 
BRANCH   6   7
ATOM      7  C   UNL     1      -6.661 -12.976  30.244  1.00  0.00     0.032 C 
ATOM      8  C   UNL     1      -7.223 -14.251  30.886  1.00  0.00     0.014 C 
BRANCH   7   9
ATOM      9  C   UNL     1      -6.047 -12.058  31.270  1.00  0.00     0.044 C 
ATOM     10  O   UNL     1      -6.047 -10.814  31.077  1.00  0.00    -0.550 OA
ATOM     11  O   UNL     1      -5.440 -12.568  32.413  1.00  0.00    -0.550 OA
ENDBRANCH   7   9
ENDBRANCH   6   7
ENDBRANCH   5   6
ENDBRANCH   4   5
ENDBRANCH   3   4
ENDBRANCH   2   3
ENDBRANCH   1   2
BRANCH   1  12
ATOM     12  C   UNL     1     -11.427 -15.998  26.999  1.00  0.00     0.000 C 
BRANCH  12  13
ATOM     13  C   UNL     1     -12.049 -17.054  27.925  1.00  0.00    -0.000 C 
BRANCH  13  14
ATOM     14  C   UNL     1     -13.142 -16.437  28.806  1.00  0.00    -0.000 C 
BRANCH  14  15
ATOM     15  C   UNL     1     -13.410 -17.306  30.040  1.00  0.00    -0.000 C 
BRANCH  15  16
ATOM     16  C   UNL     1     -12.235 -17.237  31.028  1.00  0.00    -0.000 C 
BRANCH  16  17
ATOM     17  C   UNL     1     -11.519 -18.588  31.189  1.00  0.00    -0.000 C 
BRANCH  17  18
ATOM     18  C   UNL     1     -10.036 -18.522  30.792  1.00  0.00    -0.003 C 
ATOM     19  C   UNL     1      -9.537 -17.080  30.773  1.00  0.00     0.004 C 
ENDBRANCH  17  18
ENDBRANCH  16  17
ENDBRANCH  15  16
ENDBRANCH  14  15
ENDBRANCH  13  14
ENDBRANCH  12  13
ENDBRANCH   1  12
TORSDOF 14
ENDMDL
MODEL 5
REMARK VINA RESULT:    -5.741      1.546      2.816
REMARK INTER + INTRA:         -11.582
REMARK INTER:                  -9.769
REMARK INTRA:                  -1.813
REMARK UNBOUND:                -1.142
REMARK SMILES CCCCCCCCCCCCCC[C@@H](C)C(=O)[O-]
REMARK SMILES IDX 9 1 10 2 11 3 12 4 13 5 14 6 15 7 16 8 17 9 18 10 19 11 8 12
REMARK SMILES IDX 7 13 6 14 5 15 4 16 3 17 2 18 1 19
REMARK H PARENT
REMARK Flexibility Score: inf
ROOT
ATOM      1  C   UNL     1      -7.788 -15.305  26.612  1.00  0.00     0.000 C 
ENDROOT
BRANCH   1   2
ATOM      2  C   UNL     1      -9.281 -14.934  26.674  1.00  0.00     0.000 C 
BRANCH   2   3
ATOM      3  C   UNL     1     -10.103 -15.898  27.545  1.00  0.00     0.000 C 
BRANCH   3   4
ATOM      4  C   UNL     1     -11.585 -15.944  27.140  1.00  0.00     0.000 C 
BRANCH   4   5
ATOM      5  C   UNL     1     -12.521 -16.240  28.327  1.00  0.00     0.001 C 
BRANCH   5   6
ATOM      6  C   UNL     1     -11.758 -16.299  29.670  1.00  0.00     0.009 C 
BRANCH   6   7
ATOM      7  C   UNL     1     -11.869 -17.643  30.428  1.00  0.00     0.032 C 
ATOM      8  C   UNL     1     -13.106 -18.455  30.027  1.00  0.00     0.014 C 
BRANCH   7   9
ATOM      9  C   UNL     1     -10.603 -18.452  30.302  1.00  0.00     0.044 C 
ATOM     10  O   UNL     1      -9.723 -18.383  31.200  1.00  0.00    -0.550 OA
ATOM     11  O   UNL     1     -10.372 -19.246  29.183  1.00  0.00    -0.550 OA
ENDBRANCH   7   9
ENDBRANCH   6   7
ENDBRANCH   5   6
ENDBRANCH   4   5
ENDBRANCH   3   4
ENDBRANCH   2   3
ENDBRANCH   1   2
BRANCH   1  12
ATOM     12  C   UNL     1      -6.819 -14.199  27.065  1.00  0.00     0.000 C 
BRANCH  12  13
ATOM     13  C   UNL     1      -5.534 -14.749  27.703  1.00  0.00    -0.000 C 
BRANCH  13  14
ATOM     14  C   UNL     1      -4.670 -13.614  28.266  1.00  0.00    -0.000 C 
BRANCH  14  15
ATOM     15  C   UNL     1      -5.336 -12.968  29.486  1.00  0.00    -0.000 C 
BRANCH  15  16
ATOM     16  C   UNL     1      -4.894 -13.659  30.785  1.00  0.00    -0.000 C 
BRANCH  16  17
ATOM     17  C   UNL     1      -6.082 -14.122  31.643  1.00  0.00    -0.000 C 
BRANCH  17  18
ATOM     18  C   UNL     1      -7.425 -14.000  30.907  1.00  0.00    -0.003 C 
ATOM     19  C   UNL     1      -7.989 -15.375  30.564  1.00  0.00     0.004 C 
ENDBRANCH  17  18
ENDBRANCH  16  17
ENDBRANCH  15  16
ENDBRANCH  14  15
ENDBRANCH  13  14
ENDBRANCH  12  13
ENDBRANCH   1  12
TORSDOF 14
ENDMDL
MODEL 6
REMARK VINA RESULT:    -5.626      3.151      7.334
REMARK INTER + INTRA:         -11.373
REMARK INTER:                 -10.010
REMARK INTRA:                  -1.363
REMARK UNBOUND:                -1.142
REMARK SMILES CCCCCCCCCCCCCC[C@@H](C)C(=O)[O-]
REMARK SMILES IDX 9 1 10 2 11 3 12 4 13 5 14 6 15 7 16 8 17 9 18 10 19 11 8 12
REMARK SMILES IDX 7 13 6 14 5 15 4 16 3 17 2 18 1 19
REMARK H PARENT
REMARK Flexibility Score: inf
ROOT
ATOM      1  C   UNL     1     -11.040 -18.236  29.376  1.00  0.00     0.000 C 
ENDROOT
BRANCH   1   2
ATOM      2  C   UNL     1      -9.980 -17.168  29.707  1.00  0.00     0.000 C 
BRANCH   2   3
ATOM      3  C   UNL     1      -9.568 -17.173  31.189  1.00  0.00     0.000 C 
BRANCH   3   4
ATOM      4  C   UNL     1      -8.247 -16.426  31.438  1.00  0.00     0.000 C 
BRANCH   4   5
ATOM      5  C   UNL     1      -8.044 -15.237  30.481  1.00  0.00     0.001 C 
BRANCH   5   6
ATOM      6  C   UNL     1      -6.662 -14.569  30.665  1.00  0.00     0.009 C 
BRANCH   6   7
ATOM      7  C   UNL     1      -6.652 -13.030  30.513  1.00  0.00     0.032 C 
ATOM      8  C   UNL     1      -6.424 -12.300  31.843  1.00  0.00     0.014 C 
BRANCH   7   9
ATOM      9  C   UNL     1      -5.672 -12.587  29.457  1.00  0.00     0.044 C 
ATOM     10  O   UNL     1      -5.415 -13.343  28.484  1.00  0.00    -0.550 OA
ATOM     11  O   UNL     1      -5.011 -11.367  29.563  1.00  0.00    -0.550 OA
ENDBRANCH   7   9
ENDBRANCH   6   7
ENDBRANCH   5   6
ENDBRANCH   4   5
ENDBRANCH   3   4
ENDBRANCH   2   3
ENDBRANCH   1   2
BRANCH   1  12
ATOM     12  C   UNL     1     -12.482 -17.711  29.257  1.00  0.00     0.000 C 
BRANCH  12  13
ATOM     13  C   UNL     1     -12.551 -16.222  28.884  1.00  0.00    -0.000 C 
BRANCH  13  14
ATOM     14  C   UNL     1     -13.409 -16.008  27.632  1.00  0.00    -0.000 C 
BRANCH  14  15
ATOM     15  C   UNL     1     -12.555 -15.533  26.452  1.00  0.00    -0.000 C 
BRANCH  15  16
ATOM     16  C   UNL     1     -11.060 -15.582  26.800  1.00  0.00    -0.000 C 
BRANCH  16  17
ATOM     17  C   UNL     1     -10.186 -14.866  25.758  1.00  0.00    -0.000 C 
BRANCH  17  18
ATOM     18  C   UNL     1      -8.959 -14.185  26.383  1.00  0.00    -0.003 C 
ATOM     19  C   UNL     1      -7.870 -15.203  26.704  1.00  0.00     0.004 C 
ENDBRANCH  17  18
ENDBRANCH  16  17
ENDBRANCH  15  16
ENDBRANCH  14  15
ENDBRANCH  13  14
ENDBRANCH  12  13
ENDBRANCH   1  12
TORSDOF 14
ENDMDL
MODEL 7
REMARK VINA RESULT:    -5.587      1.603      4.417
REMARK INTER + INTRA:         -11.301
REMARK INTER:                  -9.601
REMARK INTRA:                  -1.700
REMARK UNBOUND:                -1.142
REMARK SMILES CCCCCCCCCCCCCC[C@@H](C)C(=O)[O-]
REMARK SMILES IDX 9 1 10 2 11 3 12 4 13 5 14 6 15 7 16 8 17 9 18 10 19 11 8 12
REMARK SMILES IDX 7 13 6 14 5 15 4 16 3 17 2 18 1 19
REMARK H PARENT
REMARK Flexibility Score: inf
ROOT
ATOM      1  C   UNL     1      -6.829 -13.025  31.223  1.00  0.00     0.000 C 
ENDROOT
BRANCH   1   2
ATOM      2  C   UNL     1      -6.790 -14.526  31.564  1.00  0.00     0.000 C 
BRANCH   2   3
ATOM      3  C   UNL     1      -7.812 -15.349  30.762  1.00  0.00     0.000 C 
BRANCH   3   4
ATOM      4  C   UNL     1      -8.302 -16.590  31.526  1.00  0.00     0.000 C 
BRANCH   4   5
ATOM      5  C   UNL     1      -9.655 -17.114  31.010  1.00  0.00     0.001 C 
BRANCH   5   6
ATOM      6  C   UNL     1     -10.060 -16.463  29.668  1.00  0.00     0.009 C 
BRANCH   6   7
ATOM      7  C   UNL     1     -11.516 -16.731  29.223  1.00  0.00     0.032 C 
ATOM      8  C   UNL     1     -11.792 -16.285  27.781  1.00  0.00     0.014 C 
BRANCH   7   9
ATOM      9  C   UNL     1     -11.905 -18.171  29.445  1.00  0.00     0.044 C 
ATOM     10  O   UNL     1     -11.572 -19.046  28.604  1.00  0.00    -0.550 OA
ATOM     11  O   UNL     1     -12.665 -18.543  30.549  1.00  0.00    -0.550 OA
ENDBRANCH   7   9
ENDBRANCH   6   7
ENDBRANCH   5   6
ENDBRANCH   4   5
ENDBRANCH   3   4
ENDBRANCH   2   3
ENDBRANCH   1   2
BRANCH   1  12
ATOM     12  C   UNL     1      -5.522 -12.451  30.645  1.00  0.00     0.000 C 
BRANCH  12  13
ATOM     13  C   UNL     1      -4.575 -13.535  30.110  1.00  0.00    -0.000 C 
BRANCH  13  14
ATOM     14  C   UNL     1      -4.483 -13.478  28.580  1.00  0.00    -0.000 C 
BRANCH  14  15
ATOM     15  C   UNL     1      -5.266 -14.628  27.937  1.00  0.00    -0.000 C 
BRANCH  15  16
ATOM     16  C   UNL     1      -6.389 -14.093  27.036  1.00  0.00    -0.000 C 
BRANCH  16  17
ATOM     17  C   UNL     1      -7.775 -14.617  27.445  1.00  0.00    -0.000 C 
BRANCH  17  18
ATOM     18  C   UNL     1      -8.614 -15.071  26.240  1.00  0.00    -0.003 C 
ATOM     19  C   UNL     1      -9.564 -13.967  25.786  1.00  0.00     0.004 C 
ENDBRANCH  17  18
ENDBRANCH  16  17
ENDBRANCH  15  16
ENDBRANCH  14  15
ENDBRANCH  13  14
ENDBRANCH  12  13
ENDBRANCH   1  12
TORSDOF 14
ENDMDL
MODEL 8
REMARK VINA RESULT:    -5.544      3.491      7.476
REMARK INTER + INTRA:         -11.223
REMARK INTER:                  -9.724
REMARK INTRA:                  -1.499
REMARK UNBOUND:                -1.142
REMARK SMILES CCCCCCCCCCCCCC[C@@H](C)C(=O)[O-]
REMARK SMILES IDX 9 1 10 2 11 3 12 4 13 5 14 6 15 7 16 8 17 9 18 10 19 11 8 12
REMARK SMILES IDX 7 13 6 14 5 15 4 16 3 17 2 18 1 19
REMARK H PARENT
REMARK Flexibility Score: inf
ROOT
ATOM      1  C   UNL     1      -8.266 -15.263  26.824  1.00  0.00     0.000 C 
ENDROOT
BRANCH   1   2
ATOM      2  C   UNL     1      -7.056 -14.365  27.145  1.00  0.00     0.000 C 
BRANCH   2   3
ATOM      3  C   UNL     1      -7.016 -13.918  28.616  1.00  0.00     0.000 C 
BRANCH   3   4
ATOM      4  C   UNL     1      -7.499 -15.013  29.580  1.00  0.00     0.000 C 
BRANCH   4   5
ATOM      5  C   UNL     1      -7.234 -14.669  31.057  1.00  0.00     0.001 C 
BRANCH   5   6
ATOM      6  C   UNL     1      -6.953 -13.163  31.264  1.00  0.00     0.009 C 
BRANCH   6   7
ATOM      7  C   UNL     1      -5.506 -12.818  31.686  1.00  0.00     0.032 C 
ATOM      8  C   UNL     1      -4.508 -13.938  31.367  1.00  0.00     0.014 C 
BRANCH   7   9
ATOM      9  C   UNL     1      -5.065 -11.496  31.110  1.00  0.00     0.044 C 
ATOM     10  O   UNL     1      -5.678 -11.006  30.126  1.00  0.00    -0.550 OA
ATOM     11  O   UNL     1      -3.961 -10.826  31.626  1.00  0.00    -0.550 OA
ENDBRANCH   7   9
ENDBRANCH   6   7
ENDBRANCH   5   6
ENDBRANCH   4   5
ENDBRANCH   3   4
ENDBRANCH   2   3
ENDBRANCH   1   2
BRANCH   1  12
ATOM     12  C   UNL     1      -9.350 -14.613  25.945  1.00  0.00     0.000 C 
BRANCH  12  13
ATOM     13  C   UNL     1     -10.766 -15.107  26.274  1.00  0.00    -0.000 C 
BRANCH  13  14
ATOM     14  C   UNL     1     -10.772 -15.943  27.559  1.00  0.00    -0.000 C 
BRANCH  14  15
ATOM     15  C   UNL     1     -12.044 -16.793  27.659  1.00  0.00    -0.000 C 
BRANCH  15  16
ATOM     16  C   UNL     1     -11.965 -17.765  28.845  1.00  0.00    -0.000 C 
BRANCH  16  17
ATOM     17  C   UNL     1     -10.524 -17.996  29.326  1.00  0.00    -0.000 C 
BRANCH  17  18
ATOM     18  C   UNL     1     -10.278 -17.449  30.741  1.00  0.00    -0.003 C 
ATOM     19  C   UNL     1     -11.540 -16.808  31.308  1.00  0.00     0.004 C 
ENDBRANCH  17  18
ENDBRANCH  16  17
ENDBRANCH  15  16
ENDBRANCH  14  15
ENDBRANCH  13  14
ENDBRANCH  12  13
ENDBRANCH   1  12
TORSDOF 14
ENDMDL
MODEL 9
REMARK VINA RESULT:    -5.503      4.363      8.486
REMARK INTER + INTRA:         -11.148
REMARK INTER:                 -10.068
REMARK INTRA:                  -1.080
REMARK UNBOUND:                -1.142
REMARK SMILES CCCCCCCCCCCCCC[C@@H](C)C(=O)[O-]
REMARK SMILES IDX 9 1 10 2 11 3 12 4 13 5 14 6 15 7 16 8 17 9 18 10 19 11 8 12
REMARK SMILES IDX 7 13 6 14 5 15 4 16 3 17 2 18 1 19
REMARK H PARENT
REMARK Flexibility Score: inf
ROOT
ATOM      1  C   UNL     1     -11.990 -18.001  30.942  1.00  0.00     0.000 C 
ENDROOT
BRANCH   1   2
ATOM      2  C   UNL     1     -11.980 -16.527  30.497  1.00  0.00     0.000 C 
BRANCH   2   3
ATOM      3  C   UNL     1     -12.681 -16.303  29.147  1.00  0.00     0.000 C 
BRANCH   3   4
ATOM      4  C   UNL     1     -11.952 -16.991  27.982  1.00  0.00     0.000 C 
BRANCH   4   5
ATOM      5  C   UNL     1     -11.150 -16.004  27.113  1.00  0.00     0.001 C 
BRANCH   5   6
ATOM      6  C   UNL     1      -9.745 -15.724  27.693  1.00  0.00     0.009 C 
BRANCH   6   7
ATOM      7  C   UNL     1      -8.737 -15.105  26.697  1.00  0.00     0.032 C 
ATOM      8  C   UNL     1      -9.340 -13.965  25.867  1.00  0.00     0.014 C 
BRANCH   7   9
ATOM      9  C   UNL     1      -7.468 -14.679  27.391  1.00  0.00     0.044 C 
ATOM     10  O   UNL     1      -7.455 -14.541  28.643  1.00  0.00    -0.550 OA
ATOM     11  O   UNL     1      -6.317 -14.393  26.664  1.00  0.00    -0.550 OA
ENDBRANCH   7   9
ENDBRANCH   6   7
ENDBRANCH   5   6
ENDBRANCH   4   5
ENDBRANCH   3   4
ENDBRANCH   2   3
ENDBRANCH   1   2
BRANCH   1  12
ATOM     12  C   UNL     1     -12.698 -18.277  32.281  1.00  0.00     0.000 C 
BRANCH  12  13
ATOM     13  C   UNL     1     -13.102 -19.748  32.456  1.00  0.00    -0.000 C 
BRANCH  13  14
ATOM     14  C   UNL     1     -12.299 -20.409  33.583  1.00  0.00    -0.000 C 
BRANCH  14  15
ATOM     15  C   UNL     1     -13.208 -21.247  34.489  1.00  0.00    -0.000 C 
BRANCH  15  16
ATOM     16  C   UNL     1     -14.668 -21.184  34.015  1.00  0.00    -0.000 C 
BRANCH  16  17
ATOM     17  C   UNL     1     -15.621 -20.668  35.104  1.00  0.00    -0.000 C 
BRANCH  17  18
ATOM     18  C   UNL     1     -15.065 -19.443  35.845  1.00  0.00    -0.003 C 
ATOM     19  C   UNL     1     -15.303 -18.165  35.046  1.00  0.00     0.004 C 
ENDBRANCH  17  18
ENDBRANCH  16  17
ENDBRANCH  15  16
ENDBRANCH  14  15
ENDBRANCH  13  14
ENDBRANCH  12  13
ENDBRANCH   1  12
TORSDOF 14
ENDMDL
