MODEL 1
REMARK VINA RESULT:    -4.409      0.000      0.000
REMARK INTER + INTRA:          -5.974
REMARK INTER:                  -5.697
REMARK INTRA:                  -0.276
REMARK UNBOUND:                -0.276
REMARK SMILES CCCCCCC(=O)[O-]
REMARK SMILES IDX 5 1 6 2 7 3 8 4 9 5 4 6 3 7 2 8 1 9
REMARK H PARENT
REMARK Flexibility Score: inf
ROOT
ATOM      1  C   UNL     1     -16.220  29.548   1.386  1.00  0.00     0.006 C 
ENDROOT
BRANCH   1   2
ATOM      2  C   UNL     1     -16.102  28.775   0.066  1.00  0.00     0.053 C 
BRANCH   2   3
ATOM      3  C   UNL     1     -17.458  28.374  -0.426  1.00  0.00     0.041 C 
ATOM      4  O   UNL     1     -18.191  29.212  -1.014  1.00  0.00    -0.550 OA
ATOM      5  O   UNL     1     -17.930  27.089  -0.192  1.00  0.00    -0.550 OA
ENDBRANCH   2   3
ENDBRANCH   1   2
BRANCH   1   6
ATOM      6  C   UNL     1     -15.593  30.949   1.312  1.00  0.00     0.000 C 
BRANCH   6   7
ATOM      7  C   UNL     1     -16.642  32.071   1.405  1.00  0.00    -0.000 C 
BRANCH   7   8
ATOM      8  C   UNL     1     -16.591  33.026   0.203  1.00  0.00    -0.003 C 
ATOM      9  C   UNL     1     -17.726  32.790  -0.792  1.00  0.00     0.004 C 
ENDBRANCH   7   8
ENDBRANCH   6   7
ENDBRANCH   1   6
TORSDOF 5
ENDMDL
MODEL 2
REMARK VINA RESULT:    -4.323      2.346      4.609
REMARK INTER + INTRA:          -5.863
REMARK INTER:                  -5.657
REMARK INTRA:                  -0.207
REMARK UNBOUND:                -0.276
REMARK SMILES CCCCCCC(=O)[O-]
REMARK SMILES IDX 5 1 6 2 7 3 8 4 9 5 4 6 3 7 2 8 1 9
REMARK H PARENT
REMARK Flexibility Score: inf
ROOT
ATOM      1  C   UNL     1     -15.447  30.336   1.547  1.00  0.00     0.006 C 
ENDROOT
BRANCH   1   2
ATOM      2  C   UNL     1     -16.340  31.466   2.076  1.00  0.00     0.053 C 
BRANCH   2   3
ATOM      3  C   UNL     1     -16.672  32.426   0.977  1.00  0.00     0.041 C 
ATOM      4  O   UNL     1     -17.516  32.111   0.096  1.00  0.00    -0.550 OA
ATOM      5  O   UNL     1     -16.016  33.647   0.897  1.00  0.00    -0.550 OA
ENDBRANCH   2   3
ENDBRANCH   1   2
BRANCH   1   6
ATOM      6  C   UNL     1     -16.189  28.993   1.445  1.00  0.00     0.000 C 
BRANCH   6   7
ATOM      7  C   UNL     1     -16.490  28.594  -0.010  1.00  0.00    -0.000 C 
BRANCH   7   8
ATOM      8  C   UNL     1     -16.884  27.115  -0.145  1.00  0.00    -0.003 C 
ATOM      9  C   UNL     1     -16.228  26.228   0.913  1.00  0.00     0.004 C 
ENDBRANCH   7   8
ENDBRANCH   6   7
ENDBRANCH   1   6
TORSDOF 5
ENDMDL
MODEL 3
REMARK VINA RESULT:    -4.110      3.243      5.812
REMARK INTER + INTRA:          -5.588
REMARK INTER:                  -5.442
REMARK INTRA:                  -0.146
REMARK UNBOUND:                -0.276
REMARK SMILES CCCCCCC(=O)[O-]
REMARK SMILES IDX 5 1 6 2 7 3 8 4 9 5 4 6 3 7 2 8 1 9
REMARK H PARENT
REMARK Flexibility Score: inf
ROOT
ATOM      1  C   UNL     1     -16.843  26.584   1.163  1.00  0.00     0.006 C 
ENDROOT
BRANCH   1   2
ATOM      2  C   UNL     1     -16.370  27.306  -0.105  1.00  0.00     0.053 C 
BRANCH   2   3
ATOM      3  C   UNL     1     -16.888  28.710  -0.129  1.00  0.00     0.041 C 
ATOM      4  O   UNL     1     -16.331  29.601   0.566  1.00  0.00    -0.550 OA
ATOM      5  O   UNL     1     -18.013  29.024  -0.879  1.00  0.00    -0.550 OA
ENDBRANCH   2   3
ENDBRANCH   1   2
BRANCH   1   6
ATOM      6  C   UNL     1     -18.099  25.729   0.926  1.00  0.00     0.000 C 
BRANCH   6   7
ATOM      7  C   UNL     1     -17.917  24.719  -0.219  1.00  0.00    -0.000 C 
BRANCH   7   8
ATOM      8  C   UNL     1     -19.082  23.722  -0.315  1.00  0.00    -0.003 C 
ATOM      9  C   UNL     1     -19.234  23.118  -1.711  1.00  0.00     0.004 C 
ENDBRANCH   7   8
ENDBRANCH   6   7
ENDBRANCH   1   6
TORSDOF 5
ENDMDL
MODEL 4
REMARK VINA RESULT:    -4.088      3.413      4.779
REMARK INTER + INTRA:          -5.560
REMARK INTER:                  -5.333
REMARK INTRA:                  -0.226
REMARK UNBOUND:                -0.276
REMARK SMILES CCCCCCC(=O)[O-]
REMARK SMILES IDX 5 1 6 2 7 3 8 4 9 5 4 6 3 7 2 8 1 9
REMARK H PARENT
REMARK Flexibility Score: inf
ROOT
ATOM      1  C   UNL     1     -17.207  25.359   0.121  1.00  0.00     0.006 C 
ENDROOT
BRANCH   1   2
ATOM      2  C   UNL     1     -18.511  25.391   0.929  1.00  0.00     0.053 C 
BRANCH   2   3
ATOM      3  C   UNL     1     -19.383  24.232   0.558  1.00  0.00     0.041 C 
ATOM      4  O   UNL     1     -18.866  23.138   0.209  1.00  0.00    -0.550 OA
ATOM      5  O   UNL     1     -20.764  24.375   0.550  1.00  0.00    -0.550 OA
ENDBRANCH   2   3
ENDBRANCH   1   2
BRANCH   1   6
ATOM      6  C   UNL     1     -16.050  26.077   0.834  1.00  0.00     0.000 C 
BRANCH   6   7
ATOM      7  C   UNL     1     -16.537  27.024   1.943  1.00  0.00    -0.000 C 
BRANCH   7   8
ATOM      8  C   UNL     1     -16.206  28.495   1.649  1.00  0.00    -0.003 C 
ATOM      9  C   UNL     1     -16.416  28.869   0.182  1.00  0.00     0.004 C 
ENDBRANCH   7   8
ENDBRANCH   6   7
ENDBRANCH   1   6
TORSDOF 5
ENDMDL
MODEL 5
REMARK VINA RESULT:    -4.033      2.918      5.258
REMARK INTER + INTRA:          -5.489
REMARK INTER:                  -5.336
REMARK INTRA:                  -0.153
REMARK UNBOUND:                -0.276
REMARK SMILES CCCCCCC(=O)[O-]
REMARK SMILES IDX 5 1 6 2 7 3 8 4 9 5 4 6 3 7 2 8 1 9
REMARK H PARENT
REMARK Flexibility Score: inf
ROOT
ATOM      1  C   UNL     1     -16.502  28.753   0.072  1.00  0.00     0.006 C 
ENDROOT
BRANCH   1   2
ATOM      2  C   UNL     1     -16.169  28.883   1.564  1.00  0.00     0.053 C 
BRANCH   2   3
ATOM      3  C   UNL     1     -15.614  30.242   1.857  1.00  0.00     0.041 C 
ATOM      4  O   UNL     1     -14.800  30.401   2.805  1.00  0.00    -0.550 OA
ATOM      5  O   UNL     1     -16.032  31.339   1.116  1.00  0.00    -0.550 OA
ENDBRANCH   2   3
ENDBRANCH   1   2
BRANCH   1   6
ATOM      6  C   UNL     1     -17.124  27.392  -0.281  1.00  0.00     0.000 C 
BRANCH   6   7
ATOM      7  C   UNL     1     -17.057  26.393   0.886  1.00  0.00    -0.000 C 
BRANCH   7   8
ATOM      8  C   UNL     1     -18.253  25.427   0.904  1.00  0.00    -0.003 C 
ATOM      9  C   UNL     1     -18.252  24.460  -0.280  1.00  0.00     0.004 C 
ENDBRANCH   7   8
ENDBRANCH   6   7
ENDBRANCH   1   6
TORSDOF 5
ENDMDL
MODEL 6
REMARK VINA RESULT:    -3.993      1.398      2.025
REMARK INTER + INTRA:          -5.437
REMARK INTER:                  -5.110
REMARK INTRA:                  -0.327
REMARK UNBOUND:                -0.276
REMARK SMILES CCCCCCC(=O)[O-]
REMARK SMILES IDX 5 1 6 2 7 3 8 4 9 5 4 6 3 7 2 8 1 9
REMARK H PARENT
REMARK Flexibility Score: inf
ROOT
ATOM      1  C   UNL     1     -16.378  28.710  -0.211  1.00  0.00     0.006 C 
ENDROOT
BRANCH   1   2
ATOM      2  C   UNL     1     -17.829  28.338  -0.544  1.00  0.00     0.053 C 
BRANCH   2   3
ATOM      3  C   UNL     1     -18.488  29.443  -1.309  1.00  0.00     0.041 C 
ATOM      4  O   UNL     1     -17.819  30.446  -1.673  1.00  0.00    -0.550 OA
ATOM      5  O   UNL     1     -19.849  29.388  -1.576  1.00  0.00    -0.550 OA
ENDBRANCH   2   3
ENDBRANCH   1   2
BRANCH   1   6
ATOM      6  C   UNL     1     -16.210  29.209   1.233  1.00  0.00     0.000 C 
BRANCH   6   7
ATOM      7  C   UNL     1     -15.525  30.584   1.306  1.00  0.00    -0.000 C 
BRANCH   7   8
ATOM      8  C   UNL     1     -16.520  31.724   1.577  1.00  0.00    -0.003 C 
ATOM      9  C   UNL     1     -16.394  32.872   0.576  1.00  0.00     0.004 C 
ENDBRANCH   7   8
ENDBRANCH   6   7
ENDBRANCH   1   6
TORSDOF 5
ENDMDL
MODEL 7
REMARK VINA RESULT:    -3.900      4.783      6.612
REMARK INTER + INTRA:          -5.316
REMARK INTER:                  -5.188
REMARK INTRA:                  -0.128
REMARK UNBOUND:                -0.276
REMARK SMILES CCCCCCC(=O)[O-]
REMARK SMILES IDX 5 1 6 2 7 3 8 4 9 5 4 6 3 7 2 8 1 9
REMARK H PARENT
REMARK Flexibility Score: inf
ROOT
ATOM      1  C   UNL     1     -19.454  23.700   0.111  1.00  0.00     0.006 C 
ENDROOT
BRANCH   1   2
ATOM      2  C   UNL     1     -18.894  23.408  -1.287  1.00  0.00     0.053 C 
BRANCH   2   3
ATOM      3  C   UNL     1     -19.615  22.252  -1.907  1.00  0.00     0.041 C 
ATOM      4  O   UNL     1     -20.865  22.291  -2.054  1.00  0.00    -0.550 OA
ATOM      5  O   UNL     1     -18.913  21.112  -2.276  1.00  0.00    -0.550 OA
ENDBRANCH   2   3
ENDBRANCH   1   2
BRANCH   1   6
ATOM      6  C   UNL     1     -18.860  24.974   0.733  1.00  0.00     0.000 C 
BRANCH   6   7
ATOM      7  C   UNL     1     -17.501  25.352   0.122  1.00  0.00    -0.000 C 
BRANCH   7   8
ATOM      8  C   UNL     1     -16.763  26.422   0.942  1.00  0.00    -0.003 C 
ATOM      9  C   UNL     1     -16.413  27.662   0.120  1.00  0.00     0.004 C 
ENDBRANCH   7   8
ENDBRANCH   6   7
ENDBRANCH   1   6
TORSDOF 5
ENDMDL
MODEL 8
REMARK VINA RESULT:    -3.891      1.509      3.308
REMARK INTER + INTRA:          -5.305
REMARK INTER:                  -5.057
REMARK INTRA:                  -0.248
REMARK UNBOUND:                -0.276
REMARK SMILES CCCCCCC(=O)[O-]
REMARK SMILES IDX 5 1 6 2 7 3 8 4 9 5 4 6 3 7 2 8 1 9
REMARK H PARENT
REMARK Flexibility Score: inf
ROOT
ATOM      1  C   UNL     1     -17.780  32.558   0.116  1.00  0.00     0.006 C 
ENDROOT
BRANCH   1   2
ATOM      2  C   UNL     1     -17.880  32.627  -1.413  1.00  0.00     0.053 C 
BRANCH   2   3
ATOM      3  C   UNL     1     -18.250  31.289  -1.972  1.00  0.00     0.041 C 
ATOM      4  O   UNL     1     -18.265  31.106  -3.218  1.00  0.00    -0.550 OA
ATOM      5  O   UNL     1     -18.625  30.259  -1.120  1.00  0.00    -0.550 OA
ENDBRANCH   2   3
ENDBRANCH   1   2
BRANCH   1   6
ATOM      6  C   UNL     1     -16.333  32.403   0.610  1.00  0.00     0.000 C 
BRANCH   6   7
ATOM      7  C   UNL     1     -16.227  31.509   1.856  1.00  0.00    -0.000 C 
BRANCH   7   8
ATOM      8  C   UNL     1     -15.355  30.266   1.617  1.00  0.00    -0.003 C 
ATOM      9  C   UNL     1     -16.110  29.138   0.915  1.00  0.00     0.004 C 
ENDBRANCH   7   8
ENDBRANCH   6   7
ENDBRANCH   1   6
TORSDOF 5
ENDMDL
MODEL 9
REMARK VINA RESULT:    -3.814      3.364      5.167
REMARK INTER + INTRA:          -5.206
REMARK INTER:                  -5.051
REMARK INTRA:                  -0.154
REMARK UNBOUND:                -0.276
REMARK SMILES CCCCCCC(=O)[O-]
REMARK SMILES IDX 5 1 6 2 7 3 8 4 9 5 4 6 3 7 2 8 1 9
REMARK H PARENT
REMARK Flexibility Score: inf
ROOT
ATOM      1  C   UNL     1     -16.231  28.477   1.656  1.00  0.00     0.006 C 
ENDROOT
BRANCH   1   2
ATOM      2  C   UNL     1     -15.809  29.881   2.109  1.00  0.00     0.053 C 
BRANCH   2   3
ATOM      3  C   UNL     1     -15.843  29.980   3.602  1.00  0.00     0.041 C 
ATOM      4  O   UNL     1     -14.890  30.520   4.222  1.00  0.00    -0.550 OA
ATOM      5  O   UNL     1     -16.904  29.432   4.311  1.00  0.00    -0.550 OA
ENDBRANCH   2   3
ENDBRANCH   1   2
BRANCH   1   6
ATOM      6  C   UNL     1     -16.412  28.375   0.133  1.00  0.00     0.000 C 
BRANCH   6   7
ATOM      7  C   UNL     1     -17.193  27.118  -0.285  1.00  0.00    -0.000 C 
BRANCH   7   8
ATOM      8  C   UNL     1     -17.406  26.141   0.882  1.00  0.00    -0.003 C 
ATOM      9  C   UNL     1     -18.590  25.200   0.660  1.00  0.00     0.004 C 
ENDBRANCH   7   8
ENDBRANCH   6   7
ENDBRANCH   1   6
TORSDOF 5
ENDMDL
