MODEL 1
REMARK VINA RESULT:    -5.216      0.000      0.000
REMARK INTER + INTRA:          -5.617
REMARK INTER:                  -5.521
REMARK INTRA:                  -0.096
REMARK UNBOUND:                -0.096
REMARK SMILES C=C(C)[C@H]1CC=C(C)C(=O)C1
REMARK SMILES IDX 8 1 7 2 6 3 5 4 4 5 11 6 9 7 10 8 2 9 1 10 3 11
REMARK H PARENT
REMARK Flexibility Score: inf
ROOT
ATOM      1  C   UNL     1     -29.577  19.526 -33.404  1.00  0.00     0.048 C 
ATOM      2  C   UNL     1     -28.082  19.585 -33.553  1.00  0.00    -0.012 C 
ATOM      3  C   UNL     1     -27.525  20.525 -34.336  1.00  0.00    -0.019 C 
ATOM      4  C   UNL     1     -26.035  20.618 -34.535  1.00  0.00     0.036 C 
ATOM      5  C   UNL     1     -25.278  20.173 -33.270  1.00  0.00     0.025 C 
ATOM      6  C   UNL     1     -25.723  18.761 -32.849  1.00  0.00     0.089 C 
ATOM      7  C   UNL     1     -27.222  18.689 -32.742  1.00  0.00     0.158 C 
ATOM      8  O   UNL     1     -27.742  17.830 -31.979  1.00  0.00    -0.295 OA
ENDROOT
BRANCH   5   9
ATOM      9  C   UNL     1     -23.770  20.246 -33.468  1.00  0.00    -0.077 C 
ATOM     10  C   UNL     1     -23.180  19.516 -34.427  1.00  0.00     0.008 C 
ATOM     11  C   UNL     1     -22.907  21.132 -32.603  1.00  0.00     0.039 C 
ENDBRANCH   5   9
TORSDOF 1
ENDMDL
MODEL 2
REMARK VINA RESULT:    -5.075      7.231      9.257
REMARK INTER + INTRA:          -5.468
REMARK INTER:                  -5.370
REMARK INTRA:                  -0.098
REMARK UNBOUND:                -0.096
REMARK SMILES C=C(C)[C@H]1CC=C(C)C(=O)C1
REMARK SMILES IDX 8 1 7 2 6 3 5 4 4 5 11 6 9 7 10 8 2 9 1 10 3 11
REMARK H PARENT
REMARK Flexibility Score: inf
ROOT
ATOM      1  C   UNL     1     -23.464  14.371 -30.655  1.00  0.00     0.048 C 
ATOM      2  C   UNL     1     -24.596  13.520 -30.149  1.00  0.00    -0.012 C 
ATOM      3  C   UNL     1     -24.332  12.387 -29.477  1.00  0.00    -0.019 C 
ATOM      4  C   UNL     1     -25.428  11.489 -28.964  1.00  0.00     0.036 C 
ATOM      5  C   UNL     1     -26.673  12.305 -28.568  1.00  0.00     0.025 C 
ATOM      6  C   UNL     1     -27.138  13.177 -29.748  1.00  0.00     0.089 C 
ATOM      7  C   UNL     1     -25.996  13.996 -30.283  1.00  0.00     0.158 C 
ATOM      8  O   UNL     1     -26.243  15.077 -30.882  1.00  0.00    -0.295 OA
ENDROOT
BRANCH   5   9
ATOM      9  C   UNL     1     -27.793  11.404 -28.066  1.00  0.00    -0.077 C 
ATOM     10  C   UNL     1     -29.073  11.706 -28.336  1.00  0.00     0.008 C 
ATOM     11  C   UNL     1     -27.500  10.161 -27.261  1.00  0.00     0.039 C 
ENDBRANCH   5   9
TORSDOF 1
ENDMDL
MODEL 3
REMARK VINA RESULT:    -4.792     10.758     12.337
REMARK INTER + INTRA:          -5.168
REMARK INTER:                  -5.076
REMARK INTRA:                  -0.093
REMARK UNBOUND:                -0.096
REMARK SMILES C=C(C)[C@H]1CC=C(C)C(=O)C1
REMARK SMILES IDX 8 1 7 2 6 3 5 4 4 5 11 6 9 7 10 8 2 9 1 10 3 11
REMARK H PARENT
REMARK Flexibility Score: inf
ROOT
ATOM      1  C   UNL     1     -14.742  15.046 -30.952  1.00  0.00     0.048 C 
ATOM      2  C   UNL     1     -15.779  14.006 -30.632  1.00  0.00    -0.012 C 
ATOM      3  C   UNL     1     -15.759  13.388 -29.438  1.00  0.00    -0.019 C 
ATOM      4  C   UNL     1     -16.762  12.327 -29.071  1.00  0.00     0.036 C 
ATOM      5  C   UNL     1     -18.126  12.600 -29.734  1.00  0.00     0.025 C 
ATOM      6  C   UNL     1     -17.960  12.745 -31.257  1.00  0.00     0.089 C 
ATOM      7  C   UNL     1     -16.892  13.754 -31.580  1.00  0.00     0.158 C 
ATOM      8  O   UNL     1     -16.932  14.359 -32.685  1.00  0.00    -0.295 OA
ENDROOT
BRANCH   5   9
ATOM      9  C   UNL     1     -19.142  11.522 -29.384  1.00  0.00    -0.077 C 
ATOM     10  C   UNL     1     -20.450  11.733 -29.599  1.00  0.00     0.008 C 
ATOM     11  C   UNL     1     -18.713  10.200 -28.796  1.00  0.00     0.039 C 
ENDBRANCH   5   9
TORSDOF 1
ENDMDL
MODEL 4
REMARK VINA RESULT:    -4.742      7.169      8.391
REMARK INTER + INTRA:          -5.116
REMARK INTER:                  -5.027
REMARK INTRA:                  -0.088
REMARK UNBOUND:                -0.096
REMARK SMILES C=C(C)[C@H]1CC=C(C)C(=O)C1
REMARK SMILES IDX 8 1 7 2 6 3 5 4 4 5 11 6 9 7 10 8 2 9 1 10 3 11
REMARK H PARENT
REMARK Flexibility Score: inf
ROOT
ATOM      1  C   UNL     1     -30.092  10.174 -31.102  1.00  0.00     0.048 C 
ATOM      2  C   UNL     1     -28.843  10.935 -30.755  1.00  0.00    -0.012 C 
ATOM      3  C   UNL     1     -27.820  10.973 -31.626  1.00  0.00    -0.019 C 
ATOM      4  C   UNL     1     -26.539  11.704 -31.322  1.00  0.00     0.036 C 
ATOM      5  C   UNL     1     -26.802  12.942 -30.445  1.00  0.00     0.025 C 
ATOM      6  C   UNL     1     -27.562  12.540 -29.167  1.00  0.00     0.089 C 
ATOM      7  C   UNL     1     -28.790  11.742 -29.511  1.00  0.00     0.158 C 
ATOM      8  O   UNL     1     -29.763  11.736 -28.709  1.00  0.00    -0.295 OA
ENDROOT
BRANCH   5   9
ATOM      9  C   UNL     1     -25.511  13.678 -30.116  1.00  0.00    -0.077 C 
ATOM     10  C   UNL     1     -25.458  15.017 -30.199  1.00  0.00     0.008 C 
ATOM     11  C   UNL     1     -24.269  12.934 -29.691  1.00  0.00     0.039 C 
ENDBRANCH   5   9
TORSDOF 1
ENDMDL
MODEL 5
REMARK VINA RESULT:    -4.679     11.295     13.134
REMARK INTER + INTRA:          -5.049
REMARK INTER:                  -4.953
REMARK INTRA:                  -0.096
REMARK UNBOUND:                -0.096
REMARK SMILES C=C(C)[C@H]1CC=C(C)C(=O)C1
REMARK SMILES IDX 8 1 7 2 6 3 5 4 4 5 11 6 9 7 10 8 2 9 1 10 3 11
REMARK H PARENT
REMARK Flexibility Score: inf
ROOT
ATOM      1  C   UNL     1     -18.330  12.773 -30.561  1.00  0.00     0.048 C 
ATOM      2  C   UNL     1     -16.891  13.202 -30.473  1.00  0.00    -0.012 C 
ATOM      3  C   UNL     1     -16.144  12.824 -29.421  1.00  0.00    -0.019 C 
ATOM      4  C   UNL     1     -14.704  13.240 -29.274  1.00  0.00     0.036 C 
ATOM      5  C   UNL     1     -14.023  13.374 -30.648  1.00  0.00     0.025 C 
ATOM      6  C   UNL     1     -14.819  14.337 -31.548  1.00  0.00     0.089 C 
ATOM      7  C   UNL     1     -16.267  13.934 -31.603  1.00  0.00     0.158 C 
ATOM      8  O   UNL     1     -16.958  14.258 -32.606  1.00  0.00    -0.295 OA
ENDROOT
BRANCH   5   9
ATOM      9  C   UNL     1     -12.572  13.813 -30.511  1.00  0.00    -0.077 C 
ATOM     10  C   UNL     1     -11.817  14.000 -31.605  1.00  0.00     0.008 C 
ATOM     11  C   UNL     1     -11.947  14.050 -29.157  1.00  0.00     0.039 C 
ENDBRANCH   5   9
TORSDOF 1
ENDMDL
MODEL 6
REMARK VINA RESULT:    -4.656      6.990      9.014
REMARK INTER + INTRA:          -5.025
REMARK INTER:                  -4.928
REMARK INTRA:                  -0.096
REMARK UNBOUND:                -0.096
REMARK SMILES C=C(C)[C@H]1CC=C(C)C(=O)C1
REMARK SMILES IDX 8 1 7 2 6 3 5 4 4 5 11 6 9 7 10 8 2 9 1 10 3 11
REMARK H PARENT
REMARK Flexibility Score: inf
ROOT
ATOM      1  C   UNL     1     -22.862  13.963 -30.472  1.00  0.00     0.048 C 
ATOM      2  C   UNL     1     -24.246  13.555 -30.050  1.00  0.00    -0.012 C 
ATOM      3  C   UNL     1     -25.274  14.405 -30.218  1.00  0.00    -0.019 C 
ATOM      4  C   UNL     1     -26.676  14.055 -29.797  1.00  0.00     0.036 C 
ATOM      5  C   UNL     1     -26.940  12.545 -29.947  1.00  0.00     0.025 C 
ATOM      6  C   UNL     1     -25.881  11.738 -29.176  1.00  0.00     0.089 C 
ATOM      7  C   UNL     1     -24.495  12.175 -29.565  1.00  0.00     0.158 C 
ATOM      8  O   UNL     1     -23.537  11.364 -29.441  1.00  0.00    -0.295 OA
ENDROOT
BRANCH   5   9
ATOM      9  C   UNL     1     -28.350  12.178 -29.505  1.00  0.00    -0.077 C 
ATOM     10  C   UNL     1     -28.799  12.558 -28.299  1.00  0.00     0.008 C 
ATOM     11  C   UNL     1     -29.273  11.388 -30.401  1.00  0.00     0.039 C 
ENDBRANCH   5   9
TORSDOF 1
ENDMDL
MODEL 7
REMARK VINA RESULT:    -4.633     11.147     12.077
REMARK INTER + INTRA:          -5.000
REMARK INTER:                  -4.912
REMARK INTRA:                  -0.088
REMARK UNBOUND:                -0.096
REMARK SMILES C=C(C)[C@H]1CC=C(C)C(=O)C1
REMARK SMILES IDX 8 1 7 2 6 3 5 4 4 5 11 6 9 7 10 8 2 9 1 10 3 11
REMARK H PARENT
REMARK Flexibility Score: inf
ROOT
ATOM      1  C   UNL     1     -19.177  12.024 -29.678  1.00  0.00     0.048 C 
ATOM      2  C   UNL     1     -17.879  12.669 -30.077  1.00  0.00    -0.012 C 
ATOM      3  C   UNL     1     -17.767  13.256 -31.281  1.00  0.00    -0.019 C 
ATOM      4  C   UNL     1     -16.485  13.900 -31.739  1.00  0.00     0.036 C 
ATOM      5  C   UNL     1     -15.715  14.508 -30.552  1.00  0.00     0.025 C 
ATOM      6  C   UNL     1     -15.477  13.443 -29.467  1.00  0.00     0.089 C 
ATOM      7  C   UNL     1     -16.769  12.766 -29.097  1.00  0.00     0.158 C 
ATOM      8  O   UNL     1     -16.885  12.248 -27.954  1.00  0.00    -0.295 OA
ENDROOT
BRANCH   5   9
ATOM      9  C   UNL     1     -14.409  15.146 -31.002  1.00  0.00    -0.077 C 
ATOM     10  C   UNL     1     -14.106  16.399 -30.626  1.00  0.00     0.008 C 
ATOM     11  C   UNL     1     -13.427  14.398 -31.870  1.00  0.00     0.039 C 
ENDBRANCH   5   9
TORSDOF 1
ENDMDL
MODEL 8
REMARK VINA RESULT:    -4.613      8.680      9.929
REMARK INTER + INTRA:          -4.979
REMARK INTER:                  -4.882
REMARK INTRA:                  -0.097
REMARK UNBOUND:                -0.096
REMARK SMILES C=C(C)[C@H]1CC=C(C)C(=O)C1
REMARK SMILES IDX 8 1 7 2 6 3 5 4 4 5 11 6 9 7 10 8 2 9 1 10 3 11
REMARK H PARENT
REMARK Flexibility Score: inf
ROOT
ATOM      1  C   UNL     1     -28.304   9.875 -34.164  1.00  0.00     0.048 C 
ATOM      2  C   UNL     1     -28.340  10.396 -32.754  1.00  0.00    -0.012 C 
ATOM      3  C   UNL     1     -29.252   9.920 -31.889  1.00  0.00    -0.019 C 
ATOM      4  C   UNL     1     -29.345  10.419 -30.471  1.00  0.00     0.036 C 
ATOM      5  C   UNL     1     -27.958  10.815 -29.931  1.00  0.00     0.025 C 
ATOM      6  C   UNL     1     -27.292  11.840 -30.868  1.00  0.00     0.089 C 
ATOM      7  C   UNL     1     -27.294  11.339 -32.287  1.00  0.00     0.158 C 
ATOM      8  O   UNL     1     -26.416  11.759 -33.087  1.00  0.00    -0.295 OA
ENDROOT
BRANCH   5   9
ATOM      9  C   UNL     1     -28.043  11.339 -28.505  1.00  0.00    -0.077 C 
ATOM     10  C   UNL     1     -29.073  12.116 -28.132  1.00  0.00     0.008 C 
ATOM     11  C   UNL     1     -26.987  11.003 -27.480  1.00  0.00     0.039 C 
ENDBRANCH   5   9
TORSDOF 1
ENDMDL
MODEL 9
REMARK VINA RESULT:    -4.507     11.083     12.990
REMARK INTER + INTRA:          -4.867
REMARK INTER:                  -4.769
REMARK INTRA:                  -0.098
REMARK UNBOUND:                -0.096
REMARK SMILES C=C(C)[C@H]1CC=C(C)C(=O)C1
REMARK SMILES IDX 8 1 7 2 6 3 5 4 4 5 11 6 9 7 10 8 2 9 1 10 3 11
REMARK H PARENT
REMARK Flexibility Score: inf
ROOT
ATOM      1  C   UNL     1     -13.499  14.342 -31.770  1.00  0.00     0.048 C 
ATOM      2  C   UNL     1     -14.804  13.878 -31.186  1.00  0.00    -0.012 C 
ATOM      3  C   UNL     1     -15.871  13.707 -31.986  1.00  0.00    -0.019 C 
ATOM      4  C   UNL     1     -17.206  13.262 -31.451  1.00  0.00     0.036 C 
ATOM      5  C   UNL     1     -17.034  12.320 -30.245  1.00  0.00     0.025 C 
ATOM      6  C   UNL     1     -16.166  12.989 -29.163  1.00  0.00     0.089 C 
ATOM      7  C   UNL     1     -14.878  13.492 -29.755  1.00  0.00     0.158 C 
ATOM      8  O   UNL     1     -13.868  13.618 -29.011  1.00  0.00    -0.295 OA
ENDROOT
BRANCH   5   9
ATOM      9  C   UNL     1     -18.379  11.879 -29.685  1.00  0.00    -0.077 C 
ATOM     10  C   UNL     1     -19.442  12.695 -29.763  1.00  0.00     0.008 C 
ATOM     11  C   UNL     1     -18.555  10.527 -29.036  1.00  0.00     0.039 C 
ENDBRANCH   5   9
TORSDOF 1
ENDMDL
