MODEL 1
REMARK VINA RESULT:    -4.973      0.000      0.000
REMARK INTER + INTRA:          -8.093
REMARK INTER:                  -7.589
REMARK INTRA:                  -0.504
REMARK UNBOUND:                -0.504
REMARK SMILES CC1=CCC[C@@H](C)C(=O)C[C@@H](C(C)C)C(=O)C1
REMARK SMILES IDX 8 1 9 2 6 3 7 4 5 5 4 6 3 7 2 8 1 9 10 11 11 12 15 13 16 14
REMARK SMILES IDX 17 15 12 17 13 18 14 19
REMARK H PARENT
REMARK Flexibility Score: 70.00
ROOT
ATOM      1  C   UNL     1      -9.224  32.652  22.081  1.00  0.00     0.136 C 
ATOM      2  O   UNL     1     -10.125  32.553  21.259  1.00  0.00    -0.299 OA
ENDROOT
BRANCH   1   3
ATOM      3  C   UNL     1      -7.846  32.149  21.702  1.00  0.00     0.053 C 
ATOM      4  C   UNL     1      -7.440  32.731  20.344  1.00  0.00     0.016 C 
BRANCH   3   5
ATOM      5  C   UNL     1      -7.721  30.608  21.685  1.00  0.00     0.015 C 
BRANCH   5   6
ATOM      6  C   UNL     1      -7.002  30.027  22.921  1.00  0.00     0.028 C 
BRANCH   6   7
ATOM      7  C   UNL     1      -7.946  29.249  23.811  1.00  0.00    -0.028 C 
ATOM      8  C   UNL     1      -8.302  29.554  25.082  1.00  0.00    -0.070 CG0
ATOM      9  C   UNL     1      -9.193  28.579  25.809  1.00  0.00     0.039 C 
ATOM     10  G   UNL     1      -7.766  30.747  25.850  1.00  0.00     0.000 G0
ENDBRANCH   6   7
ENDBRANCH   5   6
ENDBRANCH   3   5
ENDBRANCH   1   3
BRANCH   1  11
ATOM     11  C   UNL     1      -9.544  33.107  23.490  1.00  0.00     0.087 C 
BRANCH  11  12
ATOM     12  C   UNL     1      -8.358  32.995  24.488  1.00  0.00     0.066 C 
BRANCH  12  13
ATOM     13  C   UNL     1      -8.580  32.010  25.646  1.00  0.00     0.140 C 
ATOM     14  O   UNL     1      -9.409  32.296  26.497  1.00  0.00    -0.299 OA
BRANCH  13  15
ATOM     15  C   UNL     1      -7.773  30.745  25.870  1.00  0.00     0.106 CG0
ATOM     16  G   UNL     1      -8.297  29.562  25.078  1.00  0.00     0.000 G0
ENDBRANCH  13  15
ENDBRANCH  12  13
BRANCH  12  17
ATOM     17  C   UNL     1      -7.930  34.423  24.972  1.00  0.00    -0.006 C 
ATOM     18  C   UNL     1      -6.631  34.923  24.324  1.00  0.00     0.008 C 
ATOM     19  C   UNL     1      -9.046  35.468  24.802  1.00  0.00     0.008 C 
ENDBRANCH  12  17
ENDBRANCH  11  12
ENDBRANCH   1  11
TORSDOF 1
ENDMDL
MODEL 2
REMARK VINA RESULT:    -4.939      2.066      4.976
REMARK INTER + INTRA:          -8.042
REMARK INTER:                  -8.112
REMARK INTRA:                   0.071
REMARK UNBOUND:                -0.504
REMARK SMILES CC1=CCC[C@@H](C)C(=O)C[C@@H](C(C)C)C(=O)C1
REMARK SMILES IDX 8 1 9 2 6 3 7 4 5 5 4 6 3 7 2 8 1 9 10 11 11 12 15 13 16 14
REMARK SMILES IDX 17 15 12 17 13 18 14 19
REMARK H PARENT
REMARK Flexibility Score: 70.00
ROOT
ATOM      1  C   UNL     1      -8.020  33.384  26.053  1.00  0.00     0.136 C 
ATOM      2  O   UNL     1      -7.887  33.095  27.234  1.00  0.00    -0.299 OA
ENDROOT
BRANCH   1   3
ATOM      3  C   UNL     1      -7.444  34.698  25.564  1.00  0.00     0.053 C 
ATOM      4  C   UNL     1      -8.503  35.800  25.682  1.00  0.00     0.016 C 
BRANCH   3   5
ATOM      5  C   UNL     1      -6.885  34.643  24.124  1.00  0.00     0.015 C 
BRANCH   5   6
ATOM      6  C   UNL     1      -7.879  35.130  23.050  1.00  0.00     0.028 C 
BRANCH   6   7
ATOM      7  C   UNL     1      -7.644  34.458  21.715  1.00  0.00    -0.028 C 
ATOM      8  C   UNL     1      -8.205  33.306  21.275  1.00  0.00    -0.070 CG0
ATOM      9  C   UNL     1      -7.751  32.776  19.938  1.00  0.00     0.039 C 
ATOM     10  G   UNL     1      -9.166  32.464  22.092  1.00  0.00     0.000 G0
ENDBRANCH   6   7
ENDBRANCH   5   6
ENDBRANCH   3   5
ENDBRANCH   1   3
BRANCH   1  11
ATOM     11  C   UNL     1      -8.891  32.520  25.165  1.00  0.00     0.087 C 
BRANCH  11  12
ATOM     12  C   UNL     1      -8.118  31.438  24.360  1.00  0.00     0.066 C 
BRANCH  12  13
ATOM     13  C   UNL     1      -8.500  31.344  22.875  1.00  0.00     0.140 C 
ATOM     14  O   UNL     1      -8.163  30.347  22.253  1.00  0.00    -0.299 OA
BRANCH  13  15
ATOM     15  C   UNL     1      -9.184  32.446  22.088  1.00  0.00     0.106 CG0
ATOM     16  G   UNL     1      -8.211  33.302  21.299  1.00  0.00     0.000 G0
ENDBRANCH  13  15
ENDBRANCH  12  13
BRANCH  12  17
ATOM     17  C   UNL     1      -8.199  30.060  25.102  1.00  0.00    -0.006 C 
ATOM     18  C   UNL     1      -7.341  30.001  26.375  1.00  0.00     0.008 C 
ATOM     19  C   UNL     1      -9.644  29.635  25.414  1.00  0.00     0.008 C 
ENDBRANCH  12  17
ENDBRANCH  11  12
ENDBRANCH   1  11
TORSDOF 1
ENDMDL
MODEL 3
REMARK VINA RESULT:    -4.870      1.608      4.021
REMARK INTER + INTRA:          -7.936
REMARK INTER:                  -8.176
REMARK INTRA:                   0.240
REMARK UNBOUND:                -0.504
REMARK SMILES CC1=CCC[C@@H](C)C(=O)C[C@@H](C(C)C)C(=O)C1
REMARK SMILES IDX 8 1 9 2 6 3 7 4 5 5 4 6 3 7 2 8 1 9 10 11 11 12 15 13 16 14
REMARK SMILES IDX 17 15 12 17 13 18 14 19
REMARK H PARENT
REMARK Flexibility Score: 70.00
ROOT
ATOM      1  C   UNL     1      -8.561  31.943  21.442  1.00  0.00     0.136 C 
ATOM      2  O   UNL     1      -9.388  31.400  20.723  1.00  0.00    -0.299 OA
ENDROOT
BRANCH   1   3
ATOM      3  C   UNL     1      -8.301  33.423  21.248  1.00  0.00     0.053 C 
ATOM      4  C   UNL     1      -7.493  33.642  19.964  1.00  0.00     0.016 C 
BRANCH   3   5
ATOM      5  C   UNL     1      -7.597  34.100  22.447  1.00  0.00     0.015 C 
BRANCH   5   6
ATOM      6  C   UNL     1      -8.560  34.523  23.577  1.00  0.00     0.028 C 
BRANCH   6   7
ATOM      7  C   UNL     1      -7.945  34.331  24.945  1.00  0.00    -0.028 C 
ATOM      8  C   UNL     1      -8.131  33.281  25.780  1.00  0.00    -0.070 CG0
ATOM      9  C   UNL     1      -7.482  33.347  27.139  1.00  0.00     0.039 C 
ATOM     10  G   UNL     1      -9.044  32.108  25.477  1.00  0.00     0.000 G0
ENDBRANCH   6   7
ENDBRANCH   5   6
ENDBRANCH   3   5
ENDBRANCH   1   3
BRANCH   1  11
ATOM     11  C   UNL     1      -7.710  31.102  22.370  1.00  0.00     0.087 C 
BRANCH  11  12
ATOM     12  C   UNL     1      -8.507  30.355  23.476  1.00  0.00     0.066 C 
BRANCH  12  13
ATOM     13  C   UNL     1      -8.304  30.899  24.897  1.00  0.00     0.140 C 
ATOM     14  O   UNL     1      -7.566  30.285  25.653  1.00  0.00    -0.299 OA
BRANCH  13  15
ATOM     15  C   UNL     1      -9.033  32.099  25.474  1.00  0.00     0.106 CG0
ATOM     16  G   UNL     1      -8.110  33.265  25.772  1.00  0.00     0.000 G0
ENDBRANCH  13  15
ENDBRANCH  12  13
BRANCH  12  17
ATOM     17  C   UNL     1      -8.250  28.812  23.368  1.00  0.00    -0.006 C 
ATOM     18  C   UNL     1      -8.945  27.999  24.471  1.00  0.00     0.008 C 
ATOM     19  C   UNL     1      -8.606  28.243  21.984  1.00  0.00     0.008 C 
ENDBRANCH  12  17
ENDBRANCH  11  12
ENDBRANCH   1  11
TORSDOF 1
ENDMDL
MODEL 4
REMARK VINA RESULT:    -4.730      2.102      4.472
REMARK INTER + INTRA:          -7.723
REMARK INTER:                  -7.703
REMARK INTRA:                  -0.020
REMARK UNBOUND:                -0.504
REMARK SMILES CC1=CCC[C@@H](C)C(=O)C[C@@H](C(C)C)C(=O)C1
REMARK SMILES IDX 8 1 9 2 6 3 7 4 5 5 4 6 3 7 2 8 1 9 10 11 11 12 15 13 16 14
REMARK SMILES IDX 17 15 12 17 13 18 14 19
REMARK H PARENT
REMARK Flexibility Score: 70.00
ROOT
ATOM      1  C   UNL     1      -7.920  30.205  23.580  1.00  0.00     0.136 C 
ATOM      2  O   UNL     1      -7.066  29.717  22.853  1.00  0.00    -0.299 OA
ENDROOT
BRANCH   1   3
ATOM      3  C   UNL     1      -8.085  29.638  24.977  1.00  0.00     0.053 C 
ATOM      4  C   UNL     1      -9.571  29.394  25.262  1.00  0.00     0.016 C 
BRANCH   3   5
ATOM      5  C   UNL     1      -7.461  30.513  26.088  1.00  0.00     0.015 C 
BRANCH   5   6
ATOM      6  C   UNL     1      -8.410  31.603  26.630  1.00  0.00     0.028 C 
BRANCH   6   7
ATOM      7  C   UNL     1      -7.779  32.977  26.582  1.00  0.00    -0.028 C 
ATOM      8  C   UNL     1      -8.061  33.971  25.707  1.00  0.00    -0.070 CG0
ATOM      9  C   UNL     1      -7.238  35.231  25.794  1.00  0.00     0.039 C 
ATOM     10  G   UNL     1      -9.067  33.847  24.578  1.00  0.00     0.000 G0
ENDBRANCH   6   7
ENDBRANCH   5   6
ENDBRANCH   3   5
ENDBRANCH   1   3
BRANCH   1  11
ATOM     11  C   UNL     1      -8.888  31.224  23.018  1.00  0.00     0.087 C 
BRANCH  11  12
ATOM     12  C   UNL     1      -8.214  32.484  22.407  1.00  0.00     0.066 C 
BRANCH  12  13
ATOM     13  C   UNL     1      -8.412  33.777  23.212  1.00  0.00     0.140 C 
ATOM     14  O   UNL     1      -7.949  34.815  22.762  1.00  0.00    -0.299 OA
BRANCH  13  15
ATOM     15  C   UNL     1      -9.059  33.850  24.582  1.00  0.00     0.106 CG0
ATOM     16  G   UNL     1      -8.050  33.993  25.706  1.00  0.00     0.000 G0
ENDBRANCH  13  15
ENDBRANCH  12  13
BRANCH  12  17
ATOM     17  C   UNL     1      -8.624  32.632  20.901  1.00  0.00    -0.006 C 
ATOM     18  C   UNL     1      -7.443  32.491  19.929  1.00  0.00     0.008 C 
ATOM     19  C   UNL     1      -9.762  31.678  20.497  1.00  0.00     0.008 C 
ENDBRANCH  12  17
ENDBRANCH  11  12
ENDBRANCH   1  11
TORSDOF 1
ENDMDL
MODEL 5
REMARK VINA RESULT:    -4.608      1.604      2.643
REMARK INTER + INTRA:          -7.536
REMARK INTER:                  -7.373
REMARK INTRA:                  -0.163
REMARK UNBOUND:                -0.504
REMARK SMILES CC1=CCC[C@@H](C)C(=O)C[C@@H](C(C)C)C(=O)C1
REMARK SMILES IDX 8 1 9 2 6 3 7 4 5 5 4 6 3 7 2 8 1 9 10 11 11 12 15 13 16 14
REMARK SMILES IDX 17 15 12 17 13 18 14 19
REMARK H PARENT
REMARK Flexibility Score: 70.00
ROOT
ATOM      1  C   UNL     1      -8.131  30.570  22.716  1.00  0.00     0.136 C 
ATOM      2  O   UNL     1      -7.635  30.789  21.621  1.00  0.00    -0.299 OA
ENDROOT
BRANCH   1   3
ATOM      3  C   UNL     1      -8.173  29.138  23.213  1.00  0.00     0.053 C 
ATOM      4  C   UNL     1      -8.565  28.205  22.062  1.00  0.00     0.016 C 
BRANCH   3   5
ATOM      5  C   UNL     1      -9.110  28.920  24.424  1.00  0.00     0.015 C 
BRANCH   5   6
ATOM      6  C   UNL     1      -8.364  28.625  25.743  1.00  0.00     0.028 C 
BRANCH   6   7
ATOM      7  C   UNL     1      -8.944  29.400  26.905  1.00  0.00    -0.028 C 
ATOM      8  C   UNL     1      -8.602  30.649  27.302  1.00  0.00    -0.070 CG0
ATOM      9  C   UNL     1      -9.255  31.188  28.549  1.00  0.00     0.039 C 
ATOM     10  G   UNL     1      -7.521  31.483  26.639  1.00  0.00     0.000 G0
ENDBRANCH   6   7
ENDBRANCH   5   6
ENDBRANCH   3   5
ENDBRANCH   1   3
BRANCH   1  11
ATOM     11  C   UNL     1      -8.832  31.688  23.458  1.00  0.00     0.087 C 
BRANCH  11  12
ATOM     12  C   UNL     1      -7.881  32.645  24.231  1.00  0.00     0.066 C 
BRANCH  12  13
ATOM     13  C   UNL     1      -8.034  32.611  25.759  1.00  0.00     0.140 C 
ATOM     14  O   UNL     1      -8.543  33.575  26.311  1.00  0.00    -0.299 OA
BRANCH  13  15
ATOM     15  C   UNL     1      -7.508  31.505  26.654  1.00  0.00     0.106 CG0
ATOM     16  G   UNL     1      -8.613  30.687  27.295  1.00  0.00     0.000 G0
ENDBRANCH  13  15
ENDBRANCH  12  13
BRANCH  12  17
ATOM     17  C   UNL     1      -7.982  34.092  23.637  1.00  0.00    -0.006 C 
ATOM     18  C   UNL     1      -6.667  34.880  23.725  1.00  0.00     0.008 C 
ATOM     19  C   UNL     1      -8.517  34.108  22.195  1.00  0.00     0.008 C 
ENDBRANCH  12  17
ENDBRANCH  11  12
ENDBRANCH   1  11
TORSDOF 1
ENDMDL
MODEL 6
REMARK VINA RESULT:    -4.464      2.208      4.197
REMARK INTER + INTRA:          -7.316
REMARK INTER:                  -7.375
REMARK INTRA:                   0.059
REMARK UNBOUND:                -0.504
REMARK SMILES CC1=CCC[C@@H](C)C(=O)C[C@@H](C(C)C)C(=O)C1
REMARK SMILES IDX 8 1 9 2 6 3 7 4 5 5 4 6 3 7 2 8 1 9 10 11 11 12 15 13 16 14
REMARK SMILES IDX 17 15 12 17 13 18 14 19
REMARK H PARENT
REMARK Flexibility Score: 70.00
ROOT
ATOM      1  C   UNL     1      -7.299  30.031  24.279  1.00  0.00     0.136 C 
ATOM      2  O   UNL     1      -6.194  30.154  23.770  1.00  0.00    -0.299 OA
ENDROOT
BRANCH   1   3
ATOM      3  C   UNL     1      -8.439  29.535  23.412  1.00  0.00     0.053 C 
ATOM      4  C   UNL     1      -8.552  28.011  23.531  1.00  0.00     0.016 C 
BRANCH   3   5
ATOM      5  C   UNL     1      -8.327  29.951  21.927  1.00  0.00     0.015 C 
BRANCH   5   6
ATOM      6  C   UNL     1      -9.165  31.196  21.563  1.00  0.00     0.028 C 
BRANCH   6   7
ATOM      7  C   UNL     1      -8.332  32.459  21.573  1.00  0.00    -0.028 C 
ATOM      8  C   UNL     1      -8.298  33.402  22.544  1.00  0.00    -0.070 CG0
ATOM      9  C   UNL     1      -7.455  34.628  22.296  1.00  0.00     0.039 C 
ATOM     10  G   UNL     1      -9.142  33.354  23.804  1.00  0.00     0.000 G0
ENDBRANCH   6   7
ENDBRANCH   5   6
ENDBRANCH   3   5
ENDBRANCH   1   3
BRANCH   1  11
ATOM     11  C   UNL     1      -7.534  30.533  25.688  1.00  0.00     0.087 C 
BRANCH  11  12
ATOM     12  C   UNL     1      -8.648  31.610  25.812  1.00  0.00     0.066 C 
BRANCH  12  13
ATOM     13  C   UNL     1      -8.377  32.911  25.041  1.00  0.00     0.140 C 
ATOM     14  O   UNL     1      -7.533  33.678  25.480  1.00  0.00    -0.299 OA
BRANCH  13  15
ATOM     15  C   UNL     1      -9.151  33.367  23.819  1.00  0.00     0.106 CG0
ATOM     16  G   UNL     1      -8.306  33.391  22.559  1.00  0.00     0.000 G0
ENDBRANCH  13  15
ENDBRANCH  12  13
BRANCH  12  17
ATOM     17  C   UNL     1      -8.991  31.852  27.322  1.00  0.00    -0.006 C 
ATOM     18  C   UNL     1      -9.646  30.641  28.002  1.00  0.00     0.008 C 
ATOM     19  C   UNL     1      -7.778  32.329  28.139  1.00  0.00     0.008 C 
ENDBRANCH  12  17
ENDBRANCH  11  12
ENDBRANCH   1  11
TORSDOF 1
ENDMDL
MODEL 7
REMARK VINA RESULT:    -4.337      1.931      3.191
REMARK INTER + INTRA:          -7.123
REMARK INTER:                  -7.062
REMARK INTRA:                  -0.062
REMARK UNBOUND:                -0.504
REMARK SMILES CC1=CCC[C@@H](C)C(=O)C[C@@H](C(C)C)C(=O)C1
REMARK SMILES IDX 8 1 9 2 6 3 7 4 5 5 4 6 3 7 2 8 1 9 10 11 11 12 15 13 16 14
REMARK SMILES IDX 17 15 12 17 13 18 14 19
REMARK H PARENT
REMARK Flexibility Score: 70.00
ROOT
ATOM      1  C   UNL     1      -7.926  33.695  24.646  1.00  0.00     0.136 C 
ATOM      2  O   UNL     1      -7.717  34.716  25.287  1.00  0.00    -0.299 OA
ENDROOT
BRANCH   1   3
ATOM      3  C   UNL     1      -7.602  33.696  23.166  1.00  0.00     0.053 C 
ATOM      4  C   UNL     1      -7.434  35.138  22.675  1.00  0.00     0.016 C 
BRANCH   3   5
ATOM      5  C   UNL     1      -8.640  32.950  22.295  1.00  0.00     0.015 C 
BRANCH   5   6
ATOM      6  C   UNL     1      -8.036  31.814  21.442  1.00  0.00     0.028 C 
BRANCH   6   7
ATOM      7  C   UNL     1      -8.540  30.455  21.873  1.00  0.00    -0.028 C 
ATOM      8  C   UNL     1      -8.106  29.723  22.928  1.00  0.00    -0.070 CG0
ATOM      9  C   UNL     1      -8.697  28.349  23.113  1.00  0.00     0.039 C 
ATOM     10  G   UNL     1      -6.984  30.154  23.854  1.00  0.00     0.000 G0
ENDBRANCH   6   7
ENDBRANCH   5   6
ENDBRANCH   3   5
ENDBRANCH   1   3
BRANCH   1  11
ATOM     11  C   UNL     1      -8.651  32.537  25.300  1.00  0.00     0.087 C 
BRANCH  11  12
ATOM     12  C   UNL     1      -7.727  31.547  26.064  1.00  0.00     0.066 C 
BRANCH  12  13
ATOM     13  C   UNL     1      -7.443  30.230  25.326  1.00  0.00     0.140 C 
ATOM     14  O   UNL     1      -7.504  29.187  25.960  1.00  0.00    -0.299 OA
BRANCH  13  15
ATOM     15  C   UNL     1      -6.994  30.130  23.881  1.00  0.00     0.106 CG0
ATOM     16  G   UNL     1      -8.109  29.709  22.942  1.00  0.00     0.000 G0
ENDBRANCH  13  15
ENDBRANCH  12  13
BRANCH  12  17
ATOM     17  C   UNL     1      -8.264  31.331  27.520  1.00  0.00    -0.006 C 
ATOM     18  C   UNL     1      -7.888  32.465  28.485  1.00  0.00     0.008 C 
ATOM     19  C   UNL     1      -9.781  31.076  27.564  1.00  0.00     0.008 C 
ENDBRANCH  12  17
ENDBRANCH  11  12
ENDBRANCH   1  11
TORSDOF 1
ENDMDL
MODEL 8
REMARK VINA RESULT:    -4.334      1.785      3.706
REMARK INTER + INTRA:          -7.118
REMARK INTER:                  -7.032
REMARK INTRA:                  -0.086
REMARK UNBOUND:                -0.504
REMARK SMILES CC1=CCC[C@@H](C)C(=O)C[C@@H](C(C)C)C(=O)C1
REMARK SMILES IDX 8 1 9 2 6 3 7 4 5 5 4 6 3 7 2 8 1 9 10 11 11 12 15 13 16 14
REMARK SMILES IDX 17 15 12 17 13 18 14 19
REMARK H PARENT
REMARK Flexibility Score: 70.00
ROOT
ATOM      1  C   UNL     1      -8.105  33.966  24.408  1.00  0.00     0.136 C 
ATOM      2  O   UNL     1      -8.260  35.140  24.104  1.00  0.00    -0.299 OA
ENDROOT
BRANCH   1   3
ATOM      3  C   UNL     1      -8.653  33.489  25.738  1.00  0.00     0.053 C 
ATOM      4  C   UNL     1      -7.496  33.074  26.653  1.00  0.00     0.016 C 
BRANCH   3   5
ATOM      5  C   UNL     1      -9.682  32.341  25.618  1.00  0.00     0.015 C 
BRANCH   5   6
ATOM      6  C   UNL     1      -9.415  31.163  26.579  1.00  0.00     0.028 C 
BRANCH   6   7
ATOM      7  C   UNL     1      -9.555  29.825  25.886  1.00  0.00    -0.028 C 
ATOM      8  C   UNL     1      -8.650  29.235  25.069  1.00  0.00    -0.070 CG0
ATOM      9  C   UNL     1      -9.044  27.934  24.417  1.00  0.00     0.039 C 
ATOM     10  G   UNL     1      -7.322  29.858  24.682  1.00  0.00     0.000 G0
ENDBRANCH   6   7
ENDBRANCH   5   6
ENDBRANCH   3   5
ENDBRANCH   1   3
BRANCH   1  11
ATOM     11  C   UNL     1      -7.234  33.079  23.543  1.00  0.00     0.087 C 
BRANCH  11  12
ATOM     12  C   UNL     1      -7.970  31.856  22.927  1.00  0.00     0.066 C 
BRANCH  12  13
ATOM     13  C   UNL     1      -7.345  30.493  23.259  1.00  0.00     0.140 C 
ATOM     14  O   UNL     1      -6.911  29.816  22.339  1.00  0.00    -0.299 OA
BRANCH  13  15
ATOM     15  C   UNL     1      -7.314  29.872  24.642  1.00  0.00     0.106 CG0
ATOM     16  G   UNL     1      -8.636  29.244  25.040  1.00  0.00     0.000 G0
ENDBRANCH  13  15
ENDBRANCH  12  13
BRANCH  12  17
ATOM     17  C   UNL     1      -8.178  32.077  21.390  1.00  0.00    -0.006 C 
ATOM     18  C   UNL     1      -9.567  31.649  20.893  1.00  0.00     0.008 C 
ATOM     19  C   UNL     1      -7.877  33.520  20.949  1.00  0.00     0.008 C 
ENDBRANCH  12  17
ENDBRANCH  11  12
ENDBRANCH   1  11
TORSDOF 1
ENDMDL
MODEL 9
REMARK VINA RESULT:    -4.148      1.781      4.151
REMARK INTER + INTRA:          -6.834
REMARK INTER:                  -7.259
REMARK INTRA:                   0.425
REMARK UNBOUND:                -0.504
REMARK SMILES CC1=CCC[C@@H](C)C(=O)C[C@@H](C(C)C)C(=O)C1
REMARK SMILES IDX 8 1 9 2 6 3 7 4 5 5 4 6 3 7 2 8 1 9 10 11 11 12 15 13 16 14
REMARK SMILES IDX 17 15 12 17 13 18 14 19
REMARK H PARENT
REMARK Flexibility Score: 70.00
ROOT
ATOM      1  C   UNL     1      -8.167  30.646  22.314  1.00  0.00     0.136 C 
ATOM      2  O   UNL     1      -8.188  29.483  21.936  1.00  0.00    -0.299 OA
ENDROOT
BRANCH   1   3
ATOM      3  C   UNL     1      -8.621  31.723  21.349  1.00  0.00     0.053 C 
ATOM      4  C   UNL     1      -7.497  32.030  20.353  1.00  0.00     0.016 C 
BRANCH   3   5
ATOM      5  C   UNL     1      -9.098  33.023  22.037  1.00  0.00     0.015 C 
BRANCH   5   6
ATOM      6  C   UNL     1      -8.018  34.123  22.109  1.00  0.00     0.028 C 
BRANCH   6   7
ATOM      7  C   UNL     1      -8.276  35.096  23.238  1.00  0.00    -0.028 C 
ATOM      8  C   UNL     1      -7.974  34.920  24.547  1.00  0.00    -0.070 CG0
ATOM      9  C   UNL     1      -8.408  35.994  25.513  1.00  0.00     0.039 C 
ATOM     10  G   UNL     1      -7.336  33.664  25.109  1.00  0.00     0.000 G0
ENDBRANCH   6   7
ENDBRANCH   5   6
ENDBRANCH   3   5
ENDBRANCH   1   3
BRANCH   1  11
ATOM     11  C   UNL     1      -7.536  30.988  23.647  1.00  0.00     0.087 C 
BRANCH  11  12
ATOM     12  C   UNL     1      -8.554  31.265  24.789  1.00  0.00     0.066 C 
BRANCH  12  13
ATOM     13  C   UNL     1      -8.355  32.601  25.521  1.00  0.00     0.140 C 
ATOM     14  O   UNL     1      -9.106  32.871  26.447  1.00  0.00    -0.299 OA
BRANCH  13  15
ATOM     15  C   UNL     1      -7.350  33.664  25.119  1.00  0.00     0.106 CG0
ATOM     16  G   UNL     1      -8.003  34.911  24.552  1.00  0.00     0.000 G0
ENDBRANCH  13  15
ENDBRANCH  12  13
BRANCH  12  17
ATOM     17  C   UNL     1      -8.613  30.037  25.761  1.00  0.00    -0.006 C 
ATOM     18  C   UNL     1      -8.854  28.701  25.042  1.00  0.00     0.008 C 
ATOM     19  C   UNL     1      -7.377  29.936  26.670  1.00  0.00     0.008 C 
ENDBRANCH  12  17
ENDBRANCH  11  12
ENDBRANCH   1  11
TORSDOF 1
ENDMDL
