MODEL 1
REMARK VINA RESULT:    -3.158      0.000      0.000
REMARK INTER + INTRA:          -4.982
REMARK INTER:                  -4.451
REMARK INTRA:                  -0.531
REMARK UNBOUND:                -0.531
REMARK SMILES CCCCCCCCC(=O)[O-]
REMARK SMILES IDX 6 1 7 2 8 3 9 4 10 5 11 6 5 7 4 8 3 9 2 10 1 11
REMARK H PARENT
REMARK Flexibility Score: inf
ROOT
ATOM      1  C   UNL     1      -7.718   5.939   7.415  1.00  0.00     0.000 C 
ENDROOT
BRANCH   1   2
ATOM      2  C   UNL     1      -7.465   7.321   8.028  1.00  0.00     0.006 C 
BRANCH   2   3
ATOM      3  C   UNL     1      -6.476   7.234   9.194  1.00  0.00     0.053 C 
BRANCH   3   4
ATOM      4  C   UNL     1      -5.069   7.353   8.699  1.00  0.00     0.041 C 
ATOM      5  O   UNL     1      -4.321   6.342   8.668  1.00  0.00    -0.550 OA
ATOM      6  O   UNL     1      -4.600   8.572   8.226  1.00  0.00    -0.550 OA
ENDBRANCH   3   4
ENDBRANCH   2   3
ENDBRANCH   1   2
BRANCH   1   7
ATOM      7  C   UNL     1      -9.070   5.899   6.689  1.00  0.00     0.000 C 
BRANCH   7   8
ATOM      8  C   UNL     1      -9.811   7.245   6.744  1.00  0.00    -0.000 C 
BRANCH   8   9
ATOM      9  C   UNL     1     -10.093   7.821   5.345  1.00  0.00    -0.000 C 
BRANCH   9  10
ATOM     10  C   UNL     1      -9.302   7.102   4.242  1.00  0.00    -0.003 C 
ATOM     11  C   UNL     1      -8.146   7.943   3.701  1.00  0.00     0.004 C 
ENDBRANCH   9  10
ENDBRANCH   8   9
ENDBRANCH   7   8
ENDBRANCH   1   7
TORSDOF 7
ENDMDL
MODEL 2
REMARK VINA RESULT:    -2.871      2.156      3.127
REMARK INTER + INTRA:          -4.577
REMARK INTER:                  -4.205
REMARK INTRA:                  -0.372
REMARK UNBOUND:                -0.531
REMARK SMILES CCCCCCCCC(=O)[O-]
REMARK SMILES IDX 6 1 7 2 8 3 9 4 10 5 11 6 5 7 4 8 3 9 2 10 1 11
REMARK H PARENT
REMARK Flexibility Score: inf
ROOT
ATOM      1  C   UNL     1      -9.382   7.074   6.752  1.00  0.00     0.000 C 
ENDROOT
BRANCH   1   2
ATOM      2  C   UNL     1      -8.325   5.964   6.793  1.00  0.00     0.006 C 
BRANCH   2   3
ATOM      3  C   UNL     1      -7.477   6.059   8.065  1.00  0.00     0.053 C 
BRANCH   3   4
ATOM      4  C   UNL     1      -7.727   4.880   8.951  1.00  0.00     0.041 C 
ATOM      5  O   UNL     1      -8.864   4.340   8.982  1.00  0.00    -0.550 OA
ATOM      6  O   UNL     1      -6.691   4.346   9.707  1.00  0.00    -0.550 OA
ENDBRANCH   3   4
ENDBRANCH   2   3
ENDBRANCH   1   2
BRANCH   1   7
ATOM      7  C   UNL     1      -9.731   7.447   5.304  1.00  0.00     0.000 C 
BRANCH   7   8
ATOM      8  C   UNL     1      -8.544   7.266   4.344  1.00  0.00    -0.000 C 
BRANCH   8   9
ATOM      9  C   UNL     1      -8.701   8.083   3.050  1.00  0.00    -0.000 C 
BRANCH   9  10
ATOM     10  C   UNL     1      -7.487   8.982   2.770  1.00  0.00    -0.003 C 
ATOM     11  C   UNL     1      -6.945   9.651   4.032  1.00  0.00     0.004 C 
ENDBRANCH   9  10
ENDBRANCH   8   9
ENDBRANCH   7   8
ENDBRANCH   1   7
TORSDOF 7
ENDMDL
MODEL 3
REMARK VINA RESULT:    -2.805      3.069      5.354
REMARK INTER + INTRA:          -4.483
REMARK INTER:                  -4.168
REMARK INTRA:                  -0.316
REMARK UNBOUND:                -0.531
REMARK SMILES CCCCCCCCC(=O)[O-]
REMARK SMILES IDX 6 1 7 2 8 3 9 4 10 5 11 6 5 7 4 8 3 9 2 10 1 11
REMARK H PARENT
REMARK Flexibility Score: inf
ROOT
ATOM      1  C   UNL     1      -9.050   6.049   6.363  1.00  0.00     0.000 C 
ENDROOT
BRANCH   1   2
ATOM      2  C   UNL     1      -9.310   7.460   5.822  1.00  0.00     0.006 C 
BRANCH   2   3
ATOM      3  C   UNL     1     -10.014   7.406   4.462  1.00  0.00     0.053 C 
BRANCH   3   4
ATOM      4  C   UNL     1      -9.082   7.831   3.372  1.00  0.00     0.041 C 
ATOM      5  O   UNL     1      -7.841   7.660   3.497  1.00  0.00    -0.550 OA
ATOM      6  O   UNL     1      -9.588   8.370   2.196  1.00  0.00    -0.550 OA
ENDBRANCH   3   4
ENDBRANCH   2   3
ENDBRANCH   1   2
BRANCH   1   7
ATOM      7  C   UNL     1      -7.726   5.994   7.138  1.00  0.00     0.000 C 
BRANCH   7   8
ATOM      8  C   UNL     1      -7.863   5.282   8.494  1.00  0.00    -0.000 C 
BRANCH   8   9
ATOM      9  C   UNL     1      -6.889   5.832   9.551  1.00  0.00    -0.000 C 
BRANCH   9  10
ATOM     10  C   UNL     1      -5.905   6.858   8.967  1.00  0.00    -0.003 C 
ATOM     11  C   UNL     1      -4.463   6.353   8.958  1.00  0.00     0.004 C 
ENDBRANCH   9  10
ENDBRANCH   8   9
ENDBRANCH   7   8
ENDBRANCH   1   7
TORSDOF 7
ENDMDL
MODEL 4
REMARK VINA RESULT:    -2.786      2.169      3.513
REMARK INTER + INTRA:          -4.457
REMARK INTER:                  -3.854
REMARK INTRA:                  -0.604
REMARK UNBOUND:                -0.531
REMARK SMILES CCCCCCCCC(=O)[O-]
REMARK SMILES IDX 6 1 7 2 8 3 9 4 10 5 11 6 5 7 4 8 3 9 2 10 1 11
REMARK H PARENT
REMARK Flexibility Score: inf
ROOT
ATOM      1  C   UNL     1      -5.067   6.418  10.101  1.00  0.00     0.000 C 
ENDROOT
BRANCH   1   2
ATOM      2  C   UNL     1      -4.648   7.155   8.824  1.00  0.00     0.006 C 
BRANCH   2   3
ATOM      3  C   UNL     1      -4.836   8.668   8.974  1.00  0.00     0.053 C 
BRANCH   3   4
ATOM      4  C   UNL     1      -6.060   9.119   8.241  1.00  0.00     0.041 C 
ATOM      5  O   UNL     1      -7.188   9.059   8.794  1.00  0.00    -0.550 OA
ATOM      6  O   UNL     1      -5.946   9.653   6.963  1.00  0.00    -0.550 OA
ENDBRANCH   3   4
ENDBRANCH   2   3
ENDBRANCH   1   2
BRANCH   1   7
ATOM      7  C   UNL     1      -6.009   5.249   9.777  1.00  0.00     0.000 C 
BRANCH   7   8
ATOM      8  C   UNL     1      -7.492   5.623   9.935  1.00  0.00    -0.000 C 
BRANCH   8   9
ATOM      9  C   UNL     1      -8.330   5.246   8.700  1.00  0.00    -0.000 C 
BRANCH   9  10
ATOM     10  C   UNL     1      -7.823   5.921   7.417  1.00  0.00    -0.003 C 
ATOM     11  C   UNL     1      -8.896   6.008   6.332  1.00  0.00     0.004 C 
ENDBRANCH   9  10
ENDBRANCH   8   9
ENDBRANCH   7   8
ENDBRANCH   1   7
TORSDOF 7
ENDMDL
MODEL 5
REMARK VINA RESULT:    -2.614      2.690      4.736
REMARK INTER + INTRA:          -4.214
REMARK INTER:                  -3.590
REMARK INTRA:                  -0.624
REMARK UNBOUND:                -0.531
REMARK SMILES CCCCCCCCC(=O)[O-]
REMARK SMILES IDX 6 1 7 2 8 3 9 4 10 5 11 6 5 7 4 8 3 9 2 10 1 11
REMARK H PARENT
REMARK Flexibility Score: inf
ROOT
ATOM      1  C   UNL     1      -7.558   4.831   9.062  1.00  0.00     0.000 C 
ENDROOT
BRANCH   1   2
ATOM      2  C   UNL     1      -8.953   5.111   8.491  1.00  0.00     0.006 C 
BRANCH   2   3
ATOM      3  C   UNL     1      -9.081   6.570   8.041  1.00  0.00     0.053 C 
BRANCH   3   4
ATOM      4  C   UNL     1      -9.042   6.663   6.548  1.00  0.00     0.041 C 
ATOM      5  O   UNL     1      -8.153   6.054   5.899  1.00  0.00    -0.550 OA
ATOM      6  O   UNL     1     -10.017   7.384   5.872  1.00  0.00    -0.550 OA
ENDBRANCH   3   4
ENDBRANCH   2   3
ENDBRANCH   1   2
BRANCH   1   7
ATOM      7  C   UNL     1      -7.163   5.895  10.096  1.00  0.00     0.000 C 
BRANCH   7   8
ATOM      8  C   UNL     1      -5.649   6.159  10.125  1.00  0.00    -0.000 C 
BRANCH   8   9
ATOM      9  C   UNL     1      -5.100   6.602   8.757  1.00  0.00    -0.000 C 
BRANCH   9  10
ATOM     10  C   UNL     1      -4.898   8.123   8.669  1.00  0.00    -0.003 C 
ATOM     11  C   UNL     1      -6.103   8.844   8.065  1.00  0.00     0.004 C 
ENDBRANCH   9  10
ENDBRANCH   8   9
ENDBRANCH   7   8
ENDBRANCH   1   7
TORSDOF 7
ENDMDL
MODEL 6
REMARK VINA RESULT:    -2.605     11.286     12.818
REMARK INTER + INTRA:          -4.201
REMARK INTER:                  -3.779
REMARK INTRA:                  -0.422
REMARK UNBOUND:                -0.531
REMARK SMILES CCCCCCCCC(=O)[O-]
REMARK SMILES IDX 6 1 7 2 8 3 9 4 10 5 11 6 5 7 4 8 3 9 2 10 1 11
REMARK H PARENT
REMARK Flexibility Score: inf
ROOT
ATOM      1  C   UNL     1      -9.063  -6.298   8.671  1.00  0.00     0.000 C 
ENDROOT
BRANCH   1   2
ATOM      2  C   UNL     1     -10.125  -5.192   8.693  1.00  0.00     0.006 C 
BRANCH   2   3
ATOM      3  C   UNL     1      -9.745  -4.084   9.681  1.00  0.00     0.053 C 
BRANCH   3   4
ATOM      4  C   UNL     1      -9.300  -2.858   8.949  1.00  0.00     0.041 C 
ATOM      5  O   UNL     1      -8.854  -1.867   9.584  1.00  0.00    -0.550 OA
ATOM      6  O   UNL     1      -9.331  -2.829   7.560  1.00  0.00    -0.550 OA
ENDBRANCH   3   4
ENDBRANCH   2   3
ENDBRANCH   1   2
BRANCH   1   7
ATOM      7  C   UNL     1      -8.365  -6.415  10.034  1.00  0.00     0.000 C 
BRANCH   7   8
ATOM      8  C   UNL     1      -6.846  -6.614   9.906  1.00  0.00    -0.000 C 
BRANCH   8   9
ATOM      9  C   UNL     1      -6.131  -5.368   9.354  1.00  0.00    -0.000 C 
BRANCH   9  10
ATOM     10  C   UNL     1      -4.672  -5.650   8.967  1.00  0.00    -0.003 C 
ATOM     11  C   UNL     1      -3.779  -4.416   9.091  1.00  0.00     0.004 C 
ENDBRANCH   9  10
ENDBRANCH   8   9
ENDBRANCH   7   8
ENDBRANCH   1   7
TORSDOF 7
ENDMDL
MODEL 7
REMARK VINA RESULT:    -2.505      1.680      2.812
REMARK INTER + INTRA:          -4.061
REMARK INTER:                  -3.697
REMARK INTRA:                  -0.364
REMARK UNBOUND:                -0.531
REMARK SMILES CCCCCCCCC(=O)[O-]
REMARK SMILES IDX 6 1 7 2 8 3 9 4 10 5 11 6 5 7 4 8 3 9 2 10 1 11
REMARK H PARENT
REMARK Flexibility Score: inf
ROOT
ATOM      1  C   UNL     1      -9.573   7.090   6.432  1.00  0.00     0.000 C 
ENDROOT
BRANCH   1   2
ATOM      2  C   UNL     1      -8.417   6.103   6.630  1.00  0.00     0.006 C 
BRANCH   2   3
ATOM      3  C   UNL     1      -8.462   5.476   8.028  1.00  0.00     0.053 C 
BRANCH   3   4
ATOM      4  C   UNL     1      -7.118   5.551   8.680  1.00  0.00     0.041 C 
ATOM      5  O   UNL     1      -6.297   6.442   8.338  1.00  0.00    -0.550 OA
ATOM      6  O   UNL     1      -6.790   4.668   9.700  1.00  0.00    -0.550 OA
ENDBRANCH   3   4
ENDBRANCH   2   3
ENDBRANCH   1   2
BRANCH   1   7
ATOM      7  C   UNL     1      -9.437   7.833   5.095  1.00  0.00     0.000 C 
BRANCH   7   8
ATOM      8  C   UNL     1      -8.793   9.221   5.252  1.00  0.00    -0.000 C 
BRANCH   8   9
ATOM      9  C   UNL     1      -7.553   9.401   4.359  1.00  0.00    -0.000 C 
BRANCH   9  10
ATOM     10  C   UNL     1      -7.604   8.526   3.098  1.00  0.00    -0.003 C 
ATOM     11  C   UNL     1      -8.150   9.274   1.882  1.00  0.00     0.004 C 
ENDBRANCH   9  10
ENDBRANCH   8   9
ENDBRANCH   7   8
ENDBRANCH   1   7
TORSDOF 7
ENDMDL
MODEL 8
REMARK VINA RESULT:    -2.438      1.982      3.612
REMARK INTER + INTRA:          -3.966
REMARK INTER:                  -3.431
REMARK INTRA:                  -0.535
REMARK UNBOUND:                -0.531
REMARK SMILES CCCCCCCCC(=O)[O-]
REMARK SMILES IDX 6 1 7 2 8 3 9 4 10 5 11 6 5 7 4 8 3 9 2 10 1 11
REMARK H PARENT
REMARK Flexibility Score: inf
ROOT
ATOM      1  C   UNL     1      -8.020   6.696   6.608  1.00  0.00     0.000 C 
ENDROOT
BRANCH   1   2
ATOM      2  C   UNL     1      -7.660   7.226   8.001  1.00  0.00     0.006 C 
BRANCH   2   3
ATOM      3  C   UNL     1      -7.280   8.709   7.944  1.00  0.00     0.053 C 
BRANCH   3   4
ATOM      4  C   UNL     1      -5.949   8.935   8.588  1.00  0.00     0.041 C 
ATOM      5  O   UNL     1      -5.855   9.673   9.604  1.00  0.00    -0.550 OA
ATOM      6  O   UNL     1      -4.821   8.291   8.097  1.00  0.00    -0.550 OA
ENDBRANCH   3   4
ENDBRANCH   2   3
ENDBRANCH   1   2
BRANCH   1   7
ATOM      7  C   UNL     1      -9.342   5.915   6.643  1.00  0.00     0.000 C 
BRANCH   7   8
ATOM      8  C   UNL     1      -9.987   5.906   8.038  1.00  0.00    -0.000 C 
BRANCH   8   9
ATOM      9  C   UNL     1     -10.125   4.486   8.616  1.00  0.00    -0.000 C 
BRANCH   9  10
ATOM     10  C   UNL     1      -9.272   4.279   9.877  1.00  0.00    -0.003 C 
ATOM     11  C   UNL     1      -8.003   3.472   9.606  1.00  0.00     0.004 C 
ENDBRANCH   9  10
ENDBRANCH   8   9
ENDBRANCH   7   8
ENDBRANCH   1   7
TORSDOF 7
ENDMDL
