MODEL 1
REMARK VINA RESULT:    -4.036      0.000      0.000
REMARK INTER + INTRA:          -6.028
REMARK INTER:                  -5.451
REMARK INTRA:                  -0.577
REMARK UNBOUND:                -0.577
REMARK SMILES CCCCCCCC(=O)[O-]
REMARK SMILES IDX 5 1 6 2 7 3 8 4 9 5 10 6 4 7 3 8 2 9 1 10
REMARK H PARENT
REMARK Flexibility Score: inf
ROOT
ATOM      1  C   UNL     1      -3.625 -48.921  16.879  1.00  0.00     0.000 C 
ENDROOT
BRANCH   1   2
ATOM      2  C   UNL     1      -4.872 -48.927  17.782  1.00  0.00     0.006 C 
BRANCH   2   3
ATOM      3  C   UNL     1      -4.582 -48.638  19.263  1.00  0.00     0.053 C 
BRANCH   3   4
ATOM      4  C   UNL     1      -4.929 -47.230  19.640  1.00  0.00     0.041 C 
ATOM      5  O   UNL     1      -4.634 -46.790  20.782  1.00  0.00    -0.550 OA
ATOM      6  O   UNL     1      -5.610 -46.417  18.742  1.00  0.00    -0.550 OA
ENDBRANCH   3   4
ENDBRANCH   2   3
ENDBRANCH   1   2
BRANCH   1   7
ATOM      7  C   UNL     1      -2.313 -48.990  17.675  1.00  0.00     0.000 C 
BRANCH   7   8
ATOM      8  C   UNL     1      -1.415 -47.787  17.360  1.00  0.00    -0.000 C 
BRANCH   8   9
ATOM      9  C   UNL     1      -1.603 -46.674  18.396  1.00  0.00    -0.003 C 
ATOM     10  C   UNL     1      -2.196 -45.421  17.759  1.00  0.00     0.004 C 
ENDBRANCH   8   9
ENDBRANCH   7   8
ENDBRANCH   1   7
TORSDOF 6
ENDMDL
MODEL 2
REMARK VINA RESULT:    -3.943      1.383      3.323
REMARK INTER + INTRA:          -5.903
REMARK INTER:                  -5.275
REMARK INTRA:                  -0.628
REMARK UNBOUND:                -0.577
REMARK SMILES CCCCCCCC(=O)[O-]
REMARK SMILES IDX 5 1 6 2 7 3 8 4 9 5 10 6 4 7 3 8 2 9 1 10
REMARK H PARENT
REMARK Flexibility Score: inf
ROOT
ATOM      1  C   UNL     1      -1.395 -47.865  17.395  1.00  0.00     0.000 C 
ENDROOT
BRANCH   1   2
ATOM      2  C   UNL     1      -1.976 -46.824  16.420  1.00  0.00     0.006 C 
BRANCH   2   3
ATOM      3  C   UNL     1      -1.957 -45.382  16.951  1.00  0.00     0.053 C 
BRANCH   3   4
ATOM      4  C   UNL     1      -2.864 -45.204  18.130  1.00  0.00     0.041 C 
ATOM      5  O   UNL     1      -2.385 -44.917  19.259  1.00  0.00    -0.550 OA
ATOM      6  O   UNL     1      -4.233 -45.388  17.988  1.00  0.00    -0.550 OA
ENDBRANCH   3   4
ENDBRANCH   2   3
ENDBRANCH   1   2
BRANCH   1   7
ATOM      7  C   UNL     1      -2.406 -48.960  17.769  1.00  0.00     0.000 C 
BRANCH   7   8
ATOM      8  C   UNL     1      -3.680 -48.843  16.922  1.00  0.00    -0.000 C 
BRANCH   8   9
ATOM      9  C   UNL     1      -4.931 -48.857  17.806  1.00  0.00    -0.003 C 
ATOM     10  C   UNL     1      -4.565 -48.729  19.282  1.00  0.00     0.004 C 
ENDBRANCH   8   9
ENDBRANCH   7   8
ENDBRANCH   1   7
TORSDOF 6
ENDMDL
MODEL 3
REMARK VINA RESULT:    -3.888      1.902      3.651
REMARK INTER + INTRA:          -5.828
REMARK INTER:                  -5.205
REMARK INTRA:                  -0.624
REMARK UNBOUND:                -0.577
REMARK SMILES CCCCCCCC(=O)[O-]
REMARK SMILES IDX 5 1 6 2 7 3 8 4 9 5 10 6 4 7 3 8 2 9 1 10
REMARK H PARENT
REMARK Flexibility Score: inf
ROOT
ATOM      1  C   UNL     1      -2.426 -49.067  17.483  1.00  0.00     0.000 C 
ENDROOT
BRANCH   1   2
ATOM      2  C   UNL     1      -1.444 -47.963  17.049  1.00  0.00     0.006 C 
BRANCH   2   3
ATOM      3  C   UNL     1      -1.582 -46.650  17.835  1.00  0.00     0.053 C 
BRANCH   3   4
ATOM      4  C   UNL     1      -2.163 -45.551  16.999  1.00  0.00     0.041 C 
ATOM      5  O   UNL     1      -1.436 -44.924  16.184  1.00  0.00    -0.550 OA
ATOM      6  O   UNL     1      -3.499 -45.198  17.146  1.00  0.00    -0.550 OA
ENDBRANCH   3   4
ENDBRANCH   2   3
ENDBRANCH   1   2
BRANCH   1   7
ATOM      7  C   UNL     1      -3.778 -48.978  16.757  1.00  0.00     0.000 C 
BRANCH   7   8
ATOM      8  C   UNL     1      -4.888 -48.535  17.717  1.00  0.00    -0.000 C 
BRANCH   8   9
ATOM      9  C   UNL     1      -4.430 -48.641  19.175  1.00  0.00    -0.003 C 
ATOM     10  C   UNL     1      -4.644 -47.326  19.919  1.00  0.00     0.004 C 
ENDBRANCH   8   9
ENDBRANCH   7   8
ENDBRANCH   1   7
TORSDOF 6
ENDMDL
MODEL 4
REMARK VINA RESULT:    -3.869      1.360      2.090
REMARK INTER + INTRA:          -5.802
REMARK INTER:                  -5.143
REMARK INTRA:                  -0.660
REMARK UNBOUND:                -0.577
REMARK SMILES CCCCCCCC(=O)[O-]
REMARK SMILES IDX 5 1 6 2 7 3 8 4 9 5 10 6 4 7 3 8 2 9 1 10
REMARK H PARENT
REMARK Flexibility Score: inf
ROOT
ATOM      1  C   UNL     1      -4.855 -48.598  17.914  1.00  0.00     0.000 C 
ENDROOT
BRANCH   1   2
ATOM      2  C   UNL     1      -4.463 -48.358  19.383  1.00  0.00     0.006 C 
BRANCH   2   3
ATOM      3  C   UNL     1      -4.799 -46.952  19.905  1.00  0.00     0.053 C 
BRANCH   3   4
ATOM      4  C   UNL     1      -3.898 -45.905  19.325  1.00  0.00     0.041 C 
ATOM      5  O   UNL     1      -4.330 -45.119  18.440  1.00  0.00    -0.550 OA
ATOM      6  O   UNL     1      -2.574 -45.821  19.736  1.00  0.00    -0.550 OA
ENDBRANCH   3   4
ENDBRANCH   2   3
ENDBRANCH   1   2
BRANCH   1   7
ATOM      7  C   UNL     1      -3.651 -48.952  17.027  1.00  0.00     0.000 C 
BRANCH   7   8
ATOM      8  C   UNL     1      -2.349 -48.944  17.838  1.00  0.00    -0.000 C 
BRANCH   8   9
ATOM      9  C   UNL     1      -1.262 -48.134  17.125  1.00  0.00    -0.003 C 
ATOM     10  C   UNL     1      -1.859 -46.937  16.390  1.00  0.00     0.004 C 
ENDBRANCH   8   9
ENDBRANCH   7   8
ENDBRANCH   1   7
TORSDOF 6
ENDMDL
MODEL 5
REMARK VINA RESULT:    -3.868      1.377      2.045
REMARK INTER + INTRA:          -5.801
REMARK INTER:                  -5.158
REMARK INTRA:                  -0.643
REMARK UNBOUND:                -0.577
REMARK SMILES CCCCCCCC(=O)[O-]
REMARK SMILES IDX 5 1 6 2 7 3 8 4 9 5 10 6 4 7 3 8 2 9 1 10
REMARK H PARENT
REMARK Flexibility Score: inf
ROOT
ATOM      1  C   UNL     1      -2.457 -48.874  17.912  1.00  0.00     0.000 C 
ENDROOT
BRANCH   1   2
ATOM      2  C   UNL     1      -3.770 -48.611  18.670  1.00  0.00     0.006 C 
BRANCH   2   3
ATOM      3  C   UNL     1      -5.015 -48.534  17.772  1.00  0.00     0.053 C 
BRANCH   3   4
ATOM      4  C   UNL     1      -5.336 -47.125  17.375  1.00  0.00     0.041 C 
ATOM      5  O   UNL     1      -6.108 -46.428  18.085  1.00  0.00    -0.550 OA
ATOM      6  O   UNL     1      -4.810 -46.596  16.203  1.00  0.00    -0.550 OA
ENDBRANCH   3   4
ENDBRANCH   2   3
ENDBRANCH   1   2
BRANCH   1   7
ATOM      7  C   UNL     1      -1.608 -47.607  17.733  1.00  0.00     0.000 C 
BRANCH   7   8
ATOM      8  C   UNL     1      -1.896 -46.591  18.846  1.00  0.00    -0.000 C 
BRANCH   8   9
ATOM      9  C   UNL     1      -2.294 -45.232  18.260  1.00  0.00    -0.003 C 
ATOM     10  C   UNL     1      -3.275 -44.503  19.174  1.00  0.00     0.004 C 
ENDBRANCH   8   9
ENDBRANCH   7   8
ENDBRANCH   1   7
TORSDOF 6
ENDMDL
MODEL 6
REMARK VINA RESULT:    -3.833      1.112      2.860
REMARK INTER + INTRA:          -5.755
REMARK INTER:                  -5.163
REMARK INTRA:                  -0.591
REMARK UNBOUND:                -0.577
REMARK SMILES CCCCCCCC(=O)[O-]
REMARK SMILES IDX 5 1 6 2 7 3 8 4 9 5 10 6 4 7 3 8 2 9 1 10
REMARK H PARENT
REMARK Flexibility Score: inf
ROOT
ATOM      1  C   UNL     1      -1.984 -46.202  17.847  1.00  0.00     0.000 C 
ENDROOT
BRANCH   1   2
ATOM      2  C   UNL     1      -2.457 -45.877  19.276  1.00  0.00     0.006 C 
BRANCH   2   3
ATOM      3  C   UNL     1      -3.795 -45.125  19.343  1.00  0.00     0.053 C 
BRANCH   3   4
ATOM      4  C   UNL     1      -4.879 -45.958  19.955  1.00  0.00     0.041 C 
ATOM      5  O   UNL     1      -4.586 -46.927  20.704  1.00  0.00    -0.550 OA
ATOM      6  O   UNL     1      -6.211 -45.684  19.670  1.00  0.00    -0.550 OA
ENDBRANCH   3   4
ENDBRANCH   2   3
ENDBRANCH   1   2
BRANCH   1   7
ATOM      7  C   UNL     1      -1.560 -47.669  17.679  1.00  0.00     0.000 C 
BRANCH   7   8
ATOM      8  C   UNL     1      -2.660 -48.618  18.170  1.00  0.00    -0.000 C 
BRANCH   8   9
ATOM      9  C   UNL     1      -3.825 -48.670  17.176  1.00  0.00    -0.003 C 
ATOM     10  C   UNL     1      -5.142 -48.971  17.885  1.00  0.00     0.004 C 
ENDBRANCH   8   9
ENDBRANCH   7   8
ENDBRANCH   1   7
TORSDOF 6
ENDMDL
MODEL 7
REMARK VINA RESULT:    -3.777      1.596      2.926
REMARK INTER + INTRA:          -5.679
REMARK INTER:                  -5.053
REMARK INTRA:                  -0.626
REMARK UNBOUND:                -0.577
REMARK SMILES CCCCCCCC(=O)[O-]
REMARK SMILES IDX 5 1 6 2 7 3 8 4 9 5 10 6 4 7 3 8 2 9 1 10
REMARK H PARENT
REMARK Flexibility Score: inf
ROOT
ATOM      1  C   UNL     1      -4.355 -48.537  19.274  1.00  0.00     0.000 C 
ENDROOT
BRANCH   1   2
ATOM      2  C   UNL     1      -4.714 -47.169  19.883  1.00  0.00     0.006 C 
BRANCH   2   3
ATOM      3  C   UNL     1      -4.567 -45.987  18.912  1.00  0.00     0.053 C 
BRANCH   3   4
ATOM      4  C   UNL     1      -3.154 -45.498  18.830  1.00  0.00     0.041 C 
ATOM      5  O   UNL     1      -2.703 -45.046  17.744  1.00  0.00    -0.550 OA
ATOM      6  O   UNL     1      -2.326 -45.573  19.942  1.00  0.00    -0.550 OA
ENDBRANCH   3   4
ENDBRANCH   2   3
ENDBRANCH   1   2
BRANCH   1   7
ATOM      7  C   UNL     1      -4.831 -48.685  17.821  1.00  0.00     0.000 C 
BRANCH   7   8
ATOM      8  C   UNL     1      -3.653 -48.978  16.884  1.00  0.00    -0.000 C 
BRANCH   8   9
ATOM      9  C   UNL     1      -2.329 -48.999  17.655  1.00  0.00    -0.003 C 
ATOM     10  C   UNL     1      -1.258 -48.184  16.935  1.00  0.00     0.004 C 
ENDBRANCH   8   9
ENDBRANCH   7   8
ENDBRANCH   1   7
TORSDOF 6
ENDMDL
MODEL 8
REMARK VINA RESULT:    -3.702      2.404      4.097
REMARK INTER + INTRA:          -5.578
REMARK INTER:                  -5.136
REMARK INTRA:                  -0.442
REMARK UNBOUND:                -0.577
REMARK SMILES CCCCCCCC(=O)[O-]
REMARK SMILES IDX 5 1 6 2 7 3 8 4 9 5 10 6 4 7 3 8 2 9 1 10
REMARK H PARENT
REMARK Flexibility Score: inf
ROOT
ATOM      1  C   UNL     1      -1.966 -46.540  18.704  1.00  0.00     0.000 C 
ENDROOT
BRANCH   1   2
ATOM      2  C   UNL     1      -2.227 -45.208  17.977  1.00  0.00     0.006 C 
BRANCH   2   3
ATOM      3  C   UNL     1      -1.934 -45.244  16.469  1.00  0.00     0.053 C 
BRANCH   3   4
ATOM      4  C   UNL     1      -3.182 -45.121  15.650  1.00  0.00     0.041 C 
ATOM      5  O   UNL     1      -3.465 -46.000  14.793  1.00  0.00    -0.550 OA
ATOM      6  O   UNL     1      -4.013 -44.020  15.809  1.00  0.00    -0.550 OA
ENDBRANCH   3   4
ENDBRANCH   2   3
ENDBRANCH   1   2
BRANCH   1   7
ATOM      7  C   UNL     1      -1.613 -47.685  17.742  1.00  0.00     0.000 C 
BRANCH   7   8
ATOM      8  C   UNL     1      -2.410 -48.952  18.080  1.00  0.00    -0.000 C 
BRANCH   8   9
ATOM      9  C   UNL     1      -3.798 -48.599  18.624  1.00  0.00    -0.003 C 
ATOM     10  C   UNL     1      -4.840 -48.586  17.509  1.00  0.00     0.004 C 
ENDBRANCH   8   9
ENDBRANCH   7   8
ENDBRANCH   1   7
TORSDOF 6
ENDMDL
MODEL 9
REMARK VINA RESULT:    -3.644      2.531      3.614
REMARK INTER + INTRA:          -5.499
REMARK INTER:                  -4.889
REMARK INTRA:                  -0.610
REMARK UNBOUND:                -0.577
REMARK SMILES CCCCCCCC(=O)[O-]
REMARK SMILES IDX 5 1 6 2 7 3 8 4 9 5 10 6 4 7 3 8 2 9 1 10
REMARK H PARENT
REMARK Flexibility Score: inf
ROOT
ATOM      1  C   UNL     1      -4.970 -48.377  17.954  1.00  0.00     0.000 C 
ENDROOT
BRANCH   1   2
ATOM      2  C   UNL     1      -3.914 -48.968  17.002  1.00  0.00     0.006 C 
BRANCH   2   3
ATOM      3  C   UNL     1      -2.467 -48.830  17.500  1.00  0.00     0.053 C 
BRANCH   3   4
ATOM      4  C   UNL     1      -1.630 -48.000  16.575  1.00  0.00     0.041 C 
ATOM      5  O   UNL     1      -0.536 -48.446  16.139  1.00  0.00    -0.550 OA
ATOM      6  O   UNL     1      -2.043 -46.721  16.224  1.00  0.00    -0.550 OA
ENDBRANCH   3   4
ENDBRANCH   2   3
ENDBRANCH   1   2
BRANCH   1   7
ATOM      7  C   UNL     1      -4.457 -48.229  19.394  1.00  0.00     0.000 C 
BRANCH   7   8
ATOM      8  C   UNL     1      -4.731 -46.819  19.933  1.00  0.00    -0.000 C 
BRANCH   8   9
ATOM      9  C   UNL     1      -3.949 -45.766  19.141  1.00  0.00    -0.003 C 
ATOM     10  C   UNL     1      -2.494 -45.703  19.596  1.00  0.00     0.004 C 
ENDBRANCH   8   9
ENDBRANCH   7   8
ENDBRANCH   1   7
TORSDOF 6
ENDMDL
