MODEL 1
REMARK VINA RESULT:    -4.273      0.000      0.000
REMARK INTER + INTRA:          -6.451
REMARK INTER:                  -5.772
REMARK INTRA:                  -0.680
REMARK UNBOUND:                -0.680
REMARK SMILES CC(=O)CCC=C(C)CCC=C(C)C
REMARK SMILES IDX 7 1 6 2 8 3 9 4 10 5 11 6 13 7 12 8 14 9 5 10 4 11 2 12 3 13
REMARK SMILES IDX 1 14
REMARK H PARENT
REMARK Flexibility Score: inf
ROOT
ATOM      1  C   UNL     1      25.594  37.785  20.875  1.00  0.00    -0.077 C 
ATOM      2  C   UNL     1      25.409  39.124  20.842  1.00  0.00    -0.028 C 
ATOM      3  C   UNL     1      24.401  36.905  21.148  1.00  0.00     0.039 C 
ENDROOT
BRANCH   1   4
ATOM      4  C   UNL     1      26.954  37.133  20.723  1.00  0.00     0.034 C 
BRANCH   4   5
ATOM      5  C   UNL     1      27.679  37.078  22.071  1.00  0.00     0.032 C 
BRANCH   5   6
ATOM      6  C   UNL     1      28.192  35.687  22.345  1.00  0.00    -0.028 C 
ATOM      7  C   UNL     1      26.511  35.249  24.150  1.00  0.00     0.039 C 
ATOM      8  C   UNL     1      27.662  34.844  23.259  1.00  0.00    -0.080 C 
ATOM      9  C   UNL     1      28.256  33.465  23.394  1.00  0.00     0.039 C 
ENDBRANCH   5   6
ENDBRANCH   4   5
ENDBRANCH   1   4
BRANCH   2  10
ATOM     10  C   UNL     1      26.491  40.140  20.560  1.00  0.00     0.035 C 
BRANCH  10  11
ATOM     11  C   UNL     1      26.269  41.436  21.351  1.00  0.00     0.079 C 
BRANCH  11  12
ATOM     12  C   UNL     1      26.629  42.653  20.535  1.00  0.00     0.130 C 
ATOM     13  O   UNL     1      26.374  43.765  20.969  1.00  0.00    -0.300 OA
ATOM     14  C   UNL     1      27.296  42.523  19.198  1.00  0.00     0.087 C 
ENDBRANCH  11  12
ENDBRANCH  10  11
ENDBRANCH   2  10
TORSDOF 6
ENDMDL
MODEL 2
REMARK VINA RESULT:    -4.189      1.255      1.473
REMARK INTER + INTRA:          -6.338
REMARK INTER:                  -5.512
REMARK INTRA:                  -0.826
REMARK UNBOUND:                -0.680
REMARK SMILES CC(=O)CCC=C(C)CCC=C(C)C
REMARK SMILES IDX 7 1 6 2 8 3 9 4 10 5 11 6 13 7 12 8 14 9 5 10 4 11 2 12 3 13
REMARK SMILES IDX 1 14
REMARK H PARENT
REMARK Flexibility Score: inf
ROOT
ATOM      1  C   UNL     1      26.528  37.711  20.228  1.00  0.00    -0.077 C 
ATOM      2  C   UNL     1      26.483  38.944  19.675  1.00  0.00    -0.028 C 
ATOM      3  C   UNL     1      25.281  37.177  20.885  1.00  0.00     0.039 C 
ENDROOT
BRANCH   1   4
ATOM      4  C   UNL     1      27.789  36.873  20.281  1.00  0.00     0.034 C 
BRANCH   4   5
ATOM      5  C   UNL     1      28.368  36.861  21.699  1.00  0.00     0.032 C 
BRANCH   5   6
ATOM      6  C   UNL     1      28.651  35.449  22.149  1.00  0.00    -0.028 C 
ATOM      7  C   UNL     1      26.806  35.448  23.843  1.00  0.00     0.039 C 
ATOM      8  C   UNL     1      27.942  34.792  23.092  1.00  0.00    -0.080 C 
ATOM      9  C   UNL     1      28.316  33.367  23.410  1.00  0.00     0.039 C 
ENDBRANCH   5   6
ENDBRANCH   4   5
ENDBRANCH   1   4
BRANCH   2  10
ATOM     10  C   UNL     1      27.633  39.614  18.960  1.00  0.00     0.035 C 
BRANCH  10  11
ATOM     11  C   UNL     1      28.179  40.805  19.759  1.00  0.00     0.079 C 
BRANCH  11  12
ATOM     12  C   UNL     1      27.271  42.005  19.657  1.00  0.00     0.130 C 
ATOM     13  O   UNL     1      27.172  42.595  18.592  1.00  0.00    -0.300 OA
ATOM     14  C   UNL     1      26.485  42.489  20.839  1.00  0.00     0.087 C 
ENDBRANCH  11  12
ENDBRANCH  10  11
ENDBRANCH   2  10
TORSDOF 6
ENDMDL
MODEL 3
REMARK VINA RESULT:    -4.114     10.930     13.010
REMARK INTER + INTRA:          -6.236
REMARK INTER:                  -5.053
REMARK INTRA:                  -1.183
REMARK UNBOUND:                -0.680
REMARK SMILES CC(=O)CCC=C(C)CCC=C(C)C
REMARK SMILES IDX 7 1 6 2 8 3 9 4 10 5 11 6 13 7 12 8 14 9 5 10 4 11 2 12 3 13
REMARK SMILES IDX 1 14
REMARK H PARENT
REMARK Flexibility Score: inf
ROOT
ATOM      1  C   UNL     1      26.738  28.539  29.865  1.00  0.00    -0.077 C 
ATOM      2  C   UNL     1      27.779  29.269  29.405  1.00  0.00    -0.028 C 
ATOM      3  C   UNL     1      25.721  29.220  30.745  1.00  0.00     0.039 C 
ENDROOT
BRANCH   1   4
ATOM      4  C   UNL     1      26.584  27.056  29.596  1.00  0.00     0.034 C 
BRANCH   4   5
ATOM      5  C   UNL     1      25.845  26.821  28.275  1.00  0.00     0.032 C 
BRANCH   5   6
ATOM      6  C   UNL     1      24.405  26.449  28.527  1.00  0.00    -0.028 C 
ATOM      7  C   UNL     1      23.532  28.682  27.800  1.00  0.00     0.039 C 
ATOM      8  C   UNL     1      23.354  27.265  28.294  1.00  0.00    -0.080 C 
ATOM      9  C   UNL     1      21.965  26.740  28.556  1.00  0.00     0.039 C 
ENDBRANCH   5   6
ENDBRANCH   4   5
ENDBRANCH   1   4
BRANCH   2  10
ATOM     10  C   UNL     1      28.868  28.747  28.497  1.00  0.00     0.035 C 
BRANCH  10  11
ATOM     11  C   UNL     1      28.831  29.426  27.122  1.00  0.00     0.079 C 
BRANCH  11  12
ATOM     12  C   UNL     1      28.151  28.557  26.093  1.00  0.00     0.130 C 
ATOM     13  O   UNL     1      28.598  27.445  25.855  1.00  0.00    -0.300 OA
ATOM     14  C   UNL     1      26.935  29.031  25.355  1.00  0.00     0.087 C 
ENDBRANCH  11  12
ENDBRANCH  10  11
ENDBRANCH   2  10
TORSDOF 6
ENDMDL
MODEL 4
REMARK VINA RESULT:    -4.101      3.312      6.726
REMARK INTER + INTRA:          -6.219
REMARK INTER:                  -5.511
REMARK INTRA:                  -0.707
REMARK UNBOUND:                -0.680
REMARK SMILES CC(=O)CCC=C(C)CCC=C(C)C
REMARK SMILES IDX 7 1 6 2 8 3 9 4 10 5 11 6 13 7 12 8 14 9 5 10 4 11 2 12 3 13
REMARK SMILES IDX 1 14
REMARK H PARENT
REMARK Flexibility Score: inf
ROOT
ATOM      1  C   UNL     1      26.442  37.160  20.994  1.00  0.00    -0.077 C 
ATOM      2  C   UNL     1      26.810  36.374  22.031  1.00  0.00    -0.028 C 
ATOM      3  C   UNL     1      24.979  37.479  20.823  1.00  0.00     0.039 C 
ENDROOT
BRANCH   1   4
ATOM      4  C   UNL     1      27.421  37.673  19.956  1.00  0.00     0.034 C 
BRANCH   4   5
ATOM      5  C   UNL     1      26.740  38.680  19.025  1.00  0.00     0.032 C 
BRANCH   5   6
ATOM      6  C   UNL     1      27.520  39.969  18.970  1.00  0.00    -0.028 C 
ATOM      7  C   UNL     1      26.376  40.936  20.978  1.00  0.00     0.039 C 
ATOM      8  C   UNL     1      27.386  40.981  19.855  1.00  0.00    -0.080 C 
ATOM      9  C   UNL     1      28.265  42.196  19.696  1.00  0.00     0.039 C 
ENDBRANCH   5   6
ENDBRANCH   4   5
ENDBRANCH   1   4
BRANCH   2  10
ATOM     10  C   UNL     1      28.232  35.980  22.357  1.00  0.00     0.035 C 
BRANCH  10  11
ATOM     11  C   UNL     1      28.291  35.013  23.546  1.00  0.00     0.079 C 
BRANCH  11  12
ATOM     12  C   UNL     1      28.389  33.578  23.091  1.00  0.00     0.130 C 
ATOM     13  O   UNL     1      28.159  32.678  23.883  1.00  0.00    -0.300 OA
ATOM     14  C   UNL     1      28.764  33.234  21.680  1.00  0.00     0.087 C 
ENDBRANCH  11  12
ENDBRANCH  10  11
ENDBRANCH   2  10
TORSDOF 6
ENDMDL
MODEL 5
REMARK VINA RESULT:    -3.932      2.740      4.232
REMARK INTER + INTRA:          -5.991
REMARK INTER:                  -5.469
REMARK INTRA:                  -0.522
REMARK UNBOUND:                -0.680
REMARK SMILES CC(=O)CCC=C(C)CCC=C(C)C
REMARK SMILES IDX 7 1 6 2 8 3 9 4 10 5 11 6 13 7 12 8 14 9 5 10 4 11 2 12 3 13
REMARK SMILES IDX 1 14
REMARK H PARENT
REMARK Flexibility Score: inf
ROOT
ATOM      1  C   UNL     1      27.571  35.525  23.193  1.00  0.00    -0.077 C 
ATOM      2  C   UNL     1      27.366  36.321  22.119  1.00  0.00    -0.028 C 
ATOM      3  C   UNL     1      26.528  35.510  24.280  1.00  0.00     0.039 C 
ENDROOT
BRANCH   1   4
ATOM      4  C   UNL     1      28.831  34.706  23.387  1.00  0.00     0.034 C 
BRANCH   4   5
ATOM      5  C   UNL     1      28.602  33.255  22.955  1.00  0.00     0.032 C 
BRANCH   5   6
ATOM      6  C   UNL     1      28.494  32.350  24.157  1.00  0.00    -0.028 C 
ATOM      7  C   UNL     1      29.074  30.288  22.858  1.00  0.00     0.039 C 
ATOM      8  C   UNL     1      28.727  31.019  24.134  1.00  0.00    -0.080 C 
ATOM      9  C   UNL     1      28.620  30.249  25.425  1.00  0.00     0.039 C 
ENDBRANCH   5   6
ENDBRANCH   4   5
ENDBRANCH   1   4
BRANCH   2  10
ATOM     10  C   UNL     1      28.298  36.435  20.935  1.00  0.00     0.035 C 
BRANCH  10  11
ATOM     11  C   UNL     1      28.701  37.891  20.671  1.00  0.00     0.079 C 
BRANCH  11  12
ATOM     12  C   UNL     1      27.790  38.545  19.662  1.00  0.00     0.130 C 
ATOM     13  O   UNL     1      26.831  39.194  20.049  1.00  0.00    -0.300 OA
ATOM     14  C   UNL     1      28.040  38.415  18.189  1.00  0.00     0.087 C 
ENDBRANCH  11  12
ENDBRANCH  10  11
ENDBRANCH   2  10
TORSDOF 6
ENDMDL
MODEL 6
REMARK VINA RESULT:    -3.928      9.055     11.961
REMARK INTER + INTRA:          -5.985
REMARK INTER:                  -4.962
REMARK INTRA:                  -1.023
REMARK UNBOUND:                -0.680
REMARK SMILES CC(=O)CCC=C(C)CCC=C(C)C
REMARK SMILES IDX 7 1 6 2 8 3 9 4 10 5 11 6 13 7 12 8 14 9 5 10 4 11 2 12 3 13
REMARK SMILES IDX 1 14
REMARK H PARENT
REMARK Flexibility Score: inf
ROOT
ATOM      1  C   UNL     1      27.846  27.236  27.442  1.00  0.00    -0.077 C 
ATOM      2  C   UNL     1      27.711  27.630  26.156  1.00  0.00    -0.028 C 
ATOM      3  C   UNL     1      28.181  25.793  27.716  1.00  0.00     0.039 C 
ENDROOT
BRANCH   1   4
ATOM      4  C   UNL     1      27.605  28.159  28.620  1.00  0.00     0.034 C 
BRANCH   4   5
ATOM      5  C   UNL     1      26.507  27.598  29.528  1.00  0.00     0.032 C 
BRANCH   5   6
ATOM      6  C   UNL     1      25.145  28.044  29.058  1.00  0.00    -0.028 C 
ATOM      7  C   UNL     1      24.482  25.754  28.289  1.00  0.00     0.039 C 
ATOM      8  C   UNL     1      24.215  27.223  28.523  1.00  0.00    -0.080 C 
ATOM      9  C   UNL     1      22.879  27.805  28.136  1.00  0.00     0.039 C 
ENDBRANCH   5   6
ENDBRANCH   4   5
ENDBRANCH   1   4
BRANCH   2  10
ATOM     10  C   UNL     1      27.403  29.041  25.710  1.00  0.00     0.035 C 
BRANCH  10  11
ATOM     11  C   UNL     1      28.683  29.852  25.474  1.00  0.00     0.079 C 
BRANCH  11  12
ATOM     12  C   UNL     1      28.627  30.610  24.171  1.00  0.00     0.130 C 
ATOM     13  O   UNL     1      28.170  31.743  24.153  1.00  0.00    -0.300 OA
ATOM     14  C   UNL     1      29.124  30.001  22.894  1.00  0.00     0.087 C 
ENDBRANCH  11  12
ENDBRANCH  10  11
ENDBRANCH   2  10
TORSDOF 6
ENDMDL
MODEL 7
REMARK VINA RESULT:    -3.909     10.774     13.599
REMARK INTER + INTRA:          -5.960
REMARK INTER:                  -4.818
REMARK INTRA:                  -1.142
REMARK UNBOUND:                -0.680
REMARK SMILES CC(=O)CCC=C(C)CCC=C(C)C
REMARK SMILES IDX 7 1 6 2 8 3 9 4 10 5 11 6 13 7 12 8 14 9 5 10 4 11 2 12 3 13
REMARK SMILES IDX 1 14
REMARK H PARENT
REMARK Flexibility Score: inf
ROOT
ATOM      1  C   UNL     1      28.474  28.718  28.701  1.00  0.00    -0.077 C 
ATOM      2  C   UNL     1      27.400  28.730  29.522  1.00  0.00    -0.028 C 
ATOM      3  C   UNL     1      29.104  30.036  28.330  1.00  0.00     0.039 C 
ENDROOT
BRANCH   1   4
ATOM      4  C   UNL     1      29.026  27.451  28.080  1.00  0.00     0.034 C 
BRANCH   4   5
ATOM      5  C   UNL     1      28.267  27.105  26.796  1.00  0.00     0.032 C 
BRANCH   5   6
ATOM      6  C   UNL     1      28.869  27.816  25.610  1.00  0.00    -0.028 C 
ATOM      7  C   UNL     1      26.789  29.130  25.137  1.00  0.00     0.039 C 
ATOM      8  C   UNL     1      28.226  28.746  24.870  1.00  0.00    -0.080 C 
ATOM      9  C   UNL     1      28.972  29.403  23.736  1.00  0.00     0.039 C 
ENDBRANCH   5   6
ENDBRANCH   4   5
ENDBRANCH   1   4
BRANCH   2  10
ATOM     10  C   UNL     1      26.667  27.501  30.008  1.00  0.00     0.035 C 
BRANCH  10  11
ATOM     11  C   UNL     1      25.454  27.180  29.124  1.00  0.00     0.079 C 
BRANCH  11  12
ATOM     12  C   UNL     1      25.374  25.708  28.806  1.00  0.00     0.130 C 
ATOM     13  O   UNL     1      24.460  25.292  28.111  1.00  0.00    -0.300 OA
ATOM     14  C   UNL     1      26.397  24.742  29.326  1.00  0.00     0.087 C 
ENDBRANCH  11  12
ENDBRANCH  10  11
ENDBRANCH   2  10
TORSDOF 6
ENDMDL
MODEL 8
REMARK VINA RESULT:    -3.846      5.928      9.274
REMARK INTER + INTRA:          -5.875
REMARK INTER:                  -5.332
REMARK INTRA:                  -0.542
REMARK UNBOUND:                -0.680
REMARK SMILES CC(=O)CCC=C(C)CCC=C(C)C
REMARK SMILES IDX 7 1 6 2 8 3 9 4 10 5 11 6 13 7 12 8 14 9 5 10 4 11 2 12 3 13
REMARK SMILES IDX 1 14
REMARK H PARENT
REMARK Flexibility Score: inf
ROOT
ATOM      1  C   UNL     1      28.005  29.949  25.208  1.00  0.00    -0.077 C 
ATOM      2  C   UNL     1      28.026  30.901  24.248  1.00  0.00    -0.028 C 
ATOM      3  C   UNL     1      27.038  28.802  25.056  1.00  0.00     0.039 C 
ENDROOT
BRANCH   1   4
ATOM      4  C   UNL     1      28.853  30.018  26.462  1.00  0.00     0.034 C 
BRANCH   4   5
ATOM      5  C   UNL     1      28.790  28.694  27.229  1.00  0.00     0.032 C 
BRANCH   5   6
ATOM      6  C   UNL     1      27.992  28.849  28.499  1.00  0.00    -0.028 C 
ATOM      7  C   UNL     1      26.571  26.837  28.042  1.00  0.00     0.039 C 
ATOM      8  C   UNL     1      27.010  28.009  28.891  1.00  0.00    -0.080 C 
ATOM      9  C   UNL     1      26.326  28.268  30.209  1.00  0.00     0.039 C 
ENDBRANCH   5   6
ENDBRANCH   4   5
ENDBRANCH   1   4
BRANCH   2  10
ATOM     10  C   UNL     1      28.947  32.098  24.237  1.00  0.00     0.035 C 
BRANCH  10  11
ATOM     11  C   UNL     1      28.214  33.371  23.793  1.00  0.00     0.079 C 
BRANCH  11  12
ATOM     12  C   UNL     1      28.614  33.783  22.398  1.00  0.00     0.130 C 
ATOM     13  O   UNL     1      28.831  32.926  21.556  1.00  0.00    -0.300 OA
ATOM     14  C   UNL     1      28.751  35.229  22.024  1.00  0.00     0.087 C 
ENDBRANCH  11  12
ENDBRANCH  10  11
ENDBRANCH   2  10
TORSDOF 6
ENDMDL
MODEL 9
REMARK VINA RESULT:    -3.786      8.296     12.568
REMARK INTER + INTRA:          -5.794
REMARK INTER:                  -5.339
REMARK INTRA:                  -0.455
REMARK UNBOUND:                -0.680
REMARK SMILES CC(=O)CCC=C(C)CCC=C(C)C
REMARK SMILES IDX 7 1 6 2 8 3 9 4 10 5 11 6 13 7 12 8 14 9 5 10 4 11 2 12 3 13
REMARK SMILES IDX 1 14
REMARK H PARENT
REMARK Flexibility Score: inf
ROOT
ATOM      1  C   UNL     1      27.628  28.385  28.110  1.00  0.00    -0.077 C 
ATOM      2  C   UNL     1      26.658  27.628  28.671  1.00  0.00    -0.028 C 
ATOM      3  C   UNL     1      28.563  29.138  29.021  1.00  0.00     0.039 C 
ENDROOT
BRANCH   1   4
ATOM      4  C   UNL     1      27.773  28.569  26.613  1.00  0.00     0.034 C 
BRANCH   4   5
ATOM      5  C   UNL     1      29.082  29.292  26.283  1.00  0.00     0.032 C 
BRANCH   5   6
ATOM      6  C   UNL     1      28.808  30.646  25.679  1.00  0.00    -0.028 C 
ATOM      7  C   UNL     1      29.055  29.825  23.325  1.00  0.00     0.039 C 
ATOM      8  C   UNL     1      28.767  30.896  24.351  1.00  0.00    -0.080 C 
ATOM      9  C   UNL     1      28.439  32.294  23.893  1.00  0.00     0.039 C 
ENDBRANCH   5   6
ENDBRANCH   4   5
ENDBRANCH   1   4
BRANCH   2  10
ATOM     10  C   UNL     1      25.658  26.796  27.904  1.00  0.00     0.035 C 
BRANCH  10  11
ATOM     11  C   UNL     1      24.378  26.560  28.716  1.00  0.00     0.079 C 
BRANCH  11  12
ATOM     12  C   UNL     1      23.270  27.490  28.289  1.00  0.00     0.130 C 
ATOM     13  O   UNL     1      23.518  28.669  28.088  1.00  0.00    -0.300 OA
ATOM     14  C   UNL     1      21.866  26.996  28.105  1.00  0.00     0.087 C 
ENDBRANCH  11  12
ENDBRANCH  10  11
ENDBRANCH   2  10
TORSDOF 6
ENDMDL
