MODEL 1
REMARK VINA RESULT:    -3.026      0.000      0.000
REMARK INTER + INTRA:          -3.400
REMARK INTER:                  -3.379
REMARK INTRA:                  -0.021
REMARK UNBOUND:                -0.021
REMARK SMILES CCCC(=O)[O-]
REMARK SMILES IDX 3 1 4 2 5 3 6 4 2 5 1 6
REMARK H PARENT
REMARK Flexibility Score: inf
ROOT
ATOM      1  C   UNL     1      -8.425  25.791  22.020  1.00  0.00     0.052 C 
ENDROOT
BRANCH   1   2
ATOM      2  C   UNL     1      -8.736  27.082  21.325  1.00  0.00     0.041 C 
ATOM      3  O   UNL     1      -8.810  27.124  20.069  1.00  0.00    -0.550 OA
ATOM      4  O   UNL     1      -8.909  28.245  22.064  1.00  0.00    -0.550 OA
ENDBRANCH   1   2
BRANCH   1   5
ATOM      5  C   UNL     1      -7.151  25.895  22.868  1.00  0.00     0.003 C 
ATOM      6  C   UNL     1      -7.455  26.088  24.352  1.00  0.00     0.004 C 
ENDBRANCH   1   5
TORSDOF 2
ENDMDL
MODEL 2
REMARK VINA RESULT:    -3.020      0.082      1.323
REMARK INTER + INTRA:          -3.394
REMARK INTER:                  -3.382
REMARK INTRA:                  -0.012
REMARK UNBOUND:                -0.021
REMARK SMILES CCCC(=O)[O-]
REMARK SMILES IDX 3 1 4 2 5 3 6 4 2 5 1 6
REMARK H PARENT
REMARK Flexibility Score: inf
ROOT
ATOM      1  C   UNL     1      -8.404  25.786  22.014  1.00  0.00     0.052 C 
ENDROOT
BRANCH   1   2
ATOM      2  C   UNL     1      -8.702  27.082  21.323  1.00  0.00     0.041 C 
ATOM      3  O   UNL     1      -8.851  28.138  21.992  1.00  0.00    -0.550 OA
ATOM      4  O   UNL     1      -8.849  27.115  19.942  1.00  0.00    -0.550 OA
ENDBRANCH   1   2
BRANCH   1   5
ATOM      5  C   UNL     1      -7.136  25.878  22.872  1.00  0.00     0.003 C 
ATOM      6  C   UNL     1      -7.449  26.075  24.354  1.00  0.00     0.004 C 
ENDBRANCH   1   5
TORSDOF 2
ENDMDL
MODEL 3
REMARK VINA RESULT:    -2.969      2.501      3.506
REMARK INTER + INTRA:          -3.338
REMARK INTER:                  -3.317
REMARK INTRA:                  -0.021
REMARK UNBOUND:                -0.021
REMARK SMILES CCCC(=O)[O-]
REMARK SMILES IDX 3 1 4 2 5 3 6 4 2 5 1 6
REMARK H PARENT
REMARK Flexibility Score: inf
ROOT
ATOM      1  C   UNL     1      -7.530  26.351  24.643  1.00  0.00     0.052 C 
ENDROOT
BRANCH   1   2
ATOM      2  C   UNL     1      -8.470  27.349  25.249  1.00  0.00     0.041 C 
ATOM      3  O   UNL     1      -8.646  28.469  24.704  1.00  0.00    -0.550 OA
ATOM      4  O   UNL     1      -9.127  27.051  26.437  1.00  0.00    -0.550 OA
ENDBRANCH   1   2
BRANCH   1   5
ATOM      5  C   UNL     1      -8.176  25.600  23.473  1.00  0.00     0.003 C 
ATOM      6  C   UNL     1      -7.296  25.600  22.225  1.00  0.00     0.004 C 
ENDBRANCH   1   5
TORSDOF 2
ENDMDL
MODEL 4
REMARK VINA RESULT:    -2.962      1.202      1.462
REMARK INTER + INTRA:          -3.330
REMARK INTER:                  -3.294
REMARK INTRA:                  -0.036
REMARK UNBOUND:                -0.021
REMARK SMILES CCCC(=O)[O-]
REMARK SMILES IDX 3 1 4 2 5 3 6 4 2 5 1 6
REMARK H PARENT
REMARK Flexibility Score: inf
ROOT
ATOM      1  C   UNL     1      -8.106  24.930  21.757  1.00  0.00     0.052 C 
ENDROOT
BRANCH   1   2
ATOM      2  C   UNL     1      -8.554  25.638  20.515  1.00  0.00     0.041 C 
ATOM      3  O   UNL     1      -8.750  24.992  19.453  1.00  0.00    -0.550 OA
ATOM      4  O   UNL     1      -8.721  27.017  20.523  1.00  0.00    -0.550 OA
ENDBRANCH   1   2
BRANCH   1   5
ATOM      5  C   UNL     1      -7.083  25.758  22.544  1.00  0.00     0.003 C 
ATOM      6  C   UNL     1      -7.558  26.078  23.960  1.00  0.00     0.004 C 
ENDBRANCH   1   5
TORSDOF 2
ENDMDL
MODEL 5
REMARK VINA RESULT:    -2.947      2.101      2.517
REMARK INTER + INTRA:          -3.312
REMARK INTER:                  -3.294
REMARK INTRA:                  -0.018
REMARK UNBOUND:                -0.021
REMARK SMILES CCCC(=O)[O-]
REMARK SMILES IDX 3 1 4 2 5 3 6 4 2 5 1 6
REMARK H PARENT
REMARK Flexibility Score: inf
ROOT
ATOM      1  C   UNL     1      -7.212  25.651  22.319  1.00  0.00     0.052 C 
ENDROOT
BRANCH   1   2
ATOM      2  C   UNL     1      -7.954  24.670  21.464  1.00  0.00     0.041 C 
ATOM      3  O   UNL     1      -8.242  24.957  20.272  1.00  0.00    -0.550 OA
ATOM      4  O   UNL     1      -8.358  23.451  21.995  1.00  0.00    -0.550 OA
ENDBRANCH   1   2
BRANCH   1   5
ATOM      5  C   UNL     1      -8.145  26.365  23.304  1.00  0.00     0.003 C 
ATOM      6  C   UNL     1      -7.591  26.376  24.728  1.00  0.00     0.004 C 
ENDBRANCH   1   5
TORSDOF 2
ENDMDL
MODEL 6
REMARK VINA RESULT:    -2.935      2.578      3.690
REMARK INTER + INTRA:          -3.299
REMARK INTER:                  -3.265
REMARK INTRA:                  -0.034
REMARK UNBOUND:                -0.021
REMARK SMILES CCCC(=O)[O-]
REMARK SMILES IDX 3 1 4 2 5 3 6 4 2 5 1 6
REMARK H PARENT
REMARK Flexibility Score: inf
ROOT
ATOM      1  C   UNL     1      -8.454  25.869  24.752  1.00  0.00     0.052 C 
ENDROOT
BRANCH   1   2
ATOM      2  C   UNL     1      -8.762  27.131  25.500  1.00  0.00     0.041 C 
ATOM      3  O   UNL     1      -9.171  27.080  26.689  1.00  0.00    -0.550 OA
ATOM      4  O   UNL     1      -8.629  28.361  24.870  1.00  0.00    -0.550 OA
ENDBRANCH   1   2
BRANCH   1   5
ATOM      5  C   UNL     1      -7.121  25.966  23.999  1.00  0.00     0.003 C 
ATOM      6  C   UNL     1      -7.283  25.730  22.499  1.00  0.00     0.004 C 
ENDBRANCH   1   5
TORSDOF 2
ENDMDL
MODEL 7
REMARK VINA RESULT:    -2.872      2.211      2.736
REMARK INTER + INTRA:          -3.229
REMARK INTER:                  -3.200
REMARK INTRA:                  -0.029
REMARK UNBOUND:                -0.021
REMARK SMILES CCCC(=O)[O-]
REMARK SMILES IDX 3 1 4 2 5 3 6 4 2 5 1 6
REMARK H PARENT
REMARK Flexibility Score: inf
ROOT
ATOM      1  C   UNL     1      -9.587  27.813  24.142  1.00  0.00     0.052 C 
ENDROOT
BRANCH   1   2
ATOM      2  C   UNL     1      -9.239  29.090  23.440  1.00  0.00     0.041 C 
ATOM      3  O   UNL     1      -9.418  29.202  22.200  1.00  0.00    -0.550 OA
ATOM      4  O   UNL     1      -8.684  30.145  24.153  1.00  0.00    -0.550 OA
ENDBRANCH   1   2
BRANCH   1   5
ATOM      5  C   UNL     1      -8.472  27.368  25.097  1.00  0.00     0.003 C 
ATOM      6  C   UNL     1      -7.601  26.264  24.501  1.00  0.00     0.004 C 
ENDBRANCH   1   5
TORSDOF 2
ENDMDL
MODEL 8
REMARK VINA RESULT:    -2.803     13.472     13.876
REMARK INTER + INTRA:          -3.152
REMARK INTER:                  -3.114
REMARK INTRA:                  -0.038
REMARK UNBOUND:                -0.021
REMARK SMILES CCCC(=O)[O-]
REMARK SMILES IDX 3 1 4 2 5 3 6 4 2 5 1 6
REMARK H PARENT
REMARK Flexibility Score: inf
ROOT
ATOM      1  C   UNL     1       4.343  28.756  17.403  1.00  0.00     0.052 C 
ENDROOT
BRANCH   1   2
ATOM      2  C   UNL     1       5.104  30.040  17.266  1.00  0.00     0.041 C 
ATOM      3  O   UNL     1       6.228  30.053  16.701  1.00  0.00    -0.550 OA
ATOM      4  O   UNL     1       4.585  31.215  17.794  1.00  0.00    -0.550 OA
ENDBRANCH   1   2
BRANCH   1   5
ATOM      5  C   UNL     1       4.312  28.267  18.856  1.00  0.00     0.003 C 
ATOM      6  C   UNL     1       2.935  28.436  19.497  1.00  0.00     0.004 C 
ENDBRANCH   1   5
TORSDOF 2
ENDMDL
MODEL 9
REMARK VINA RESULT:    -2.800      1.031      1.971
REMARK INTER + INTRA:          -3.148
REMARK INTER:                  -3.143
REMARK INTRA:                  -0.006
REMARK UNBOUND:                -0.021
REMARK SMILES CCCC(=O)[O-]
REMARK SMILES IDX 3 1 4 2 5 3 6 4 2 5 1 6
REMARK H PARENT
REMARK Flexibility Score: inf
ROOT
ATOM      1  C   UNL     1      -8.444  26.562  22.966  1.00  0.00     0.052 C 
ENDROOT
BRANCH   1   2
ATOM      2  C   UNL     1      -8.820  27.641  21.997  1.00  0.00     0.041 C 
ATOM      3  O   UNL     1      -9.197  28.767  22.415  1.00  0.00    -0.550 OA
ATOM      4  O   UNL     1      -8.786  27.391  20.631  1.00  0.00    -0.550 OA
ENDBRANCH   1   2
BRANCH   1   5
ATOM      5  C   UNL     1      -7.374  25.628  22.389  1.00  0.00     0.003 C 
ATOM      6  C   UNL     1      -7.963  24.315  21.876  1.00  0.00     0.004 C 
ENDBRANCH   1   5
TORSDOF 2
ENDMDL
