MODEL 1
REMARK VINA RESULT:    -3.996      0.000      0.000
REMARK INTER + INTRA:          -5.286
REMARK INTER:                  -4.930
REMARK INTRA:                  -0.356
REMARK UNBOUND:                -0.356
REMARK SMILES COC(=O)c1ccccc1C(=O)OC
REMARK SMILES IDX 5 1 6 2 7 3 8 4 9 5 10 6 3 7 4 8 2 9 1 10 11 11 12 12 13 13
REMARK SMILES IDX 14 14
REMARK H PARENT
REMARK Flexibility Score: inf
ROOT
ATOM      1  C   UNL     1       2.416  -2.394  -4.087  1.00  0.00     0.074 A 
ATOM      2  C   UNL     1       3.125  -2.716  -2.914  1.00  0.00     0.016 A 
ATOM      3  C   UNL     1       2.651  -3.694  -2.039  1.00  0.00     0.001 A 
ATOM      4  C   UNL     1       1.463  -4.367  -2.320  1.00  0.00     0.001 A 
ATOM      5  C   UNL     1       0.757  -4.080  -3.489  1.00  0.00     0.016 A 
ATOM      6  C   UNL     1       1.227  -3.114  -4.396  1.00  0.00     0.074 A 
ENDROOT
BRANCH   1   7
ATOM      7  C   UNL     1       2.916  -1.269  -4.910  1.00  0.00     0.338 C 
ATOM      8  O   UNL     1       3.600  -1.492  -5.946  1.00  0.00    -0.246 OA
BRANCH   7   9
ATOM      9  O   UNL     1       2.576   0.042  -4.563  1.00  0.00    -0.465 OA
ATOM     10  C   UNL     1       1.648   0.818  -5.311  1.00  0.00     0.282 C 
ENDBRANCH   7   9
ENDBRANCH   1   7
BRANCH   6  11
ATOM     11  C   UNL     1       0.488  -2.942  -5.668  1.00  0.00     0.338 C 
ATOM     12  O   UNL     1      -0.358  -2.014  -5.793  1.00  0.00    -0.246 OA
BRANCH  11  13
ATOM     13  O   UNL     1       0.777  -3.780  -6.751  1.00  0.00    -0.465 OA
ATOM     14  C   UNL     1      -0.004  -4.928  -7.062  1.00  0.00     0.282 C 
ENDBRANCH  11  13
ENDBRANCH   6  11
TORSDOF 4
ENDMDL
MODEL 2
REMARK VINA RESULT:    -3.995      0.050      3.753
REMARK INTER + INTRA:          -5.285
REMARK INTER:                  -4.934
REMARK INTRA:                  -0.351
REMARK UNBOUND:                -0.356
REMARK SMILES COC(=O)c1ccccc1C(=O)OC
REMARK SMILES IDX 5 1 6 2 7 3 8 4 9 5 10 6 3 7 4 8 2 9 1 10 11 11 12 12 13 13
REMARK SMILES IDX 14 14
REMARK H PARENT
REMARK Flexibility Score: inf
ROOT
ATOM      1  C   UNL     1       1.230  -3.082  -4.401  1.00  0.00     0.074 A 
ATOM      2  C   UNL     1       0.771  -4.061  -3.499  1.00  0.00     0.016 A 
ATOM      3  C   UNL     1       1.484  -4.350  -2.335  1.00  0.00     0.001 A 
ATOM      4  C   UNL     1       2.665  -3.669  -2.052  1.00  0.00     0.001 A 
ATOM      5  C   UNL     1       3.127  -2.679  -2.920  1.00  0.00     0.016 A 
ATOM      6  C   UNL     1       2.413  -2.355  -4.088  1.00  0.00     0.074 A 
ENDROOT
BRANCH   1   7
ATOM      7  C   UNL     1       0.486  -2.908  -5.669  1.00  0.00     0.338 C 
ATOM      8  O   UNL     1      -0.348  -1.969  -5.794  1.00  0.00    -0.246 OA
BRANCH   7   9
ATOM      9  O   UNL     1       0.756  -3.755  -6.748  1.00  0.00    -0.465 OA
ATOM     10  C   UNL     1      -0.040  -4.896  -7.045  1.00  0.00     0.282 C 
ENDBRANCH   7   9
ENDBRANCH   1   7
BRANCH   6  11
ATOM     11  C   UNL     1       2.899  -1.218  -4.903  1.00  0.00     0.338 C 
ATOM     12  O   UNL     1       3.604  -1.426  -5.929  1.00  0.00    -0.246 OA
BRANCH  11  13
ATOM     13  O   UNL     1       2.524   0.086  -4.562  1.00  0.00    -0.465 OA
ATOM     14  C   UNL     1       1.677   0.880  -5.383  1.00  0.00     0.282 C 
ENDBRANCH  11  13
ENDBRANCH   6  11
TORSDOF 4
ENDMDL
MODEL 3
REMARK VINA RESULT:    -3.987      8.807     10.171
REMARK INTER + INTRA:          -5.276
REMARK INTER:                  -4.886
REMARK INTRA:                  -0.390
REMARK UNBOUND:                -0.356
REMARK SMILES COC(=O)c1ccccc1C(=O)OC
REMARK SMILES IDX 5 1 6 2 7 3 8 4 9 5 10 6 3 7 4 8 2 9 1 10 11 11 12 12 13 13
REMARK SMILES IDX 14 14
REMARK H PARENT
REMARK Flexibility Score: inf
ROOT
ATOM      1  C   UNL     1      -6.480  -4.191   0.375  1.00  0.00     0.074 A 
ATOM      2  C   UNL     1      -6.235  -5.533   0.027  1.00  0.00     0.016 A 
ATOM      3  C   UNL     1      -6.277  -5.943  -1.306  1.00  0.00     0.001 A 
ATOM      4  C   UNL     1      -6.564  -5.023  -2.312  1.00  0.00     0.001 A 
ATOM      5  C   UNL     1      -6.788  -3.684  -1.991  1.00  0.00     0.016 A 
ATOM      6  C   UNL     1      -6.729  -3.243  -0.657  1.00  0.00     0.074 A 
ENDROOT
BRANCH   1   7
ATOM      7  C   UNL     1      -6.532  -3.850   1.815  1.00  0.00     0.338 C 
ATOM      8  O   UNL     1      -7.632  -3.557   2.361  1.00  0.00    -0.246 OA
BRANCH   7   9
ATOM      9  O   UNL     1      -5.364  -3.910   2.581  1.00  0.00    -0.465 OA
ATOM     10  C   UNL     1      -4.212  -3.130   2.285  1.00  0.00     0.282 C 
ENDBRANCH   7   9
ENDBRANCH   1   7
BRANCH   6  11
ATOM     11  C   UNL     1      -6.864  -1.790  -0.402  1.00  0.00     0.338 C 
ATOM     12  O   UNL     1      -7.993  -1.292  -0.139  1.00  0.00    -0.246 OA
BRANCH  11  13
ATOM     13  O   UNL     1      -5.722  -0.982  -0.396  1.00  0.00    -0.465 OA
ATOM     14  C   UNL     1      -5.437  -0.063   0.652  1.00  0.00     0.282 C 
ENDBRANCH  11  13
ENDBRANCH   6  11
TORSDOF 4
ENDMDL
MODEL 4
REMARK VINA RESULT:    -3.978      8.825     10.073
REMARK INTER + INTRA:          -5.264
REMARK INTER:                  -4.899
REMARK INTRA:                  -0.365
REMARK UNBOUND:                -0.356
REMARK SMILES COC(=O)c1ccccc1C(=O)OC
REMARK SMILES IDX 5 1 6 2 7 3 8 4 9 5 10 6 3 7 4 8 2 9 1 10 11 11 12 12 13 13
REMARK SMILES IDX 14 14
REMARK H PARENT
REMARK Flexibility Score: inf
ROOT
ATOM      1  C   UNL     1      -6.793  -3.253  -0.678  1.00  0.00     0.074 A 
ATOM      2  C   UNL     1      -6.860  -3.701  -2.011  1.00  0.00     0.016 A 
ATOM      3  C   UNL     1      -6.599  -5.033  -2.330  1.00  0.00     0.001 A 
ATOM      4  C   UNL     1      -6.266  -5.940  -1.327  1.00  0.00     0.001 A 
ATOM      5  C   UNL     1      -6.216  -5.523   0.004  1.00  0.00     0.016 A 
ATOM      6  C   UNL     1      -6.498  -4.190   0.352  1.00  0.00     0.074 A 
ENDROOT
BRANCH   1   7
ATOM      7  C   UNL     1      -6.970  -1.805  -0.426  1.00  0.00     0.338 C 
ATOM      8  O   UNL     1      -8.090  -1.354  -0.060  1.00  0.00    -0.246 OA
BRANCH   7   9
ATOM      9  O   UNL     1      -5.872  -0.946  -0.540  1.00  0.00    -0.465 OA
ATOM     10  C   UNL     1      -5.403  -0.153   0.544  1.00  0.00     0.282 C 
ENDBRANCH   7   9
ENDBRANCH   1   7
BRANCH   6  11
ATOM     11  C   UNL     1      -6.537  -3.845   1.792  1.00  0.00     0.338 C 
ATOM     12  O   UNL     1      -7.493  -4.238   2.515  1.00  0.00    -0.246 OA
BRANCH  11  13
ATOM     13  O   UNL     1      -5.477  -3.129   2.358  1.00  0.00    -0.465 OA
ATOM     14  C   UNL     1      -4.153  -3.645   2.426  1.00  0.00     0.282 C 
ENDBRANCH  11  13
ENDBRANCH   6  11
TORSDOF 4
ENDMDL
MODEL 5
REMARK VINA RESULT:    -3.955      1.129      1.656
REMARK INTER + INTRA:          -5.236
REMARK INTER:                  -4.804
REMARK INTRA:                  -0.432
REMARK UNBOUND:                -0.356
REMARK SMILES COC(=O)c1ccccc1C(=O)OC
REMARK SMILES IDX 5 1 6 2 7 3 8 4 9 5 10 6 3 7 4 8 2 9 1 10 11 11 12 12 13 13
REMARK SMILES IDX 14 14
REMARK H PARENT
REMARK Flexibility Score: inf
ROOT
ATOM      1  C   UNL     1       2.721  -2.401  -3.917  1.00  0.00     0.074 A 
ATOM      2  C   UNL     1       2.977  -2.788  -2.588  1.00  0.00     0.016 A 
ATOM      3  C   UNL     1       2.154  -3.710  -1.942  1.00  0.00     0.001 A 
ATOM      4  C   UNL     1       1.063  -4.262  -2.610  1.00  0.00     0.001 A 
ATOM      5  C   UNL     1       0.804  -3.910  -3.935  1.00  0.00     0.016 A 
ATOM      6  C   UNL     1       1.633  -2.998  -4.613  1.00  0.00     0.074 A 
ENDROOT
BRANCH   1   7
ATOM      7  C   UNL     1       3.565  -1.334  -4.500  1.00  0.00     0.338 C 
ATOM      8  O   UNL     1       4.645  -1.624  -5.085  1.00  0.00    -0.246 OA
BRANCH   7   9
ATOM      9  O   UNL     1       3.129  -0.006  -4.451  1.00  0.00    -0.465 OA
ATOM     10  C   UNL     1       3.183   0.862  -5.577  1.00  0.00     0.282 C 
ENDBRANCH   7   9
ENDBRANCH   1   7
BRANCH   6  11
ATOM     11  C   UNL     1       1.366  -2.758  -6.050  1.00  0.00     0.338 C 
ATOM     12  O   UNL     1       2.120  -3.256  -6.930  1.00  0.00    -0.246 OA
BRANCH  11  13
ATOM     13  O   UNL     1       0.237  -2.023  -6.428  1.00  0.00    -0.465 OA
ATOM     14  C   UNL     1      -0.146  -0.818  -5.778  1.00  0.00     0.282 C 
ENDBRANCH  11  13
ENDBRANCH   6  11
TORSDOF 4
ENDMDL
MODEL 6
REMARK VINA RESULT:    -3.953      1.133      3.433
REMARK INTER + INTRA:          -5.233
REMARK INTER:                  -4.798
REMARK INTRA:                  -0.435
REMARK UNBOUND:                -0.356
REMARK SMILES COC(=O)c1ccccc1C(=O)OC
REMARK SMILES IDX 5 1 6 2 7 3 8 4 9 5 10 6 3 7 4 8 2 9 1 10 11 11 12 12 13 13
REMARK SMILES IDX 14 14
REMARK H PARENT
REMARK Flexibility Score: inf
ROOT
ATOM      1  C   UNL     1       1.647  -3.046  -4.639  1.00  0.00     0.074 A 
ATOM      2  C   UNL     1       0.820  -3.969  -3.973  1.00  0.00     0.016 A 
ATOM      3  C   UNL     1       1.061  -4.315  -2.643  1.00  0.00     0.001 A 
ATOM      4  C   UNL     1       2.131  -3.747  -1.956  1.00  0.00     0.001 A 
ATOM      5  C   UNL     1       2.951  -2.812  -2.590  1.00  0.00     0.016 A 
ATOM      6  C   UNL     1       2.713  -2.431  -3.923  1.00  0.00     0.074 A 
ENDROOT
BRANCH   1   7
ATOM      7  C   UNL     1       1.403  -2.812  -6.080  1.00  0.00     0.338 C 
ATOM      8  O   UNL     1       2.159  -3.331  -6.947  1.00  0.00    -0.246 OA
BRANCH   7   9
ATOM      9  O   UNL     1       0.293  -2.059  -6.478  1.00  0.00    -0.465 OA
ATOM     10  C   UNL     1      -0.127  -0.889  -5.787  1.00  0.00     0.282 C 
ENDBRANCH   7   9
ENDBRANCH   1   7
BRANCH   6  11
ATOM     11  C   UNL     1       3.552  -1.352  -4.494  1.00  0.00     0.338 C 
ATOM     12  O   UNL     1       4.648  -1.627  -5.054  1.00  0.00    -0.246 OA
BRANCH  11  13
ATOM     13  O   UNL     1       3.092  -0.031  -4.460  1.00  0.00    -0.465 OA
ATOM     14  C   UNL     1       3.174   0.838  -5.583  1.00  0.00     0.282 C 
ENDBRANCH  11  13
ENDBRANCH   6  11
TORSDOF 4
ENDMDL
MODEL 7
REMARK VINA RESULT:    -3.868      8.659     10.170
REMARK INTER + INTRA:          -5.128
REMARK INTER:                  -4.755
REMARK INTRA:                  -0.373
REMARK UNBOUND:                -0.356
REMARK SMILES COC(=O)c1ccccc1C(=O)OC
REMARK SMILES IDX 5 1 6 2 7 3 8 4 9 5 10 6 3 7 4 8 2 9 1 10 11 11 12 12 13 13
REMARK SMILES IDX 14 14
REMARK H PARENT
REMARK Flexibility Score: inf
ROOT
ATOM      1  C   UNL     1      -5.148  -2.538   1.525  1.00  0.00     0.074 A 
ATOM      2  C   UNL     1      -6.097  -3.347   0.871  1.00  0.00     0.016 A 
ATOM      3  C   UNL     1      -6.830  -2.856  -0.210  1.00  0.00     0.001 A 
ATOM      4  C   UNL     1      -6.629  -1.551  -0.655  1.00  0.00     0.001 A 
ATOM      5  C   UNL     1      -5.678  -0.739  -0.036  1.00  0.00     0.016 A 
ATOM      6  C   UNL     1      -4.912  -1.221   1.041  1.00  0.00     0.074 A 
ENDROOT
BRANCH   1   7
ATOM      7  C   UNL     1      -4.491  -3.085   2.733  1.00  0.00     0.338 C 
ATOM      8  O   UNL     1      -3.653  -4.023   2.633  1.00  0.00    -0.246 OA
BRANCH   7   9
ATOM      9  O   UNL     1      -4.760  -2.515   3.982  1.00  0.00    -0.465 OA
ATOM     10  C   UNL     1      -3.732  -2.106   4.876  1.00  0.00     0.282 C 
ENDBRANCH   7   9
ENDBRANCH   1   7
BRANCH   6  11
ATOM     11  C   UNL     1      -3.844  -0.345   1.576  1.00  0.00     0.338 C 
ATOM     12  O   UNL     1      -2.631  -0.667   1.445  1.00  0.00    -0.246 OA
BRANCH  11  13
ATOM     13  O   UNL     1      -4.186   0.872   2.176  1.00  0.00    -0.465 OA
ATOM     14  C   UNL     1      -5.144   0.968   3.223  1.00  0.00     0.282 C 
ENDBRANCH  11  13
ENDBRANCH   6  11
TORSDOF 4
ENDMDL
MODEL 8
REMARK VINA RESULT:    -3.864      8.809     10.055
REMARK INTER + INTRA:          -5.123
REMARK INTER:                  -4.773
REMARK INTRA:                  -0.350
REMARK UNBOUND:                -0.356
REMARK SMILES COC(=O)c1ccccc1C(=O)OC
REMARK SMILES IDX 5 1 6 2 7 3 8 4 9 5 10 6 3 7 4 8 2 9 1 10 11 11 12 12 13 13
REMARK SMILES IDX 14 14
REMARK H PARENT
REMARK Flexibility Score: inf
ROOT
ATOM      1  C   UNL     1      -5.443  -1.503   0.687  1.00  0.00     0.074 A 
ATOM      2  C   UNL     1      -6.205  -1.435  -0.494  1.00  0.00     0.016 A 
ATOM      3  C   UNL     1      -6.915  -2.546  -0.950  1.00  0.00     0.001 A 
ATOM      4  C   UNL     1      -6.876  -3.742  -0.237  1.00  0.00     0.001 A 
ATOM      5  C   UNL     1      -6.145  -3.825   0.949  1.00  0.00     0.016 A 
ATOM      6  C   UNL     1      -5.440  -2.711   1.440  1.00  0.00     0.074 A 
ENDROOT
BRANCH   1   7
ATOM      7  C   UNL     1      -4.624  -0.324   1.050  1.00  0.00     0.338 C 
ATOM      8  O   UNL     1      -3.365  -0.394   1.038  1.00  0.00    -0.246 OA
BRANCH   7   9
ATOM      9  O   UNL     1      -5.256   0.888   1.350  1.00  0.00    -0.465 OA
ATOM     10  C   UNL     1      -5.831   1.158   2.623  1.00  0.00     0.282 C 
ENDBRANCH   7   9
ENDBRANCH   1   7
BRANCH   6  11
ATOM     11  C   UNL     1      -4.780  -2.837   2.760  1.00  0.00     0.338 C 
ATOM     12  O   UNL     1      -3.711  -3.497   2.877  1.00  0.00    -0.246 OA
BRANCH  11  13
ATOM     13  O   UNL     1      -5.318  -2.171   3.866  1.00  0.00    -0.465 OA
ATOM     14  C   UNL     1      -4.509  -1.518   4.837  1.00  0.00     0.282 C 
ENDBRANCH  11  13
ENDBRANCH   6  11
TORSDOF 4
ENDMDL
MODEL 9
REMARK VINA RESULT:    -3.856      8.604      9.793
REMARK INTER + INTRA:          -5.113
REMARK INTER:                  -4.720
REMARK INTRA:                  -0.393
REMARK UNBOUND:                -0.356
REMARK SMILES COC(=O)c1ccccc1C(=O)OC
REMARK SMILES IDX 5 1 6 2 7 3 8 4 9 5 10 6 3 7 4 8 2 9 1 10 11 11 12 12 13 13
REMARK SMILES IDX 14 14
REMARK H PARENT
REMARK Flexibility Score: inf
ROOT
ATOM      1  C   UNL     1      -5.007  -2.620   1.700  1.00  0.00     0.074 A 
ATOM      2  C   UNL     1      -3.764  -2.378   2.315  1.00  0.00     0.016 A 
ATOM      3  C   UNL     1      -3.001  -1.262   1.969  1.00  0.00     0.001 A 
ATOM      4  C   UNL     1      -3.466  -0.370   1.006  1.00  0.00     0.001 A 
ATOM      5  C   UNL     1      -4.705  -0.577   0.400  1.00  0.00     0.016 A 
ATOM      6  C   UNL     1      -5.501  -1.684   0.749  1.00  0.00     0.074 A 
ENDROOT
BRANCH   1   7
ATOM      7  C   UNL     1      -5.708  -3.881   2.031  1.00  0.00     0.338 C 
ATOM      8  O   UNL     1      -6.569  -3.908   2.953  1.00  0.00    -0.246 OA
BRANCH   7   9
ATOM      9  O   UNL     1      -5.451  -5.031   1.278  1.00  0.00    -0.465 OA
ATOM     10  C   UNL     1      -4.575  -6.060   1.722  1.00  0.00     0.282 C 
ENDBRANCH   7   9
ENDBRANCH   1   7
BRANCH   6  11
ATOM     11  C   UNL     1      -6.853  -1.780   0.150  1.00  0.00     0.338 C 
ATOM     12  O   UNL     1      -7.866  -1.408   0.803  1.00  0.00    -0.246 OA
BRANCH  11  13
ATOM     13  O   UNL     1      -6.992  -2.230  -1.168  1.00  0.00    -0.465 OA
ATOM     14  C   UNL     1      -7.022  -3.611  -1.507  1.00  0.00     0.282 C 
ENDBRANCH  11  13
ENDBRANCH   6  11
TORSDOF 4
ENDMDL
