MODEL 1
REMARK VINA RESULT:    -5.397      0.000      0.000
REMARK INTER + INTRA:         -10.036
REMARK INTER:                  -9.182
REMARK INTRA:                  -0.854
REMARK UNBOUND:                -0.854
REMARK SMILES CCCCCCCCCCCCCC(=O)[O-]
REMARK SMILES IDX 8 1 9 2 10 3 11 4 12 5 13 6 14 7 15 8 16 9 7 10 6 11 5 12
REMARK SMILES IDX 4 13 3 14 2 15 1 16
REMARK H PARENT
REMARK Flexibility Score: inf
ROOT
ATOM      1  C   UNL     1     -30.631  57.082   3.517  1.00  0.00     0.000 C 
ENDROOT
BRANCH   1   2
ATOM      2  C   UNL     1     -30.091  56.170   2.399  1.00  0.00     0.000 C 
BRANCH   2   3
ATOM      3  C   UNL     1     -30.706  56.476   1.023  1.00  0.00     0.000 C 
BRANCH   3   4
ATOM      4  C   UNL     1     -30.860  57.985   0.755  1.00  0.00     0.000 C 
BRANCH   4   5
ATOM      5  C   UNL     1     -29.792  58.603  -0.173  1.00  0.00     0.006 C 
BRANCH   5   6
ATOM      6  C   UNL     1     -28.950  57.579  -0.949  1.00  0.00     0.053 C 
BRANCH   6   7
ATOM      7  C   UNL     1     -28.678  58.024  -2.353  1.00  0.00     0.041 C 
ATOM      8  O   UNL     1     -27.838  57.408  -3.061  1.00  0.00    -0.550 OA
ATOM      9  O   UNL     1     -29.329  59.137  -2.870  1.00  0.00    -0.550 OA
ENDBRANCH   6   7
ENDBRANCH   5   6
ENDBRANCH   4   5
ENDBRANCH   3   4
ENDBRANCH   2   3
ENDBRANCH   1   2
BRANCH   1  10
ATOM     10  C   UNL     1     -29.589  57.997   4.187  1.00  0.00     0.000 C 
BRANCH  10  11
ATOM     11  C   UNL     1     -28.455  58.416   3.236  1.00  0.00    -0.000 C 
BRANCH  11  12
ATOM     12  C   UNL     1     -27.137  58.725   3.972  1.00  0.00    -0.000 C 
BRANCH  12  13
ATOM     13  C   UNL     1     -25.853  58.414   3.181  1.00  0.00    -0.000 C 
BRANCH  13  14
ATOM     14  C   UNL     1     -24.681  57.992   4.080  1.00  0.00    -0.000 C 
BRANCH  14  15
ATOM     15  C   UNL     1     -23.354  58.052   3.314  1.00  0.00    -0.003 C 
ATOM     16  C   UNL     1     -23.181  59.398   2.616  1.00  0.00     0.004 C 
ENDBRANCH  14  15
ENDBRANCH  13  14
ENDBRANCH  12  13
ENDBRANCH  11  12
ENDBRANCH  10  11
ENDBRANCH   1  10
TORSDOF 12
ENDMDL
MODEL 2
REMARK VINA RESULT:    -5.280      3.781      5.299
REMARK INTER + INTRA:          -9.839
REMARK INTER:                  -8.882
REMARK INTRA:                  -0.956
REMARK UNBOUND:                -0.854
REMARK SMILES CCCCCCCCCCCCCC(=O)[O-]
REMARK SMILES IDX 8 1 9 2 10 3 11 4 12 5 13 6 14 7 15 8 16 9 7 10 6 11 5 12
REMARK SMILES IDX 4 13 3 14 2 15 1 16
REMARK H PARENT
REMARK Flexibility Score: inf
ROOT
ATOM      1  C   UNL     1     -30.167  57.345  -0.313  1.00  0.00     0.000 C 
ENDROOT
BRANCH   1   2
ATOM      2  C   UNL     1     -30.854  57.048   1.032  1.00  0.00     0.000 C 
BRANCH   2   3
ATOM      3  C   UNL     1     -30.039  56.102   1.929  1.00  0.00     0.000 C 
BRANCH   3   4
ATOM      4  C   UNL     1     -30.394  56.233   3.423  1.00  0.00     0.000 C 
BRANCH   4   5
ATOM      5  C   UNL     1     -30.527  57.679   3.945  1.00  0.00     0.006 C 
BRANCH   5   6
ATOM      6  C   UNL     1     -29.529  58.054   5.051  1.00  0.00     0.053 C 
BRANCH   6   7
ATOM      7  C   UNL     1     -30.214  58.323   6.357  1.00  0.00     0.041 C 
ATOM      8  O   UNL     1     -29.534  58.564   7.390  1.00  0.00    -0.550 OA
ATOM      9  O   UNL     1     -31.599  58.275   6.441  1.00  0.00    -0.550 OA
ENDBRANCH   6   7
ENDBRANCH   5   6
ENDBRANCH   4   5
ENDBRANCH   3   4
ENDBRANCH   2   3
ENDBRANCH   1   2
BRANCH   1  10
ATOM     10  C   UNL     1     -28.784  58.016  -0.218  1.00  0.00     0.000 C 
BRANCH  10  11
ATOM     11  C   UNL     1     -27.688  57.248  -0.976  1.00  0.00    -0.000 C 
BRANCH  11  12
ATOM     12  C   UNL     1     -26.723  56.497  -0.039  1.00  0.00    -0.000 C 
BRANCH  12  13
ATOM     13  C   UNL     1     -26.460  57.178   1.317  1.00  0.00    -0.000 C 
BRANCH  13  14
ATOM     14  C   UNL     1     -24.968  57.422   1.589  1.00  0.00    -0.000 C 
BRANCH  14  15
ATOM     15  C   UNL     1     -24.764  58.128   2.935  1.00  0.00    -0.003 C 
ATOM     16  C   UNL     1     -23.619  57.496   3.721  1.00  0.00     0.004 C 
ENDBRANCH  14  15
ENDBRANCH  13  14
ENDBRANCH  12  13
ENDBRANCH  11  12
ENDBRANCH  10  11
ENDBRANCH   1  10
TORSDOF 12
ENDMDL
MODEL 3
REMARK VINA RESULT:    -5.217      3.108      4.562
REMARK INTER + INTRA:          -9.732
REMARK INTER:                  -8.847
REMARK INTRA:                  -0.884
REMARK UNBOUND:                -0.854
REMARK SMILES CCCCCCCCCCCCCC(=O)[O-]
REMARK SMILES IDX 8 1 9 2 10 3 11 4 12 5 13 6 14 7 15 8 16 9 7 10 6 11 5 12
REMARK SMILES IDX 4 13 3 14 2 15 1 16
REMARK H PARENT
REMARK Flexibility Score: inf
ROOT
ATOM      1  C   UNL     1     -28.565  57.698  -0.985  1.00  0.00     0.000 C 
ENDROOT
BRANCH   1   2
ATOM      2  C   UNL     1     -29.443  58.158   0.193  1.00  0.00     0.000 C 
BRANCH   2   3
ATOM      3  C   UNL     1     -30.733  57.333   0.341  1.00  0.00     0.000 C 
BRANCH   3   4
ATOM      4  C   UNL     1     -31.283  57.329   1.780  1.00  0.00     0.000 C 
BRANCH   4   5
ATOM      5  C   UNL     1     -30.346  56.719   2.843  1.00  0.00     0.006 C 
BRANCH   5   6
ATOM      6  C   UNL     1     -30.620  57.187   4.281  1.00  0.00     0.053 C 
BRANCH   6   7
ATOM      7  C   UNL     1     -29.493  58.010   4.827  1.00  0.00     0.041 C 
ATOM      8  O   UNL     1     -29.469  58.319   6.048  1.00  0.00    -0.550 OA
ATOM      9  O   UNL     1     -28.487  58.463   3.983  1.00  0.00    -0.550 OA
ENDBRANCH   6   7
ENDBRANCH   5   6
ENDBRANCH   4   5
ENDBRANCH   3   4
ENDBRANCH   2   3
ENDBRANCH   1   2
BRANCH   1  10
ATOM     10  C   UNL     1     -27.320  56.876  -0.602  1.00  0.00     0.000 C 
BRANCH  10  11
ATOM     11  C   UNL     1     -26.973  56.968   0.893  1.00  0.00    -0.000 C 
BRANCH  11  12
ATOM     12  C   UNL     1     -25.476  57.224   1.148  1.00  0.00    -0.000 C 
BRANCH  12  13
ATOM     13  C   UNL     1     -25.124  57.703   2.569  1.00  0.00    -0.000 C 
BRANCH  13  14
ATOM     14  C   UNL     1     -23.940  58.682   2.597  1.00  0.00    -0.000 C 
BRANCH  14  15
ATOM     15  C   UNL     1     -22.888  58.240   3.621  1.00  0.00    -0.003 C 
ATOM     16  C   UNL     1     -23.424  57.125   4.516  1.00  0.00     0.004 C 
ENDBRANCH  14  15
ENDBRANCH  13  14
ENDBRANCH  12  13
ENDBRANCH  11  12
ENDBRANCH  10  11
ENDBRANCH   1  10
TORSDOF 12
ENDMDL
MODEL 4
REMARK VINA RESULT:    -5.185      3.657      5.097
REMARK INTER + INTRA:          -9.677
REMARK INTER:                  -9.161
REMARK INTRA:                  -0.516
REMARK UNBOUND:                -0.854
REMARK SMILES CCCCCCCCCCCCCC(=O)[O-]
REMARK SMILES IDX 8 1 9 2 10 3 11 4 12 5 13 6 14 7 15 8 16 9 7 10 6 11 5 12
REMARK SMILES IDX 4 13 3 14 2 15 1 16
REMARK H PARENT
REMARK Flexibility Score: inf
ROOT
ATOM      1  C   UNL     1     -25.258  57.196   1.335  1.00  0.00     0.000 C 
ENDROOT
BRANCH   1   2
ATOM      2  C   UNL     1     -26.609  56.823   0.697  1.00  0.00     0.000 C 
BRANCH   2   3
ATOM      3  C   UNL     1     -27.813  57.418   1.445  1.00  0.00     0.000 C 
BRANCH   3   4
ATOM      4  C   UNL     1     -29.155  57.153   0.736  1.00  0.00     0.000 C 
BRANCH   4   5
ATOM      5  C   UNL     1     -30.367  56.949   1.669  1.00  0.00     0.006 C 
BRANCH   5   6
ATOM      6  C   UNL     1     -30.078  57.201   3.157  1.00  0.00     0.053 C 
BRANCH   6   7
ATOM      7  C   UNL     1     -31.181  56.695   4.036  1.00  0.00     0.041 C 
ATOM      8  O   UNL     1     -30.987  55.702   4.786  1.00  0.00    -0.550 OA
ATOM      9  O   UNL     1     -32.431  57.298   4.003  1.00  0.00    -0.550 OA
ENDBRANCH   6   7
ENDBRANCH   5   6
ENDBRANCH   4   5
ENDBRANCH   3   4
ENDBRANCH   2   3
ENDBRANCH   1   2
BRANCH   1  10
ATOM     10  C   UNL     1     -25.343  57.973   2.662  1.00  0.00     0.000 C 
BRANCH  10  11
ATOM     11  C   UNL     1     -23.964  58.305   3.255  1.00  0.00    -0.000 C 
BRANCH  11  12
ATOM     12  C   UNL     1     -23.505  57.287   4.316  1.00  0.00    -0.000 C 
BRANCH  12  13
ATOM     13  C   UNL     1     -22.010  57.348   4.682  1.00  0.00    -0.000 C 
BRANCH  13  14
ATOM     14  C   UNL     1     -21.759  57.277   6.196  1.00  0.00    -0.000 C 
BRANCH  14  15
ATOM     15  C   UNL     1     -22.713  56.279   6.864  1.00  0.00    -0.003 C 
ATOM     16  C   UNL     1     -22.793  56.517   8.370  1.00  0.00     0.004 C 
ENDBRANCH  14  15
ENDBRANCH  13  14
ENDBRANCH  12  13
ENDBRANCH  11  12
ENDBRANCH  10  11
ENDBRANCH   1  10
TORSDOF 12
ENDMDL
MODEL 5
REMARK VINA RESULT:    -5.147      7.538     11.040
REMARK INTER + INTRA:          -9.612
REMARK INTER:                  -9.062
REMARK INTRA:                  -0.551
REMARK UNBOUND:                -0.854
REMARK SMILES CCCCCCCCCCCCCC(=O)[O-]
REMARK SMILES IDX 8 1 9 2 10 3 11 4 12 5 13 6 14 7 15 8 16 9 7 10 6 11 5 12
REMARK SMILES IDX 4 13 3 14 2 15 1 16
REMARK H PARENT
REMARK Flexibility Score: inf
ROOT
ATOM      1  C   UNL     1     -16.354  60.593  -2.992  1.00  0.00     0.000 C 
ENDROOT
BRANCH   1   2
ATOM      2  C   UNL     1     -16.197  60.035  -4.419  1.00  0.00     0.000 C 
BRANCH   2   3
ATOM      3  C   UNL     1     -17.331  59.077  -4.818  1.00  0.00     0.000 C 
BRANCH   3   4
ATOM      4  C   UNL     1     -17.503  58.951  -6.344  1.00  0.00     0.000 C 
BRANCH   4   5
ATOM      5  C   UNL     1     -18.849  58.357  -6.810  1.00  0.00     0.006 C 
BRANCH   5   6
ATOM      6  C   UNL     1     -20.088  59.141  -6.350  1.00  0.00     0.053 C 
BRANCH   6   7
ATOM      7  C   UNL     1     -20.969  58.324  -5.455  1.00  0.00     0.041 C 
ATOM      8  O   UNL     1     -21.871  58.881  -4.775  1.00  0.00    -0.550 OA
ATOM      9  O   UNL     1     -20.773  56.954  -5.346  1.00  0.00    -0.550 OA
ENDBRANCH   6   7
ENDBRANCH   5   6
ENDBRANCH   4   5
ENDBRANCH   3   4
ENDBRANCH   2   3
ENDBRANCH   1   2
BRANCH   1  10
ATOM     10  C   UNL     1     -17.468  59.948  -2.146  1.00  0.00     0.000 C 
BRANCH  10  11
ATOM     11  C   UNL     1     -17.171  59.976  -0.637  1.00  0.00    -0.000 C 
BRANCH  11  12
ATOM     12  C   UNL     1     -18.333  59.430   0.214  1.00  0.00    -0.000 C 
BRANCH  12  13
ATOM     13  C   UNL     1     -19.539  60.377   0.365  1.00  0.00    -0.000 C 
BRANCH  13  14
ATOM     14  C   UNL     1     -20.463  59.992   1.531  1.00  0.00    -0.000 C 
BRANCH  14  15
ATOM     15  C   UNL     1     -21.928  60.286   1.188  1.00  0.00    -0.003 C 
ATOM     16  C   UNL     1     -22.869  59.683   2.228  1.00  0.00     0.004 C 
ENDBRANCH  14  15
ENDBRANCH  13  14
ENDBRANCH  12  13
ENDBRANCH  11  12
ENDBRANCH  10  11
ENDBRANCH   1  10
TORSDOF 12
ENDMDL
MODEL 6
REMARK VINA RESULT:    -5.141      3.437      5.081
REMARK INTER + INTRA:          -9.601
REMARK INTER:                  -9.048
REMARK INTRA:                  -0.553
REMARK UNBOUND:                -0.854
REMARK SMILES CCCCCCCCCCCCCC(=O)[O-]
REMARK SMILES IDX 8 1 9 2 10 3 11 4 12 5 13 6 14 7 15 8 16 9 7 10 6 11 5 12
REMARK SMILES IDX 4 13 3 14 2 15 1 16
REMARK H PARENT
REMARK Flexibility Score: inf
ROOT
ATOM      1  C   UNL     1     -25.956  57.641   1.825  1.00  0.00     0.000 C 
ENDROOT
BRANCH   1   2
ATOM      2  C   UNL     1     -26.376  56.783   0.617  1.00  0.00     0.000 C 
BRANCH   2   3
ATOM      3  C   UNL     1     -27.858  56.953   0.244  1.00  0.00     0.000 C 
BRANCH   3   4
ATOM      4  C   UNL     1     -28.816  56.494   1.360  1.00  0.00     0.000 C 
BRANCH   4   5
ATOM      5  C   UNL     1     -29.679  57.609   1.989  1.00  0.00     0.006 C 
BRANCH   5   6
ATOM      6  C   UNL     1     -29.818  57.524   3.517  1.00  0.00     0.053 C 
BRANCH   6   7
ATOM      7  C   UNL     1     -31.062  56.797   3.927  1.00  0.00     0.041 C 
ATOM      8  O   UNL     1     -30.987  55.793   4.684  1.00  0.00    -0.550 OA
ATOM      9  O   UNL     1     -32.299  57.206   3.448  1.00  0.00    -0.550 OA
ENDBRANCH   6   7
ENDBRANCH   5   6
ENDBRANCH   4   5
ENDBRANCH   3   4
ENDBRANCH   2   3
ENDBRANCH   1   2
BRANCH   1  10
ATOM     10  C   UNL     1     -24.449  57.648   2.141  1.00  0.00     0.000 C 
BRANCH  10  11
ATOM     11  C   UNL     1     -24.054  58.722   3.169  1.00  0.00    -0.000 C 
BRANCH  11  12
ATOM     12  C   UNL     1     -22.596  59.194   3.015  1.00  0.00    -0.000 C 
BRANCH  12  13
ATOM     13  C   UNL     1     -22.312  60.057   1.772  1.00  0.00    -0.000 C 
BRANCH  13  14
ATOM     14  C   UNL     1     -20.834  60.038   1.351  1.00  0.00    -0.000 C 
BRANCH  14  15
ATOM     15  C   UNL     1     -20.593  60.967   0.155  1.00  0.00    -0.003 C 
ATOM     16  C   UNL     1     -21.896  61.268  -0.579  1.00  0.00     0.004 C 
ENDBRANCH  14  15
ENDBRANCH  13  14
ENDBRANCH  12  13
ENDBRANCH  11  12
ENDBRANCH  10  11
ENDBRANCH   1  10
TORSDOF 12
ENDMDL
MODEL 7
REMARK VINA RESULT:    -5.098      8.921     11.811
REMARK INTER + INTRA:          -9.528
REMARK INTER:                  -8.613
REMARK INTRA:                  -0.915
REMARK UNBOUND:                -0.854
REMARK SMILES CCCCCCCCCCCCCC(=O)[O-]
REMARK SMILES IDX 8 1 9 2 10 3 11 4 12 5 13 6 14 7 15 8 16 9 7 10 6 11 5 12
REMARK SMILES IDX 4 13 3 14 2 15 1 16
REMARK H PARENT
REMARK Flexibility Score: inf
ROOT
ATOM      1  C   UNL     1     -16.791  59.597  -4.790  1.00  0.00     0.000 C 
ENDROOT
BRANCH   1   2
ATOM      2  C   UNL     1     -16.789  58.918  -6.172  1.00  0.00     0.000 C 
BRANCH   2   3
ATOM      3  C   UNL     1     -18.095  58.165  -6.475  1.00  0.00     0.000 C 
BRANCH   3   4
ATOM      4  C   UNL     1     -19.339  59.072  -6.423  1.00  0.00     0.000 C 
BRANCH   4   5
ATOM      5  C   UNL     1     -20.504  58.546  -5.559  1.00  0.00     0.006 C 
BRANCH   5   6
ATOM      6  C   UNL     1     -20.085  57.988  -4.190  1.00  0.00     0.053 C 
BRANCH   6   7
ATOM      7  C   UNL     1     -20.302  56.508  -4.098  1.00  0.00     0.041 C 
ATOM      8  O   UNL     1     -19.369  55.755  -3.712  1.00  0.00    -0.550 OA
ATOM      9  O   UNL     1     -21.522  55.958  -4.468  1.00  0.00    -0.550 OA
ENDBRANCH   6   7
ENDBRANCH   5   6
ENDBRANCH   4   5
ENDBRANCH   3   4
ENDBRANCH   2   3
ENDBRANCH   1   2
BRANCH   1  10
ATOM     10  C   UNL     1     -15.584  60.509  -4.498  1.00  0.00     0.000 C 
BRANCH  10  11
ATOM     11  C   UNL     1     -15.250  60.604  -2.999  1.00  0.00    -0.000 C 
BRANCH  11  12
ATOM     12  C   UNL     1     -16.430  61.115  -2.152  1.00  0.00    -0.000 C 
BRANCH  12  13
ATOM     13  C   UNL     1     -16.817  60.223  -0.957  1.00  0.00    -0.000 C 
BRANCH  13  14
ATOM     14  C   UNL     1     -18.227  59.625  -1.085  1.00  0.00    -0.000 C 
BRANCH  14  15
ATOM     15  C   UNL     1     -19.015  59.799   0.219  1.00  0.00    -0.003 C 
ATOM     16  C   UNL     1     -20.254  60.663   0.003  1.00  0.00     0.004 C 
ENDBRANCH  14  15
ENDBRANCH  13  14
ENDBRANCH  12  13
ENDBRANCH  11  12
ENDBRANCH  10  11
ENDBRANCH   1  10
TORSDOF 12
ENDMDL
MODEL 8
REMARK VINA RESULT:    -5.085      7.774     11.021
REMARK INTER + INTRA:          -9.506
REMARK INTER:                  -8.810
REMARK INTRA:                  -0.696
REMARK UNBOUND:                -0.854
REMARK SMILES CCCCCCCCCCCCCC(=O)[O-]
REMARK SMILES IDX 8 1 9 2 10 3 11 4 12 5 13 6 14 7 15 8 16 9 7 10 6 11 5 12
REMARK SMILES IDX 4 13 3 14 2 15 1 16
REMARK H PARENT
REMARK Flexibility Score: inf
ROOT
ATOM      1  C   UNL     1     -17.020  59.871  -3.618  1.00  0.00     0.000 C 
ENDROOT
BRANCH   1   2
ATOM      2  C   UNL     1     -16.574  59.682  -5.080  1.00  0.00     0.000 C 
BRANCH   2   3
ATOM      3  C   UNL     1     -17.523  58.780  -5.886  1.00  0.00     0.000 C 
BRANCH   3   4
ATOM      4  C   UNL     1     -18.857  58.512  -5.164  1.00  0.00     0.000 C 
BRANCH   4   5
ATOM      5  C   UNL     1     -19.287  57.031  -5.100  1.00  0.00     0.006 C 
BRANCH   5   6
ATOM      6  C   UNL     1     -20.596  56.778  -4.337  1.00  0.00     0.053 C 
BRANCH   6   7
ATOM      7  C   UNL     1     -21.758  57.486  -4.965  1.00  0.00     0.041 C 
ATOM      8  O   UNL     1     -22.081  58.640  -4.577  1.00  0.00    -0.550 OA
ATOM      9  O   UNL     1     -22.503  56.860  -5.956  1.00  0.00    -0.550 OA
ENDBRANCH   6   7
ENDBRANCH   5   6
ENDBRANCH   4   5
ENDBRANCH   3   4
ENDBRANCH   2   3
ENDBRANCH   1   2
BRANCH   1  10
ATOM     10  C   UNL     1     -16.052  60.673  -2.727  1.00  0.00     0.000 C 
BRANCH  10  11
ATOM     11  C   UNL     1     -16.455  60.668  -1.243  1.00  0.00    -0.000 C 
BRANCH  11  12
ATOM     12  C   UNL     1     -17.772  59.914  -0.980  1.00  0.00    -0.000 C 
BRANCH  12  13
ATOM     13  C   UNL     1     -17.981  59.443   0.471  1.00  0.00    -0.000 C 
BRANCH  13  14
ATOM     14  C   UNL     1     -19.375  59.786   1.020  1.00  0.00    -0.000 C 
BRANCH  14  15
ATOM     15  C   UNL     1     -20.101  60.770   0.095  1.00  0.00    -0.003 C 
ATOM     16  C   UNL     1     -21.611  60.720   0.312  1.00  0.00     0.004 C 
ENDBRANCH  14  15
ENDBRANCH  13  14
ENDBRANCH  12  13
ENDBRANCH  11  12
ENDBRANCH  10  11
ENDBRANCH   1  10
TORSDOF 12
ENDMDL
MODEL 9
REMARK VINA RESULT:    -5.051      3.230      4.541
REMARK INTER + INTRA:          -9.448
REMARK INTER:                  -8.665
REMARK INTRA:                  -0.783
REMARK UNBOUND:                -0.854
REMARK SMILES CCCCCCCCCCCCCC(=O)[O-]
REMARK SMILES IDX 8 1 9 2 10 3 11 4 12 5 13 6 14 7 15 8 16 9 7 10 6 11 5 12
REMARK SMILES IDX 4 13 3 14 2 15 1 16
REMARK H PARENT
REMARK Flexibility Score: inf
ROOT
ATOM      1  C   UNL     1     -26.679  56.496   0.864  1.00  0.00     0.000 C 
ENDROOT
BRANCH   1   2
ATOM      2  C   UNL     1     -27.511  57.245  -0.194  1.00  0.00     0.000 C 
BRANCH   2   3
ATOM      3  C   UNL     1     -28.990  57.393   0.198  1.00  0.00     0.000 C 
BRANCH   3   4
ATOM      4  C   UNL     1     -29.242  58.565   1.165  1.00  0.00     0.000 C 
BRANCH   4   5
ATOM      5  C   UNL     1     -29.367  58.177   2.654  1.00  0.00     0.006 C 
BRANCH   5   6
ATOM      6  C   UNL     1     -30.280  56.973   2.927  1.00  0.00     0.053 C 
BRANCH   6   7
ATOM      7  C   UNL     1     -31.095  57.157   4.171  1.00  0.00     0.041 C 
ATOM      8  O   UNL     1     -30.530  57.202   5.296  1.00  0.00    -0.550 OA
ATOM      9  O   UNL     1     -32.478  57.246   4.092  1.00  0.00    -0.550 OA
ENDBRANCH   6   7
ENDBRANCH   5   6
ENDBRANCH   4   5
ENDBRANCH   3   4
ENDBRANCH   2   3
ENDBRANCH   1   2
BRANCH   1  10
ATOM     10  C   UNL     1     -25.409  57.223   1.346  1.00  0.00     0.000 C 
BRANCH  10  11
ATOM     11  C   UNL     1     -25.664  58.150   2.546  1.00  0.00    -0.000 C 
BRANCH  11  12
ATOM     12  C   UNL     1     -24.622  57.981   3.668  1.00  0.00    -0.000 C 
BRANCH  12  13
ATOM     13  C   UNL     1     -23.173  58.321   3.275  1.00  0.00    -0.000 C 
BRANCH  13  14
ATOM     14  C   UNL     1     -23.077  59.489   2.281  1.00  0.00    -0.000 C 
BRANCH  14  15
ATOM     15  C   UNL     1     -21.728  60.207   2.406  1.00  0.00    -0.003 C 
ATOM     16  C   UNL     1     -20.804  59.477   3.378  1.00  0.00     0.004 C 
ENDBRANCH  14  15
ENDBRANCH  13  14
ENDBRANCH  12  13
ENDBRANCH  11  12
ENDBRANCH  10  11
ENDBRANCH   1  10
TORSDOF 12
ENDMDL
