MODEL 1
REMARK VINA RESULT:    -2.969      0.000      0.000
REMARK INTER + INTRA:          -3.589
REMARK INTER:                  -3.489
REMARK INTRA:                  -0.100
REMARK UNBOUND:                -0.100
REMARK SMILES CCCCC(=O)[O-]
REMARK SMILES IDX 4 1 5 2 6 3 7 4 3 5 2 6 1 7
REMARK H PARENT
REMARK Flexibility Score: inf
ROOT
ATOM      1  C   UNL     1      -7.612   5.390  51.377  1.00  0.00     0.053 C 
ENDROOT
BRANCH   1   2
ATOM      2  C   UNL     1      -9.011   5.804  51.709  1.00  0.00     0.041 C 
ATOM      3  O   UNL     1      -9.345   6.006  52.906  1.00  0.00    -0.550 OA
ATOM      4  O   UNL     1      -9.933   6.014  50.692  1.00  0.00    -0.550 OA
ENDBRANCH   1   2
BRANCH   1   5
ATOM      5  C   UNL     1      -7.569   3.902  51.006  1.00  0.00     0.006 C 
BRANCH   5   6
ATOM      6  C   UNL     1      -7.199   3.007  52.199  1.00  0.00    -0.003 C 
ATOM      7  C   UNL     1      -6.177   3.658  53.131  1.00  0.00     0.004 C 
ENDBRANCH   5   6
ENDBRANCH   1   5
TORSDOF 3
ENDMDL
MODEL 2
REMARK VINA RESULT:    -2.849     11.267     12.096
REMARK INTER + INTRA:          -3.448
REMARK INTER:                  -3.353
REMARK INTRA:                  -0.095
REMARK UNBOUND:                -0.100
REMARK SMILES CCCCC(=O)[O-]
REMARK SMILES IDX 4 1 5 2 6 3 7 4 3 5 2 6 1 7
REMARK H PARENT
REMARK Flexibility Score: inf
ROOT
ATOM      1  C   UNL     1       3.101   0.134  53.615  1.00  0.00     0.053 C 
ENDROOT
BRANCH   1   2
ATOM      2  C   UNL     1       2.308   1.242  54.235  1.00  0.00     0.041 C 
ATOM      3  O   UNL     1       2.224   2.359  53.662  1.00  0.00    -0.550 OA
ATOM      4  O   UNL     1       1.622   1.024  55.423  1.00  0.00    -0.550 OA
ENDBRANCH   1   2
BRANCH   1   5
ATOM      5  C   UNL     1       2.198  -1.072  53.325  1.00  0.00     0.006 C 
BRANCH   5   6
ATOM      6  C   UNL     1       2.735  -2.371  53.944  1.00  0.00    -0.003 C 
ATOM      7  C   UNL     1       3.823  -2.123  54.989  1.00  0.00     0.004 C 
ENDBRANCH   5   6
ENDBRANCH   1   5
TORSDOF 3
ENDMDL
MODEL 3
REMARK VINA RESULT:    -2.846      1.846      2.369
REMARK INTER + INTRA:          -3.445
REMARK INTER:                  -3.390
REMARK INTRA:                  -0.055
REMARK UNBOUND:                -0.100
REMARK SMILES CCCCC(=O)[O-]
REMARK SMILES IDX 4 1 5 2 6 3 7 4 3 5 2 6 1 7
REMARK H PARENT
REMARK Flexibility Score: inf
ROOT
ATOM      1  C   UNL     1      -7.649   4.416  52.731  1.00  0.00     0.053 C 
ENDROOT
BRANCH   1   2
ATOM      2  C   UNL     1      -7.662   5.118  51.409  1.00  0.00     0.041 C 
ATOM      3  O   UNL     1      -6.652   5.077  50.659  1.00  0.00    -0.550 OA
ATOM      4  O   UNL     1      -8.809   5.777  50.984  1.00  0.00    -0.550 OA
ENDBRANCH   1   2
BRANCH   1   5
ATOM      5  C   UNL     1      -6.273   3.790  52.989  1.00  0.00     0.006 C 
BRANCH   5   6
ATOM      6  C   UNL     1      -5.867   3.851  54.470  1.00  0.00    -0.003 C 
ATOM      7  C   UNL     1      -6.633   4.921  55.248  1.00  0.00     0.004 C 
ENDBRANCH   5   6
ENDBRANCH   1   5
TORSDOF 3
ENDMDL
MODEL 4
REMARK VINA RESULT:    -2.807     11.867     12.583
REMARK INTER + INTRA:          -3.399
REMARK INTER:                  -3.334
REMARK INTRA:                  -0.065
REMARK UNBOUND:                -0.100
REMARK SMILES CCCCC(=O)[O-]
REMARK SMILES IDX 4 1 5 2 6 3 7 4 3 5 2 6 1 7
REMARK H PARENT
REMARK Flexibility Score: inf
ROOT
ATOM      1  C   UNL     1       1.994  -0.945  53.239  1.00  0.00     0.053 C 
ENDROOT
BRANCH   1   2
ATOM      2  C   UNL     1       2.437  -2.256  53.809  1.00  0.00     0.041 C 
ATOM      3  O   UNL     1       3.574  -2.365  54.338  1.00  0.00    -0.550 OA
ATOM      4  O   UNL     1       1.575  -3.344  53.799  1.00  0.00    -0.550 OA
ENDBRANCH   1   2
BRANCH   1   5
ATOM      5  C   UNL     1       3.021   0.150  53.556  1.00  0.00     0.006 C 
BRANCH   5   6
ATOM      6  C   UNL     1       2.364   1.446  54.058  1.00  0.00    -0.003 C 
ATOM      7  C   UNL     1       1.718   1.286  55.434  1.00  0.00     0.004 C 
ENDBRANCH   5   6
ENDBRANCH   1   5
TORSDOF 3
ENDMDL
MODEL 5
REMARK VINA RESULT:    -2.685     10.693     11.772
REMARK INTER + INTRA:          -3.256
REMARK INTER:                  -3.149
REMARK INTRA:                  -0.107
REMARK UNBOUND:                -0.100
REMARK SMILES CCCCC(=O)[O-]
REMARK SMILES IDX 4 1 5 2 6 3 7 4 3 5 2 6 1 7
REMARK H PARENT
REMARK Flexibility Score: inf
ROOT
ATOM      1  C   UNL     1       1.192   1.285  58.969  1.00  0.00     0.053 C 
ENDROOT
BRANCH   1   2
ATOM      2  C   UNL     1       0.389   1.655  57.761  1.00  0.00     0.041 C 
ATOM      3  O   UNL     1      -0.869   1.661  57.813  1.00  0.00    -0.550 OA
ATOM      4  O   UNL     1       1.031   2.040  56.591  1.00  0.00    -0.550 OA
ENDBRANCH   1   2
BRANCH   1   5
ATOM      5  C   UNL     1       1.250   2.461  59.951  1.00  0.00     0.006 C 
BRANCH   5   6
ATOM      6  C   UNL     1       0.307   2.275  61.150  1.00  0.00    -0.003 C 
ATOM      7  C   UNL     1      -0.829   3.298  61.172  1.00  0.00     0.004 C 
ENDBRANCH   5   6
ENDBRANCH   1   5
TORSDOF 3
ENDMDL
MODEL 6
REMARK VINA RESULT:    -2.666     11.208     11.754
REMARK INTER + INTRA:          -3.234
REMARK INTER:                  -3.127
REMARK INTRA:                  -0.107
REMARK UNBOUND:                -0.100
REMARK SMILES CCCCC(=O)[O-]
REMARK SMILES IDX 4 1 5 2 6 3 7 4 3 5 2 6 1 7
REMARK H PARENT
REMARK Flexibility Score: inf
ROOT
ATOM      1  C   UNL     1       2.852   0.586  55.105  1.00  0.00     0.053 C 
ENDROOT
BRANCH   1   2
ATOM      2  C   UNL     1       1.667   0.921  55.955  1.00  0.00     0.041 C 
ATOM      3  O   UNL     1       1.087   0.020  56.618  1.00  0.00    -0.550 OA
ATOM      4  O   UNL     1       1.232   2.236  56.055  1.00  0.00    -0.550 OA
ENDBRANCH   1   2
BRANCH   1   5
ATOM      5  C   UNL     1       2.438   0.477  53.632  1.00  0.00     0.006 C 
BRANCH   5   6
ATOM      6  C   UNL     1       2.101  -0.965  53.220  1.00  0.00    -0.003 C 
ATOM      7  C   UNL     1       2.976  -2.001  53.926  1.00  0.00     0.004 C 
ENDBRANCH   5   6
ENDBRANCH   1   5
TORSDOF 3
ENDMDL
MODEL 7
REMARK VINA RESULT:    -2.663      2.326      3.572
REMARK INTER + INTRA:          -3.231
REMARK INTER:                  -3.125
REMARK INTRA:                  -0.106
REMARK UNBOUND:                -0.100
REMARK SMILES CCCCC(=O)[O-]
REMARK SMILES IDX 4 1 5 2 6 3 7 4 3 5 2 6 1 7
REMARK H PARENT
REMARK Flexibility Score: inf
ROOT
ATOM      1  C   UNL     1      -7.504   3.214  51.713  1.00  0.00     0.053 C 
ENDROOT
BRANCH   1   2
ATOM      2  C   UNL     1      -6.977   3.321  53.109  1.00  0.00     0.041 C 
ATOM      3  O   UNL     1      -5.745   3.485  53.311  1.00  0.00    -0.550 OA
ATOM      4  O   UNL     1      -7.852   3.288  54.187  1.00  0.00    -0.550 OA
ENDBRANCH   1   2
BRANCH   1   5
ATOM      5  C   UNL     1      -7.309   4.538  50.965  1.00  0.00     0.006 C 
BRANCH   5   6
ATOM      6  C   UNL     1      -8.107   5.692  51.592  1.00  0.00    -0.003 C 
ATOM      7  C   UNL     1      -9.554   5.744  51.102  1.00  0.00     0.004 C 
ENDBRANCH   5   6
ENDBRANCH   1   5
TORSDOF 3
ENDMDL
MODEL 8
REMARK VINA RESULT:    -2.542      1.801      2.375
REMARK INTER + INTRA:          -3.088
REMARK INTER:                  -2.992
REMARK INTRA:                  -0.096
REMARK UNBOUND:                -0.100
REMARK SMILES CCCCC(=O)[O-]
REMARK SMILES IDX 4 1 5 2 6 3 7 4 3 5 2 6 1 7
REMARK H PARENT
REMARK Flexibility Score: inf
ROOT
ATOM      1  C   UNL     1      -8.668   4.943  53.695  1.00  0.00     0.053 C 
ENDROOT
BRANCH   1   2
ATOM      2  C   UNL     1      -8.796   5.729  52.428  1.00  0.00     0.041 C 
ATOM      3  O   UNL     1      -9.822   6.429  52.218  1.00  0.00    -0.550 OA
ATOM      4  O   UNL     1      -7.762   5.728  51.502  1.00  0.00    -0.550 OA
ENDBRANCH   1   2
BRANCH   1   5
ATOM      5  C   UNL     1      -7.542   5.513  54.566  1.00  0.00     0.006 C 
BRANCH   5   6
ATOM      6  C   UNL     1      -6.506   4.449  54.961  1.00  0.00    -0.003 C 
ATOM      7  C   UNL     1      -5.930   3.710  53.753  1.00  0.00     0.004 C 
ENDBRANCH   5   6
ENDBRANCH   1   5
TORSDOF 3
ENDMDL
MODEL 9
REMARK VINA RESULT:    -2.526      3.072      4.053
REMARK INTER + INTRA:          -3.069
REMARK INTER:                  -3.026
REMARK INTRA:                  -0.042
REMARK UNBOUND:                -0.100
REMARK SMILES CCCCC(=O)[O-]
REMARK SMILES IDX 4 1 5 2 6 3 7 4 3 5 2 6 1 7
REMARK H PARENT
REMARK Flexibility Score: inf
ROOT
ATOM      1  C   UNL     1      -7.256   4.560  54.070  1.00  0.00     0.053 C 
ENDROOT
BRANCH   1   2
ATOM      2  C   UNL     1      -6.311   4.596  55.230  1.00  0.00     0.041 C 
ATOM      3  O   UNL     1      -5.491   3.657  55.409  1.00  0.00    -0.550 OA
ATOM      4  O   UNL     1      -6.303   5.689  56.087  1.00  0.00    -0.550 OA
ENDBRANCH   1   2
BRANCH   1   5
ATOM      5  C   UNL     1      -6.594   3.886  52.862  1.00  0.00     0.006 C 
BRANCH   5   6
ATOM      6  C   UNL     1      -6.982   4.550  51.532  1.00  0.00    -0.003 C 
ATOM      7  C   UNL     1      -8.073   5.608  51.696  1.00  0.00     0.004 C 
ENDBRANCH   5   6
ENDBRANCH   1   5
TORSDOF 3
ENDMDL
