MODEL 1
REMARK VINA RESULT:    -6.704      0.000      0.000
REMARK INTER + INTRA:          -8.888
REMARK INTER:                  -8.272
REMARK INTRA:                  -0.616
REMARK UNBOUND:                -0.616
REMARK SMILES CC(C)=CCC[C@H](C)c1ccc(C)cc1
REMARK SMILES IDX 6 1 7 2 8 3 9 4 13 5 12 6 11 7 14 8 10 9 15 10 5 11 4 12
REMARK SMILES IDX 2 13 1 14 3 15
REMARK H PARENT
REMARK Flexibility Score: inf
ROOT
ATOM      1  C   UNL     1      96.205 100.214  98.770  1.00  0.00     0.012 C 
ENDROOT
BRANCH   1   2
ATOM      2  C   UNL     1      95.438 101.546  98.611  1.00  0.00     0.016 C 
ATOM      3  C   UNL     1      95.103 101.855  97.143  1.00  0.00     0.013 C 
BRANCH   2   4
ATOM      4  C   UNL     1      96.229 102.689  99.223  1.00  0.00    -0.045 A 
ATOM      5  C   UNL     1      98.510 105.925 100.949  1.00  0.00     0.044 C 
ATOM      6  C   UNL     1      97.705 104.822 100.330  1.00  0.00    -0.051 A 
ATOM      7  C   UNL     1      96.445 104.490 100.847  1.00  0.00     0.004 A 
ATOM      8  C   UNL     1      98.235 104.067  99.273  1.00  0.00     0.004 A 
ATOM      9  C   UNL     1      95.709 103.438 100.294  1.00  0.00     0.004 A 
ATOM     10  C   UNL     1      97.501 103.015  98.720  1.00  0.00     0.004 A 
ENDBRANCH   2   4
ENDBRANCH   1   2
BRANCH   1  11
ATOM     11  C   UNL     1      96.311  99.431  97.452  1.00  0.00     0.028 C 
BRANCH  11  12
ATOM     12  C   UNL     1      97.756  99.207  97.080  1.00  0.00    -0.028 C 
ATOM     13  C   UNL     1      98.178  98.311  96.161  1.00  0.00    -0.080 C 
ATOM     14  C   UNL     1      97.211  97.469  95.362  1.00  0.00     0.039 C 
ATOM     15  C   UNL     1      99.659  98.168  95.924  1.00  0.00     0.039 C 
ENDBRANCH  11  12
ENDBRANCH   1  11
TORSDOF 4
ENDMDL
MODEL 2
REMARK VINA RESULT:    -6.659      0.235      1.268
REMARK INTER + INTRA:          -8.833
REMARK INTER:                  -8.266
REMARK INTRA:                  -0.567
REMARK UNBOUND:                -0.616
REMARK SMILES CC(C)=CCC[C@H](C)c1ccc(C)cc1
REMARK SMILES IDX 6 1 7 2 8 3 9 4 13 5 12 6 11 7 14 8 10 9 15 10 5 11 4 12
REMARK SMILES IDX 2 13 1 14 3 15
REMARK H PARENT
REMARK Flexibility Score: inf
ROOT
ATOM      1  C   UNL     1      96.415 100.221  98.734  1.00  0.00     0.012 C 
ENDROOT
BRANCH   1   2
ATOM      2  C   UNL     1      95.543 101.484  98.555  1.00  0.00     0.016 C 
ATOM      3  C   UNL     1      95.247 101.785  97.078  1.00  0.00     0.013 C 
BRANCH   2   4
ATOM      4  C   UNL     1      96.203 102.682  99.215  1.00  0.00    -0.045 A 
ATOM      5  C   UNL     1      98.047 106.100 101.105  1.00  0.00     0.044 C 
ATOM      6  C   UNL     1      97.420 104.894 100.471  1.00  0.00    -0.051 A 
ATOM      7  C   UNL     1      98.084 104.211  99.443  1.00  0.00     0.004 A 
ATOM      8  C   UNL     1      96.135 104.482 100.852  1.00  0.00     0.004 A 
ATOM      9  C   UNL     1      97.485 103.109  98.825  1.00  0.00     0.004 A 
ATOM     10  C   UNL     1      95.534 103.382 100.235  1.00  0.00     0.004 A 
ENDBRANCH   2   4
ENDBRANCH   1   2
BRANCH   1  11
ATOM     11  C   UNL     1      96.446  99.340  97.476  1.00  0.00     0.028 C 
BRANCH  11  12
ATOM     12  C   UNL     1      97.867  99.078  97.044  1.00  0.00    -0.028 C 
ATOM     13  C   UNL     1      98.221  98.217  96.064  1.00  0.00    -0.080 C 
ATOM     14  C   UNL     1      97.194  97.460  95.254  1.00  0.00     0.039 C 
ATOM     15  C   UNL     1      99.686  98.028  95.769  1.00  0.00     0.039 C 
ENDBRANCH  11  12
ENDBRANCH   1  11
TORSDOF 4
ENDMDL
MODEL 3
REMARK VINA RESULT:    -6.553      1.727      3.434
REMARK INTER + INTRA:          -8.702
REMARK INTER:                  -7.616
REMARK INTRA:                  -1.086
REMARK UNBOUND:                -0.616
REMARK SMILES CC(C)=CCC[C@H](C)c1ccc(C)cc1
REMARK SMILES IDX 6 1 7 2 8 3 9 4 13 5 12 6 11 7 14 8 10 9 15 10 5 11 4 12
REMARK SMILES IDX 2 13 1 14 3 15
REMARK H PARENT
REMARK Flexibility Score: inf
ROOT
ATOM      1  C   UNL     1      96.922 101.495 101.346  1.00  0.00     0.012 C 
ENDROOT
BRANCH   1   2
ATOM      2  C   UNL     1      98.232 102.095 100.785  1.00  0.00     0.016 C 
ATOM      3  C   UNL     1      99.437 101.823 101.700  1.00  0.00     0.013 C 
BRANCH   2   4
ATOM      4  C   UNL     1      98.074 103.586 100.550  1.00  0.00    -0.045 A 
ATOM      5  C   UNL     1      97.598 107.831  99.909  1.00  0.00     0.044 C 
ATOM      6  C   UNL     1      97.792 106.363 100.145  1.00  0.00    -0.051 A 
ATOM      7  C   UNL     1      98.401 105.564  99.167  1.00  0.00     0.004 A 
ATOM      8  C   UNL     1      97.303 105.765 101.316  1.00  0.00     0.004 A 
ATOM      9  C   UNL     1      98.548 104.189  99.370  1.00  0.00     0.004 A 
ATOM     10  C   UNL     1      97.449 104.390 101.520  1.00  0.00     0.004 A 
ENDBRANCH   2   4
ENDBRANCH   1   2
BRANCH   1  11
ATOM     11  C   UNL     1      95.838 101.333 100.270  1.00  0.00     0.028 C 
BRANCH  11  12
ATOM     12  C   UNL     1      96.248 100.299  99.252  1.00  0.00    -0.028 C 
ATOM     13  C   UNL     1      96.475 100.562  97.946  1.00  0.00    -0.080 C 
ATOM     14  C   UNL     1      96.389 101.962  97.384  1.00  0.00     0.039 C 
ATOM     15  C   UNL     1      96.840  99.418  97.036  1.00  0.00     0.039 C 
ENDBRANCH  11  12
ENDBRANCH   1  11
TORSDOF 4
ENDMDL
MODEL 4
REMARK VINA RESULT:    -6.323      1.659      5.525
REMARK INTER + INTRA:          -8.418
REMARK INTER:                  -6.909
REMARK INTRA:                  -1.509
REMARK UNBOUND:                -0.616
REMARK SMILES CC(C)=CCC[C@H](C)c1ccc(C)cc1
REMARK SMILES IDX 6 1 7 2 8 3 9 4 13 5 12 6 11 7 14 8 10 9 15 10 5 11 4 12
REMARK SMILES IDX 2 13 1 14 3 15
REMARK H PARENT
REMARK Flexibility Score: inf
ROOT
ATOM      1  C   UNL     1      95.989 104.504 100.892  1.00  0.00     0.012 C 
ENDROOT
BRANCH   1   2
ATOM      2  C   UNL     1      95.125 103.223 100.872  1.00  0.00     0.016 C 
ATOM      3  C   UNL     1      94.972 102.602 102.270  1.00  0.00     0.013 C 
BRANCH   2   4
ATOM      4  C   UNL     1      95.706 102.207  99.905  1.00  0.00    -0.045 A 
ATOM      5  C   UNL     1      97.355  99.292  97.178  1.00  0.00     0.044 C 
ATOM      6  C   UNL     1      96.755 100.304  98.108  1.00  0.00    -0.051 A 
ATOM      7  C   UNL     1      96.918 101.674  97.861  1.00  0.00     0.004 A 
ATOM      8  C   UNL     1      96.087  99.889  99.269  1.00  0.00     0.004 A 
ATOM      9  C   UNL     1      96.392 102.619  98.747  1.00  0.00     0.004 A 
ATOM     10  C   UNL     1      95.561 100.832 100.155  1.00  0.00     0.004 A 
ENDBRANCH   2   4
ENDBRANCH   1   2
BRANCH   1  11
ATOM     11  C   UNL     1      97.105 104.450 101.946  1.00  0.00     0.028 C 
BRANCH  11  12
ATOM     12  C   UNL     1      98.462 104.444 101.286  1.00  0.00    -0.028 C 
ATOM     13  C   UNL     1      99.277 103.368 101.226  1.00  0.00    -0.080 C 
ATOM     14  C   UNL     1      98.870 102.023 101.780  1.00  0.00     0.039 C 
ATOM     15  C   UNL     1     100.623 103.523 100.568  1.00  0.00     0.039 C 
ENDBRANCH  11  12
ENDBRANCH   1  11
TORSDOF 4
ENDMDL
MODEL 5
REMARK VINA RESULT:    -6.290      1.988      5.918
REMARK INTER + INTRA:          -8.377
REMARK INTER:                  -7.308
REMARK INTRA:                  -1.069
REMARK UNBOUND:                -0.616
REMARK SMILES CC(C)=CCC[C@H](C)c1ccc(C)cc1
REMARK SMILES IDX 6 1 7 2 8 3 9 4 13 5 12 6 11 7 14 8 10 9 15 10 5 11 4 12
REMARK SMILES IDX 2 13 1 14 3 15
REMARK H PARENT
REMARK Flexibility Score: inf
ROOT
ATOM      1  C   UNL     1      98.498 102.010 101.620  1.00  0.00     0.012 C 
ENDROOT
BRANCH   1   2
ATOM      2  C   UNL     1      97.032 102.283 101.212  1.00  0.00     0.016 C 
ATOM      3  C   UNL     1      96.045 101.999 102.356  1.00  0.00     0.013 C 
BRANCH   2   4
ATOM      4  C   UNL     1      96.663 101.470  99.984  1.00  0.00    -0.045 A 
ATOM      5  C   UNL     1      95.621  99.188  96.469  1.00  0.00     0.044 C 
ATOM      6  C   UNL     1      96.010  99.964  97.691  1.00  0.00    -0.051 A 
ATOM      7  C   UNL     1      95.636  99.512  98.964  1.00  0.00     0.004 A 
ATOM      8  C   UNL     1      96.690 101.184  97.567  1.00  0.00     0.004 A 
ATOM      9  C   UNL     1      95.966 100.254 100.102  1.00  0.00     0.004 A 
ATOM     10  C   UNL     1      97.020 101.927  98.703  1.00  0.00     0.004 A 
ENDBRANCH   2   4
ENDBRANCH   1   2
BRANCH   1  11
ATOM     11  C   UNL     1      99.439 103.168 101.256  1.00  0.00     0.028 C 
BRANCH  11  12
ATOM     12  C   UNL     1      98.671 104.461 101.137  1.00  0.00    -0.028 C 
ATOM     13  C   UNL     1      98.648 105.237 100.031  1.00  0.00    -0.080 C 
ATOM     14  C   UNL     1      99.364 104.841  98.761  1.00  0.00     0.039 C 
ATOM     15  C   UNL     1      97.868 106.525 100.073  1.00  0.00     0.039 C 
ENDBRANCH  11  12
ENDBRANCH   1  11
TORSDOF 4
ENDMDL
MODEL 6
REMARK VINA RESULT:    -6.259      2.554      4.074
REMARK INTER + INTRA:          -8.338
REMARK INTER:                  -6.978
REMARK INTRA:                  -1.360
REMARK UNBOUND:                -0.616
REMARK SMILES CC(C)=CCC[C@H](C)c1ccc(C)cc1
REMARK SMILES IDX 6 1 7 2 8 3 9 4 13 5 12 6 11 7 14 8 10 9 15 10 5 11 4 12
REMARK SMILES IDX 2 13 1 14 3 15
REMARK H PARENT
REMARK Flexibility Score: inf
ROOT
ATOM      1  C   UNL     1      98.584 102.128 101.025  1.00  0.00     0.012 C 
ENDROOT
BRANCH   1   2
ATOM      2  C   UNL     1      98.173 103.272 101.980  1.00  0.00     0.016 C 
ATOM      3  C   UNL     1      96.900 102.939 102.775  1.00  0.00     0.013 C 
BRANCH   2   4
ATOM      4  C   UNL     1      97.988 104.566 101.207  1.00  0.00    -0.045 A 
ATOM      5  C   UNL     1      97.488 108.234  98.983  1.00  0.00     0.044 C 
ATOM      6  C   UNL     1      97.632 106.952  99.747  1.00  0.00    -0.051 A 
ATOM      7  C   UNL     1      97.284 106.894 101.103  1.00  0.00     0.004 A 
ATOM      8  C   UNL     1      98.183 105.819  99.129  1.00  0.00     0.004 A 
ATOM      9  C   UNL     1      97.453 105.710 101.826  1.00  0.00     0.004 A 
ATOM     10  C   UNL     1      98.353 104.635  99.851  1.00  0.00     0.004 A 
ENDBRANCH   2   4
ENDBRANCH   1   2
BRANCH   1  11
ATOM     11  C   UNL     1      97.427 101.162 100.726  1.00  0.00     0.028 C 
BRANCH  11  12
ATOM     12  C   UNL     1      97.093 101.171  99.256  1.00  0.00    -0.028 C 
ATOM     13  C   UNL     1      96.062 101.853  98.711  1.00  0.00    -0.080 C 
ATOM     14  C   UNL     1      95.159 102.737  99.540  1.00  0.00     0.039 C 
ATOM     15  C   UNL     1      95.825 101.734  97.228  1.00  0.00     0.039 C 
ENDBRANCH  11  12
ENDBRANCH   1  11
TORSDOF 4
ENDMDL
MODEL 7
REMARK VINA RESULT:    -5.980      1.519      6.100
REMARK INTER + INTRA:          -7.995
REMARK INTER:                  -7.196
REMARK INTRA:                  -0.798
REMARK UNBOUND:                -0.616
REMARK SMILES CC(C)=CCC[C@H](C)c1ccc(C)cc1
REMARK SMILES IDX 6 1 7 2 8 3 9 4 13 5 12 6 11 7 14 8 10 9 15 10 5 11 4 12
REMARK SMILES IDX 2 13 1 14 3 15
REMARK H PARENT
REMARK Flexibility Score: inf
ROOT
ATOM      1  C   UNL     1      96.677 102.477  98.421  1.00  0.00     0.012 C 
ENDROOT
BRANCH   1   2
ATOM      2  C   UNL     1      95.677 101.299  98.470  1.00  0.00     0.016 C 
ATOM      3  C   UNL     1      95.485 100.756  99.894  1.00  0.00     0.013 C 
BRANCH   2   4
ATOM      4  C   UNL     1      96.123 100.187  97.537  1.00  0.00    -0.045 A 
ATOM      5  C   UNL     1      97.355  97.012  94.880  1.00  0.00     0.044 C 
ATOM      6  C   UNL     1      96.933  98.135  95.780  1.00  0.00    -0.051 A 
ATOM      7  C   UNL     1      97.871  98.772  96.604  1.00  0.00     0.004 A 
ATOM      8  C   UNL     1      95.584  98.512  95.855  1.00  0.00     0.004 A 
ATOM      9  C   UNL     1      97.472  99.794  97.470  1.00  0.00     0.004 A 
ATOM     10  C   UNL     1      95.183  99.533  96.720  1.00  0.00     0.004 A 
ENDBRANCH   2   4
ENDBRANCH   1   2
BRANCH   1  11
ATOM     11  C   UNL     1      96.774 103.227  99.758  1.00  0.00     0.028 C 
BRANCH  11  12
ATOM     12  C   UNL     1      98.179 103.723  99.990  1.00  0.00    -0.028 C 
ATOM     13  C   UNL     1      99.127 103.041 100.669  1.00  0.00    -0.080 C 
ATOM     14  C   UNL     1      98.875 101.659 101.225  1.00  0.00     0.039 C 
ATOM     15  C   UNL     1     100.478 103.682 100.857  1.00  0.00     0.039 C 
ENDBRANCH  11  12
ENDBRANCH   1  11
TORSDOF 4
ENDMDL
MODEL 8
REMARK VINA RESULT:    -5.874      3.803      5.445
REMARK INTER + INTRA:          -7.863
REMARK INTER:                  -6.951
REMARK INTRA:                  -0.912
REMARK UNBOUND:                -0.616
REMARK SMILES CC(C)=CCC[C@H](C)c1ccc(C)cc1
REMARK SMILES IDX 6 1 7 2 8 3 9 4 13 5 12 6 11 7 14 8 10 9 15 10 5 11 4 12
REMARK SMILES IDX 2 13 1 14 3 15
REMARK H PARENT
REMARK Flexibility Score: inf
ROOT
ATOM      1  C   UNL     1      99.483 103.892 100.696  1.00  0.00     0.012 C 
ENDROOT
BRANCH   1   2
ATOM      2  C   UNL     1      98.297 104.334  99.809  1.00  0.00     0.016 C 
ATOM      3  C   UNL     1      98.579 104.126  98.313  1.00  0.00     0.013 C 
BRANCH   2   4
ATOM      4  C   UNL     1      97.942 105.784 100.082  1.00  0.00    -0.045 A 
ATOM      5  C   UNL     1      96.918 109.901 100.892  1.00  0.00     0.044 C 
ATOM      6  C   UNL     1      97.304 108.479 100.616  1.00  0.00    -0.051 A 
ATOM      7  C   UNL     1      97.587 108.065  99.307  1.00  0.00     0.004 A 
ATOM      8  C   UNL     1      97.317 107.535 101.653  1.00  0.00     0.004 A 
ATOM      9  C   UNL     1      97.912 106.731  99.042  1.00  0.00     0.004 A 
ATOM     10  C   UNL     1      97.640 106.202 101.390  1.00  0.00     0.004 A 
ENDBRANCH   2   4
ENDBRANCH   1   2
BRANCH   1  11
ATOM     11  C   UNL     1      99.169 102.636 101.523  1.00  0.00     0.028 C 
BRANCH  11  12
ATOM     12  C   UNL     1      97.954 102.859 102.389  1.00  0.00    -0.028 C 
ATOM     13  C   UNL     1      96.756 102.266 102.191  1.00  0.00    -0.080 C 
ATOM     14  C   UNL     1      96.535 101.257 101.087  1.00  0.00     0.039 C 
ATOM     15  C   UNL     1      95.619 102.616 103.115  1.00  0.00     0.039 C 
ENDBRANCH  11  12
ENDBRANCH   1  11
TORSDOF 4
ENDMDL
MODEL 9
REMARK VINA RESULT:    -5.571      2.169      2.767
REMARK INTER + INTRA:          -7.491
REMARK INTER:                  -6.771
REMARK INTRA:                  -0.720
REMARK UNBOUND:                -0.616
REMARK SMILES CC(C)=CCC[C@H](C)c1ccc(C)cc1
REMARK SMILES IDX 6 1 7 2 8 3 9 4 13 5 12 6 11 7 14 8 10 9 15 10 5 11 4 12
REMARK SMILES IDX 2 13 1 14 3 15
REMARK H PARENT
REMARK Flexibility Score: inf
ROOT
ATOM      1  C   UNL     1      97.087 100.528  97.437  1.00  0.00     0.012 C 
ENDROOT
BRANCH   1   2
ATOM      2  C   UNL     1      96.691 101.991  97.742  1.00  0.00     0.016 C 
ATOM      3  C   UNL     1      97.782 102.990  97.327  1.00  0.00     0.013 C 
BRANCH   2   4
ATOM      4  C   UNL     1      96.360 102.154  99.215  1.00  0.00    -0.045 A 
ATOM      5  C   UNL     1      95.437 102.584 103.413  1.00  0.00     0.044 C 
ATOM      6  C   UNL     1      95.778 102.459 101.958  1.00  0.00    -0.051 A 
ATOM      7  C   UNL     1      95.036 103.158 100.995  1.00  0.00     0.004 A 
ATOM      8  C   UNL     1      96.796 101.588 101.542  1.00  0.00     0.004 A 
ATOM      9  C   UNL     1      95.329 103.013  99.636  1.00  0.00     0.004 A 
ATOM     10  C   UNL     1      97.089 101.442 100.184  1.00  0.00     0.004 A 
ENDBRANCH   2   4
ENDBRANCH   1   2
BRANCH   1  11
ATOM     11  C   UNL     1      95.872  99.633  97.151  1.00  0.00     0.028 C 
BRANCH  11  12
ATOM     12  C   UNL     1      95.891  98.411  98.034  1.00  0.00    -0.028 C 
ATOM     13  C   UNL     1      96.091  97.150  97.588  1.00  0.00    -0.080 C 
ATOM     14  C   UNL     1      96.375  96.850  96.135  1.00  0.00     0.039 C 
ATOM     15  C   UNL     1      96.043  96.021  98.584  1.00  0.00     0.039 C 
ENDBRANCH  11  12
ENDBRANCH   1  11
TORSDOF 4
ENDMDL
