MODEL 1
REMARK VINA RESULT:    -9.114      0.000      0.000
REMARK INTER + INTRA:          -9.914
REMARK INTER:                  -9.914
REMARK INTRA:                   0.000
REMARK UNBOUND:                 0.000
REMARK SMILES C[C@H]1CC[C@H]2[N@@H+](C1)C[C@H]1[C@H]3C[C@H]4[C@@H](C[C@@H](O)[C@H]5C[C@@H](O)CC[C@]54C)[C@@H]3CC[C@@H]1[C@@]2(C)O
REMARK SMILES IDX 5 1 6 2 8 3 7 4 4 5 29 6 3 7 28 8 30 9 2 10 27 11 9 12 1 13
REMARK SMILES IDX 26 14 10 15 25 16 11 17 13 18 12 19 14 20 23 21 15 22 17 23
REMARK SMILES IDX 22 24 24 25 18 26 21 27 19 28 31 30 16 32 20 34
REMARK H PARENT 6 29 31 31 16 33 20 35
REMARK Flexibility Score: inf
ROOT
ATOM      1  C   UNL     1      22.969 -24.051  27.114  1.00  0.00     0.216 C 
ATOM      2  N   UNL     1      23.184 -22.583  26.937  1.00  0.00    -0.330 N 
ATOM      3  C   UNL     1      24.482 -22.239  26.302  1.00  0.00     0.266 C 
ATOM      4  C   UNL     1      22.981 -21.840  28.207  1.00  0.00     0.265 C 
ATOM      5  C   UNL     1      23.862 -24.623  28.249  1.00  0.00     0.069 C 
ATOM      6  C   UNL     1      23.120 -24.845  25.758  1.00  0.00     0.117 C 
ATOM      7  C   UNL     1      23.631 -23.868  29.557  1.00  0.00     0.015 C 
ATOM      8  C   UNL     1      24.461 -24.440  25.078  1.00  0.00     0.036 C 
ATOM      9  C   UNL     1      21.899 -24.591  24.836  1.00  0.00     0.049 C 
ATOM     10  C   UNL     1      23.860 -22.365  29.362  1.00  0.00     0.041 C 
ATOM     11  C   UNL     1      24.768 -25.155  23.732  1.00  0.00     0.007 C 
ATOM     12  C   UNL     1      24.598 -22.899  24.919  1.00  0.00     0.054 C 
ATOM     13  C   UNL     1      23.555 -21.604  30.657  1.00  0.00     0.013 C 
ATOM     14  C   UNL     1      26.225 -24.892  23.248  1.00  0.00     0.004 C 
ATOM     15  C   UNL     1      25.862 -22.532  24.072  1.00  0.00     0.002 C 
ATOM     16  C   UNL     1      26.863 -23.686  23.970  1.00  0.00    -0.004 C 
ATOM     17  C   UNL     1      26.711 -21.285  24.399  1.00  0.00     0.009 C 
ATOM     18  C   UNL     1      28.037 -23.014  23.281  1.00  0.00    -0.001 C 
ATOM     19  C   UNL     1      28.161 -21.713  24.074  1.00  0.00    -0.001 C 
ATOM     20  C   UNL     1      29.373 -23.748  23.303  1.00  0.00     0.036 C 
ATOM     21  C   UNL     1      29.128 -20.688  23.405  1.00  0.00    -0.024 C 
ATOM     22  C   UNL     1      30.427 -22.875  22.585  1.00  0.00     0.118 C 
ATOM     23  C   UNL     1      30.512 -21.417  23.166  1.00  0.00     0.026 C 
ATOM     24  C   UNL     1      28.524 -20.084  22.088  1.00  0.00     0.010 C 
ATOM     25  C   UNL     1      29.343 -19.540  24.432  1.00  0.00     0.012 C 
ATOM     26  C   UNL     1      31.540 -20.551  22.379  1.00  0.00     0.038 C 
ATOM     27  C   UNL     1      29.526 -19.840  20.946  1.00  0.00     0.032 C 
ATOM     28  C   UNL     1      30.928 -19.476  21.448  1.00  0.00     0.114 C 
ATOM     29  H   UNL     1      22.432 -22.232  26.300  1.00  0.00     0.348 HD
ENDROOT
BRANCH   6  30
ATOM     30  O   UNL     1      23.177 -26.230  26.022  1.00  0.00    -0.384 OA
ATOM     31  H   UNL     1      24.130 -26.511  25.992  1.00  0.00     0.211 HD
ENDBRANCH   6  30
BRANCH  22  32
ATOM     32  O   UNL     1      30.160 -22.849  21.207  1.00  0.00    -0.393 OA
ATOM     33  H   UNL     1      29.203 -22.605  21.100  1.00  0.00     0.210 HD
ENDBRANCH  22  32
BRANCH  28  34
ATOM     34  O   UNL     1      31.785 -19.218  20.364  1.00  0.00    -0.393 OA
ATOM     35  H   UNL     1      32.640 -19.693  20.535  1.00  0.00     0.210 HD
ENDBRANCH  28  34
TORSDOF 3
ENDMDL
MODEL 2
REMARK VINA RESULT:    -8.647      5.200      8.863
REMARK INTER + INTRA:          -9.405
REMARK INTER:                  -9.405
REMARK INTRA:                   0.000
REMARK UNBOUND:                 0.000
REMARK SMILES C[C@H]1CC[C@H]2[N@@H+](C1)C[C@H]1[C@H]3C[C@H]4[C@@H](C[C@@H](O)[C@H]5C[C@@H](O)CC[C@]54C)[C@@H]3CC[C@@H]1[C@@]2(C)O
REMARK SMILES IDX 5 1 6 2 8 3 7 4 4 5 29 6 3 7 28 8 30 9 2 10 27 11 9 12 1 13
REMARK SMILES IDX 26 14 10 15 25 16 11 17 13 18 12 19 14 20 23 21 15 22 17 23
REMARK SMILES IDX 22 24 24 25 18 26 21 27 19 28 31 30 16 32 20 34
REMARK H PARENT 6 29 31 31 16 33 20 35
REMARK Flexibility Score: inf
ROOT
ATOM      1  C   UNL     1      23.882 -25.729  26.387  1.00  0.00     0.216 C 
ATOM      2  N   UNL     1      24.600 -24.437  26.171  1.00  0.00    -0.330 N 
ATOM      3  C   UNL     1      24.252 -23.384  27.160  1.00  0.00     0.266 C 
ATOM      4  C   UNL     1      24.451 -23.949  24.777  1.00  0.00     0.265 C 
ATOM      5  C   UNL     1      22.384 -25.619  25.987  1.00  0.00     0.069 C 
ATOM      6  C   UNL     1      24.084 -26.289  27.849  1.00  0.00     0.117 C 
ATOM      7  C   UNL     1      22.239 -25.138  24.543  1.00  0.00     0.015 C 
ATOM      8  C   UNL     1      23.764 -25.163  28.875  1.00  0.00     0.036 C 
ATOM      9  C   UNL     1      25.521 -26.847  28.026  1.00  0.00     0.049 C 
ATOM     10  C   UNL     1      22.978 -23.810  24.339  1.00  0.00     0.041 C 
ATOM     11  C   UNL     1      23.898 -25.566  30.370  1.00  0.00     0.007 C 
ATOM     12  C   UNL     1      24.563 -23.860  28.588  1.00  0.00     0.054 C 
ATOM     13  C   UNL     1      22.893 -23.370  22.873  1.00  0.00     0.013 C 
ATOM     14  C   UNL     1      23.322 -24.479  31.325  1.00  0.00     0.004 C 
ATOM     15  C   UNL     1      24.363 -22.814  29.735  1.00  0.00     0.002 C 
ATOM     16  C   UNL     1      23.144 -23.121  30.611  1.00  0.00    -0.004 C 
ATOM     17  C   UNL     1      24.276 -21.302  29.434  1.00  0.00     0.009 C 
ATOM     18  C   UNL     1      23.080 -21.885  31.490  1.00  0.00    -0.001 C 
ATOM     19  C   UNL     1      23.257 -20.765  30.465  1.00  0.00    -0.001 C 
ATOM     20  C   UNL     1      21.793 -21.653  32.274  1.00  0.00     0.036 C 
ATOM     21  C   UNL     1      23.504 -19.374  31.128  1.00  0.00    -0.024 C 
ATOM     22  C   UNL     1      21.929 -20.331  33.063  1.00  0.00     0.118 C 
ATOM     23  C   UNL     1      22.326 -19.113  32.153  1.00  0.00     0.026 C 
ATOM     24  C   UNL     1      24.922 -19.286  31.797  1.00  0.00     0.010 C 
ATOM     25  C   UNL     1      23.418 -18.315  29.992  1.00  0.00     0.012 C 
ATOM     26  C   UNL     1      22.512 -17.815  32.992  1.00  0.00     0.038 C 
ATOM     27  C   UNL     1      24.988 -18.502  33.119  1.00  0.00     0.032 C 
ATOM     28  C   UNL     1      23.977 -17.350  33.183  1.00  0.00     0.114 C 
ATOM     29  H   UNL     1      25.624 -24.627  26.279  1.00  0.00     0.348 HD
ENDROOT
BRANCH   6  30
ATOM     30  O   UNL     1      23.181 -27.348  28.081  1.00  0.00    -0.384 OA
ATOM     31  H   UNL     1      22.262 -27.015  27.901  1.00  0.00     0.211 HD
ENDBRANCH   6  30
BRANCH  22  32
ATOM     32  O   UNL     1      22.851 -20.497  34.108  1.00  0.00    -0.393 OA
ATOM     33  H   UNL     1      23.510 -19.757  34.035  1.00  0.00     0.210 HD
ENDBRANCH  22  32
BRANCH  28  34
ATOM     34  O   UNL     1      24.116 -16.642  34.389  1.00  0.00    -0.393 OA
ATOM     35  H   UNL     1      23.770 -15.723  34.242  1.00  0.00     0.210 HD
ENDBRANCH  28  34
TORSDOF 3
ENDMDL
MODEL 3
REMARK VINA RESULT:    -8.612      4.880      7.517
REMARK INTER + INTRA:          -9.367
REMARK INTER:                  -9.367
REMARK INTRA:                   0.000
REMARK UNBOUND:                 0.000
REMARK SMILES C[C@H]1CC[C@H]2[N@@H+](C1)C[C@H]1[C@H]3C[C@H]4[C@@H](C[C@@H](O)[C@H]5C[C@@H](O)CC[C@]54C)[C@@H]3CC[C@@H]1[C@@]2(C)O
REMARK SMILES IDX 5 1 6 2 8 3 7 4 4 5 29 6 3 7 28 8 30 9 2 10 27 11 9 12 1 13
REMARK SMILES IDX 26 14 10 15 25 16 11 17 13 18 12 19 14 20 23 21 15 22 17 23
REMARK SMILES IDX 22 24 24 25 18 26 21 27 19 28 31 30 16 32 20 34
REMARK H PARENT 6 29 31 31 16 33 20 35
REMARK Flexibility Score: inf
ROOT
ATOM      1  C   UNL     1      22.393 -19.763  32.864  1.00  0.00     0.216 C 
ATOM      2  N   UNL     1      21.729 -19.400  31.577  1.00  0.00    -0.330 N 
ATOM      3  C   UNL     1      22.202 -20.192  30.412  1.00  0.00     0.266 C 
ATOM      4  C   UNL     1      21.801 -17.940  31.312  1.00  0.00     0.265 C 
ATOM      5  C   UNL     1      23.861 -19.256  32.909  1.00  0.00     0.069 C 
ATOM      6  C   UNL     1      22.269 -21.303  33.188  1.00  0.00     0.117 C 
ATOM      7  C   UNL     1      23.925 -17.750  32.658  1.00  0.00     0.015 C 
ATOM      8  C   UNL     1      22.721 -22.123  31.944  1.00  0.00     0.036 C 
ATOM      9  C   UNL     1      20.821 -21.656  33.623  1.00  0.00     0.049 C 
ATOM     10  C   UNL     1      23.244 -17.393  31.331  1.00  0.00     0.041 C 
ATOM     11  C   UNL     1      22.675 -23.668  32.111  1.00  0.00     0.007 C 
ATOM     12  C   UNL     1      21.971 -21.693  30.650  1.00  0.00     0.054 C 
ATOM     13  C   UNL     1      23.245 -15.875  31.121  1.00  0.00     0.013 C 
ATOM     14  C   UNL     1      23.375 -24.406  30.932  1.00  0.00     0.004 C 
ATOM     15  C   UNL     1      22.309 -22.651  29.460  1.00  0.00     0.002 C 
ATOM     16  C   UNL     1      23.570 -23.484  29.709  1.00  0.00    -0.004 C 
ATOM     17  C   UNL     1      22.452 -22.118  28.018  1.00  0.00     0.009 C 
ATOM     18  C   UNL     1      23.763 -24.158  28.362  1.00  0.00    -0.001 C 
ATOM     19  C   UNL     1      23.569 -22.988  27.398  1.00  0.00    -0.001 C 
ATOM     20  C   UNL     1      25.113 -24.814  28.097  1.00  0.00     0.036 C 
ATOM     21  C   UNL     1      23.444 -23.445  25.911  1.00  0.00    -0.024 C 
ATOM     22  C   UNL     1      25.104 -25.398  26.667  1.00  0.00     0.118 C 
ATOM     23  C   UNL     1      24.705 -24.341  25.575  1.00  0.00     0.026 C 
ATOM     24  C   UNL     1      22.084 -24.182  25.637  1.00  0.00     0.010 C 
ATOM     25  C   UNL     1      23.502 -22.158  25.041  1.00  0.00     0.012 C 
ATOM     26  C   UNL     1      24.648 -24.981  24.157  1.00  0.00     0.038 C 
ATOM     27  C   UNL     1      22.157 -25.371  24.662  1.00  0.00     0.032 C 
ATOM     28  C   UNL     1      23.227 -25.193  23.579  1.00  0.00     0.114 C 
ATOM     29  H   UNL     1      20.707 -19.601  31.685  1.00  0.00     0.348 HD
ENDROOT
BRANCH   6  30
ATOM     30  O   UNL     1      23.130 -21.636  34.255  1.00  0.00    -0.384 OA
ATOM     31  H   UNL     1      22.801 -21.177  35.071  1.00  0.00     0.211 HD
ENDBRANCH   6  30
BRANCH  22  32
ATOM     32  O   UNL     1      24.253 -26.513  26.617  1.00  0.00    -0.393 OA
ATOM     33  H   UNL     1      24.695 -27.240  27.129  1.00  0.00     0.210 HD
ENDBRANCH  22  32
BRANCH  28  34
ATOM     34  O   UNL     1      23.214 -26.283  22.692  1.00  0.00    -0.393 OA
ATOM     35  H   UNL     1      23.936 -26.140  22.026  1.00  0.00     0.210 HD
ENDBRANCH  28  34
TORSDOF 3
ENDMDL
MODEL 4
REMARK VINA RESULT:    -8.561      4.960      9.200
REMARK INTER + INTRA:          -9.312
REMARK INTER:                  -9.312
REMARK INTRA:                   0.000
REMARK UNBOUND:                 0.000
REMARK SMILES C[C@H]1CC[C@H]2[N@@H+](C1)C[C@H]1[C@H]3C[C@H]4[C@@H](C[C@@H](O)[C@H]5C[C@@H](O)CC[C@]54C)[C@@H]3CC[C@@H]1[C@@]2(C)O
REMARK SMILES IDX 5 1 6 2 8 3 7 4 4 5 29 6 3 7 28 8 30 9 2 10 27 11 9 12 1 13
REMARK SMILES IDX 26 14 10 15 25 16 11 17 13 18 12 19 14 20 23 21 15 22 17 23
REMARK SMILES IDX 22 24 24 25 18 26 21 27 19 28 31 30 16 32 20 34
REMARK H PARENT 6 29 31 31 16 33 20 35
REMARK Flexibility Score: inf
ROOT
ATOM      1  C   UNL     1      24.266 -25.634  26.447  1.00  0.00     0.216 C 
ATOM      2  N   UNL     1      24.796 -24.255  26.228  1.00  0.00    -0.330 N 
ATOM      3  C   UNL     1      24.004 -23.193  26.902  1.00  0.00     0.266 C 
ATOM      4  C   UNL     1      24.992 -23.962  24.786  1.00  0.00     0.265 C 
ATOM      5  C   UNL     1      22.958 -25.873  25.643  1.00  0.00     0.069 C 
ATOM      6  C   UNL     1      24.112 -25.981  27.979  1.00  0.00     0.117 C 
ATOM      7  C   UNL     1      23.173 -25.590  24.156  1.00  0.00     0.015 C 
ATOM      8  C   UNL     1      23.323 -24.838  28.683  1.00  0.00     0.036 C 
ATOM      9  C   UNL     1      25.502 -26.214  28.629  1.00  0.00     0.049 C 
ATOM     10  C   UNL     1      23.713 -24.170  23.948  1.00  0.00     0.041 C 
ATOM     11  C   UNL     1      23.071 -25.041  30.203  1.00  0.00     0.007 C 
ATOM     12  C   UNL     1      23.950 -23.439  28.418  1.00  0.00     0.054 C 
ATOM     13  C   UNL     1      23.997 -23.919  22.463  1.00  0.00     0.013 C 
ATOM     14  C   UNL     1      22.068 -23.995  30.776  1.00  0.00     0.004 C 
ATOM     15  C   UNL     1      23.250 -22.337  29.281  1.00  0.00     0.002 C 
ATOM     16  C   UNL     1      21.893 -22.787  29.831  1.00  0.00    -0.004 C 
ATOM     17  C   UNL     1      23.013 -20.916  28.727  1.00  0.00     0.009 C 
ATOM     18  C   UNL     1      21.371 -21.501  30.447  1.00  0.00    -0.001 C 
ATOM     19  C   UNL     1      21.661 -20.486  29.342  1.00  0.00    -0.001 C 
ATOM     20  C   UNL     1      19.889 -21.451  30.804  1.00  0.00     0.036 C 
ATOM     21  C   UNL     1      21.470 -19.011  29.813  1.00  0.00    -0.024 C 
ATOM     22  C   UNL     1      19.568 -20.051  31.375  1.00  0.00     0.118 C 
ATOM     23  C   UNL     1      20.015 -18.884  30.422  1.00  0.00     0.026 C 
ATOM     24  C   UNL     1      22.592 -18.566  30.818  1.00  0.00     0.010 C 
ATOM     25  C   UNL     1      21.555 -18.121  28.540  1.00  0.00     0.012 C 
ATOM     26  C   UNL     1      19.730 -17.491  31.058  1.00  0.00     0.038 C 
ATOM     27  C   UNL     1      22.133 -17.647  31.963  1.00  0.00     0.032 C 
ATOM     28  C   UNL     1      20.977 -16.723  31.562  1.00  0.00     0.114 C 
ATOM     29  H   UNL     1      25.759 -24.222  26.640  1.00  0.00     0.348 HD
ENDROOT
BRANCH   6  30
ATOM     30  O   UNL     1      23.365 -27.169  28.126  1.00  0.00    -0.384 OA
ATOM     31  H   UNL     1      23.227 -27.328  29.097  1.00  0.00     0.211 HD
ENDBRANCH   6  30
BRANCH  22  32
ATOM     32  O   UNL     1      20.152 -19.913  32.643  1.00  0.00    -0.393 OA
ATOM     33  H   UNL     1      20.282 -20.829  33.006  1.00  0.00     0.210 HD
ENDBRANCH  22  32
BRANCH  28  34
ATOM     34  O   UNL     1      20.634 -15.875  32.629  1.00  0.00    -0.393 OA
ATOM     35  H   UNL     1      21.428 -15.317  32.840  1.00  0.00     0.210 HD
ENDBRANCH  28  34
TORSDOF 3
ENDMDL
MODEL 5
REMARK VINA RESULT:    -8.528      4.428      7.161
REMARK INTER + INTRA:          -9.276
REMARK INTER:                  -9.276
REMARK INTRA:                   0.000
REMARK UNBOUND:                 0.000
REMARK SMILES C[C@H]1CC[C@H]2[N@@H+](C1)C[C@H]1[C@H]3C[C@H]4[C@@H](C[C@@H](O)[C@H]5C[C@@H](O)CC[C@]54C)[C@@H]3CC[C@@H]1[C@@]2(C)O
REMARK SMILES IDX 5 1 6 2 8 3 7 4 4 5 29 6 3 7 28 8 30 9 2 10 27 11 9 12 1 13
REMARK SMILES IDX 26 14 10 15 25 16 11 17 13 18 12 19 14 20 23 21 15 22 17 23
REMARK SMILES IDX 22 24 24 25 18 26 21 27 19 28 31 30 16 32 20 34
REMARK H PARENT 6 29 31 31 16 33 20 35
REMARK Flexibility Score: inf
ROOT
ATOM      1  C   UNL     1      21.788 -25.018  33.981  1.00  0.00     0.216 C 
ATOM      2  N   UNL     1      20.758 -24.526  33.017  1.00  0.00    -0.330 N 
ATOM      3  C   UNL     1      21.308 -24.150  31.690  1.00  0.00     0.266 C 
ATOM      4  C   UNL     1      19.936 -23.434  33.599  1.00  0.00     0.265 C 
ATOM      5  C   UNL     1      22.682 -23.857  34.498  1.00  0.00     0.069 C 
ATOM      6  C   UNL     1      22.627 -26.221  33.397  1.00  0.00     0.117 C 
ATOM      7  C   UNL     1      21.830 -22.747  35.115  1.00  0.00     0.015 C 
ATOM      8  C   UNL     1      23.157 -25.834  31.985  1.00  0.00     0.036 C 
ATOM      9  C   UNL     1      21.774 -27.517  33.364  1.00  0.00     0.049 C 
ATOM     10  C   UNL     1      20.781 -22.250  34.113  1.00  0.00     0.041 C 
ATOM     11  C   UNL     1      24.025 -26.914  31.280  1.00  0.00     0.007 C 
ATOM     12  C   UNL     1      22.020 -25.348  31.042  1.00  0.00     0.054 C 
ATOM     13  C   UNL     1      19.883 -21.191  34.762  1.00  0.00     0.013 C 
ATOM     14  C   UNL     1      24.722 -26.363  30.001  1.00  0.00     0.004 C 
ATOM     15  C   UNL     1      22.550 -25.143  29.583  1.00  0.00     0.002 C 
ATOM     16  C   UNL     1      24.077 -25.047  29.515  1.00  0.00    -0.004 C 
ATOM     17  C   UNL     1      22.031 -23.990  28.697  1.00  0.00     0.009 C 
ATOM     18  C   UNL     1      24.296 -24.670  28.060  1.00  0.00    -0.001 C 
ATOM     19  C   UNL     1      23.263 -23.560  27.868  1.00  0.00    -0.001 C 
ATOM     20  C   UNL     1      25.676 -24.149  27.674  1.00  0.00     0.036 C 
ATOM     21  C   UNL     1      23.075 -23.163  26.371  1.00  0.00    -0.024 C 
ATOM     22  C   UNL     1      25.664 -23.793  26.171  1.00  0.00     0.118 C 
ATOM     23  C   UNL     1      24.501 -22.809  25.784  1.00  0.00     0.026 C 
ATOM     24  C   UNL     1      22.343 -24.287  25.554  1.00  0.00     0.010 C 
ATOM     25  C   UNL     1      22.198 -21.879  26.355  1.00  0.00     0.012 C 
ATOM     26  C   UNL     1      24.486 -22.522  24.253  1.00  0.00     0.038 C 
ATOM     27  C   UNL     1      22.840 -24.493  24.112  1.00  0.00     0.032 C 
ATOM     28  C   UNL     1      23.341 -23.198  23.461  1.00  0.00     0.114 C 
ATOM     29  H   UNL     1      20.083 -25.310  32.855  1.00  0.00     0.348 HD
ENDROOT
BRANCH   6  30
ATOM     30  O   UNL     1      23.746 -26.465  34.221  1.00  0.00    -0.384 OA
ATOM     31  H   UNL     1      23.920 -25.645  34.755  1.00  0.00     0.211 HD
ENDBRANCH   6  30
BRANCH  22  32
ATOM     32  O   UNL     1      25.601 -24.968  25.407  1.00  0.00    -0.393 OA
ATOM     33  H   UNL     1      26.110 -24.800  24.571  1.00  0.00     0.210 HD
ENDBRANCH  22  32
BRANCH  28  34
ATOM     34  O   UNL     1      23.735 -23.438  22.133  1.00  0.00    -0.393 OA
ATOM     35  H   UNL     1      24.695 -23.692  22.144  1.00  0.00     0.210 HD
ENDBRANCH  28  34
TORSDOF 3
ENDMDL
MODEL 6
REMARK VINA RESULT:    -8.456      5.233      8.506
REMARK INTER + INTRA:          -9.197
REMARK INTER:                  -9.197
REMARK INTRA:                   0.000
REMARK UNBOUND:                 0.000
REMARK SMILES C[C@H]1CC[C@H]2[N@@H+](C1)C[C@H]1[C@H]3C[C@H]4[C@@H](C[C@@H](O)[C@H]5C[C@@H](O)CC[C@]54C)[C@@H]3CC[C@@H]1[C@@]2(C)O
REMARK SMILES IDX 5 1 6 2 8 3 7 4 4 5 29 6 3 7 28 8 30 9 2 10 27 11 9 12 1 13
REMARK SMILES IDX 26 14 10 15 25 16 11 17 13 18 12 19 14 20 23 21 15 22 17 23
REMARK SMILES IDX 22 24 24 25 18 26 21 27 19 28 31 30 16 32 20 34
REMARK H PARENT 6 29 31 31 16 33 20 35
REMARK Flexibility Score: inf
ROOT
ATOM      1  C   UNL     1      21.333 -19.882  33.928  1.00  0.00     0.216 C 
ATOM      2  N   UNL     1      21.788 -19.194  32.682  1.00  0.00    -0.330 N 
ATOM      3  C   UNL     1      22.161 -20.124  31.585  1.00  0.00     0.266 C 
ATOM      4  C   UNL     1      22.866 -18.212  32.958  1.00  0.00     0.265 C 
ATOM      5  C   UNL     1      22.521 -20.547  34.675  1.00  0.00     0.069 C 
ATOM      6  C   UNL     1      20.144 -20.884  33.657  1.00  0.00     0.117 C 
ATOM      7  C   UNL     1      23.617 -19.525  34.975  1.00  0.00     0.015 C 
ATOM      8  C   UNL     1      20.526 -21.821  32.474  1.00  0.00     0.036 C 
ATOM      9  C   UNL     1      18.827 -20.110  33.385  1.00  0.00     0.049 C 
ATOM     10  C   UNL     1      24.077 -18.831  33.688  1.00  0.00     0.041 C 
ATOM     11  C   UNL     1      19.459 -22.886  32.095  1.00  0.00     0.007 C 
ATOM     12  C   UNL     1      20.973 -21.026  31.214  1.00  0.00     0.054 C 
ATOM     13  C   UNL     1      25.122 -17.755  34.003  1.00  0.00     0.013 C 
ATOM     14  C   UNL     1      20.011 -23.936  31.086  1.00  0.00     0.004 C 
ATOM     15  C   UNL     1      21.173 -21.980  29.990  1.00  0.00     0.002 C 
ATOM     16  C   UNL     1      21.305 -23.450  30.399  1.00  0.00    -0.004 C 
ATOM     17  C   UNL     1      22.303 -21.741  28.964  1.00  0.00     0.009 C 
ATOM     18  C   UNL     1      21.670 -24.104  29.077  1.00  0.00    -0.001 C 
ATOM     19  C   UNL     1      22.752 -23.161  28.552  1.00  0.00    -0.001 C 
ATOM     20  C   UNL     1      22.219 -25.525  29.131  1.00  0.00     0.036 C 
ATOM     21  C   UNL     1      23.126 -23.442  27.063  1.00  0.00    -0.024 C 
ATOM     22  C   UNL     1      22.557 -25.976  27.692  1.00  0.00     0.118 C 
ATOM     23  C   UNL     1      23.507 -24.973  26.943  1.00  0.00     0.026 C 
ATOM     24  C   UNL     1      21.975 -23.023  26.080  1.00  0.00     0.010 C 
ATOM     25  C   UNL     1      24.389 -22.590  26.751  1.00  0.00     0.012 C 
ATOM     26  C   UNL     1      23.776 -25.431  25.479  1.00  0.00     0.038 C 
ATOM     27  C   UNL     1      21.764 -23.949  24.870  1.00  0.00     0.032 C 
ATOM     28  C   UNL     1      23.062 -24.603  24.383  1.00  0.00     0.114 C 
ATOM     29  H   UNL     1      20.986 -18.619  32.333  1.00  0.00     0.348 HD
ENDROOT
BRANCH   6  30
ATOM     30  O   UNL     1      19.937 -21.695  34.794  1.00  0.00    -0.384 OA
ATOM     31  H   UNL     1      20.420 -22.552  34.653  1.00  0.00     0.211 HD
ENDBRANCH   6  30
BRANCH  22  32
ATOM     32  O   UNL     1      21.372 -26.177  26.969  1.00  0.00    -0.393 OA
ATOM     33  H   UNL     1      20.645 -25.716  27.466  1.00  0.00     0.210 HD
ENDBRANCH  22  32
BRANCH  28  34
ATOM     34  O   UNL     1      22.816 -25.397  23.249  1.00  0.00    -0.393 OA
ATOM     35  H   UNL     1      23.665 -25.465  22.738  1.00  0.00     0.210 HD
ENDBRANCH  28  34
TORSDOF 3
ENDMDL
MODEL 7
REMARK VINA RESULT:    -8.398      5.434      8.598
REMARK INTER + INTRA:          -9.134
REMARK INTER:                  -9.134
REMARK INTRA:                   0.000
REMARK UNBOUND:                 0.000
REMARK SMILES C[C@H]1CC[C@H]2[N@@H+](C1)C[C@H]1[C@H]3C[C@H]4[C@@H](C[C@@H](O)[C@H]5C[C@@H](O)CC[C@]54C)[C@@H]3CC[C@@H]1[C@@]2(C)O
REMARK SMILES IDX 5 1 6 2 8 3 7 4 4 5 29 6 3 7 28 8 30 9 2 10 27 11 9 12 1 13
REMARK SMILES IDX 26 14 10 15 25 16 11 17 13 18 12 19 14 20 23 21 15 22 17 23
REMARK SMILES IDX 22 24 24 25 18 26 21 27 19 28 31 30 16 32 20 34
REMARK H PARENT 6 29 31 31 16 33 20 35
REMARK Flexibility Score: inf
ROOT
ATOM      1  C   UNL     1      24.369 -27.228  35.345  1.00  0.00     0.216 C 
ATOM      2  N   UNL     1      23.276 -26.259  35.031  1.00  0.00    -0.330 N 
ATOM      3  C   UNL     1      23.350 -25.695  33.659  1.00  0.00     0.266 C 
ATOM      4  C   UNL     1      23.175 -25.192  36.058  1.00  0.00     0.265 C 
ATOM      5  C   UNL     1      25.730 -26.505  35.540  1.00  0.00     0.069 C 
ATOM      6  C   UNL     1      24.447 -28.403  34.294  1.00  0.00     0.117 C 
ATOM      7  C   UNL     1      25.623 -25.423  36.614  1.00  0.00     0.015 C 
ATOM      8  C   UNL     1      24.474 -27.801  32.858  1.00  0.00     0.036 C 
ATOM      9  C   UNL     1      23.265 -29.390  34.488  1.00  0.00     0.049 C 
ATOM     10  C   UNL     1      24.501 -24.434  36.276  1.00  0.00     0.041 C 
ATOM     11  C   UNL     1      24.570 -28.837  31.703  1.00  0.00     0.007 C 
ATOM     12  C   UNL     1      23.296 -26.816  32.610  1.00  0.00     0.054 C 
ATOM     13  C   UNL     1      24.349 -23.396  37.393  1.00  0.00     0.013 C 
ATOM     14  C   UNL     1      24.848 -28.158  30.328  1.00  0.00     0.004 C 
ATOM     15  C   UNL     1      23.243 -26.371  31.110  1.00  0.00     0.002 C 
ATOM     16  C   UNL     1      24.553 -26.643  30.364  1.00  0.00    -0.004 C 
ATOM     17  C   UNL     1      22.841 -24.933  30.715  1.00  0.00     0.009 C 
ATOM     18  C   UNL     1      24.293 -25.961  29.032  1.00  0.00    -0.001 C 
ATOM     19  C   UNL     1      23.713 -24.620  29.477  1.00  0.00    -0.001 C 
ATOM     20  C   UNL     1      25.497 -25.717  28.128  1.00  0.00     0.036 C 
ATOM     21  C   UNL     1      23.096 -23.807  28.296  1.00  0.00    -0.024 C 
ATOM     22  C   UNL     1      25.015 -24.984  26.856  1.00  0.00     0.118 C 
ATOM     23  C   UNL     1      24.203 -23.676  27.173  1.00  0.00     0.026 C 
ATOM     24  C   UNL     1      21.768 -24.457  27.768  1.00  0.00     0.010 C 
ATOM     25  C   UNL     1      22.778 -22.388  28.848  1.00  0.00     0.012 C 
ATOM     26  C   UNL     1      23.685 -23.000  25.869  1.00  0.00     0.038 C 
ATOM     27  C   UNL     1      21.554 -24.390  26.246  1.00  0.00     0.032 C 
ATOM     28  C   UNL     1      22.164 -23.136  25.609  1.00  0.00     0.114 C 
ATOM     29  H   UNL     1      22.369 -26.779  35.097  1.00  0.00     0.348 HD
ENDROOT
BRANCH   6  30
ATOM     30  O   UNL     1      25.644 -29.127  34.476  1.00  0.00    -0.384 OA
ATOM     31  H   UNL     1      25.527 -29.724  35.261  1.00  0.00     0.211 HD
ENDBRANCH   6  30
BRANCH  22  32
ATOM     32  O   UNL     1      24.261 -25.861  26.062  1.00  0.00    -0.393 OA
ATOM     33  H   UNL     1      23.662 -26.366  26.674  1.00  0.00     0.210 HD
ENDBRANCH  22  32
BRANCH  28  34
ATOM     34  O   UNL     1      21.896 -23.106  24.230  1.00  0.00    -0.393 OA
ATOM     35  H   UNL     1      21.816 -22.155  23.958  1.00  0.00     0.210 HD
ENDBRANCH  28  34
TORSDOF 3
ENDMDL
MODEL 8
REMARK VINA RESULT:    -8.345      4.005      7.487
REMARK INTER + INTRA:          -9.076
REMARK INTER:                  -9.076
REMARK INTRA:                   0.000
REMARK UNBOUND:                 0.000
REMARK SMILES C[C@H]1CC[C@H]2[N@@H+](C1)C[C@H]1[C@H]3C[C@H]4[C@@H](C[C@@H](O)[C@H]5C[C@@H](O)CC[C@]54C)[C@@H]3CC[C@@H]1[C@@]2(C)O
REMARK SMILES IDX 5 1 6 2 8 3 7 4 4 5 29 6 3 7 28 8 30 9 2 10 27 11 9 12 1 13
REMARK SMILES IDX 26 14 10 15 25 16 11 17 13 18 12 19 14 20 23 21 15 22 17 23
REMARK SMILES IDX 22 24 24 25 18 26 21 27 19 28 31 30 16 32 20 34
REMARK H PARENT 6 29 31 31 16 33 20 35
REMARK Flexibility Score: inf
ROOT
ATOM      1  C   UNL     1      20.050 -18.561  31.811  1.00  0.00     0.216 C 
ATOM      2  N   UNL     1      21.273 -19.328  32.193  1.00  0.00    -0.330 N 
ATOM      3  C   UNL     1      21.770 -20.236  31.127  1.00  0.00     0.266 C 
ATOM      4  C   UNL     1      21.094 -20.043  33.482  1.00  0.00     0.265 C 
ATOM      5  C   UNL     1      18.794 -19.475  31.777  1.00  0.00     0.069 C 
ATOM      6  C   UNL     1      20.248 -17.746  30.473  1.00  0.00     0.117 C 
ATOM      7  C   UNL     1      18.604 -20.190  33.114  1.00  0.00     0.015 C 
ATOM      8  C   UNL     1      20.815 -18.696  29.378  1.00  0.00     0.036 C 
ATOM      9  C   UNL     1      21.167 -16.519  30.712  1.00  0.00     0.049 C 
ATOM     10  C   UNL     1      19.865 -20.976  33.491  1.00  0.00     0.041 C 
ATOM     11  C   UNL     1      21.049 -18.044  27.986  1.00  0.00     0.007 C 
ATOM     12  C   UNL     1      22.095 -19.444  29.851  1.00  0.00     0.054 C 
ATOM     13  C   UNL     1      19.698 -21.630  34.867  1.00  0.00     0.013 C 
ATOM     14  C   UNL     1      21.370 -19.102  26.889  1.00  0.00     0.004 C 
ATOM     15  C   UNL     1      22.744 -20.246  28.674  1.00  0.00     0.002 C 
ATOM     16  C   UNL     1      21.783 -20.458  27.500  1.00  0.00    -0.004 C 
ATOM     17  C   UNL     1      23.406 -21.620  28.911  1.00  0.00     0.009 C 
ATOM     18  C   UNL     1      22.585 -21.396  26.615  1.00  0.00    -0.001 C 
ATOM     19  C   UNL     1      23.092 -22.422  27.628  1.00  0.00    -0.001 C 
ATOM     20  C   UNL     1      21.833 -22.115  25.500  1.00  0.00     0.036 C 
ATOM     21  C   UNL     1      24.181 -23.370  27.033  1.00  0.00    -0.024 C 
ATOM     22  C   UNL     1      22.823 -23.039  24.756  1.00  0.00     0.118 C 
ATOM     23  C   UNL     1      23.588 -24.019  25.718  1.00  0.00     0.026 C 
ATOM     24  C   UNL     1      25.537 -22.619  26.783  1.00  0.00     0.010 C 
ATOM     25  C   UNL     1      24.414 -24.495  28.081  1.00  0.00     0.012 C 
ATOM     26  C   UNL     1      24.617 -24.890  24.939  1.00  0.00     0.038 C 
ATOM     27  C   UNL     1      26.305 -23.037  25.517  1.00  0.00     0.032 C 
ATOM     28  C   UNL     1      26.104 -24.513  25.154  1.00  0.00     0.114 C 
ATOM     29  H   UNL     1      22.033 -18.632  32.377  1.00  0.00     0.348 HD
ENDROOT
BRANCH   6  30
ATOM     30  O   UNL     1      19.001 -17.267  30.019  1.00  0.00    -0.384 OA
ATOM     31  H   UNL     1      18.729 -17.811  29.234  1.00  0.00     0.211 HD
ENDBRANCH   6  30
BRANCH  22  32
ATOM     32  O   UNL     1      23.725 -22.264  24.011  1.00  0.00    -0.393 OA
ATOM     33  H   UNL     1      23.233 -21.455  23.709  1.00  0.00     0.210 HD
ENDBRANCH  22  32
BRANCH  28  34
ATOM     34  O   UNL     1      26.865 -24.847  24.021  1.00  0.00    -0.393 OA
ATOM     35  H   UNL     1      27.013 -25.829  24.034  1.00  0.00     0.210 HD
ENDBRANCH  28  34
TORSDOF 3
ENDMDL
MODEL 9
REMARK VINA RESULT:    -8.308      6.966      9.416
REMARK INTER + INTRA:          -9.037
REMARK INTER:                  -9.037
REMARK INTRA:                   0.000
REMARK UNBOUND:                 0.000
REMARK SMILES C[C@H]1CC[C@H]2[N@@H+](C1)C[C@H]1[C@H]3C[C@H]4[C@@H](C[C@@H](O)[C@H]5C[C@@H](O)CC[C@]54C)[C@@H]3CC[C@@H]1[C@@]2(C)O
REMARK SMILES IDX 5 1 6 2 8 3 7 4 4 5 29 6 3 7 28 8 30 9 2 10 27 11 9 12 1 13
REMARK SMILES IDX 26 14 10 15 25 16 11 17 13 18 12 19 14 20 23 21 15 22 17 23
REMARK SMILES IDX 22 24 24 25 18 26 21 27 19 28 31 30 16 32 20 34
REMARK H PARENT 6 29 31 31 16 33 20 35
REMARK Flexibility Score: inf
ROOT
ATOM      1  C   UNL     1      25.584 -27.428  33.365  1.00  0.00     0.216 C 
ATOM      2  N   UNL     1      24.726 -26.582  34.248  1.00  0.00    -0.330 N 
ATOM      3  C   UNL     1      24.304 -25.301  33.625  1.00  0.00     0.266 C 
ATOM      4  C   UNL     1      25.349 -26.366  35.578  1.00  0.00     0.265 C 
ATOM      5  C   UNL     1      27.014 -26.835  33.227  1.00  0.00     0.069 C 
ATOM      6  C   UNL     1      24.906 -27.717  31.969  1.00  0.00     0.117 C 
ATOM      7  C   UNL     1      27.657 -26.637  34.600  1.00  0.00     0.015 C 
ATOM      8  C   UNL     1      24.424 -26.372  31.349  1.00  0.00     0.036 C 
ATOM      9  C   UNL     1      23.745 -28.735  32.126  1.00  0.00     0.049 C 
ATOM     10  C   UNL     1      26.767 -25.764  35.492  1.00  0.00     0.041 C 
ATOM     11  C   UNL     1      23.746 -26.486  29.955  1.00  0.00     0.007 C 
ATOM     12  C   UNL     1      23.525 -25.562  32.327  1.00  0.00     0.054 C 
ATOM     13  C   UNL     1      27.379 -25.630  36.891  1.00  0.00     0.013 C 
ATOM     14  C   UNL     1      23.526 -25.093  29.295  1.00  0.00     0.004 C 
ATOM     15  C   UNL     1      22.908 -24.311  31.616  1.00  0.00     0.002 C 
ATOM     16  C   UNL     1      23.639 -23.945  30.321  1.00  0.00    -0.004 C 
ATOM     17  C   UNL     1      22.718 -22.976  32.367  1.00  0.00     0.009 C 
ATOM     18  C   UNL     1      22.975 -22.628  29.957  1.00  0.00    -0.001 C 
ATOM     19  C   UNL     1      22.986 -21.893  31.297  1.00  0.00    -0.001 C 
ATOM     20  C   UNL     1      23.663 -21.768  28.902  1.00  0.00     0.036 C 
ATOM     21  C   UNL     1      22.112 -20.600  31.283  1.00  0.00    -0.024 C 
ATOM     22  C   UNL     1      22.846 -20.470  28.717  1.00  0.00     0.118 C 
ATOM     23  C   UNL     1      22.592 -19.708  30.067  1.00  0.00     0.026 C 
ATOM     24  C   UNL     1      20.577 -20.930  31.227  1.00  0.00     0.010 C 
ATOM     25  C   UNL     1      22.415 -19.842  32.606  1.00  0.00     0.012 C 
ATOM     26  C   UNL     1      21.715 -18.440  29.847  1.00  0.00     0.038 C 
ATOM     27  C   UNL     1      19.724 -19.982  30.366  1.00  0.00     0.032 C 
ATOM     28  C   UNL     1      20.255 -18.544  30.353  1.00  0.00     0.114 C 
ATOM     29  H   UNL     1      23.853 -27.125  34.447  1.00  0.00     0.348 HD
ENDROOT
BRANCH   6  30
ATOM     30  O   UNL     1      25.853 -28.278  31.087  1.00  0.00    -0.384 OA
ATOM     31  H   UNL     1      26.288 -27.537  30.589  1.00  0.00     0.211 HD
ENDBRANCH   6  30
BRANCH  22  32
ATOM     32  O   UNL     1      21.634 -20.763  28.072  1.00  0.00    -0.393 OA
ATOM     33  H   UNL     1      20.904 -20.422  28.653  1.00  0.00     0.210 HD
ENDBRANCH  22  32
BRANCH  28  34
ATOM     34  O   UNL     1      19.411 -17.716  29.593  1.00  0.00    -0.393 OA
ATOM     35  H   UNL     1      19.338 -18.110  28.685  1.00  0.00     0.210 HD
ENDBRANCH  28  34
TORSDOF 3
ENDMDL
