MODEL 1
REMARK VINA RESULT:    -2.311      0.000      0.000
REMARK INTER + INTRA:          -2.311
REMARK INTER:                  -2.311
REMARK INTRA:                   0.000
REMARK UNBOUND:                 0.000
REMARK SMILES CC(=O)[O-]
REMARK SMILES IDX 1 1 2 2 3 3 4 4
REMARK H PARENT
REMARK Flexibility Score: inf
ROOT
ATOM      1  C   UNL     1      29.646  35.705  47.600  1.00  0.00     0.063 C 
ATOM      2  C   UNL     1      29.612  35.782  46.112  1.00  0.00     0.038 C 
ATOM      3  O   UNL     1      29.679  34.730  45.424  1.00  0.00    -0.550 OA
ATOM      4  O   UNL     1      29.452  37.009  45.481  1.00  0.00    -0.550 OA
ENDROOT
TORSDOF 0
ENDMDL
MODEL 2
REMARK VINA RESULT:    -2.262     21.223     21.489
REMARK INTER + INTRA:          -2.262
REMARK INTER:                  -2.262
REMARK INTRA:                   0.000
REMARK UNBOUND:                 0.000
REMARK SMILES CC(=O)[O-]
REMARK SMILES IDX 1 1 2 2 3 3 4 4
REMARK H PARENT
REMARK Flexibility Score: inf
ROOT
ATOM      1  C   UNL     1      10.998  35.608  36.160  1.00  0.00     0.063 C 
ATOM      2  C   UNL     1      11.015  36.917  35.445  1.00  0.00     0.038 C 
ATOM      3  O   UNL     1      10.693  36.977  34.230  1.00  0.00    -0.550 OA
ATOM      4  O   UNL     1      11.333  38.081  36.133  1.00  0.00    -0.550 OA
ENDROOT
TORSDOF 0
ENDMDL
MODEL 3
REMARK VINA RESULT:    -2.250     21.202     21.526
REMARK INTER + INTRA:          -2.250
REMARK INTER:                  -2.250
REMARK INTRA:                   0.000
REMARK UNBOUND:                 0.000
REMARK SMILES CC(=O)[O-]
REMARK SMILES IDX 1 1 2 2 3 3 4 4
REMARK H PARENT
REMARK Flexibility Score: inf
ROOT
ATOM      1  C   UNL     1      10.728  36.647  34.172  1.00  0.00     0.063 C 
ATOM      2  C   UNL     1      11.038  36.731  35.628  1.00  0.00     0.038 C 
ATOM      3  O   UNL     1      11.282  37.846  36.158  1.00  0.00    -0.550 OA
ATOM      4  O   UNL     1      11.003  35.586  36.414  1.00  0.00    -0.550 OA
ENDROOT
TORSDOF 0
ENDMDL
MODEL 4
REMARK VINA RESULT:    -2.240     21.188     21.453
REMARK INTER + INTRA:          -2.240
REMARK INTER:                  -2.240
REMARK INTRA:                   0.000
REMARK UNBOUND:                 0.000
REMARK SMILES CC(=O)[O-]
REMARK SMILES IDX 1 1 2 2 3 3 4 4
REMARK H PARENT
REMARK Flexibility Score: inf
ROOT
ATOM      1  C   UNL     1      10.754  36.638  34.257  1.00  0.00     0.063 C 
ATOM      2  C   UNL     1      10.963  36.683  35.733  1.00  0.00     0.038 C 
ATOM      3  O   UNL     1      10.885  35.628  36.414  1.00  0.00    -0.550 OA
ATOM      4  O   UNL     1      11.299  37.881  36.352  1.00  0.00    -0.550 OA
ENDROOT
TORSDOF 0
ENDMDL
MODEL 5
REMARK VINA RESULT:    -2.226     21.163     21.357
REMARK INTER + INTRA:          -2.226
REMARK INTER:                  -2.226
REMARK INTRA:                   0.000
REMARK UNBOUND:                 0.000
REMARK SMILES CC(=O)[O-]
REMARK SMILES IDX 1 1 2 2 3 3 4 4
REMARK H PARENT
REMARK Flexibility Score: inf
ROOT
ATOM      1  C   UNL     1       9.946  36.686  37.819  1.00  0.00     0.063 C 
ATOM      2  C   UNL     1      10.636  36.667  36.497  1.00  0.00     0.038 C 
ATOM      3  O   UNL     1      11.270  37.680  36.102  1.00  0.00    -0.550 OA
ATOM      4  O   UNL     1      10.626  35.514  35.724  1.00  0.00    -0.550 OA
ENDROOT
TORSDOF 0
ENDMDL
MODEL 6
REMARK VINA RESULT:    -2.163     21.237     21.458
REMARK INTER + INTRA:          -2.163
REMARK INTER:                  -2.163
REMARK INTRA:                   0.000
REMARK UNBOUND:                 0.000
REMARK SMILES CC(=O)[O-]
REMARK SMILES IDX 1 1 2 2 3 3 4 4
REMARK H PARENT
REMARK Flexibility Score: inf
ROOT
ATOM      1  C   UNL     1      11.271  37.702  36.681  1.00  0.00     0.063 C 
ATOM      2  C   UNL     1      10.877  36.606  35.750  1.00  0.00     0.038 C 
ATOM      3  O   UNL     1      10.512  35.491  36.205  1.00  0.00    -0.550 OA
ATOM      4  O   UNL     1      10.859  36.830  34.379  1.00  0.00    -0.550 OA
ENDROOT
TORSDOF 0
ENDMDL
MODEL 7
REMARK VINA RESULT:    -1.894      1.850      2.639
REMARK INTER + INTRA:          -1.894
REMARK INTER:                  -1.894
REMARK INTRA:                   0.000
REMARK UNBOUND:                 0.000
REMARK SMILES CC(=O)[O-]
REMARK SMILES IDX 1 1 2 2 3 3 4 4
REMARK H PARENT
REMARK Flexibility Score: inf
ROOT
ATOM      1  C   UNL     1      29.276  35.873  43.983  1.00  0.00     0.063 C 
ATOM      2  C   UNL     1      29.378  36.776  45.164  1.00  0.00     0.038 C 
ATOM      3  O   UNL     1      29.212  38.016  45.027  1.00  0.00    -0.550 OA
ATOM      4  O   UNL     1      29.603  36.246  46.429  1.00  0.00    -0.550 OA
ENDROOT
TORSDOF 0
ENDMDL
MODEL 8
REMARK VINA RESULT:    -1.781      2.049      2.551
REMARK INTER + INTRA:          -1.781
REMARK INTER:                  -1.781
REMARK INTRA:                   0.000
REMARK UNBOUND:                 0.000
REMARK SMILES CC(=O)[O-]
REMARK SMILES IDX 1 1 2 2 3 3 4 4
REMARK H PARENT
REMARK Flexibility Score: inf
ROOT
ATOM      1  C   UNL     1      30.124  36.079  43.509  1.00  0.00     0.063 C 
ATOM      2  C   UNL     1      29.422  36.781  44.621  1.00  0.00     0.038 C 
ATOM      3  O   UNL     1      29.586  36.402  45.810  1.00  0.00    -0.550 OA
ATOM      4  O   UNL     1      28.630  37.890  44.353  1.00  0.00    -0.550 OA
ENDROOT
TORSDOF 0
ENDMDL
