MODEL 1
REMARK VINA RESULT:    -3.861      0.000      0.000
REMARK INTER + INTRA:          -6.339
REMARK INTER:                  -5.892
REMARK INTRA:                  -0.447
REMARK UNBOUND:                -0.447
REMARK SMILES O=C([O-])CCCCCCCCC(=O)[O-]
REMARK SMILES IDX 7 1 6 2 5 3 4 4 2 5 1 6 3 7 8 8 9 9 10 10 11 11 12 12 13 13
REMARK SMILES IDX 14 14
REMARK H PARENT
REMARK Flexibility Score: inf
ROOT
ATOM      1  C   UNL     1     -16.842  44.130  -8.295  1.00  0.00     0.000 C 
ENDROOT
BRANCH   1   2
ATOM      2  C   UNL     1     -16.336  44.056  -9.747  1.00  0.00     0.000 C 
BRANCH   2   3
ATOM      3  C   UNL     1     -17.369  44.560 -10.766  1.00  0.00     0.006 C 
BRANCH   3   4
ATOM      4  C   UNL     1     -18.592  45.151 -10.060  1.00  0.00     0.053 C 
BRANCH   4   5
ATOM      5  C   UNL     1     -19.808  44.326 -10.341  1.00  0.00     0.041 C 
ATOM      6  O   UNL     1     -20.815  44.849 -10.890  1.00  0.00    -0.550 OA
ATOM      7  O   UNL     1     -19.849  42.993  -9.953  1.00  0.00    -0.550 OA
ENDBRANCH   4   5
ENDBRANCH   3   4
ENDBRANCH   2   3
ENDBRANCH   1   2
BRANCH   1   8
ATOM      8  C   UNL     1     -15.736  44.139  -7.221  1.00  0.00     0.000 C 
BRANCH   8   9
ATOM      9  C   UNL     1     -16.122  43.482  -5.879  1.00  0.00     0.000 C 
BRANCH   9  10
ATOM     10  C   UNL     1     -17.589  43.021  -5.777  1.00  0.00     0.006 C 
BRANCH  10  11
ATOM     11  C   UNL     1     -17.909  42.198  -4.519  1.00  0.00     0.053 C 
BRANCH  11  12
ATOM     12  C   UNL     1     -18.809  42.938  -3.578  1.00  0.00     0.041 C 
ATOM     13  O   UNL     1     -18.993  44.175  -3.721  1.00  0.00    -0.550 OA
ATOM     14  O   UNL     1     -19.470  42.256  -2.564  1.00  0.00    -0.550 OA
ENDBRANCH  11  12
ENDBRANCH  10  11
ENDBRANCH   9  10
ENDBRANCH   8   9
ENDBRANCH   1   8
TORSDOF 9
ENDMDL
MODEL 2
REMARK VINA RESULT:    -3.844      0.585      5.993
REMARK INTER + INTRA:          -6.313
REMARK INTER:                  -5.854
REMARK INTRA:                  -0.459
REMARK UNBOUND:                -0.447
REMARK SMILES O=C([O-])CCCCCCCCC(=O)[O-]
REMARK SMILES IDX 7 1 6 2 5 3 4 4 2 5 1 6 3 7 8 8 9 9 10 10 11 11 12 12 13 13
REMARK SMILES IDX 14 14
REMARK H PARENT
REMARK Flexibility Score: inf
ROOT
ATOM      1  C   UNL     1     -15.727  44.158  -7.017  1.00  0.00     0.000 C 
ENDROOT
BRANCH   1   2
ATOM      2  C   UNL     1     -16.128  43.375  -5.754  1.00  0.00     0.000 C 
BRANCH   2   3
ATOM      3  C   UNL     1     -17.641  43.129  -5.659  1.00  0.00     0.006 C 
BRANCH   3   4
ATOM      4  C   UNL     1     -17.975  42.221  -4.472  1.00  0.00     0.053 C 
BRANCH   4   5
ATOM      5  C   UNL     1     -18.865  42.932  -3.503  1.00  0.00     0.041 C 
ATOM      6  O   UNL     1     -19.468  42.286  -2.606  1.00  0.00    -0.550 OA
ATOM      7  O   UNL     1     -19.067  44.302  -3.620  1.00  0.00    -0.550 OA
ENDBRANCH   4   5
ENDBRANCH   3   4
ENDBRANCH   2   3
ENDBRANCH   1   2
BRANCH   1   8
ATOM      8  C   UNL     1     -16.757  44.114  -8.164  1.00  0.00     0.000 C 
BRANCH   8   9
ATOM      9  C   UNL     1     -17.373  45.477  -8.543  1.00  0.00     0.000 C 
BRANCH   9  10
ATOM     10  C   UNL     1     -17.732  45.638 -10.034  1.00  0.00     0.006 C 
BRANCH  10  11
ATOM     11  C   UNL     1     -18.161  44.335 -10.727  1.00  0.00     0.053 C 
BRANCH  11  12
ATOM     12  C   UNL     1     -19.581  43.976 -10.417  1.00  0.00     0.041 C 
ATOM     13  O   UNL     1     -19.840  42.957  -9.724  1.00  0.00    -0.550 OA
ATOM     14  O   UNL     1     -20.618  44.786 -10.864  1.00  0.00    -0.550 OA
ENDBRANCH  11  12
ENDBRANCH  10  11
ENDBRANCH   9  10
ENDBRANCH   8   9
ENDBRANCH   1   8
TORSDOF 9
ENDMDL
MODEL 3
REMARK VINA RESULT:    -3.806      1.773      2.189
REMARK INTER + INTRA:          -6.255
REMARK INTER:                  -5.657
REMARK INTRA:                  -0.598
REMARK UNBOUND:                -0.447
REMARK SMILES O=C([O-])CCCCCCCCC(=O)[O-]
REMARK SMILES IDX 7 1 6 2 5 3 4 4 2 5 1 6 3 7 8 8 9 9 10 10 11 11 12 12 13 13
REMARK SMILES IDX 14 14
REMARK H PARENT
REMARK Flexibility Score: inf
ROOT
ATOM      1  C   UNL     1     -17.775  44.662  -7.730  1.00  0.00     0.000 C 
ENDROOT
BRANCH   1   2
ATOM      2  C   UNL     1     -19.204  44.593  -8.297  1.00  0.00     0.000 C 
BRANCH   2   3
ATOM      3  C   UNL     1     -19.235  44.350  -9.813  1.00  0.00     0.006 C 
BRANCH   3   4
ATOM      4  C   UNL     1     -19.361  42.856 -10.126  1.00  0.00     0.053 C 
BRANCH   4   5
ATOM      5  C   UNL     1     -18.057  42.311 -10.614  1.00  0.00     0.041 C 
ATOM      6  O   UNL     1     -17.939  41.083 -10.868  1.00  0.00    -0.550 OA
ATOM      7  O   UNL     1     -16.957  43.150 -10.743  1.00  0.00    -0.550 OA
ENDBRANCH   4   5
ENDBRANCH   3   4
ENDBRANCH   2   3
ENDBRANCH   1   2
BRANCH   1   8
ATOM      8  C   UNL     1     -17.320  43.408  -6.957  1.00  0.00     0.000 C 
BRANCH   8   9
ATOM      9  C   UNL     1     -16.214  43.650  -5.909  1.00  0.00     0.000 C 
BRANCH   9  10
ATOM     10  C   UNL     1     -16.500  43.059  -4.513  1.00  0.00     0.006 C 
BRANCH  10  11
ATOM     11  C   UNL     1     -17.819  42.277  -4.412  1.00  0.00     0.053 C 
BRANCH  11  12
ATOM     12  C   UNL     1     -18.853  43.021  -3.625  1.00  0.00     0.041 C 
ATOM     13  O   UNL     1     -19.123  44.218  -3.906  1.00  0.00    -0.550 OA
ATOM     14  O   UNL     1     -19.542  42.381  -2.602  1.00  0.00    -0.550 OA
ENDBRANCH  11  12
ENDBRANCH  10  11
ENDBRANCH   9  10
ENDBRANCH   8   9
ENDBRANCH   1   8
TORSDOF 9
ENDMDL
MODEL 4
REMARK VINA RESULT:    -3.748      1.701      2.039
REMARK INTER + INTRA:          -6.167
REMARK INTER:                  -5.466
REMARK INTRA:                  -0.700
REMARK UNBOUND:                -0.447
REMARK SMILES O=C([O-])CCCCCCCCC(=O)[O-]
REMARK SMILES IDX 7 1 6 2 5 3 4 4 2 5 1 6 3 7 8 8 9 9 10 10 11 11 12 12 13 13
REMARK SMILES IDX 14 14
REMARK H PARENT
REMARK Flexibility Score: inf
ROOT
ATOM      1  C   UNL     1     -18.261  43.833  -7.427  1.00  0.00     0.000 C 
ENDROOT
BRANCH   1   2
ATOM      2  C   UNL     1     -18.843  43.508  -8.814  1.00  0.00     0.000 C 
BRANCH   2   3
ATOM      3  C   UNL     1     -17.760  43.197  -9.858  1.00  0.00     0.006 C 
BRANCH   3   4
ATOM      4  C   UNL     1     -17.964  44.032 -11.125  1.00  0.00     0.053 C 
BRANCH   4   5
ATOM      5  C   UNL     1     -17.783  45.487 -10.828  1.00  0.00     0.041 C 
ATOM      6  O   UNL     1     -16.692  45.907 -10.359  1.00  0.00    -0.550 OA
ATOM      7  O   UNL     1     -18.835  46.373 -11.022  1.00  0.00    -0.550 OA
ENDBRANCH   4   5
ENDBRANCH   3   4
ENDBRANCH   2   3
ENDBRANCH   1   2
BRANCH   1   8
ATOM      8  C   UNL     1     -16.721  43.855  -7.356  1.00  0.00     0.000 C 
BRANCH   8   9
ATOM      9  C   UNL     1     -16.127  43.623  -5.951  1.00  0.00     0.000 C 
BRANCH   9  10
ATOM     10  C   UNL     1     -16.866  42.573  -5.096  1.00  0.00     0.006 C 
BRANCH  10  11
ATOM     11  C   UNL     1     -17.247  43.058  -3.688  1.00  0.00     0.053 C 
BRANCH  11  12
ATOM     12  C   UNL     1     -18.723  43.268  -3.548  1.00  0.00     0.041 C 
ATOM     13  O   UNL     1     -19.270  44.278  -4.065  1.00  0.00    -0.550 OA
ATOM     14  O   UNL     1     -19.500  42.332  -2.877  1.00  0.00    -0.550 OA
ENDBRANCH  11  12
ENDBRANCH  10  11
ENDBRANCH   9  10
ENDBRANCH   8   9
ENDBRANCH   1   8
TORSDOF 9
ENDMDL
MODEL 5
REMARK VINA RESULT:    -3.708      1.709      6.099
REMARK INTER + INTRA:          -6.106
REMARK INTER:                  -5.599
REMARK INTRA:                  -0.508
REMARK UNBOUND:                -0.447
REMARK SMILES O=C([O-])CCCCCCCCC(=O)[O-]
REMARK SMILES IDX 7 1 6 2 5 3 4 4 2 5 1 6 3 7 8 8 9 9 10 10 11 11 12 12 13 13
REMARK SMILES IDX 14 14
REMARK H PARENT
REMARK Flexibility Score: inf
ROOT
ATOM      1  C   UNL     1     -17.630  43.362  -6.971  1.00  0.00     0.000 C 
ENDROOT
BRANCH   1   2
ATOM      2  C   UNL     1     -16.355  43.572  -6.135  1.00  0.00     0.000 C 
BRANCH   2   3
ATOM      3  C   UNL     1     -16.565  43.282  -4.642  1.00  0.00     0.006 C 
BRANCH   3   4
ATOM      4  C   UNL     1     -17.744  42.328  -4.429  1.00  0.00     0.053 C 
BRANCH   4   5
ATOM      5  C   UNL     1     -18.809  42.985  -3.611  1.00  0.00     0.041 C 
ATOM      6  O   UNL     1     -19.088  44.200  -3.793  1.00  0.00    -0.550 OA
ATOM      7  O   UNL     1     -19.460  42.270  -2.613  1.00  0.00    -0.550 OA
ENDBRANCH   4   5
ENDBRANCH   3   4
ENDBRANCH   2   3
ENDBRANCH   1   2
BRANCH   1   8
ATOM      8  C   UNL     1     -18.118  44.609  -7.736  1.00  0.00     0.000 C 
BRANCH   8   9
ATOM      9  C   UNL     1     -19.537  44.498  -8.331  1.00  0.00     0.000 C 
BRANCH   9  10
ATOM     10  C   UNL     1     -19.653  43.597  -9.577  1.00  0.00     0.006 C 
BRANCH  10  11
ATOM     11  C   UNL     1     -18.608  43.885 -10.668  1.00  0.00     0.053 C 
BRANCH  11  12
ATOM     12  C   UNL     1     -17.612  42.774 -10.796  1.00  0.00     0.041 C 
ATOM     13  O   UNL     1     -16.393  43.034 -10.976  1.00  0.00    -0.550 OA
ATOM     14  O   UNL     1     -18.024  41.452 -10.683  1.00  0.00    -0.550 OA
ENDBRANCH  11  12
ENDBRANCH  10  11
ENDBRANCH   9  10
ENDBRANCH   8   9
ENDBRANCH   1   8
TORSDOF 9
ENDMDL
MODEL 6
REMARK VINA RESULT:    -3.677      2.102      2.856
REMARK INTER + INTRA:          -6.059
REMARK INTER:                  -5.296
REMARK INTRA:                  -0.762
REMARK UNBOUND:                -0.447
REMARK SMILES O=C([O-])CCCCCCCCC(=O)[O-]
REMARK SMILES IDX 7 1 6 2 5 3 4 4 2 5 1 6 3 7 8 8 9 9 10 10 11 11 12 12 13 13
REMARK SMILES IDX 14 14
REMARK H PARENT
REMARK Flexibility Score: inf
ROOT
ATOM      1  C   UNL     1     -19.498  44.388  -8.319  1.00  0.00     0.000 C 
ENDROOT
BRANCH   1   2
ATOM      2  C   UNL     1     -19.049  43.216  -9.209  1.00  0.00     0.000 C 
BRANCH   2   3
ATOM      3  C   UNL     1     -18.404  43.678 -10.524  1.00  0.00     0.006 C 
BRANCH   3   4
ATOM      4  C   UNL     1     -16.902  43.380 -10.532  1.00  0.00     0.053 C 
BRANCH   4   5
ATOM      5  C   UNL     1     -16.131  44.563 -10.039  1.00  0.00     0.041 C 
ATOM      6  O   UNL     1     -14.971  44.413  -9.571  1.00  0.00    -0.550 OA
ATOM      7  O   UNL     1     -16.711  45.825 -10.050  1.00  0.00    -0.550 OA
ENDBRANCH   4   5
ENDBRANCH   3   4
ENDBRANCH   2   3
ENDBRANCH   1   2
BRANCH   1   8
ATOM      8  C   UNL     1     -18.742  44.516  -6.981  1.00  0.00     0.000 C 
BRANCH   8   9
ATOM      9  C   UNL     1     -17.552  43.550  -6.807  1.00  0.00     0.000 C 
BRANCH   9  10
ATOM     10  C   UNL     1     -17.120  43.304  -5.347  1.00  0.00     0.006 C 
BRANCH  10  11
ATOM     11  C   UNL     1     -17.959  42.250  -4.606  1.00  0.00     0.053 C 
BRANCH  11  12
ATOM     12  C   UNL     1     -18.809  42.861  -3.536  1.00  0.00     0.041 C 
ATOM     13  O   UNL     1     -19.467  42.126  -2.753  1.00  0.00    -0.550 OA
ATOM     14  O   UNL     1     -18.848  44.241  -3.380  1.00  0.00    -0.550 OA
ENDBRANCH  11  12
ENDBRANCH  10  11
ENDBRANCH   9  10
ENDBRANCH   8   9
ENDBRANCH   1   8
TORSDOF 9
ENDMDL
MODEL 7
REMARK VINA RESULT:    -3.592      2.161      6.092
REMARK INTER + INTRA:          -5.930
REMARK INTER:                  -5.180
REMARK INTRA:                  -0.750
REMARK UNBOUND:                -0.447
REMARK SMILES O=C([O-])CCCCCCCCC(=O)[O-]
REMARK SMILES IDX 7 1 6 2 5 3 4 4 2 5 1 6 3 7 8 8 9 9 10 10 11 11 12 12 13 13
REMARK SMILES IDX 14 14
REMARK H PARENT
REMARK Flexibility Score: inf
ROOT
ATOM      1  C   UNL     1     -18.772  44.483  -6.896  1.00  0.00     0.000 C 
ENDROOT
BRANCH   1   2
ATOM      2  C   UNL     1     -17.733  43.365  -6.696  1.00  0.00     0.000 C 
BRANCH   2   3
ATOM      3  C   UNL     1     -17.176  43.316  -5.266  1.00  0.00     0.006 C 
BRANCH   3   4
ATOM      4  C   UNL     1     -17.913  42.269  -4.426  1.00  0.00     0.053 C 
BRANCH   4   5
ATOM      5  C   UNL     1     -18.743  42.933  -3.374  1.00  0.00     0.041 C 
ATOM      6  O   UNL     1     -18.742  44.188  -3.264  1.00  0.00    -0.550 OA
ATOM      7  O   UNL     1     -19.481  42.165  -2.482  1.00  0.00    -0.550 OA
ENDBRANCH   4   5
ENDBRANCH   3   4
ENDBRANCH   2   3
ENDBRANCH   1   2
BRANCH   1   8
ATOM      8  C   UNL     1     -19.539  44.427  -8.233  1.00  0.00     0.000 C 
BRANCH   8   9
ATOM      9  C   UNL     1     -19.025  43.377  -9.239  1.00  0.00     0.000 C 
BRANCH   9  10
ATOM     10  C   UNL     1     -18.173  43.942 -10.394  1.00  0.00     0.006 C 
BRANCH  10  11
ATOM     11  C   UNL     1     -16.678  43.599 -10.307  1.00  0.00     0.053 C 
BRANCH  11  12
ATOM     12  C   UNL     1     -15.905  44.645  -9.566  1.00  0.00     0.041 C 
ATOM     13  O   UNL     1     -14.772  44.375  -9.087  1.00  0.00    -0.550 OA
ATOM     14  O   UNL     1     -16.420  45.928  -9.433  1.00  0.00    -0.550 OA
ENDBRANCH  11  12
ENDBRANCH  10  11
ENDBRANCH   9  10
ENDBRANCH   8   9
ENDBRANCH   1   8
TORSDOF 9
ENDMDL
MODEL 8
REMARK VINA RESULT:    -3.563      2.473      3.181
REMARK INTER + INTRA:          -5.885
REMARK INTER:                  -4.994
REMARK INTRA:                  -0.890
REMARK UNBOUND:                -0.447
REMARK SMILES O=C([O-])CCCCCCCCC(=O)[O-]
REMARK SMILES IDX 7 1 6 2 5 3 4 4 2 5 1 6 3 7 8 8 9 9 10 10 11 11 12 12 13 13
REMARK SMILES IDX 14 14
REMARK H PARENT
REMARK Flexibility Score: inf
ROOT
ATOM      1  C   UNL     1     -19.010  42.859  -9.217  1.00  0.00     0.000 C 
ENDROOT
BRANCH   1   2
ATOM      2  C   UNL     1     -17.989  42.694 -10.357  1.00  0.00     0.000 C 
BRANCH   2   3
ATOM      3  C   UNL     1     -17.362  44.026 -10.794  1.00  0.00     0.006 C 
BRANCH   3   4
ATOM      4  C   UNL     1     -15.844  44.008 -10.595  1.00  0.00     0.053 C 
BRANCH   4   5
ATOM      5  C   UNL     1     -15.464  44.823  -9.399  1.00  0.00     0.041 C 
ATOM      6  O   UNL     1     -16.052  45.911  -9.160  1.00  0.00    -0.550 OA
ATOM      7  O   UNL     1     -14.426  44.405  -8.574  1.00  0.00    -0.550 OA
ENDBRANCH   4   5
ENDBRANCH   3   4
ENDBRANCH   2   3
ENDBRANCH   1   2
BRANCH   1   8
ATOM      8  C   UNL     1     -19.206  44.307  -8.724  1.00  0.00     0.000 C 
BRANCH   8   9
ATOM      9  C   UNL     1     -18.879  44.542  -7.235  1.00  0.00     0.000 C 
BRANCH   9  10
ATOM     10  C   UNL     1     -17.693  43.720  -6.691  1.00  0.00     0.006 C 
BRANCH  10  11
ATOM     11  C   UNL     1     -18.057  42.769  -5.540  1.00  0.00     0.053 C 
BRANCH  11  12
ATOM     12  C   UNL     1     -17.780  43.378  -4.200  1.00  0.00     0.041 C 
ATOM     13  O   UNL     1     -16.618  43.342  -3.716  1.00  0.00    -0.550 OA
ATOM     14  O   UNL     1     -18.797  44.016  -3.502  1.00  0.00    -0.550 OA
ENDBRANCH  11  12
ENDBRANCH  10  11
ENDBRANCH   9  10
ENDBRANCH   8   9
ENDBRANCH   1   8
TORSDOF 9
ENDMDL
MODEL 9
REMARK VINA RESULT:    -3.507      2.607      5.728
REMARK INTER + INTRA:          -5.799
REMARK INTER:                  -5.053
REMARK INTRA:                  -0.746
REMARK UNBOUND:                -0.447
REMARK SMILES O=C([O-])CCCCCCCCC(=O)[O-]
REMARK SMILES IDX 7 1 6 2 5 3 4 4 2 5 1 6 3 7 8 8 9 9 10 10 11 11 12 12 13 13
REMARK SMILES IDX 14 14
REMARK H PARENT
REMARK Flexibility Score: inf
ROOT
ATOM      1  C   UNL     1     -19.593  44.204  -8.407  1.00  0.00     0.000 C 
ENDROOT
BRANCH   1   2
ATOM      2  C   UNL     1     -19.140  44.865  -7.093  1.00  0.00     0.000 C 
BRANCH   2   3
ATOM      3  C   UNL     1     -18.524  43.866  -6.103  1.00  0.00     0.006 C 
BRANCH   3   4
ATOM      4  C   UNL     1     -19.073  44.085  -4.690  1.00  0.00     0.053 C 
BRANCH   4   5
ATOM      5  C   UNL     1     -18.509  43.071  -3.746  1.00  0.00     0.041 C 
ATOM      6  O   UNL     1     -19.277  42.396  -3.010  1.00  0.00    -0.550 OA
ATOM      7  O   UNL     1     -17.134  42.906  -3.642  1.00  0.00    -0.550 OA
ENDBRANCH   4   5
ENDBRANCH   3   4
ENDBRANCH   2   3
ENDBRANCH   1   2
BRANCH   1   8
ATOM      8  C   UNL     1     -18.588  43.202  -9.011  1.00  0.00     0.000 C 
BRANCH   8   9
ATOM      9  C   UNL     1     -17.853  43.693 -10.275  1.00  0.00     0.000 C 
BRANCH   9  10
ATOM     10  C   UNL     1     -16.361  44.028 -10.073  1.00  0.00     0.006 C 
BRANCH  10  11
ATOM     11  C   UNL     1     -16.102  45.342  -9.320  1.00  0.00     0.053 C 
BRANCH  11  12
ATOM     12  C   UNL     1     -15.366  45.116  -8.035  1.00  0.00     0.041 C 
ATOM     13  O   UNL     1     -15.376  43.981  -7.491  1.00  0.00    -0.550 OA
ATOM     14  O   UNL     1     -14.643  46.151  -7.455  1.00  0.00    -0.550 OA
ENDBRANCH  11  12
ENDBRANCH  10  11
ENDBRANCH   9  10
ENDBRANCH   8   9
ENDBRANCH   1   8
TORSDOF 9
ENDMDL
