MODEL 1
REMARK VINA RESULT:    -5.036      0.000      0.000
REMARK INTER + INTRA:          -5.472
REMARK INTER:                  -5.330
REMARK INTRA:                  -0.142
REMARK UNBOUND:                -0.142
REMARK SMILES CC1=CCC(C(C)C)=CC1
REMARK SMILES IDX 1 1 2 2 3 3 4 4 5 5 9 6 10 7 6 8 7 9 8 10
REMARK H PARENT
REMARK Flexibility Score: inf
ROOT
ATOM      1  C   UNL     1     139.786 146.118 164.884  1.00  0.00     0.039 C 
ATOM      2  C   UNL     1     140.545 146.398 163.618  1.00  0.00    -0.073 C 
ATOM      3  C   UNL     1     141.467 147.379 163.589  1.00  0.00    -0.023 C 
ATOM      4  C   UNL     1     142.266 147.646 162.338  1.00  0.00     0.058 C 
ATOM      5  C   UNL     1     141.447 147.359 161.089  1.00  0.00    -0.068 C 
ATOM      6  C   UNL     1     140.522 146.376 161.126  1.00  0.00    -0.023 C 
ATOM      7  C   UNL     1     140.303 145.563 162.378  1.00  0.00     0.057 C 
ENDROOT
BRANCH   5   8
ATOM      8  C   UNL     1     141.641 148.177 159.823  1.00  0.00     0.009 C 
ATOM      9  C   UNL     1     142.960 148.957 159.878  1.00  0.00     0.012 C 
ATOM     10  C   UNL     1     141.576 147.293 158.572  1.00  0.00     0.012 C 
ENDBRANCH   5   8
TORSDOF 1
ENDMDL
MODEL 2
REMARK VINA RESULT:    -5.027      5.905      6.617
REMARK INTER + INTRA:          -5.463
REMARK INTER:                  -5.321
REMARK INTRA:                  -0.142
REMARK UNBOUND:                -0.142
REMARK SMILES CC1=CCC(C(C)C)=CC1
REMARK SMILES IDX 1 1 2 2 3 3 4 4 5 5 9 6 10 7 6 8 7 9 8 10
REMARK H PARENT
REMARK Flexibility Score: inf
ROOT
ATOM      1  C   UNL     1     146.120 150.988 164.882  1.00  0.00     0.039 C 
ATOM      2  C   UNL     1     146.403 150.223 163.620  1.00  0.00    -0.073 C 
ATOM      3  C   UNL     1     147.395 149.312 163.594  1.00  0.00    -0.023 C 
ATOM      4  C   UNL     1     147.666 148.507 162.348  1.00  0.00     0.058 C 
ATOM      5  C   UNL     1     147.363 149.312 161.094  1.00  0.00    -0.068 C 
ATOM      6  C   UNL     1     146.368 150.225 161.129  1.00  0.00    -0.023 C 
ATOM      7  C   UNL     1     145.559 150.444 162.383  1.00  0.00     0.057 C 
ENDROOT
BRANCH   5   8
ATOM      8  C   UNL     1     148.177 149.118 159.825  1.00  0.00     0.009 C 
ATOM      9  C   UNL     1     148.946 147.793 159.871  1.00  0.00     0.012 C 
ATOM     10  C   UNL     1     147.291 149.197 158.577  1.00  0.00     0.012 C 
ENDBRANCH   5   8
TORSDOF 1
ENDMDL
MODEL 3
REMARK VINA RESULT:    -5.023      5.940      6.645
REMARK INTER + INTRA:          -5.459
REMARK INTER:                  -5.318
REMARK INTRA:                  -0.141
REMARK UNBOUND:                -0.142
REMARK SMILES CC1=CCC(C(C)C)=CC1
REMARK SMILES IDX 1 1 2 2 3 3 4 4 5 5 9 6 10 7 6 8 7 9 8 10
REMARK H PARENT
REMARK Flexibility Score: inf
ROOT
ATOM      1  C   UNL     1     144.808 139.765 164.910  1.00  0.00     0.039 C 
ATOM      2  C   UNL     1     144.456 140.550 163.678  1.00  0.00    -0.073 C 
ATOM      3  C   UNL     1     143.384 141.365 163.683  1.00  0.00    -0.023 C 
ATOM      4  C   UNL     1     143.039 142.190 162.469  1.00  0.00     0.058 C 
ATOM      5  C   UNL     1     143.416 141.466 161.186  1.00  0.00    -0.068 C 
ATOM      6  C   UNL     1     144.491 140.649 161.189  1.00  0.00    -0.023 C 
ATOM      7  C   UNL     1     145.317 140.457 162.437  1.00  0.00     0.057 C 
ENDROOT
BRANCH   5   8
ATOM      8  C   UNL     1     142.588 141.634 159.922  1.00  0.00     0.009 C 
ATOM      9  C   UNL     1     141.841 142.972 159.937  1.00  0.00     0.012 C 
ATOM     10  C   UNL     1     143.456 141.501 158.665  1.00  0.00     0.012 C 
ENDBRANCH   5   8
TORSDOF 1
ENDMDL
MODEL 4
REMARK VINA RESULT:    -5.023      8.579      9.372
REMARK INTER + INTRA:          -5.459
REMARK INTER:                  -5.316
REMARK INTRA:                  -0.142
REMARK UNBOUND:                -0.142
REMARK SMILES CC1=CCC(C(C)C)=CC1
REMARK SMILES IDX 1 1 2 2 3 3 4 4 5 5 9 6 10 7 6 8 7 9 8 10
REMARK H PARENT
REMARK Flexibility Score: inf
ROOT
ATOM      1  C   UNL     1     150.996 144.617 164.881  1.00  0.00     0.039 C 
ATOM      2  C   UNL     1     150.236 144.345 163.614  1.00  0.00    -0.073 C 
ATOM      3  C   UNL     1     149.304 143.373 163.584  1.00  0.00    -0.023 C 
ATOM      4  C   UNL     1     148.504 143.113 162.332  1.00  0.00     0.058 C 
ATOM      5  C   UNL     1     149.327 143.392 161.084  1.00  0.00    -0.068 C 
ATOM      6  C   UNL     1     150.262 144.366 161.122  1.00  0.00    -0.023 C 
ATOM      7  C   UNL     1     150.487 145.177 162.375  1.00  0.00     0.057 C 
ENDROOT
BRANCH   5   8
ATOM      8  C   UNL     1     149.126 142.576 159.818  1.00  0.00     0.009 C 
ATOM      9  C   UNL     1     147.799 141.812 159.870  1.00  0.00     0.012 C 
ATOM     10  C   UNL     1     149.204 143.460 158.567  1.00  0.00     0.012 C 
ENDBRANCH   5   8
TORSDOF 1
ENDMDL
MODEL 5
REMARK VINA RESULT:    -4.871      0.975      4.465
REMARK INTER + INTRA:          -5.298
REMARK INTER:                  -5.129
REMARK INTRA:                  -0.169
REMARK UNBOUND:                -0.142
REMARK SMILES CC1=CCC(C(C)C)=CC1
REMARK SMILES IDX 1 1 2 2 3 3 4 4 5 5 9 6 10 7 6 8 7 9 8 10
REMARK H PARENT
REMARK Flexibility Score: inf
ROOT
ATOM      1  C   UNL     1     141.378 147.638 159.164  1.00  0.00     0.039 C 
ATOM      2  C   UNL     1     141.463 147.152 160.583  1.00  0.00    -0.073 C 
ATOM      3  C   UNL     1     140.505 146.344 161.075  1.00  0.00    -0.023 C 
ATOM      4  C   UNL     1     140.595 145.815 162.485  1.00  0.00     0.058 C 
ATOM      5  C   UNL     1     141.267 146.819 163.409  1.00  0.00    -0.068 C 
ATOM      6  C   UNL     1     142.225 147.628 162.907  1.00  0.00    -0.023 C 
ATOM      7  C   UNL     1     142.636 147.539 161.458  1.00  0.00     0.057 C 
ENDROOT
BRANCH   5   8
ATOM      8  C   UNL     1     140.857 146.934 164.868  1.00  0.00     0.009 C 
ATOM      9  C   UNL     1     140.226 148.303 165.147  1.00  0.00     0.012 C 
ATOM     10  C   UNL     1     139.909 145.798 165.272  1.00  0.00     0.012 C 
ENDBRANCH   5   8
TORSDOF 1
ENDMDL
MODEL 6
REMARK VINA RESULT:    -4.842      8.602      9.937
REMARK INTER + INTRA:          -5.267
REMARK INTER:                  -5.101
REMARK INTRA:                  -0.166
REMARK UNBOUND:                -0.142
REMARK SMILES CC1=CCC(C(C)C)=CC1
REMARK SMILES IDX 1 1 2 2 3 3 4 4 5 5 9 6 10 7 6 8 7 9 8 10
REMARK H PARENT
REMARK Flexibility Score: inf
ROOT
ATOM      1  C   UNL     1     149.243 143.098 159.162  1.00  0.00     0.039 C 
ATOM      2  C   UNL     1     149.218 143.594 160.580  1.00  0.00    -0.073 C 
ATOM      3  C   UNL     1     150.244 144.324 161.056  1.00  0.00    -0.023 C 
ATOM      4  C   UNL     1     150.217 144.863 162.465  1.00  0.00     0.058 C 
ATOM      5  C   UNL     1     149.479 143.919 163.402  1.00  0.00    -0.068 C 
ATOM      6  C   UNL     1     148.453 143.187 162.917  1.00  0.00    -0.023 C 
ATOM      7  C   UNL     1     148.030 143.304 161.473  1.00  0.00     0.057 C 
ENDROOT
BRANCH   5   8
ATOM      8  C   UNL     1     149.900 143.775 164.855  1.00  0.00     0.009 C 
ATOM      9  C   UNL     1     150.611 142.437 165.085  1.00  0.00     0.012 C 
ATOM     10  C   UNL     1     150.780 144.950 165.300  1.00  0.00     0.012 C 
ENDBRANCH   5   8
TORSDOF 1
ENDMDL
MODEL 7
REMARK VINA RESULT:    -4.822      5.987      7.533
REMARK INTER + INTRA:          -5.246
REMARK INTER:                  -5.080
REMARK INTRA:                  -0.166
REMARK UNBOUND:                -0.142
REMARK SMILES CC1=CCC(C(C)C)=CC1
REMARK SMILES IDX 1 1 2 2 3 3 4 4 5 5 9 6 10 7 6 8 7 9 8 10
REMARK H PARENT
REMARK Flexibility Score: inf
ROOT
ATOM      1  C   UNL     1     147.729 149.147 159.192  1.00  0.00     0.039 C 
ATOM      2  C   UNL     1     147.210 149.126 160.602  1.00  0.00    -0.073 C 
ATOM      3  C   UNL     1     146.471 150.154 161.062  1.00  0.00    -0.023 C 
ATOM      4  C   UNL     1     145.909 150.131 162.461  1.00  0.00     0.058 C 
ATOM      5  C   UNL     1     146.837 149.398 163.416  1.00  0.00    -0.068 C 
ATOM      6  C   UNL     1     147.578 148.370 162.948  1.00  0.00    -0.023 C 
ATOM      7  C   UNL     1     147.485 147.942 161.504  1.00  0.00     0.057 C 
ENDROOT
BRANCH   5   8
ATOM      8  C   UNL     1     146.956 149.824 164.871  1.00  0.00     0.009 C 
ATOM      9  C   UNL     1     148.302 150.511 165.127  1.00  0.00     0.012 C 
ATOM     10  C   UNL     1     145.790 150.729 165.284  1.00  0.00     0.012 C 
ENDBRANCH   5   8
TORSDOF 1
ENDMDL
MODEL 8
REMARK VINA RESULT:    -4.796      5.993      7.814
REMARK INTER + INTRA:          -5.219
REMARK INTER:                  -5.050
REMARK INTRA:                  -0.168
REMARK UNBOUND:                -0.142
REMARK SMILES CC1=CCC(C(C)C)=CC1
REMARK SMILES IDX 1 1 2 2 3 3 4 4 5 5 9 6 10 7 6 8 7 9 8 10
REMARK H PARENT
REMARK Flexibility Score: inf
ROOT
ATOM      1  C   UNL     1     142.854 141.594 159.279  1.00  0.00     0.039 C 
ATOM      2  C   UNL     1     143.420 141.596 160.671  1.00  0.00    -0.073 C 
ATOM      3  C   UNL     1     144.177 140.565 161.091  1.00  0.00    -0.023 C 
ATOM      4  C   UNL     1     144.786 140.570 162.471  1.00  0.00     0.058 C 
ATOM      5  C   UNL     1     143.888 141.287 163.467  1.00  0.00    -0.068 C 
ATOM      6  C   UNL     1     143.129 142.319 163.037  1.00  0.00    -0.023 C 
ATOM      7  C   UNL     1     143.172 142.767 161.598  1.00  0.00     0.057 C 
ENDROOT
BRANCH   5   8
ATOM      8  C   UNL     1     143.819 140.841 164.918  1.00  0.00     0.009 C 
ATOM      9  C   UNL     1     142.443 140.247 165.239  1.00  0.00     0.012 C 
ATOM     10  C   UNL     1     144.938 139.847 165.249  1.00  0.00     0.012 C 
ENDBRANCH   5   8
TORSDOF 1
ENDMDL
MODEL 9
REMARK VINA RESULT:    -4.778      3.072      4.416
REMARK INTER + INTRA:          -5.200
REMARK INTER:                  -5.021
REMARK INTRA:                  -0.179
REMARK UNBOUND:                -0.142
REMARK SMILES CC1=CCC(C(C)C)=CC1
REMARK SMILES IDX 1 1 2 2 3 3 4 4 5 5 9 6 10 7 6 8 7 9 8 10
REMARK H PARENT
REMARK Flexibility Score: inf
ROOT
ATOM      1  C   UNL     1     140.703 147.090 163.913  1.00  0.00     0.039 C 
ATOM      2  C   UNL     1     142.171 147.401 163.838  1.00  0.00    -0.073 C 
ATOM      3  C   UNL     1     142.893 147.518 164.969  1.00  0.00    -0.023 C 
ATOM      4  C   UNL     1     144.375 147.790 164.910  1.00  0.00     0.058 C 
ATOM      5  C   UNL     1     144.731 148.652 163.709  1.00  0.00    -0.068 C 
ATOM      6  C   UNL     1     144.001 148.531 162.579  1.00  0.00    -0.023 C 
ATOM      7  C   UNL     1     142.856 147.552 162.496  1.00  0.00     0.057 C 
ENDROOT
BRANCH   5   8
ATOM      8  C   UNL     1     145.871 149.655 163.778  1.00  0.00     0.009 C 
ATOM      9  C   UNL     1     145.817 150.620 162.588  1.00  0.00     0.012 C 
ATOM     10  C   UNL     1     145.861 150.419 165.107  1.00  0.00     0.012 C 
ENDBRANCH   5   8
TORSDOF 1
ENDMDL
