MODEL 1
REMARK VINA RESULT:    -4.208      0.000      0.000
REMARK INTER + INTRA:          -4.957
REMARK INTER:                  -4.701
REMARK INTRA:                  -0.257
REMARK UNBOUND:                -0.257
REMARK SMILES CC=C(C)C=CC=C(C)C
REMARK SMILES IDX 5 1 6 2 3 3 1 4 2 5 4 6 7 7 8 8 9 9 10 10
REMARK H PARENT
REMARK Flexibility Score: inf
ROOT
ATOM      1  C   UNL     1     133.459 132.870 135.547  1.00  0.00     0.003 C 
ATOM      2  C   UNL     1     134.740 132.765 135.178  1.00  0.00     0.000 C 
ENDROOT
BRANCH   1   3
ATOM      3  C   UNL     1     132.981 133.822 136.585  1.00  0.00    -0.055 C 
ATOM      4  C   UNL     1     133.336 134.837 138.857  1.00  0.00     0.036 C 
ATOM      5  C   UNL     1     133.663 133.887 137.744  1.00  0.00    -0.027 C 
ATOM      6  C   UNL     1     131.803 134.730 136.306  1.00  0.00     0.044 C 
ENDBRANCH   1   3
BRANCH   2   7
ATOM      7  C   UNL     1     135.149 131.789 134.143  1.00  0.00    -0.001 C 
ATOM      8  C   UNL     1     135.306 132.097 132.842  1.00  0.00    -0.076 C 
ATOM      9  C   UNL     1     135.071 133.491 132.317  1.00  0.00     0.039 C 
ATOM     10  C   UNL     1     135.725 131.009 131.892  1.00  0.00     0.039 C 
ENDBRANCH   2   7
TORSDOF 2
ENDMDL
MODEL 2
REMARK VINA RESULT:    -4.190      5.211      5.969
REMARK INTER + INTRA:          -4.937
REMARK INTER:                  -4.672
REMARK INTRA:                  -0.264
REMARK UNBOUND:                -0.257
REMARK SMILES CC=C(C)C=CC=C(C)C
REMARK SMILES IDX 5 1 6 2 3 3 1 4 2 5 4 6 7 7 8 8 9 9 10 10
REMARK H PARENT
REMARK Flexibility Score: inf
ROOT
ATOM      1  C   UNL     1     132.844 139.165 135.607  1.00  0.00     0.003 C 
ATOM      2  C   UNL     1     132.851 137.917 135.125  1.00  0.00     0.000 C 
ENDROOT
BRANCH   1   3
ATOM      3  C   UNL     1     133.812 139.656 136.623  1.00  0.00    -0.055 C 
ATOM      4  C   UNL     1     134.878 139.320 138.875  1.00  0.00     0.036 C 
ATOM      5  C   UNL     1     133.908 138.979 137.783  1.00  0.00    -0.027 C 
ATOM      6  C   UNL     1     134.700 140.844 136.322  1.00  0.00     0.044 C 
ENDBRANCH   1   3
BRANCH   2   7
ATOM      7  C   UNL     1     131.853 137.490 134.119  1.00  0.00    -0.001 C 
ATOM      8  C   UNL     1     132.125 137.339 132.810  1.00  0.00    -0.076 C 
ATOM      9  C   UNL     1     133.498 137.597 132.244  1.00  0.00     0.039 C 
ATOM     10  C   UNL     1     131.016 136.900 131.893  1.00  0.00     0.039 C 
ENDBRANCH   2   7
TORSDOF 2
ENDMDL
MODEL 3
REMARK VINA RESULT:    -4.128      5.158      5.945
REMARK INTER + INTRA:          -4.867
REMARK INTER:                  -4.606
REMARK INTRA:                  -0.261
REMARK UNBOUND:                -0.257
REMARK SMILES CC=C(C)C=CC=C(C)C
REMARK SMILES IDX 5 1 6 2 3 3 1 4 2 5 4 6 7 7 8 8 9 9 10 10
REMARK H PARENT
REMARK Flexibility Score: inf
ROOT
ATOM      1  C   UNL     1     139.759 133.548 135.569  1.00  0.00     0.003 C 
ATOM      2  C   UNL     1     139.758 134.803 135.103  1.00  0.00     0.000 C 
ENDROOT
BRANCH   1   3
ATOM      3  C   UNL     1     138.788 133.049 136.577  1.00  0.00    -0.055 C 
ATOM      4  C   UNL     1     137.744 133.343 138.846  1.00  0.00     0.036 C 
ATOM      5  C   UNL     1     138.713 133.694 137.757  1.00  0.00    -0.027 C 
ATOM      6  C   UNL     1     137.872 131.890 136.249  1.00  0.00     0.044 C 
ENDBRANCH   1   3
BRANCH   2   7
ATOM      7  C   UNL     1     140.760 135.237 134.104  1.00  0.00    -0.001 C 
ATOM      8  C   UNL     1     140.513 135.326 132.784  1.00  0.00    -0.076 C 
ATOM      9  C   UNL     1     139.168 134.981 132.197  1.00  0.00     0.039 C 
ATOM     10  C   UNL     1     141.622 135.781 131.875  1.00  0.00     0.039 C 
ENDBRANCH   2   7
TORSDOF 2
ENDMDL
MODEL 4
REMARK VINA RESULT:    -4.107      7.452      8.362
REMARK INTER + INTRA:          -4.843
REMARK INTER:                  -4.579
REMARK INTRA:                  -0.264
REMARK UNBOUND:                -0.257
REMARK SMILES CC=C(C)C=CC=C(C)C
REMARK SMILES IDX 5 1 6 2 3 3 1 4 2 5 4 6 7 7 8 8 9 9 10 10
REMARK H PARENT
REMARK Flexibility Score: inf
ROOT
ATOM      1  C   UNL     1     139.073 139.742 135.537  1.00  0.00     0.003 C 
ATOM      2  C   UNL     1     137.790 139.940 135.214  1.00  0.00     0.000 C 
ENDROOT
BRANCH   1   3
ATOM      3  C   UNL     1     139.513 138.818 136.615  1.00  0.00    -0.055 C 
ATOM      4  C   UNL     1     139.153 137.955 138.949  1.00  0.00     0.036 C 
ATOM      5  C   UNL     1     138.861 138.863 137.792  1.00  0.00    -0.027 C 
ATOM      6  C   UNL     1     140.619 137.817 136.360  1.00  0.00     0.044 C 
ENDBRANCH   1   3
BRANCH   2   7
ATOM      7  C   UNL     1     137.420 140.882 134.135  1.00  0.00    -0.001 C 
ATOM      8  C   UNL     1     137.115 140.502 132.880  1.00  0.00    -0.076 C 
ATOM      9  C   UNL     1     137.125 139.055 132.458  1.00  0.00     0.039 C 
ATOM     10  C   UNL     1     136.756 141.563 131.876  1.00  0.00     0.039 C 
ENDBRANCH   2   7
TORSDOF 2
ENDMDL
MODEL 5
REMARK VINA RESULT:    -3.777      7.247      8.086
REMARK INTER + INTRA:          -4.475
REMARK INTER:                  -4.193
REMARK INTRA:                  -0.282
REMARK UNBOUND:                -0.257
REMARK SMILES CC=C(C)C=CC=C(C)C
REMARK SMILES IDX 5 1 6 2 3 3 1 4 2 5 4 6 7 7 8 8 9 9 10 10
REMARK H PARENT
REMARK Flexibility Score: inf
ROOT
ATOM      1  C   UNL     1     136.788 139.559 134.986  1.00  0.00     0.003 C 
ATOM      2  C   UNL     1     138.049 139.992 134.869  1.00  0.00     0.000 C 
ENDROOT
BRANCH   1   3
ATOM      3  C   UNL     1     135.668 140.065 134.150  1.00  0.00    -0.055 C 
ATOM      4  C   UNL     1     134.875 140.785 131.875  1.00  0.00     0.036 C 
ATOM      5  C   UNL     1     135.916 140.326 132.852  1.00  0.00    -0.027 C 
ATOM      6  C   UNL     1     134.282 140.215 134.738  1.00  0.00     0.044 C 
ENDBRANCH   1   3
BRANCH   2   7
ATOM      7  C   UNL     1     139.116 139.451 135.740  1.00  0.00    -0.001 C 
ATOM      8  C   UNL     1     139.951 138.460 135.376  1.00  0.00    -0.076 C 
ATOM      9  C   UNL     1     139.868 137.803 134.022  1.00  0.00     0.039 C 
ATOM     10  C   UNL     1     140.993 138.002 136.359  1.00  0.00     0.039 C 
ENDBRANCH   2   7
TORSDOF 2
ENDMDL
MODEL 6
REMARK VINA RESULT:    -3.701      4.352      6.873
REMARK INTER + INTRA:          -4.390
REMARK INTER:                  -4.126
REMARK INTRA:                  -0.264
REMARK UNBOUND:                -0.257
REMARK SMILES CC=C(C)C=CC=C(C)C
REMARK SMILES IDX 5 1 6 2 3 3 1 4 2 5 4 6 7 7 8 8 9 9 10 10
REMARK H PARENT
REMARK Flexibility Score: inf
ROOT
ATOM      1  C   UNL     1     133.162 136.782 135.207  1.00  0.00     0.003 C 
ATOM      2  C   UNL     1     133.006 138.014 135.704  1.00  0.00     0.000 C 
ENDROOT
BRANCH   1   3
ATOM      3  C   UNL     1     132.489 136.307 133.969  1.00  0.00    -0.055 C 
ATOM      4  C   UNL     1     131.103 136.885 131.953  1.00  0.00     0.036 C 
ATOM      5  C   UNL     1     131.786 137.202 133.249  1.00  0.00    -0.027 C 
ATOM      6  C   UNL     1     132.652 134.874 133.511  1.00  0.00     0.044 C 
ENDBRANCH   1   3
BRANCH   2   7
ATOM      7  C   UNL     1     133.701 138.420 136.947  1.00  0.00    -0.001 C 
ATOM      8  C   UNL     1     134.399 139.563 137.077  1.00  0.00    -0.076 C 
ATOM      9  C   UNL     1     134.537 140.548 135.945  1.00  0.00     0.039 C 
ATOM     10  C   UNL     1     135.058 139.855 138.397  1.00  0.00     0.039 C 
ENDBRANCH   2   7
TORSDOF 2
ENDMDL
MODEL 7
REMARK VINA RESULT:    -3.663      1.147      5.457
REMARK INTER + INTRA:          -4.348
REMARK INTER:                  -4.072
REMARK INTRA:                  -0.277
REMARK UNBOUND:                -0.257
REMARK SMILES CC=C(C)C=CC=C(C)C
REMARK SMILES IDX 5 1 6 2 3 3 1 4 2 5 4 6 7 7 8 8 9 9 10 10
REMARK H PARENT
REMARK Flexibility Score: inf
ROOT
ATOM      1  C   UNL     1     135.795 133.169 135.136  1.00  0.00     0.003 C 
ATOM      2  C   UNL     1     134.597 132.927 135.680  1.00  0.00     0.000 C 
ENDROOT
BRANCH   1   3
ATOM      3  C   UNL     1     136.303 132.468 133.927  1.00  0.00    -0.055 C 
ATOM      4  C   UNL     1     135.769 131.095 131.890  1.00  0.00     0.036 C 
ATOM      5  C   UNL     1     135.416 131.799 133.166  1.00  0.00    -0.027 C 
ATOM      6  C   UNL     1     137.763 132.567 133.542  1.00  0.00     0.044 C 
ENDBRANCH   1   3
BRANCH   2   7
ATOM      7  C   UNL     1     134.156 133.656 136.890  1.00  0.00    -0.001 C 
ATOM      8  C   UNL     1     133.045 134.414 136.946  1.00  0.00    -0.076 C 
ATOM      9  C   UNL     1     132.136 134.589 135.756  1.00  0.00     0.039 C 
ATOM     10  C   UNL     1     132.712 135.104 138.241  1.00  0.00     0.039 C 
ENDBRANCH   2   7
TORSDOF 2
ENDMDL
MODEL 8
REMARK VINA RESULT:    -3.596      6.612      7.458
REMARK INTER + INTRA:          -4.273
REMARK INTER:                  -4.030
REMARK INTRA:                  -0.244
REMARK UNBOUND:                -0.257
REMARK SMILES CC=C(C)C=CC=C(C)C
REMARK SMILES IDX 5 1 6 2 3 3 1 4 2 5 4 6 7 7 8 8 9 9 10 10
REMARK H PARENT
REMARK Flexibility Score: inf
ROOT
ATOM      1  C   UNL     1     136.493 139.040 135.508  1.00  0.00     0.003 C 
ATOM      2  C   UNL     1     137.583 139.639 136.000  1.00  0.00     0.000 C 
ENDROOT
BRANCH   1   3
ATOM      3  C   UNL     1     135.112 139.547 135.722  1.00  0.00    -0.055 C 
ATOM      4  C   UNL     1     132.643 139.079 135.645  1.00  0.00     0.036 C 
ATOM      5  C   UNL     1     134.084 138.728 135.427  1.00  0.00    -0.027 C 
ATOM      6  C   UNL     1     134.885 140.921 136.314  1.00  0.00     0.044 C 
ENDBRANCH   1   3
BRANCH   2   7
ATOM      7  C   UNL     1     138.929 139.075 135.756  1.00  0.00    -0.001 C 
ATOM      8  C   UNL     1     139.642 138.406 136.681  1.00  0.00    -0.076 C 
ATOM      9  C   UNL     1     139.118 138.170 138.075  1.00  0.00     0.039 C 
ATOM     10  C   UNL     1     141.001 137.884 136.302  1.00  0.00     0.039 C 
ENDBRANCH   2   7
TORSDOF 2
ENDMDL
