MODEL 1
REMARK VINA RESULT:    -6.205      0.000      0.000
REMARK INTER + INTRA:          -6.205
REMARK INTER:                  -6.205
REMARK INTRA:                   0.000
REMARK UNBOUND:                 0.000
REMARK SMILES C=C1CCC[C@@]2(C)CC(=O)C(=C(C)C)C[C@H]12
REMARK SMILES IDX 13 1 12 2 11 3 15 4 16 5 2 6 1 7 3 8 4 9 5 10 6 11 8 12 9 13
REMARK SMILES IDX 10 14 7 15 14 16
REMARK H PARENT
REMARK Flexibility Score: inf
ROOT
ATOM      1  C   UNL     1     -14.203 -14.626  33.111  1.00  0.00     0.039 C 
ATOM      2  C   UNL     1     -14.319 -14.804  31.614  1.00  0.00    -0.070 C 
ATOM      3  C   UNL     1     -13.571 -15.726  30.938  1.00  0.00    -0.006 C 
ATOM      4  C   UNL     1     -13.658 -15.847  29.422  1.00  0.00     0.047 C 
ATOM      5  C   UNL     1     -12.354 -16.378  28.768  1.00  0.00     0.025 C 
ATOM      6  C   UNL     1     -12.449 -16.622  27.259  1.00  0.00    -0.073 C 
ATOM      7  C   UNL     1     -13.505 -16.259  26.506  1.00  0.00     0.008 C 
ATOM      8  C   UNL     1     -11.278 -17.283  26.570  1.00  0.00     0.031 C 
ATOM      9  C   UNL     1     -10.077 -17.416  27.508  1.00  0.00     0.005 C 
ATOM     10  C   UNL     1     -10.445 -18.135  28.817  1.00  0.00     0.008 C 
ATOM     11  C   UNL     1     -11.794 -17.659  29.477  1.00  0.00    -0.018 C 
ATOM     12  C   UNL     1     -11.525 -17.314  30.963  1.00  0.00     0.088 C 
ATOM     13  C   UNL     1     -12.733 -16.739  31.639  1.00  0.00     0.159 C 
ATOM     14  O   UNL     1     -13.028 -17.145  32.796  1.00  0.00    -0.295 OA
ATOM     15  C   UNL     1     -12.817 -18.826  29.400  1.00  0.00     0.012 C 
ATOM     16  C   UNL     1     -15.276 -13.886  30.888  1.00  0.00     0.039 C 
ENDROOT
TORSDOF 0
ENDMDL
MODEL 2
REMARK VINA RESULT:    -6.097      1.650      1.968
REMARK INTER + INTRA:          -6.097
REMARK INTER:                  -6.097
REMARK INTRA:                   0.000
REMARK UNBOUND:                 0.000
REMARK SMILES C=C1CCC[C@@]2(C)CC(=O)C(=C(C)C)C[C@H]12
REMARK SMILES IDX 13 1 12 2 11 3 15 4 16 5 2 6 1 7 3 8 4 9 5 10 6 11 8 12 9 13
REMARK SMILES IDX 10 14 7 15 14 16
REMARK H PARENT
REMARK Flexibility Score: inf
ROOT
ATOM      1  C   UNL     1     -13.219 -14.622  34.197  1.00  0.00     0.039 C 
ATOM      2  C   UNL     1     -13.656 -15.549  33.086  1.00  0.00    -0.070 C 
ATOM      3  C   UNL     1     -12.764 -16.078  32.195  1.00  0.00    -0.006 C 
ATOM      4  C   UNL     1     -13.234 -16.961  31.047  1.00  0.00     0.047 C 
ATOM      5  C   UNL     1     -12.304 -16.907  29.806  1.00  0.00     0.025 C 
ATOM      6  C   UNL     1     -12.684 -17.874  28.680  1.00  0.00    -0.073 C 
ATOM      7  C   UNL     1     -13.818 -18.600  28.666  1.00  0.00     0.008 C 
ATOM      8  C   UNL     1     -11.745 -17.999  27.503  1.00  0.00     0.031 C 
ATOM      9  C   UNL     1     -10.636 -16.947  27.555  1.00  0.00     0.005 C 
ATOM     10  C   UNL     1      -9.876 -16.977  28.891  1.00  0.00     0.008 C 
ATOM     11  C   UNL     1     -10.790 -17.089  30.170  1.00  0.00    -0.018 C 
ATOM     12  C   UNL     1     -10.392 -15.970  31.164  1.00  0.00     0.088 C 
ATOM     13  C   UNL     1     -11.291 -15.930  32.363  1.00  0.00     0.159 C 
ATOM     14  O   UNL     1     -10.773 -15.787  33.503  1.00  0.00    -0.295 OA
ATOM     15  C   UNL     1     -10.541 -18.473  30.831  1.00  0.00     0.012 C 
ATOM     16  C   UNL     1     -15.136 -15.839  32.980  1.00  0.00     0.039 C 
ENDROOT
TORSDOF 0
ENDMDL
MODEL 3
REMARK VINA RESULT:    -5.775      2.270      4.251
REMARK INTER + INTRA:          -5.775
REMARK INTER:                  -5.775
REMARK INTRA:                   0.000
REMARK UNBOUND:                 0.000
REMARK SMILES C=C1CCC[C@@]2(C)CC(=O)C(=C(C)C)C[C@H]12
REMARK SMILES IDX 13 1 12 2 11 3 15 4 16 5 2 6 1 7 3 8 4 9 5 10 6 11 8 12 9 13
REMARK SMILES IDX 10 14 7 15 14 16
REMARK H PARENT
REMARK Flexibility Score: inf
ROOT
ATOM      1  C   UNL     1     -14.358 -15.322  26.357  1.00  0.00     0.039 C 
ATOM      2  C   UNL     1     -13.853 -15.099  27.765  1.00  0.00    -0.070 C 
ATOM      3  C   UNL     1     -12.997 -15.975  28.370  1.00  0.00    -0.006 C 
ATOM      4  C   UNL     1     -12.549 -15.763  29.810  1.00  0.00     0.047 C 
ATOM      5  C   UNL     1     -12.192 -17.083  30.547  1.00  0.00     0.025 C 
ATOM      6  C   UNL     1     -11.626 -16.894  31.958  1.00  0.00    -0.073 C 
ATOM      7  C   UNL     1     -11.586 -15.710  32.597  1.00  0.00     0.008 C 
ATOM      8  C   UNL     1     -11.108 -18.113  32.684  1.00  0.00     0.031 C 
ATOM      9  C   UNL     1     -11.438 -19.401  31.928  1.00  0.00     0.005 C 
ATOM     10  C   UNL     1     -10.943 -19.357  30.472  1.00  0.00     0.008 C 
ATOM     11  C   UNL     1     -11.239 -18.008  29.714  1.00  0.00    -0.018 C 
ATOM     12  C   UNL     1     -11.934 -18.336  28.369  1.00  0.00     0.088 C 
ATOM     13  C   UNL     1     -12.359 -17.102  27.633  1.00  0.00     0.159 C 
ATOM     14  O   UNL     1     -12.148 -17.036  26.392  1.00  0.00    -0.295 OA
ATOM     15  C   UNL     1      -9.887 -17.297  29.430  1.00  0.00     0.012 C 
ATOM     16  C   UNL     1     -14.370 -13.878  28.491  1.00  0.00     0.039 C 
ENDROOT
TORSDOF 0
ENDMDL
MODEL 4
REMARK VINA RESULT:    -5.386      1.767      3.389
REMARK INTER + INTRA:          -5.386
REMARK INTER:                  -5.386
REMARK INTRA:                   0.000
REMARK UNBOUND:                 0.000
REMARK SMILES C=C1CCC[C@@]2(C)CC(=O)C(=C(C)C)C[C@H]12
REMARK SMILES IDX 13 1 12 2 11 3 15 4 16 5 2 6 1 7 3 8 4 9 5 10 6 11 8 12 9 13
REMARK SMILES IDX 10 14 7 15 14 16
REMARK H PARENT
REMARK Flexibility Score: inf
ROOT
ATOM      1  C   UNL     1     -15.609 -13.061  29.617  1.00  0.00     0.039 C 
ATOM      2  C   UNL     1     -14.637 -14.128  29.167  1.00  0.00    -0.070 C 
ATOM      3  C   UNL     1     -13.977 -14.924  30.060  1.00  0.00    -0.006 C 
ATOM      4  C   UNL     1     -12.957 -15.952  29.588  1.00  0.00     0.047 C 
ATOM      5  C   UNL     1     -11.854 -16.255  30.638  1.00  0.00     0.025 C 
ATOM      6  C   UNL     1     -10.881 -17.370  30.240  1.00  0.00    -0.073 C 
ATOM      7  C   UNL     1     -10.855 -17.941  29.022  1.00  0.00     0.008 C 
ATOM      8  C   UNL     1      -9.875 -17.835  31.267  1.00  0.00     0.031 C 
ATOM      9  C   UNL     1      -9.877 -16.935  32.504  1.00  0.00     0.005 C 
ATOM     10  C   UNL     1     -11.283 -16.796  33.112  1.00  0.00     0.008 C 
ATOM     11  C   UNL     1     -12.434 -16.544  32.066  1.00  0.00    -0.018 C 
ATOM     12  C   UNL     1     -13.253 -15.309  32.516  1.00  0.00     0.088 C 
ATOM     13  C   UNL     1     -14.300 -14.926  31.514  1.00  0.00     0.159 C 
ATOM     14  O   UNL     1     -15.453 -14.627  31.929  1.00  0.00    -0.295 OA
ATOM     15  C   UNL     1     -13.360 -17.792  32.045  1.00  0.00     0.012 C 
ATOM     16  C   UNL     1     -14.398 -14.251  27.679  1.00  0.00     0.039 C 
ENDROOT
TORSDOF 0
ENDMDL
MODEL 5
REMARK VINA RESULT:    -5.354      1.708      2.832
REMARK INTER + INTRA:          -5.354
REMARK INTER:                  -5.354
REMARK INTRA:                   0.000
REMARK UNBOUND:                 0.000
REMARK SMILES C=C1CCC[C@@]2(C)CC(=O)C(=C(C)C)C[C@H]12
REMARK SMILES IDX 13 1 12 2 11 3 15 4 16 5 2 6 1 7 3 8 4 9 5 10 6 11 8 12 9 13
REMARK SMILES IDX 10 14 7 15 14 16
REMARK H PARENT
REMARK Flexibility Score: inf
ROOT
ATOM      1  C   UNL     1      -9.875 -17.459  33.670  1.00  0.00     0.039 C 
ATOM      2  C   UNL     1     -10.853 -16.639  32.860  1.00  0.00    -0.070 C 
ATOM      3  C   UNL     1     -11.275 -17.035  31.622  1.00  0.00    -0.006 C 
ATOM      4  C   UNL     1     -12.213 -16.164  30.798  1.00  0.00     0.047 C 
ATOM      5  C   UNL     1     -12.054 -16.361  29.267  1.00  0.00     0.025 C 
ATOM      6  C   UNL     1     -13.064 -15.587  28.414  1.00  0.00    -0.073 C 
ATOM      7  C   UNL     1     -13.921 -14.675  28.911  1.00  0.00     0.008 C 
ATOM      8  C   UNL     1     -13.081 -15.842  26.925  1.00  0.00     0.031 C 
ATOM      9  C   UNL     1     -11.903 -16.716  26.492  1.00  0.00     0.005 C 
ATOM     10  C   UNL     1     -11.836 -18.029  27.290  1.00  0.00     0.008 C 
ATOM     11  C   UNL     1     -12.051 -17.870  28.843  1.00  0.00    -0.018 C 
ATOM     12  C   UNL     1     -10.888 -18.580  29.580  1.00  0.00     0.088 C 
ATOM     13  C   UNL     1     -10.950 -18.378  31.065  1.00  0.00     0.159 C 
ATOM     14  O   UNL     1     -10.741 -19.367  31.818  1.00  0.00    -0.295 OA
ATOM     15  C   UNL     1     -13.393 -18.556  29.225  1.00  0.00     0.012 C 
ATOM     16  C   UNL     1     -11.319 -15.334  33.468  1.00  0.00     0.039 C 
ENDROOT
TORSDOF 0
ENDMDL
MODEL 6
REMARK VINA RESULT:    -5.085      1.725      4.784
REMARK INTER + INTRA:          -5.085
REMARK INTER:                  -5.085
REMARK INTRA:                   0.000
REMARK UNBOUND:                 0.000
REMARK SMILES C=C1CCC[C@@]2(C)CC(=O)C(=C(C)C)C[C@H]12
REMARK SMILES IDX 13 1 12 2 11 3 15 4 16 5 2 6 1 7 3 8 4 9 5 10 6 11 8 12 9 13
REMARK SMILES IDX 10 14 7 15 14 16
REMARK H PARENT
REMARK Flexibility Score: inf
ROOT
ATOM      1  C   UNL     1     -11.231 -17.644  25.771  1.00  0.00     0.039 C 
ATOM      2  C   UNL     1     -12.063 -16.702  26.611  1.00  0.00    -0.070 C 
ATOM      3  C   UNL     1     -12.004 -16.711  27.976  1.00  0.00    -0.006 C 
ATOM      4  C   UNL     1     -12.895 -15.796  28.805  1.00  0.00     0.047 C 
ATOM      5  C   UNL     1     -13.224 -16.363  30.212  1.00  0.00     0.025 C 
ATOM      6  C   UNL     1     -14.021 -15.414  31.114  1.00  0.00    -0.073 C 
ATOM      7  C   UNL     1     -14.550 -14.250  30.694  1.00  0.00     0.008 C 
ATOM      8  C   UNL     1     -14.249 -15.823  32.550  1.00  0.00     0.031 C 
ATOM      9  C   UNL     1     -13.796 -17.262  32.804  1.00  0.00     0.005 C 
ATOM     10  C   UNL     1     -12.337 -17.490  32.376  1.00  0.00     0.008 C 
ATOM     11  C   UNL     1     -11.955 -16.876  30.975  1.00  0.00    -0.018 C 
ATOM     12  C   UNL     1     -11.284 -17.977  30.117  1.00  0.00     0.088 C 
ATOM     13  C   UNL     1     -10.992 -17.511  28.723  1.00  0.00     0.159 C 
ATOM     14  O   UNL     1      -9.875 -17.795  28.212  1.00  0.00    -0.295 OA
ATOM     15  C   UNL     1     -10.942 -15.720  31.207  1.00  0.00     0.012 C 
ATOM     16  C   UNL     1     -12.996 -15.769  25.872  1.00  0.00     0.039 C 
ENDROOT
TORSDOF 0
ENDMDL
MODEL 7
REMARK VINA RESULT:    -4.776      1.833      3.394
REMARK INTER + INTRA:          -4.776
REMARK INTER:                  -4.776
REMARK INTRA:                   0.000
REMARK UNBOUND:                 0.000
REMARK SMILES C=C1CCC[C@@]2(C)CC(=O)C(=C(C)C)C[C@H]12
REMARK SMILES IDX 13 1 12 2 11 3 15 4 16 5 2 6 1 7 3 8 4 9 5 10 6 11 8 12 9 13
REMARK SMILES IDX 10 14 7 15 14 16
REMARK H PARENT
REMARK Flexibility Score: inf
ROOT
ATOM      1  C   UNL     1     -15.880 -13.418  30.220  1.00  0.00     0.039 C 
ATOM      2  C   UNL     1     -14.878 -14.230  31.009  1.00  0.00    -0.070 C 
ATOM      3  C   UNL     1     -13.930 -14.999  30.395  1.00  0.00    -0.006 C 
ATOM      4  C   UNL     1     -12.969 -15.856  31.208  1.00  0.00     0.047 C 
ATOM      5  C   UNL     1     -12.470 -17.115  30.449  1.00  0.00     0.025 C 
ATOM      6  C   UNL     1     -11.412 -17.934  31.196  1.00  0.00    -0.073 C 
ATOM      7  C   UNL     1     -11.048 -17.703  32.471  1.00  0.00     0.008 C 
ATOM      8  C   UNL     1     -10.760 -19.085  30.466  1.00  0.00     0.031 C 
ATOM      9  C   UNL     1     -11.444 -19.361  29.126  1.00  0.00     0.005 C 
ATOM     10  C   UNL     1     -11.516 -18.102  28.246  1.00  0.00     0.008 C 
ATOM     11  C   UNL     1     -11.965 -16.793  29.001  1.00  0.00    -0.018 C 
ATOM     12  C   UNL     1     -13.129 -16.141  28.214  1.00  0.00     0.088 C 
ATOM     13  C   UNL     1     -13.697 -14.949  28.924  1.00  0.00     0.159 C 
ATOM     14  O   UNL     1     -13.952 -13.912  28.255  1.00  0.00    -0.295 OA
ATOM     15  C   UNL     1     -10.760 -15.812  29.039  1.00  0.00     0.012 C 
ATOM     16  C   UNL     1     -14.995 -14.183  32.516  1.00  0.00     0.039 C 
ENDROOT
TORSDOF 0
ENDMDL
MODEL 8
REMARK VINA RESULT:    -4.544      1.780      3.948
REMARK INTER + INTRA:          -4.544
REMARK INTER:                  -4.544
REMARK INTRA:                   0.000
REMARK UNBOUND:                 0.000
REMARK SMILES C=C1CCC[C@@]2(C)CC(=O)C(=C(C)C)C[C@H]12
REMARK SMILES IDX 13 1 12 2 11 3 15 4 16 5 2 6 1 7 3 8 4 9 5 10 6 11 8 12 9 13
REMARK SMILES IDX 10 14 7 15 14 16
REMARK H PARENT
REMARK Flexibility Score: inf
ROOT
ATOM      1  C   UNL     1     -12.503 -20.584  31.625  1.00  0.00     0.039 C 
ATOM      2  C   UNL     1     -12.655 -20.066  30.213  1.00  0.00    -0.070 C 
ATOM      3  C   UNL     1     -12.641 -18.729  29.931  1.00  0.00    -0.006 C 
ATOM      4  C   UNL     1     -12.856 -18.226  28.510  1.00  0.00     0.047 C 
ATOM      5  C   UNL     1     -13.482 -16.806  28.445  1.00  0.00     0.025 C 
ATOM      6  C   UNL     1     -13.602 -16.225  27.032  1.00  0.00    -0.073 C 
ATOM      7  C   UNL     1     -13.351 -16.925  25.910  1.00  0.00     0.008 C 
ATOM      8  C   UNL     1     -14.055 -14.790  26.891  1.00  0.00     0.031 C 
ATOM      9  C   UNL     1     -14.523 -14.214  28.228  1.00  0.00     0.005 C 
ATOM     10  C   UNL     1     -13.455 -14.365  29.325  1.00  0.00     0.008 C 
ATOM     11  C   UNL     1     -12.759 -15.778  29.381  1.00  0.00    -0.018 C 
ATOM     12  C   UNL     1     -12.831 -16.309  30.834  1.00  0.00     0.088 C 
ATOM     13  C   UNL     1     -12.294 -17.704  30.955  1.00  0.00     0.159 C 
ATOM     14  O   UNL     1     -11.536 -17.977  31.925  1.00  0.00    -0.295 OA
ATOM     15  C   UNL     1     -11.270 -15.607  28.971  1.00  0.00     0.012 C 
ATOM     16  C   UNL     1     -12.861 -21.095  29.125  1.00  0.00     0.039 C 
ENDROOT
TORSDOF 0
ENDMDL
