MODEL 1
REMARK VINA RESULT:    -6.103      0.000      0.000
REMARK INTER + INTRA:          -6.639
REMARK INTER:                  -6.639
REMARK INTRA:                   0.000
REMARK UNBOUND:                 0.000
REMARK SMILES Cc1cc(O)c2c(c1)C(=O)c1cc(O)cc(O)c1C2=O
REMARK SMILES IDX 1 1 2 2 8 3 7 4 6 5 4 6 3 7 19 8 20 9 18 10 11 11 9 12 10 13
REMARK SMILES IDX 12 14 13 15 15 16 16 17 5 18 17 20 14 22
REMARK H PARENT 5 19 17 21 14 23
REMARK Flexibility Score: inf
ROOT
ATOM      1  C   UNL     1      12.285  72.294 -25.886  1.00  0.00     0.044 C 
ATOM      2  C   UNL     1      12.090  73.488 -26.773  1.00  0.00    -0.047 A 
ATOM      3  C   UNL     1      10.998  73.546 -27.644  1.00  0.00     0.016 A 
ATOM      4  C   UNL     1      10.791  74.670 -28.462  1.00  0.00     0.038 A 
ATOM      5  C   UNL     1      11.693  75.757 -28.407  1.00  0.00     0.076 A 
ATOM      6  C   UNL     1      12.743  75.731 -27.448  1.00  0.00     0.127 A 
ATOM      7  C   UNL     1      12.942  74.590 -26.665  1.00  0.00     0.050 A 
ATOM      8  C   UNL     1      11.536  76.860 -29.396  1.00  0.00     0.201 C 
ATOM      9  O   UNL     1      12.511  77.612 -29.666  1.00  0.00    -0.288 OA
ATOM     10  C   UNL     1      10.266  77.008 -30.154  1.00  0.00     0.076 A 
ATOM     11  C   UNL     1       9.337  75.946 -30.151  1.00  0.00     0.041 A 
ATOM     12  C   UNL     1       9.620  74.721 -29.370  1.00  0.00     0.194 C 
ATOM     13  O   UNL     1       8.852  73.723 -29.466  1.00  0.00    -0.289 OA
ATOM     14  C   UNL     1       8.148  76.056 -30.894  1.00  0.00     0.059 A 
ATOM     15  C   UNL     1       7.874  77.210 -31.628  1.00  0.00     0.120 A 
ATOM     16  C   UNL     1       8.787  78.268 -31.627  1.00  0.00     0.093 A 
ATOM     17  C   UNL     1       9.979  78.177 -30.896  1.00  0.00     0.131 A 
ENDROOT
BRANCH   6  18
ATOM     18  O   UNL     1      13.582  76.822 -27.209  1.00  0.00    -0.507 OA
ATOM     19  H   UNL     1      14.586  76.791 -27.312  1.00  0.00     0.293 HD
ENDBRANCH   6  18
BRANCH  17  20
ATOM     20  O   UNL     1      10.867  79.254 -30.901  1.00  0.00    -0.507 OA
ATOM     21  H   UNL     1      11.358  79.545 -30.063  1.00  0.00     0.293 HD
ENDBRANCH  17  20
BRANCH  15  22
ATOM     22  O   UNL     1       6.689  77.296 -32.355  1.00  0.00    -0.508 OA
ATOM     23  H   UNL     1       6.599  77.918 -33.150  1.00  0.00     0.293 HD
ENDBRANCH  15  22
TORSDOF 3
ENDMDL
MODEL 2
REMARK VINA RESULT:    -6.016     13.711     14.588
REMARK INTER + INTRA:          -6.543
REMARK INTER:                  -6.543
REMARK INTRA:                   0.000
REMARK UNBOUND:                 0.000
REMARK SMILES Cc1cc(O)c2c(c1)C(=O)c1cc(O)cc(O)c1C2=O
REMARK SMILES IDX 1 1 2 2 8 3 7 4 6 5 4 6 3 7 19 8 20 9 18 10 11 11 9 12 10 13
REMARK SMILES IDX 12 14 13 15 15 16 16 17 5 18 17 20 14 22
REMARK H PARENT 5 19 17 21 14 23
REMARK Flexibility Score: inf
ROOT
ATOM      1  C   UNL     1       3.758  80.473 -16.627  1.00  0.00     0.044 C 
ATOM      2  C   UNL     1       2.825  79.678 -17.493  1.00  0.00    -0.047 A 
ATOM      3  C   UNL     1       3.003  78.299 -17.637  1.00  0.00     0.016 A 
ATOM      4  C   UNL     1       2.122  77.539 -18.425  1.00  0.00     0.038 A 
ATOM      5  C   UNL     1       1.040  78.171 -19.080  1.00  0.00     0.076 A 
ATOM      6  C   UNL     1       0.809  79.555 -18.847  1.00  0.00     0.127 A 
ATOM      7  C   UNL     1       1.716  80.292 -18.081  1.00  0.00     0.050 A 
ATOM      8  C   UNL     1       0.221  77.369 -20.031  1.00  0.00     0.201 C 
ATOM      9  O   UNL     1      -0.457  77.945 -20.925  1.00  0.00    -0.288 OA
ATOM     10  C   UNL     1       0.287  75.885 -20.006  1.00  0.00     0.076 A 
ATOM     11  C   UNL     1       1.331  75.256 -19.294  1.00  0.00     0.041 A 
ATOM     12  C   UNL     1       2.318  76.076 -18.556  1.00  0.00     0.194 C 
ATOM     13  O   UNL     1       3.321  75.523 -18.024  1.00  0.00    -0.289 OA
ATOM     14  C   UNL     1       1.428  73.853 -19.292  1.00  0.00     0.059 A 
ATOM     15  C   UNL     1       0.498  73.076 -19.981  1.00  0.00     0.120 A 
ATOM     16  C   UNL     1      -0.543  73.693 -20.681  1.00  0.00     0.093 A 
ATOM     17  C   UNL     1      -0.656  75.090 -20.698  1.00  0.00     0.131 A 
ENDROOT
BRANCH   6  18
ATOM     18  O   UNL     1      -0.321  80.227 -19.319  1.00  0.00    -0.507 OA
ATOM     19  H   UNL     1      -0.799  79.989 -20.176  1.00  0.00     0.293 HD
ENDBRANCH   6  18
BRANCH  17  20
ATOM     20  O   UNL     1      -1.712  75.680 -21.393  1.00  0.00    -0.507 OA
ATOM     21  H   UNL     1      -1.911  76.672 -21.321  1.00  0.00     0.293 HD
ENDBRANCH  17  20
BRANCH  15  22
ATOM     22  O   UNL     1       0.615  71.688 -19.963  1.00  0.00    -0.508 OA
ATOM     23  H   UNL     1       1.503  71.229 -20.130  1.00  0.00     0.293 HD
ENDBRANCH  15  22
TORSDOF 3
ENDMDL
MODEL 3
REMARK VINA RESULT:    -6.006     11.198     12.627
REMARK INTER + INTRA:          -6.532
REMARK INTER:                  -6.532
REMARK INTRA:                   0.000
REMARK UNBOUND:                 0.000
REMARK SMILES Cc1cc(O)c2c(c1)C(=O)c1cc(O)cc(O)c1C2=O
REMARK SMILES IDX 1 1 2 2 8 3 7 4 6 5 4 6 3 7 19 8 20 9 18 10 11 11 9 12 10 13
REMARK SMILES IDX 12 14 13 15 15 16 16 17 5 18 17 20 14 22
REMARK H PARENT 5 19 17 21 14 23
REMARK Flexibility Score: inf
ROOT
ATOM      1  C   UNL     1       1.606  72.200 -25.444  1.00  0.00     0.044 C 
ATOM      2  C   UNL     1       1.090  73.604 -25.326  1.00  0.00    -0.047 A 
ATOM      3  C   UNL     1       0.797  74.142 -24.070  1.00  0.00     0.016 A 
ATOM      4  C   UNL     1       0.336  75.464 -23.944  1.00  0.00     0.038 A 
ATOM      5  C   UNL     1       0.167  76.264 -25.098  1.00  0.00     0.076 A 
ATOM      6  C   UNL     1       0.562  75.741 -26.361  1.00  0.00     0.127 A 
ATOM      7  C   UNL     1       0.991  74.414 -26.460  1.00  0.00     0.050 A 
ATOM      8  C   UNL     1      -0.470  77.601 -24.947  1.00  0.00     0.201 C 
ATOM      9  O   UNL     1      -1.013  78.160 -25.938  1.00  0.00    -0.288 OA
ATOM     10  C   UNL     1      -0.572  78.232 -23.605  1.00  0.00     0.076 A 
ATOM     11  C   UNL     1      -0.336  77.447 -22.457  1.00  0.00     0.041 A 
ATOM     12  C   UNL     1       0.044  76.023 -22.603  1.00  0.00     0.194 C 
ATOM     13  O   UNL     1       0.133  75.289 -21.580  1.00  0.00    -0.289 OA
ATOM     14  C   UNL     1      -0.464  78.020 -21.180  1.00  0.00     0.059 A 
ATOM     15  C   UNL     1      -0.817  79.362 -21.036  1.00  0.00     0.120 A 
ATOM     16  C   UNL     1      -1.044  80.147 -22.171  1.00  0.00     0.093 A 
ATOM     17  C   UNL     1      -0.923  79.594 -23.453  1.00  0.00     0.131 A 
ENDROOT
BRANCH   6  18
ATOM     18  O   UNL     1       0.583  76.507 -27.528  1.00  0.00    -0.507 OA
ATOM     19  H   UNL     1       1.399  77.003 -27.858  1.00  0.00     0.293 HD
ENDBRANCH   6  18
BRANCH  17  20
ATOM     20  O   UNL     1      -1.142  80.403 -24.568  1.00  0.00    -0.507 OA
ATOM     21  H   UNL     1      -0.860  81.377 -24.585  1.00  0.00     0.293 HD
ENDBRANCH  17  20
BRANCH  15  22
ATOM     22  O   UNL     1      -0.937  79.908 -19.760  1.00  0.00    -0.508 OA
ATOM     23  H   UNL     1      -0.736  79.363 -18.930  1.00  0.00     0.293 HD
ENDBRANCH  15  22
TORSDOF 3
ENDMDL
MODEL 4
REMARK VINA RESULT:    -5.992      3.953      6.944
REMARK INTER + INTRA:          -6.518
REMARK INTER:                  -6.518
REMARK INTRA:                   0.000
REMARK UNBOUND:                 0.000
REMARK SMILES Cc1cc(O)c2c(c1)C(=O)c1cc(O)cc(O)c1C2=O
REMARK SMILES IDX 1 1 2 2 8 3 7 4 6 5 4 6 3 7 19 8 20 9 18 10 11 11 9 12 10 13
REMARK SMILES IDX 12 14 13 15 15 16 16 17 5 18 17 20 14 22
REMARK H PARENT 5 19 17 21 14 23
REMARK Flexibility Score: inf
ROOT
ATOM      1  C   UNL     1       1.987  77.234 -29.668  1.00  0.00     0.044 C 
ATOM      2  C   UNL     1       3.369  76.707 -29.920  1.00  0.00    -0.047 A 
ATOM      3  C   UNL     1       3.759  75.474 -29.389  1.00  0.00     0.016 A 
ATOM      4  C   UNL     1       5.042  74.958 -29.638  1.00  0.00     0.038 A 
ATOM      5  C   UNL     1       5.953  75.689 -30.435  1.00  0.00     0.076 A 
ATOM      6  C   UNL     1       5.513  76.893 -31.052  1.00  0.00     0.127 A 
ATOM      7  C   UNL     1       4.241  77.397 -30.766  1.00  0.00     0.050 A 
ATOM      8  C   UNL     1       7.352  75.193 -30.549  1.00  0.00     0.201 C 
ATOM      9  O   UNL     1       8.279  75.982 -30.878  1.00  0.00    -0.288 OA
ATOM     10  C   UNL     1       7.683  73.796 -30.166  1.00  0.00     0.076 A 
ATOM     11  C   UNL     1       6.743  73.046 -29.427  1.00  0.00     0.041 A 
ATOM     12  C   UNL     1       5.435  73.643 -29.077  1.00  0.00     0.194 C 
ATOM     13  O   UNL     1       4.645  73.022 -28.313  1.00  0.00    -0.289 OA
ATOM     14  C   UNL     1       7.056  71.735 -29.025  1.00  0.00     0.059 A 
ATOM     15  C   UNL     1       8.286  71.166 -29.356  1.00  0.00     0.120 A 
ATOM     16  C   UNL     1       9.217  71.902 -30.094  1.00  0.00     0.093 A 
ATOM     17  C   UNL     1       8.925  73.210 -30.503  1.00  0.00     0.131 A 
ENDROOT
BRANCH   6  18
ATOM     18  O   UNL     1       6.283  77.597 -31.981  1.00  0.00    -0.507 OA
ATOM     19  H   UNL     1       6.133  78.568 -32.212  1.00  0.00     0.293 HD
ENDBRANCH   6  18
BRANCH  17  20
ATOM     20  O   UNL     1       9.867  73.918 -31.251  1.00  0.00    -0.507 OA
ATOM     21  H   UNL     1      10.751  73.504 -31.525  1.00  0.00     0.293 HD
ENDBRANCH  17  20
BRANCH  15  22
ATOM     22  O   UNL     1       8.573  69.866 -28.946  1.00  0.00    -0.508 OA
ATOM     23  H   UNL     1       7.966  69.366 -28.307  1.00  0.00     0.293 HD
ENDBRANCH  15  22
TORSDOF 3
ENDMDL
MODEL 5
REMARK VINA RESULT:    -5.972     12.296     14.035
REMARK INTER + INTRA:          -6.496
REMARK INTER:                  -6.496
REMARK INTRA:                   0.000
REMARK UNBOUND:                 0.000
REMARK SMILES Cc1cc(O)c2c(c1)C(=O)c1cc(O)cc(O)c1C2=O
REMARK SMILES IDX 1 1 2 2 8 3 7 4 6 5 4 6 3 7 19 8 20 9 18 10 11 11 9 12 10 13
REMARK SMILES IDX 12 14 13 15 15 16 16 17 5 18 17 20 14 22
REMARK H PARENT 5 19 17 21 14 23
REMARK Flexibility Score: inf
ROOT
ATOM      1  C   UNL     1      11.292  79.961 -17.992  1.00  0.00     0.044 C 
ATOM      2  C   UNL     1       9.944  79.489 -17.533  1.00  0.00    -0.047 A 
ATOM      3  C   UNL     1       9.613  78.133 -17.604  1.00  0.00     0.016 A 
ATOM      4  C   UNL     1       8.362  77.675 -17.155  1.00  0.00     0.038 A 
ATOM      5  C   UNL     1       7.425  78.592 -16.624  1.00  0.00     0.076 A 
ATOM      6  C   UNL     1       7.809  79.952 -16.465  1.00  0.00     0.127 A 
ATOM      7  C   UNL     1       9.048  80.385 -16.944  1.00  0.00     0.050 A 
ATOM      8  C   UNL     1       6.055  78.101 -16.306  1.00  0.00     0.201 C 
ATOM      9  O   UNL     1       5.093  78.912 -16.235  1.00  0.00    -0.288 OA
ATOM     10  C   UNL     1       5.794  76.643 -16.183  1.00  0.00     0.076 A 
ATOM     11  C   UNL     1       6.762  75.730 -16.652  1.00  0.00     0.041 A 
ATOM     12  C   UNL     1       8.032  76.231 -17.224  1.00  0.00     0.194 C 
ATOM     13  O   UNL     1       8.843  75.424 -17.757  1.00  0.00    -0.289 OA
ATOM     14  C   UNL     1       6.513  74.348 -16.577  1.00  0.00     0.059 A 
ATOM     15  C   UNL     1       5.320  73.870 -16.035  1.00  0.00     0.120 A 
ATOM     16  C   UNL     1       4.362  74.770 -15.561  1.00  0.00     0.093 A 
ATOM     17  C   UNL     1       4.589  76.151 -15.629  1.00  0.00     0.131 A 
ENDROOT
BRANCH   6  18
ATOM     18  O   UNL     1       7.015  80.894 -15.806  1.00  0.00    -0.507 OA
ATOM     19  H   UNL     1       6.273  80.651 -15.165  1.00  0.00     0.293 HD
ENDBRANCH   6  18
BRANCH  17  20
ATOM     20  O   UNL     1       3.621  77.027 -15.136  1.00  0.00    -0.507 OA
ATOM     21  H   UNL     1       2.641  76.772 -15.095  1.00  0.00     0.293 HD
ENDBRANCH  17  20
BRANCH  15  22
ATOM     22  O   UNL     1       5.097  72.496 -15.971  1.00  0.00    -0.508 OA
ATOM     23  H   UNL     1       5.861  71.832 -16.026  1.00  0.00     0.293 HD
ENDBRANCH  15  22
TORSDOF 3
ENDMDL
MODEL 6
REMARK VINA RESULT:    -5.880     13.788     14.942
REMARK INTER + INTRA:          -6.396
REMARK INTER:                  -6.396
REMARK INTRA:                   0.000
REMARK UNBOUND:                 0.000
REMARK SMILES Cc1cc(O)c2c(c1)C(=O)c1cc(O)cc(O)c1C2=O
REMARK SMILES IDX 1 1 2 2 8 3 7 4 6 5 4 6 3 7 19 8 20 9 18 10 11 11 9 12 10 13
REMARK SMILES IDX 12 14 13 15 15 16 16 17 5 18 17 20 14 22
REMARK H PARENT 5 19 17 21 14 23
REMARK Flexibility Score: inf
ROOT
ATOM      1  C   UNL     1      -1.676  76.801 -22.506  1.00  0.00     0.044 C 
ATOM      2  C   UNL     1      -0.796  77.375 -21.434  1.00  0.00    -0.047 A 
ATOM      3  C   UNL     1      -0.037  76.529 -20.621  1.00  0.00     0.016 A 
ATOM      4  C   UNL     1       0.810  77.055 -19.630  1.00  0.00     0.038 A 
ATOM      5  C   UNL     1       0.899  78.455 -19.451  1.00  0.00     0.076 A 
ATOM      6  C   UNL     1       0.200  79.309 -20.348  1.00  0.00     0.127 A 
ATOM      7  C   UNL     1      -0.655  78.759 -21.307  1.00  0.00     0.050 A 
ATOM      8  C   UNL     1       1.680  78.973 -18.293  1.00  0.00     0.201 C 
ATOM      9  O   UNL     1       1.461  80.131 -17.849  1.00  0.00    -0.288 OA
ATOM     10  C   UNL     1       2.640  78.087 -17.583  1.00  0.00     0.076 A 
ATOM     11  C   UNL     1       2.592  76.696 -17.816  1.00  0.00     0.041 A 
ATOM     12  C   UNL     1       1.618  76.144 -18.785  1.00  0.00     0.194 C 
ATOM     13  O   UNL     1       1.488  74.893 -18.902  1.00  0.00    -0.289 OA
ATOM     14  C   UNL     1       3.469  75.841 -17.124  1.00  0.00     0.059 A 
ATOM     15  C   UNL     1       4.391  76.357 -16.214  1.00  0.00     0.120 A 
ATOM     16  C   UNL     1       4.448  77.734 -15.986  1.00  0.00     0.093 A 
ATOM     17  C   UNL     1       3.582  78.603 -16.663  1.00  0.00     0.131 A 
ENDROOT
BRANCH   6  18
ATOM     18  O   UNL     1       0.354  80.697 -20.351  1.00  0.00    -0.507 OA
ATOM     19  H   UNL     1       1.168  81.170 -20.717  1.00  0.00     0.293 HD
ENDBRANCH   6  18
BRANCH  17  20
ATOM     20  O   UNL     1       3.669  79.975 -16.427  1.00  0.00    -0.507 OA
ATOM     21  H   UNL     1       3.447  80.377 -15.523  1.00  0.00     0.293 HD
ENDBRANCH  17  20
BRANCH  15  22
ATOM     22  O   UNL     1       5.249  75.490 -15.541  1.00  0.00    -0.508 OA
ATOM     23  H   UNL     1       6.183  75.774 -15.267  1.00  0.00     0.293 HD
ENDBRANCH  15  22
TORSDOF 3
ENDMDL
MODEL 7
REMARK VINA RESULT:    -5.850      1.968      3.258
REMARK INTER + INTRA:          -6.363
REMARK INTER:                  -6.363
REMARK INTRA:                   0.000
REMARK UNBOUND:                 0.000
REMARK SMILES Cc1cc(O)c2c(c1)C(=O)c1cc(O)cc(O)c1C2=O
REMARK SMILES IDX 1 1 2 2 8 3 7 4 6 5 4 6 3 7 19 8 20 9 18 10 11 11 9 12 10 13
REMARK SMILES IDX 12 14 13 15 15 16 16 17 5 18 17 20 14 22
REMARK H PARENT 5 19 17 21 14 23
REMARK Flexibility Score: inf
ROOT
ATOM      1  C   UNL     1      15.049  76.757 -24.516  1.00  0.00     0.044 C 
ATOM      2  C   UNL     1      14.142  76.821 -25.710  1.00  0.00    -0.047 A 
ATOM      3  C   UNL     1      13.442  75.684 -26.123  1.00  0.00     0.016 A 
ATOM      4  C   UNL     1      12.571  75.738 -27.225  1.00  0.00     0.038 A 
ATOM      5  C   UNL     1      12.397  76.953 -27.927  1.00  0.00     0.076 A 
ATOM      6  C   UNL     1      13.037  78.126 -27.439  1.00  0.00     0.127 A 
ATOM      7  C   UNL     1      13.918  78.039 -26.357  1.00  0.00     0.050 A 
ATOM      8  C   UNL     1      11.594  76.939 -29.181  1.00  0.00     0.201 C 
ATOM      9  O   UNL     1      11.745  77.849 -30.040  1.00  0.00    -0.288 OA
ATOM     10  C   UNL     1      10.695  75.794 -29.479  1.00  0.00     0.076 A 
ATOM     11  C   UNL     1      10.827  74.605 -28.730  1.00  0.00     0.041 A 
ATOM     12  C   UNL     1      11.826  74.526 -27.641  1.00  0.00     0.194 C 
ATOM     13  O   UNL     1      12.031  73.427 -27.055  1.00  0.00    -0.289 OA
ATOM     14  C   UNL     1      10.009  73.500 -29.026  1.00  0.00     0.059 A 
ATOM     15  C   UNL     1       9.062  73.570 -30.048  1.00  0.00     0.120 A 
ATOM     16  C   UNL     1       8.922  74.748 -30.787  1.00  0.00     0.093 A 
ATOM     17  C   UNL     1       9.729  75.860 -30.510  1.00  0.00     0.131 A 
ENDROOT
BRANCH   6  18
ATOM     18  O   UNL     1      12.799  79.398 -27.966  1.00  0.00    -0.507 OA
ATOM     19  H   UNL     1      11.935  79.905 -27.838  1.00  0.00     0.293 HD
ENDBRANCH   6  18
BRANCH  17  20
ATOM     20  O   UNL     1       9.560  77.028 -31.254  1.00  0.00    -0.507 OA
ATOM     21  H   UNL     1       8.849  77.713 -31.019  1.00  0.00     0.293 HD
ENDBRANCH  17  20
BRANCH  15  22
ATOM     22  O   UNL     1       8.263  72.462 -30.321  1.00  0.00    -0.508 OA
ATOM     23  H   UNL     1       7.729  72.392 -31.179  1.00  0.00     0.293 HD
ENDBRANCH  15  22
TORSDOF 3
ENDMDL
MODEL 8
REMARK VINA RESULT:    -5.846      6.491      9.030
REMARK INTER + INTRA:          -6.358
REMARK INTER:                  -6.358
REMARK INTRA:                   0.000
REMARK UNBOUND:                 0.000
REMARK SMILES Cc1cc(O)c2c(c1)C(=O)c1cc(O)cc(O)c1C2=O
REMARK SMILES IDX 1 1 2 2 8 3 7 4 6 5 4 6 3 7 19 8 20 9 18 10 11 11 9 12 10 13
REMARK SMILES IDX 12 14 13 15 15 16 16 17 5 18 17 20 14 22
REMARK H PARENT 5 19 17 21 14 23
REMARK Flexibility Score: inf
ROOT
ATOM      1  C   UNL     1      11.706  78.008 -16.711  1.00  0.00     0.044 C 
ATOM      2  C   UNL     1      12.144  77.458 -18.037  1.00  0.00    -0.047 A 
ATOM      3  C   UNL     1      12.305  78.310 -19.132  1.00  0.00     0.016 A 
ATOM      4  C   UNL     1      12.738  77.812 -20.373  1.00  0.00     0.038 A 
ATOM      5  C   UNL     1      13.015  76.433 -20.520  1.00  0.00     0.076 A 
ATOM      6  C   UNL     1      12.944  75.592 -19.375  1.00  0.00     0.127 A 
ATOM      7  C   UNL     1      12.485  76.109 -18.160  1.00  0.00     0.050 A 
ATOM      8  C   UNL     1      13.318  75.911 -21.882  1.00  0.00     0.201 C 
ATOM      9  O   UNL     1      13.162  74.687 -22.140  1.00  0.00    -0.288 OA
ATOM     10  C   UNL     1      13.693  76.847 -22.973  1.00  0.00     0.076 A 
ATOM     11  C   UNL     1      13.477  78.231 -22.796  1.00  0.00     0.041 A 
ATOM     12  C   UNL     1      12.917  78.732 -21.521  1.00  0.00     0.194 C 
ATOM     13  O   UNL     1      12.607  79.951 -21.407  1.00  0.00    -0.289 OA
ATOM     14  C   UNL     1      13.792  79.125 -23.835  1.00  0.00     0.059 A 
ATOM     15  C   UNL     1      14.324  78.659 -25.037  1.00  0.00     0.120 A 
ATOM     16  C   UNL     1      14.547  77.290 -25.214  1.00  0.00     0.093 A 
ATOM     17  C   UNL     1      14.238  76.382 -24.193  1.00  0.00     0.131 A 
ENDROOT
BRANCH   6  18
ATOM     18  O   UNL     1      13.353  74.256 -19.386  1.00  0.00    -0.507 OA
ATOM     19  H   UNL     1      12.738  73.483 -19.596  1.00  0.00     0.293 HD
ENDBRANCH   6  18
BRANCH  17  20
ATOM     20  O   UNL     1      14.484  75.023 -24.391  1.00  0.00    -0.507 OA
ATOM     21  H   UNL     1      15.063  74.486 -23.754  1.00  0.00     0.293 HD
ENDBRANCH  17  20
BRANCH  15  22
ATOM     22  O   UNL     1      14.628  79.565 -26.050  1.00  0.00    -0.508 OA
ATOM     23  H   UNL     1      13.950  79.812 -26.761  1.00  0.00     0.293 HD
ENDBRANCH  15  22
TORSDOF 3
ENDMDL
MODEL 9
REMARK VINA RESULT:    -5.843     13.859     14.923
REMARK INTER + INTRA:          -6.355
REMARK INTER:                  -6.355
REMARK INTRA:                   0.000
REMARK UNBOUND:                 0.000
REMARK SMILES Cc1cc(O)c2c(c1)C(=O)c1cc(O)cc(O)c1C2=O
REMARK SMILES IDX 1 1 2 2 8 3 7 4 6 5 4 6 3 7 19 8 20 9 18 10 11 11 9 12 10 13
REMARK SMILES IDX 12 14 13 15 15 16 16 17 5 18 17 20 14 22
REMARK H PARENT 5 19 17 21 14 23
REMARK Flexibility Score: inf
ROOT
ATOM      1  C   UNL     1      -1.102  75.311 -20.991  1.00  0.00     0.044 C 
ATOM      2  C   UNL     1      -0.048  75.868 -20.080  1.00  0.00    -0.047 A 
ATOM      3  C   UNL     1       0.760  75.008 -19.331  1.00  0.00     0.016 A 
ATOM      4  C   UNL     1       1.767  75.516 -18.493  1.00  0.00     0.038 A 
ATOM      5  C   UNL     1       1.970  76.913 -18.404  1.00  0.00     0.076 A 
ATOM      6  C   UNL     1       1.211  77.773 -19.244  1.00  0.00     0.127 A 
ATOM      7  C   UNL     1       0.198  77.243 -20.048  1.00  0.00     0.050 A 
ATOM      8  C   UNL     1       2.935  77.426 -17.391  1.00  0.00     0.201 C 
ATOM      9  O   UNL     1       2.854  78.616 -16.985  1.00  0.00    -0.288 OA
ATOM     10  C   UNL     1       3.924  76.506 -16.770  1.00  0.00     0.076 A 
ATOM     11  C   UNL     1       3.755  75.113 -16.919  1.00  0.00     0.041 A 
ATOM     12  C   UNL     1       2.624  74.589 -17.716  1.00  0.00     0.194 C 
ATOM     13  O   UNL     1       2.399  73.347 -17.747  1.00  0.00    -0.289 OA
ATOM     14  C   UNL     1       4.662  74.231 -16.305  1.00  0.00     0.059 A 
ATOM     15  C   UNL     1       5.732  74.719 -15.556  1.00  0.00     0.120 A 
ATOM     16  C   UNL     1       5.909  76.098 -15.413  1.00  0.00     0.093 A 
ATOM     17  C   UNL     1       5.015  76.995 -16.014  1.00  0.00     0.131 A 
ENDROOT
BRANCH   6  18
ATOM     18  O   UNL     1       1.451  79.145 -19.344  1.00  0.00    -0.507 OA
ATOM     19  H   UNL     1       1.753  79.719 -18.569  1.00  0.00     0.293 HD
ENDBRANCH   6  18
BRANCH  17  20
ATOM     20  O   UNL     1       5.222  78.367 -15.867  1.00  0.00    -0.507 OA
ATOM     21  H   UNL     1       4.540  78.965 -15.415  1.00  0.00     0.293 HD
ENDBRANCH  17  20
BRANCH  15  22
ATOM     22  O   UNL     1       6.617  73.825 -14.959  1.00  0.00    -0.508 OA
ATOM     23  H   UNL     1       7.520  74.125 -14.610  1.00  0.00     0.293 HD
ENDBRANCH  15  22
TORSDOF 3
ENDMDL
