MODEL 1
REMARK VINA RESULT:    -3.118      0.000      0.000
REMARK INTER + INTRA:          -3.698
REMARK INTER:                  -3.665
REMARK INTRA:                  -0.033
REMARK UNBOUND:                -0.033
REMARK SMILES O=C([O-])CCC(=O)[O-]
REMARK SMILES IDX 4 1 2 2 1 3 3 4 5 5 6 6 7 7 8 8
REMARK H PARENT
REMARK Flexibility Score: inf
ROOT
ATOM      1  C   UNL     1      32.827  35.759  -0.796  1.00  0.00     0.059 C 
ENDROOT
BRANCH   1   2
ATOM      2  C   UNL     1      32.528  36.241  -2.182  1.00  0.00     0.042 C 
ATOM      3  O   UNL     1      32.896  37.388  -2.548  1.00  0.00    -0.550 OA
ATOM      4  O   UNL     1      31.806  35.439  -3.058  1.00  0.00    -0.550 OA
ENDBRANCH   1   2
BRANCH   1   5
ATOM      5  C   UNL     1      33.468  36.859   0.058  1.00  0.00     0.059 C 
BRANCH   5   6
ATOM      6  C   UNL     1      33.436  36.513   1.515  1.00  0.00     0.042 C 
ATOM      7  O   UNL     1      34.352  35.814   2.022  1.00  0.00    -0.550 OA
ATOM      8  O   UNL     1      32.415  36.997   2.323  1.00  0.00    -0.550 OA
ENDBRANCH   5   6
ENDBRANCH   1   5
TORSDOF 3
ENDMDL
MODEL 2
REMARK VINA RESULT:    -3.029      0.583      1.155
REMARK INTER + INTRA:          -3.593
REMARK INTER:                  -3.558
REMARK INTRA:                  -0.035
REMARK UNBOUND:                -0.033
REMARK SMILES O=C([O-])CCC(=O)[O-]
REMARK SMILES IDX 4 1 2 2 1 3 3 4 5 5 6 6 7 7 8 8
REMARK H PARENT
REMARK Flexibility Score: inf
ROOT
ATOM      1  C   UNL     1      32.901  35.920  -1.043  1.00  0.00     0.059 C 
ENDROOT
BRANCH   1   2
ATOM      2  C   UNL     1      32.505  36.332  -2.427  1.00  0.00     0.042 C 
ATOM      3  O   UNL     1      32.845  37.458  -2.875  1.00  0.00    -0.550 OA
ATOM      4  O   UNL     1      31.724  35.489  -3.208  1.00  0.00    -0.550 OA
ENDBRANCH   1   2
BRANCH   1   5
ATOM      5  C   UNL     1      33.703  37.018  -0.334  1.00  0.00     0.059 C 
BRANCH   5   6
ATOM      6  C   UNL     1      33.654  36.862   1.154  1.00  0.00     0.042 C 
ATOM      7  O   UNL     1      33.281  37.821   1.880  1.00  0.00    -0.550 OA
ATOM      8  O   UNL     1      33.982  35.645   1.738  1.00  0.00    -0.550 OA
ENDBRANCH   5   6
ENDBRANCH   1   5
TORSDOF 3
ENDMDL
MODEL 3
REMARK VINA RESULT:    -2.979      1.205      3.941
REMARK INTER + INTRA:          -3.535
REMARK INTER:                  -3.418
REMARK INTRA:                  -0.117
REMARK UNBOUND:                -0.033
REMARK SMILES O=C([O-])CCC(=O)[O-]
REMARK SMILES IDX 4 1 2 2 1 3 3 4 5 5 6 6 7 7 8 8
REMARK H PARENT
REMARK Flexibility Score: inf
ROOT
ATOM      1  C   UNL     1      33.240  37.119   0.750  1.00  0.00     0.059 C 
ENDROOT
BRANCH   1   2
ATOM      2  C   UNL     1      33.203  35.788   1.434  1.00  0.00     0.042 C 
ATOM      3  O   UNL     1      34.228  35.346   2.017  1.00  0.00    -0.550 OA
ATOM      4  O   UNL     1      32.049  35.016   1.394  1.00  0.00    -0.550 OA
ENDBRANCH   1   2
BRANCH   1   5
ATOM      5  C   UNL     1      34.004  37.051  -0.578  1.00  0.00     0.059 C 
BRANCH   5   6
ATOM      6  C   UNL     1      33.071  36.958  -1.746  1.00  0.00     0.042 C 
ATOM      7  O   UNL     1      32.903  37.950  -2.503  1.00  0.00    -0.550 OA
ATOM      8  O   UNL     1      32.419  35.763  -2.022  1.00  0.00    -0.550 OA
ENDBRANCH   5   6
ENDBRANCH   1   5
TORSDOF 3
ENDMDL
MODEL 4
REMARK VINA RESULT:    -2.969     22.657     23.150
REMARK INTER + INTRA:          -3.523
REMARK INTER:                  -3.461
REMARK INTRA:                  -0.062
REMARK UNBOUND:                -0.033
REMARK SMILES O=C([O-])CCC(=O)[O-]
REMARK SMILES IDX 4 1 2 2 1 3 3 4 5 5 6 6 7 7 8 8
REMARK H PARENT
REMARK Flexibility Score: inf
ROOT
ATOM      1  C   UNL     1      16.679  26.374  11.531  1.00  0.00     0.059 C 
ENDROOT
BRANCH   1   2
ATOM      2  C   UNL     1      15.429  27.095  11.130  1.00  0.00     0.042 C 
ATOM      3  O   UNL     1      14.894  26.864  10.014  1.00  0.00    -0.550 OA
ATOM      4  O   UNL     1      14.877  28.052  11.972  1.00  0.00    -0.550 OA
ENDBRANCH   1   2
BRANCH   1   5
ATOM      5  C   UNL     1      17.448  27.137  12.616  1.00  0.00     0.059 C 
BRANCH   5   6
ATOM      6  C   UNL     1      17.183  26.575  13.978  1.00  0.00     0.042 C 
ATOM      7  O   UNL     1      16.398  25.601  14.121  1.00  0.00    -0.550 OA
ATOM      8  O   UNL     1      17.835  27.100  15.087  1.00  0.00    -0.550 OA
ENDBRANCH   5   6
ENDBRANCH   1   5
TORSDOF 3
ENDMDL
MODEL 5
REMARK VINA RESULT:    -2.864     22.408     23.318
REMARK INTER + INTRA:          -3.399
REMARK INTER:                  -3.322
REMARK INTRA:                  -0.077
REMARK UNBOUND:                -0.033
REMARK SMILES O=C([O-])CCC(=O)[O-]
REMARK SMILES IDX 4 1 2 2 1 3 3 4 5 5 6 6 7 7 8 8
REMARK H PARENT
REMARK Flexibility Score: inf
ROOT
ATOM      1  C   UNL     1      15.947  26.070  12.915  1.00  0.00     0.059 C 
ENDROOT
BRANCH   1   2
ATOM      2  C   UNL     1      17.261  26.702  13.255  1.00  0.00     0.042 C 
ATOM      3  O   UNL     1      18.048  27.060  12.340  1.00  0.00    -0.550 OA
ATOM      4  O   UNL     1      17.635  26.860  14.584  1.00  0.00    -0.550 OA
ENDBRANCH   1   2
BRANCH   1   5
ATOM      5  C   UNL     1      14.968  27.088  12.318  1.00  0.00     0.059 C 
BRANCH   5   6
ATOM      6  C   UNL     1      15.015  27.085  10.821  1.00  0.00     0.042 C 
ATOM      7  O   UNL     1      15.143  28.167  10.189  1.00  0.00    -0.550 OA
ATOM      8  O   UNL     1      14.959  25.885  10.125  1.00  0.00    -0.550 OA
ENDBRANCH   5   6
ENDBRANCH   1   5
TORSDOF 3
ENDMDL
MODEL 6
REMARK VINA RESULT:    -2.856      2.975      4.266
REMARK INTER + INTRA:          -3.390
REMARK INTER:                  -3.257
REMARK INTRA:                  -0.133
REMARK UNBOUND:                -0.033
REMARK SMILES O=C([O-])CCC(=O)[O-]
REMARK SMILES IDX 4 1 2 2 1 3 3 4 5 5 6 6 7 7 8 8
REMARK H PARENT
REMARK Flexibility Score: inf
ROOT
ATOM      1  C   UNL     1      34.208  36.958   2.298  1.00  0.00     0.059 C 
ENDROOT
BRANCH   1   2
ATOM      2  C   UNL     1      33.345  37.894   3.087  1.00  0.00     0.042 C 
ATOM      3  O   UNL     1      33.551  38.061   4.318  1.00  0.00    -0.550 OA
ATOM      4  O   UNL     1      32.286  38.552   2.472  1.00  0.00    -0.550 OA
ENDBRANCH   1   2
BRANCH   1   5
ATOM      5  C   UNL     1      33.460  36.385   1.088  1.00  0.00     0.059 C 
BRANCH   5   6
ATOM      6  C   UNL     1      32.717  35.134   1.442  1.00  0.00     0.042 C 
ATOM      7  O   UNL     1      33.340  34.056   1.628  1.00  0.00    -0.550 OA
ATOM      8  O   UNL     1      31.337  35.168   1.607  1.00  0.00    -0.550 OA
ENDBRANCH   5   6
ENDBRANCH   1   5
TORSDOF 3
ENDMDL
MODEL 7
REMARK VINA RESULT:    -2.763      3.463      5.011
REMARK INTER + INTRA:          -3.280
REMARK INTER:                  -3.214
REMARK INTRA:                  -0.066
REMARK UNBOUND:                -0.033
REMARK SMILES O=C([O-])CCC(=O)[O-]
REMARK SMILES IDX 4 1 2 2 1 3 3 4 5 5 6 6 7 7 8 8
REMARK H PARENT
REMARK Flexibility Score: inf
ROOT
ATOM      1  C   UNL     1      34.800  37.395   3.708  1.00  0.00     0.059 C 
ENDROOT
BRANCH   1   2
ATOM      2  C   UNL     1      33.861  37.032   2.600  1.00  0.00     0.042 C 
ATOM      3  O   UNL     1      32.639  37.324   2.683  1.00  0.00    -0.550 OA
ATOM      4  O   UNL     1      34.326  36.333   1.493  1.00  0.00    -0.550 OA
ENDBRANCH   1   2
BRANCH   1   5
ATOM      5  C   UNL     1      34.298  38.608   4.500  1.00  0.00     0.059 C 
BRANCH   5   6
ATOM      6  C   UNL     1      34.140  38.289   5.955  1.00  0.00     0.042 C 
ATOM      7  O   UNL     1      35.125  37.878   6.624  1.00  0.00    -0.550 OA
ATOM      8  O   UNL     1      32.916  38.484   6.581  1.00  0.00    -0.550 OA
ENDBRANCH   5   6
ENDBRANCH   1   5
TORSDOF 3
ENDMDL
MODEL 8
REMARK VINA RESULT:    -2.686      1.497      2.096
REMARK INTER + INTRA:          -3.190
REMARK INTER:                  -3.008
REMARK INTRA:                  -0.182
REMARK UNBOUND:                -0.033
REMARK SMILES O=C([O-])CCC(=O)[O-]
REMARK SMILES IDX 4 1 2 2 1 3 3 4 5 5 6 6 7 7 8 8
REMARK H PARENT
REMARK Flexibility Score: inf
ROOT
ATOM      1  C   UNL     1      34.762  37.610  -0.039  1.00  0.00     0.059 C 
ENDROOT
BRANCH   1   2
ATOM      2  C   UNL     1      33.601  37.626  -0.985  1.00  0.00     0.042 C 
ATOM      3  O   UNL     1      32.963  38.692  -1.187  1.00  0.00    -0.550 OA
ATOM      4  O   UNL     1      33.197  36.454  -1.611  1.00  0.00    -0.550 OA
ENDBRANCH   1   2
BRANCH   1   5
ATOM      5  C   UNL     1      34.313  37.822   1.411  1.00  0.00     0.059 C 
BRANCH   5   6
ATOM      6  C   UNL     1      33.429  36.709   1.883  1.00  0.00     0.042 C 
ATOM      7  O   UNL     1      32.292  36.961   2.362  1.00  0.00    -0.550 OA
ATOM      8  O   UNL     1      33.844  35.389   1.755  1.00  0.00    -0.550 OA
ENDBRANCH   5   6
ENDBRANCH   1   5
TORSDOF 3
ENDMDL
