MODEL 1
REMARK VINA RESULT:    -5.359      0.000      0.000
REMARK INTER + INTRA:          -6.516
REMARK INTER:                  -6.455
REMARK INTRA:                  -0.060
REMARK UNBOUND:                -0.060
REMARK SMILES CC[C@@H](C)[C@@H]([NH3+])C(=O)[O-]
REMARK SMILES IDX 3 1 4 2 5 3 6 4 7 8 8 9 9 10 2 11 1 12
REMARK H PARENT 6 5 6 6 6 7
REMARK Flexibility Score: inf
ROOT
ATOM      1  C   UNL     1      14.315 -11.897 -16.653  1.00  0.00     0.050 C 
ATOM      2  C   UNL     1      13.234 -11.461 -17.657  1.00  0.00     0.014 C 
ENDROOT
BRANCH   1   3
ATOM      3  C   UNL     1      15.730 -11.417 -17.121  1.00  0.00     0.230 C 
BRANCH   3   4
ATOM      4  N   UNL     1      16.375 -12.360 -18.048  1.00  0.00    -0.350 N 
ATOM      5  H   UNL     1      15.712 -13.111 -18.348  1.00  0.00     0.345 HD
ATOM      6  H   UNL     1      16.700 -11.845 -18.900  1.00  0.00     0.345 HD
ATOM      7  H   UNL     1      17.214 -12.796 -17.603  1.00  0.00     0.345 HD
ENDBRANCH   3   4
BRANCH   3   8
ATOM      8  C   UNL     1      15.691 -10.021 -17.698  1.00  0.00     0.099 C 
ATOM      9  O   UNL     1      15.662  -9.024 -16.929  1.00  0.00    -0.544 OA
ATOM     10  O   UNL     1      15.720  -9.814 -19.073  1.00  0.00    -0.544 OA
ENDBRANCH   3   8
ENDBRANCH   1   3
BRANCH   1  11
ATOM     11  C   UNL     1      13.901 -11.450 -15.227  1.00  0.00     0.006 C 
ATOM     12  C   UNL     1      15.082 -11.230 -14.284  1.00  0.00     0.004 C 
ENDBRANCH   1  11
TORSDOF 4
ENDMDL
MODEL 2
REMARK VINA RESULT:    -5.348      2.401      2.947
REMARK INTER + INTRA:          -6.503
REMARK INTER:                  -6.451
REMARK INTRA:                  -0.051
REMARK UNBOUND:                -0.060
REMARK SMILES CC[C@@H](C)[C@@H]([NH3+])C(=O)[O-]
REMARK SMILES IDX 3 1 4 2 5 3 6 4 7 8 8 9 9 10 2 11 1 12
REMARK H PARENT 6 5 6 6 6 7
REMARK Flexibility Score: inf
ROOT
ATOM      1  C   UNL     1      14.825  -9.901 -16.165  1.00  0.00     0.050 C 
ATOM      2  C   UNL     1      15.959  -9.910 -17.205  1.00  0.00     0.014 C 
ENDROOT
BRANCH   1   3
ATOM      3  C   UNL     1      13.438 -10.123 -16.857  1.00  0.00     0.230 C 
BRANCH   3   4
ATOM      4  N   UNL     1      12.830  -8.870 -17.332  1.00  0.00    -0.350 N 
ATOM      5  H   UNL     1      13.252  -8.563 -18.238  1.00  0.00     0.345 HD
ATOM      6  H   UNL     1      11.803  -9.012 -17.475  1.00  0.00     0.345 HD
ATOM      7  H   UNL     1      12.948  -8.113 -16.621  1.00  0.00     0.345 HD
ENDBRANCH   3   4
BRANCH   3   8
ATOM      8  C   UNL     1      13.517 -11.148 -17.965  1.00  0.00     0.099 C 
ATOM      9  O   UNL     1      13.461 -12.376 -17.690  1.00  0.00    -0.544 OA
ATOM     10  O   UNL     1      13.620 -10.757 -19.296  1.00  0.00    -0.544 OA
ENDBRANCH   3   8
ENDBRANCH   1   3
BRANCH   1  11
ATOM     11  C   UNL     1      15.165 -10.897 -15.026  1.00  0.00     0.006 C 
ATOM     12  C   UNL     1      13.935 -11.466 -14.319  1.00  0.00     0.004 C 
ENDBRANCH   1  11
TORSDOF 4
ENDMDL
MODEL 3
REMARK VINA RESULT:    -5.289      2.250      3.679
REMARK INTER + INTRA:          -6.432
REMARK INTER:                  -6.359
REMARK INTRA:                  -0.072
REMARK UNBOUND:                -0.060
REMARK SMILES CC[C@@H](C)[C@@H]([NH3+])C(=O)[O-]
REMARK SMILES IDX 3 1 4 2 5 3 6 4 7 8 8 9 9 10 2 11 1 12
REMARK H PARENT 6 5 6 6 6 7
REMARK Flexibility Score: inf
ROOT
ATOM      1  C   UNL     1      15.064 -11.419 -18.391  1.00  0.00     0.050 C 
ATOM      2  C   UNL     1      16.078 -11.069 -17.288  1.00  0.00     0.014 C 
ENDROOT
BRANCH   1   3
ATOM      3  C   UNL     1      13.627 -11.579 -17.789  1.00  0.00     0.230 C 
BRANCH   3   4
ATOM      4  N   UNL     1      13.337 -12.958 -17.365  1.00  0.00    -0.350 N 
ATOM      5  H   UNL     1      12.551 -12.987 -16.678  1.00  0.00     0.345 HD
ATOM      6  H   UNL     1      13.070 -13.531 -18.200  1.00  0.00     0.345 HD
ATOM      7  H   UNL     1      14.185 -13.397 -16.940  1.00  0.00     0.345 HD
ENDBRANCH   3   4
BRANCH   3   8
ATOM      8  C   UNL     1      13.369 -10.596 -16.671  1.00  0.00     0.099 C 
ATOM      9  O   UNL     1      13.050  -9.408 -16.941  1.00  0.00    -0.544 OA
ATOM     10  O   UNL     1      13.447 -10.990 -15.339  1.00  0.00    -0.544 OA
ENDBRANCH   3   8
ENDBRANCH   1   3
BRANCH   1  11
ATOM     11  C   UNL     1      15.188 -10.392 -19.547  1.00  0.00     0.006 C 
ATOM     12  C   UNL     1      13.889 -10.179 -20.322  1.00  0.00     0.004 C 
ENDBRANCH   1  11
TORSDOF 4
ENDMDL
MODEL 4
REMARK VINA RESULT:    -5.222      1.511      1.814
REMARK INTER + INTRA:          -6.350
REMARK INTER:                  -6.553
REMARK INTRA:                   0.203
REMARK UNBOUND:                -0.060
REMARK SMILES CC[C@@H](C)[C@@H]([NH3+])C(=O)[O-]
REMARK SMILES IDX 3 1 4 2 5 3 6 4 7 8 8 9 9 10 2 11 1 12
REMARK H PARENT 6 5 6 6 6 7
REMARK Flexibility Score: inf
ROOT
ATOM      1  C   UNL     1      14.531 -10.815 -16.928  1.00  0.00     0.050 C 
ATOM      2  C   UNL     1      13.766  -9.482 -17.008  1.00  0.00     0.014 C 
ENDROOT
BRANCH   1   3
ATOM      3  C   UNL     1      15.657 -10.872 -18.014  1.00  0.00     0.230 C 
BRANCH   3   4
ATOM      4  N   UNL     1      16.333 -12.178 -18.067  1.00  0.00    -0.350 N 
ATOM      5  H   UNL     1      16.719 -12.368 -19.019  1.00  0.00     0.345 HD
ATOM      6  H   UNL     1      17.123 -12.190 -17.380  1.00  0.00     0.345 HD
ATOM      7  H   UNL     1      15.673 -12.943 -17.802  1.00  0.00     0.345 HD
ENDBRANCH   3   4
BRANCH   3   8
ATOM      8  C   UNL     1      15.150 -10.462 -19.378  1.00  0.00     0.099 C 
ATOM      9  O   UNL     1      15.922  -9.883 -20.186  1.00  0.00    -0.544 OA
ATOM     10  O   UNL     1      13.846 -10.745 -19.771  1.00  0.00    -0.544 OA
ENDBRANCH   3   8
ENDBRANCH   1   3
BRANCH   1  11
ATOM     11  C   UNL     1      15.003 -11.048 -15.470  1.00  0.00     0.006 C 
ATOM     12  C   UNL     1      13.874 -11.416 -14.508  1.00  0.00     0.004 C 
ENDBRANCH   1  11
TORSDOF 4
ENDMDL
MODEL 5
REMARK VINA RESULT:    -5.217      2.436      3.698
REMARK INTER + INTRA:          -6.344
REMARK INTER:                  -6.255
REMARK INTRA:                  -0.089
REMARK UNBOUND:                -0.060
REMARK SMILES CC[C@@H](C)[C@@H]([NH3+])C(=O)[O-]
REMARK SMILES IDX 3 1 4 2 5 3 6 4 7 8 8 9 9 10 2 11 1 12
REMARK H PARENT 6 5 6 6 6 7
REMARK Flexibility Score: inf
ROOT
ATOM      1  C   UNL     1      13.911 -10.078 -17.788  1.00  0.00     0.050 C 
ATOM      2  C   UNL     1      13.097  -8.777 -17.679  1.00  0.00     0.014 C 
ENDROOT
BRANCH   1   3
ATOM      3  C   UNL     1      13.376 -11.150 -16.780  1.00  0.00     0.230 C 
BRANCH   3   4
ATOM      4  N   UNL     1      13.211 -12.478 -17.393  1.00  0.00    -0.350 N 
ATOM      5  H   UNL     1      12.277 -12.570 -17.853  1.00  0.00     0.345 HD
ATOM      6  H   UNL     1      13.953 -12.622 -18.117  1.00  0.00     0.345 HD
ATOM      7  H   UNL     1      13.319 -13.229 -16.675  1.00  0.00     0.345 HD
ENDBRANCH   3   4
BRANCH   3   8
ATOM      8  C   UNL     1      14.223 -11.225 -15.531  1.00  0.00     0.099 C 
ATOM      9  O   UNL     1      15.472 -11.082 -15.610  1.00  0.00    -0.544 OA
ATOM     10  O   UNL     1      13.642 -11.419 -14.282  1.00  0.00    -0.544 OA
ENDBRANCH   3   8
ENDBRANCH   1   3
BRANCH   1  11
ATOM     11  C   UNL     1      13.961 -10.529 -19.270  1.00  0.00     0.006 C 
ATOM     12  C   UNL     1      15.270 -10.177 -19.976  1.00  0.00     0.004 C 
ENDBRANCH   1  11
TORSDOF 4
ENDMDL
MODEL 6
REMARK VINA RESULT:    -5.198      2.760      3.577
REMARK INTER + INTRA:          -6.322
REMARK INTER:                  -6.247
REMARK INTRA:                  -0.075
REMARK UNBOUND:                -0.060
REMARK SMILES CC[C@@H](C)[C@@H]([NH3+])C(=O)[O-]
REMARK SMILES IDX 3 1 4 2 5 3 6 4 7 8 8 9 9 10 2 11 1 12
REMARK H PARENT 6 5 6 6 6 7
REMARK Flexibility Score: inf
ROOT
ATOM      1  C   UNL     1      13.758 -10.750 -16.803  1.00  0.00     0.050 C 
ATOM      2  C   UNL     1      13.599 -12.147 -17.426  1.00  0.00     0.014 C 
ENDROOT
BRANCH   1   3
ATOM      3  C   UNL     1      15.068 -10.672 -15.948  1.00  0.00     0.230 C 
BRANCH   3   4
ATOM      4  N   UNL     1      15.723  -9.356 -16.028  1.00  0.00    -0.350 N 
ATOM      5  H   UNL     1      15.607  -8.930 -16.975  1.00  0.00     0.345 HD
ATOM      6  H   UNL     1      15.300  -8.712 -15.320  1.00  0.00     0.345 HD
ATOM      7  H   UNL     1      16.742  -9.441 -15.809  1.00  0.00     0.345 HD
ENDBRANCH   3   4
BRANCH   3   8
ATOM      8  C   UNL     1      14.832 -11.080 -14.513  1.00  0.00     0.099 C 
ATOM      9  O   UNL     1      15.795 -11.108 -13.702  1.00  0.00    -0.544 OA
ATOM     10  O   UNL     1      13.556 -11.397 -14.059  1.00  0.00    -0.544 OA
ENDBRANCH   3   8
ENDBRANCH   1   3
BRANCH   1  11
ATOM     11  C   UNL     1      13.626  -9.675 -17.913  1.00  0.00     0.006 C 
ATOM     12  C   UNL     1      14.032 -10.170 -19.300  1.00  0.00     0.004 C 
ENDBRANCH   1  11
TORSDOF 4
ENDMDL
MODEL 7
REMARK VINA RESULT:    -5.197      1.741      2.025
REMARK INTER + INTRA:          -6.321
REMARK INTER:                  -6.235
REMARK INTRA:                  -0.086
REMARK UNBOUND:                -0.060
REMARK SMILES CC[C@@H](C)[C@@H]([NH3+])C(=O)[O-]
REMARK SMILES IDX 3 1 4 2 5 3 6 4 7 8 8 9 9 10 2 11 1 12
REMARK H PARENT 6 5 6 6 6 7
REMARK Flexibility Score: inf
ROOT
ATOM      1  C   UNL     1      14.980 -11.129 -16.373  1.00  0.00     0.050 C 
ATOM      2  C   UNL     1      13.864 -12.059 -16.879  1.00  0.00     0.014 C 
ENDROOT
BRANCH   1   3
ATOM      3  C   UNL     1      14.866  -9.716 -17.039  1.00  0.00     0.230 C 
BRANCH   3   4
ATOM      4  N   UNL     1      15.890  -8.774 -16.558  1.00  0.00    -0.350 N 
ATOM      5  H   UNL     1      15.625  -7.786 -16.769  1.00  0.00     0.345 HD
ATOM      6  H   UNL     1      15.997  -8.875 -15.521  1.00  0.00     0.345 HD
ATOM      7  H   UNL     1      16.816  -8.986 -16.993  1.00  0.00     0.345 HD
ENDBRANCH   3   4
BRANCH   3   8
ATOM      8  C   UNL     1      14.866  -9.801 -18.548  1.00  0.00     0.099 C 
ATOM      9  O   UNL     1      15.911 -10.153 -19.157  1.00  0.00    -0.544 OA
ATOM     10  O   UNL     1      13.716  -9.526 -19.280  1.00  0.00    -0.544 OA
ENDBRANCH   3   8
ENDBRANCH   1   3
BRANCH   1  11
ATOM     11  C   UNL     1      14.985 -11.131 -14.822  1.00  0.00     0.006 C 
ATOM     12  C   UNL     1      13.683 -11.637 -14.204  1.00  0.00     0.004 C 
ENDBRANCH   1  11
TORSDOF 4
ENDMDL
MODEL 8
REMARK VINA RESULT:    -5.175      1.776      2.133
REMARK INTER + INTRA:          -6.294
REMARK INTER:                  -6.255
REMARK INTRA:                  -0.039
REMARK UNBOUND:                -0.060
REMARK SMILES CC[C@@H](C)[C@@H]([NH3+])C(=O)[O-]
REMARK SMILES IDX 3 1 4 2 5 3 6 4 7 8 8 9 9 10 2 11 1 12
REMARK H PARENT 6 5 6 6 6 7
REMARK Flexibility Score: inf
ROOT
ATOM      1  C   UNL     1      14.071 -10.781 -16.195  1.00  0.00     0.050 C 
ATOM      2  C   UNL     1      15.086  -9.627 -16.275  1.00  0.00     0.014 C 
ENDROOT
BRANCH   1   3
ATOM      3  C   UNL     1      14.296 -11.796 -17.366  1.00  0.00     0.230 C 
BRANCH   3   4
ATOM      4  N   UNL     1      13.244 -12.823 -17.441  1.00  0.00    -0.350 N 
ATOM      5  H   UNL     1      12.472 -12.530 -18.081  1.00  0.00     0.345 HD
ATOM      6  H   UNL     1      13.654 -13.716 -17.801  1.00  0.00     0.345 HD
ATOM      7  H   UNL     1      12.852 -13.016 -16.491  1.00  0.00     0.345 HD
ENDBRANCH   3   4
BRANCH   3   8
ATOM      8  C   UNL     1      14.474 -11.097 -18.694  1.00  0.00     0.099 C 
ATOM      9  O   UNL     1      13.483 -10.567 -19.263  1.00  0.00    -0.544 OA
ATOM     10  O   UNL     1      15.727 -10.999 -19.289  1.00  0.00    -0.544 OA
ENDBRANCH   3   8
ENDBRANCH   1   3
BRANCH   1  11
ATOM     11  C   UNL     1      14.103 -11.395 -14.771  1.00  0.00     0.006 C 
ATOM     12  C   UNL     1      15.433 -11.195 -14.045  1.00  0.00     0.004 C 
ENDBRANCH   1  11
TORSDOF 4
ENDMDL
MODEL 9
REMARK VINA RESULT:    -5.139      2.464      3.624
REMARK INTER + INTRA:          -6.251
REMARK INTER:                  -6.162
REMARK INTRA:                  -0.089
REMARK UNBOUND:                -0.060
REMARK SMILES CC[C@@H](C)[C@@H]([NH3+])C(=O)[O-]
REMARK SMILES IDX 3 1 4 2 5 3 6 4 7 8 8 9 9 10 2 11 1 12
REMARK H PARENT 6 5 6 6 6 7
REMARK Flexibility Score: inf
ROOT
ATOM      1  C   UNL     1      15.058 -11.410 -17.631  1.00  0.00     0.050 C 
ATOM      2  C   UNL     1      16.129 -12.208 -18.394  1.00  0.00     0.014 C 
ENDROOT
BRANCH   1   3
ATOM      3  C   UNL     1      15.687 -10.677 -16.398  1.00  0.00     0.230 C 
BRANCH   3   4
ATOM      4  N   UNL     1      15.802  -9.223 -16.596  1.00  0.00    -0.350 N 
ATOM      5  H   UNL     1      15.461  -8.698 -15.759  1.00  0.00     0.345 HD
ATOM      6  H   UNL     1      16.804  -8.971 -16.760  1.00  0.00     0.345 HD
ATOM      7  H   UNL     1      15.258  -8.924 -17.437  1.00  0.00     0.345 HD
ENDBRANCH   3   4
BRANCH   3   8
ATOM      8  C   UNL     1      14.957 -11.000 -15.115  1.00  0.00     0.099 C 
ATOM      9  O   UNL     1      13.700 -11.067 -15.108  1.00  0.00    -0.544 OA
ATOM     10  O   UNL     1      15.655 -11.258 -13.940  1.00  0.00    -0.544 OA
ENDBRANCH   3   8
ENDBRANCH   1   3
BRANCH   1  11
ATOM     11  C   UNL     1      14.294 -10.497 -18.625  1.00  0.00     0.006 C 
ATOM     12  C   UNL     1      15.016 -10.298 -19.956  1.00  0.00     0.004 C 
ENDBRANCH   1  11
TORSDOF 4
ENDMDL
