MODEL 1
REMARK VINA RESULT:    -3.600      0.000      0.000
REMARK INTER + INTRA:          -3.706
REMARK INTER:                  -3.706
REMARK INTRA:                   0.000
REMARK UNBOUND:                 0.000
REMARK SMILES Oc1ccc2[nH]ccc2c1
REMARK SMILES IDX 3 1 4 2 5 3 9 4 8 5 7 6 6 7 10 8 2 9 1 11
REMARK H PARENT 6 10 1 12
REMARK Flexibility Score: inf
ROOT
ATOM      1  C   UNL     1      19.988  26.540  -5.517  1.00  0.00     0.048 A 
ATOM      2  C   UNL     1      20.467  25.871  -6.658  1.00  0.00     0.030 A 
ATOM      3  C   UNL     1      20.873  26.646  -7.743  1.00  0.00     0.046 A 
ATOM      4  C   UNL     1      20.814  28.014  -7.714  1.00  0.00     0.003 A 
ATOM      5  C   UNL     1      21.281  28.472  -8.926  1.00  0.00     0.028 A 
ATOM      6  C   UNL     1      21.609  27.328  -9.646  1.00  0.00     0.083 A 
ATOM      7  N   UNL     1      21.357  26.215  -8.919  1.00  0.00    -0.361 N 
ATOM      8  C   UNL     1      20.345  28.706  -6.600  1.00  0.00     0.056 A 
ATOM      9  C   UNL     1      19.926  27.955  -5.485  1.00  0.00     0.116 A 
ATOM     10  H   UNL     1      21.509  25.225  -9.217  1.00  0.00     0.166 HD
ENDROOT
BRANCH   9  11
ATOM     11  O   UNL     1      19.453  28.616  -4.354  1.00  0.00    -0.508 OA
ATOM     12  H   UNL     1      18.975  29.507  -4.425  1.00  0.00     0.293 HD
ENDBRANCH   9  11
TORSDOF 1
ENDMDL
MODEL 2
REMARK VINA RESULT:    -3.594      2.528      3.930
REMARK INTER + INTRA:          -3.699
REMARK INTER:                  -3.699
REMARK INTRA:                   0.000
REMARK UNBOUND:                 0.000
REMARK SMILES Oc1ccc2[nH]ccc2c1
REMARK SMILES IDX 3 1 4 2 5 3 9 4 8 5 7 6 6 7 10 8 2 9 1 11
REMARK H PARENT 6 10 1 12
REMARK Flexibility Score: inf
ROOT
ATOM      1  C   UNL     1      20.965  28.947  -8.245  1.00  0.00     0.048 A 
ATOM      2  C   UNL     1      20.258  28.896  -7.028  1.00  0.00     0.030 A 
ATOM      3  C   UNL     1      20.144  27.660  -6.395  1.00  0.00     0.046 A 
ATOM      4  C   UNL     1      20.696  26.524  -6.926  1.00  0.00     0.003 A 
ATOM      5  C   UNL     1      20.407  25.486  -6.069  1.00  0.00     0.028 A 
ATOM      6  C   UNL     1      19.677  26.061  -5.034  1.00  0.00     0.083 A 
ATOM      7  N   UNL     1      19.519  27.389  -5.238  1.00  0.00    -0.361 N 
ATOM      8  C   UNL     1      21.400  26.542  -8.128  1.00  0.00     0.056 A 
ATOM      9  C   UNL     1      21.535  27.774  -8.796  1.00  0.00     0.116 A 
ATOM     10  H   UNL     1      19.012  28.062  -4.620  1.00  0.00     0.166 HD
ENDROOT
BRANCH   9  11
ATOM     11  O   UNL     1      22.235  27.827  -9.999  1.00  0.00    -0.508 OA
ATOM     12  H   UNL     1      22.484  26.983 -10.502  1.00  0.00     0.293 HD
ENDBRANCH   9  11
TORSDOF 1
ENDMDL
MODEL 3
REMARK VINA RESULT:    -3.589      9.079     10.457
REMARK INTER + INTRA:          -3.694
REMARK INTER:                  -3.694
REMARK INTRA:                   0.000
REMARK UNBOUND:                 0.000
REMARK SMILES Oc1ccc2[nH]ccc2c1
REMARK SMILES IDX 3 1 4 2 5 3 9 4 8 5 7 6 6 7 10 8 2 9 1 11
REMARK H PARENT 6 10 1 12
REMARK Flexibility Score: inf
ROOT
ATOM      1  C   UNL     1      22.840  20.236   2.171  1.00  0.00     0.048 A 
ATOM      2  C   UNL     1      21.997  21.357   2.289  1.00  0.00     0.030 A 
ATOM      3  C   UNL     1      21.782  22.131   1.150  1.00  0.00     0.046 A 
ATOM      4  C   UNL     1      22.365  21.824  -0.051  1.00  0.00     0.003 A 
ATOM      5  C   UNL     1      21.957  22.772  -0.962  1.00  0.00     0.028 A 
ATOM      6  C   UNL     1      21.124  23.628  -0.248  1.00  0.00     0.083 A 
ATOM      7  N   UNL     1      21.021  23.232   1.042  1.00  0.00    -0.361 N 
ATOM      8  C   UNL     1      23.205  20.722  -0.200  1.00  0.00     0.056 A 
ATOM      9  C   UNL     1      23.444  19.917   0.931  1.00  0.00     0.116 A 
ATOM     10  H   UNL     1      20.463  23.693   1.795  1.00  0.00     0.166 HD
ENDROOT
BRANCH   9  11
ATOM     11  O   UNL     1      24.278  18.807   0.816  1.00  0.00    -0.508 OA
ATOM     12  H   UNL     1      23.941  17.872   1.010  1.00  0.00     0.293 HD
ENDBRANCH   9  11
TORSDOF 1
ENDMDL
MODEL 4
REMARK VINA RESULT:    -3.569      0.807      2.197
REMARK INTER + INTRA:          -3.673
REMARK INTER:                  -3.673
REMARK INTRA:                   0.000
REMARK UNBOUND:                 0.000
REMARK SMILES Oc1ccc2[nH]ccc2c1
REMARK SMILES IDX 3 1 4 2 5 3 9 4 8 5 7 6 6 7 10 8 2 9 1 11
REMARK H PARENT 6 10 1 12
REMARK Flexibility Score: inf
ROOT
ATOM      1  C   UNL     1      20.269  28.865  -6.828  1.00  0.00     0.048 A 
ATOM      2  C   UNL     1      20.718  28.260  -8.017  1.00  0.00     0.030 A 
ATOM      3  C   UNL     1      20.859  26.874  -8.028  1.00  0.00     0.046 A 
ATOM      4  C   UNL     1      20.573  26.112  -6.927  1.00  0.00     0.003 A 
ATOM      5  C   UNL     1      20.813  24.797  -7.261  1.00  0.00     0.028 A 
ATOM      6  C   UNL     1      21.242  24.832  -8.584  1.00  0.00     0.083 A 
ATOM      7  N   UNL     1      21.269  26.102  -9.048  1.00  0.00    -0.361 N 
ATOM      8  C   UNL     1      20.127  26.680  -5.735  1.00  0.00     0.056 A 
ATOM      9  C   UNL     1      19.974  28.079  -5.688  1.00  0.00     0.116 A 
ATOM     10  H   UNL     1      21.552  26.414 -10.004  1.00  0.00     0.166 HD
ENDROOT
BRANCH   9  11
ATOM     11  O   UNL     1      19.529  28.678  -4.512  1.00  0.00    -0.508 OA
ATOM     12  H   UNL     1      20.177  29.099  -3.856  1.00  0.00     0.293 HD
ENDBRANCH   9  11
TORSDOF 1
ENDMDL
MODEL 5
REMARK VINA RESULT:    -3.531     10.783     11.791
REMARK INTER + INTRA:          -3.634
REMARK INTER:                  -3.634
REMARK INTRA:                   0.000
REMARK UNBOUND:                 0.000
REMARK SMILES Oc1ccc2[nH]ccc2c1
REMARK SMILES IDX 3 1 4 2 5 3 9 4 8 5 7 6 6 7 10 8 2 9 1 11
REMARK H PARENT 6 10 1 12
REMARK Flexibility Score: inf
ROOT
ATOM      1  C   UNL     1      10.949  32.439  -6.796  1.00  0.00     0.048 A 
ATOM      2  C   UNL     1       9.594  32.081  -6.916  1.00  0.00     0.030 A 
ATOM      3  C   UNL     1       9.101  31.102  -6.056  1.00  0.00     0.046 A 
ATOM      4  C   UNL     1       9.897  30.499  -5.119  1.00  0.00     0.003 A 
ATOM      5  C   UNL     1       9.117  29.590  -4.439  1.00  0.00     0.028 A 
ATOM      6  C   UNL     1       7.855  29.692  -5.014  1.00  0.00     0.083 A 
ATOM      7  N   UNL     1       7.850  30.617  -6.001  1.00  0.00    -0.361 N 
ATOM      8  C   UNL     1      11.243  30.830  -4.974  1.00  0.00     0.056 A 
ATOM      9  C   UNL     1      11.775  31.816  -5.828  1.00  0.00     0.116 A 
ATOM     10  H   UNL     1       7.037  30.893  -6.597  1.00  0.00     0.166 HD
ENDROOT
BRANCH   9  11
ATOM     11  O   UNL     1      13.116  32.171  -5.709  1.00  0.00    -0.508 OA
ATOM     12  H   UNL     1      13.708  32.281  -6.525  1.00  0.00     0.293 HD
ENDBRANCH   9  11
TORSDOF 1
ENDMDL
MODEL 6
REMARK VINA RESULT:    -3.519     10.878     11.901
REMARK INTER + INTRA:          -3.622
REMARK INTER:                  -3.622
REMARK INTRA:                   0.000
REMARK UNBOUND:                 0.000
REMARK SMILES Oc1ccc2[nH]ccc2c1
REMARK SMILES IDX 3 1 4 2 5 3 9 4 8 5 7 6 6 7 10 8 2 9 1 11
REMARK H PARENT 6 10 1 12
REMARK Flexibility Score: inf
ROOT
ATOM      1  C   UNL     1      11.123  32.287  -6.311  1.00  0.00     0.048 A 
ATOM      2  C   UNL     1      11.438  31.531  -5.167  1.00  0.00     0.030 A 
ATOM      3  C   UNL     1      10.491  30.615  -4.712  1.00  0.00     0.046 A 
ATOM      4  C   UNL     1       9.289  30.446  -5.347  1.00  0.00     0.003 A 
ATOM      5  C   UNL     1       8.590  29.481  -4.656  1.00  0.00     0.028 A 
ATOM      6  C   UNL     1       9.427  29.104  -3.611  1.00  0.00     0.083 A 
ATOM      7  N   UNL     1      10.587  29.800  -3.649  1.00  0.00    -0.361 N 
ATOM      8  C   UNL     1       8.947  31.179  -6.481  1.00  0.00     0.056 A 
ATOM      9  C   UNL     1       9.880  32.114  -6.969  1.00  0.00     0.116 A 
ATOM     10  H   UNL     1      11.389  29.717  -2.985  1.00  0.00     0.166 HD
ENDROOT
BRANCH   9  11
ATOM     11  O   UNL     1       9.570  32.863  -8.101  1.00  0.00    -0.508 OA
ATOM     12  H   UNL     1       8.797  32.610  -8.706  1.00  0.00     0.293 HD
ENDBRANCH   9  11
TORSDOF 1
ENDMDL
MODEL 7
REMARK VINA RESULT:    -3.519      9.837     11.309
REMARK INTER + INTRA:          -3.622
REMARK INTER:                  -3.622
REMARK INTRA:                   0.000
REMARK UNBOUND:                 0.000
REMARK SMILES Oc1ccc2[nH]ccc2c1
REMARK SMILES IDX 3 1 4 2 5 3 9 4 8 5 7 6 6 7 10 8 2 9 1 11
REMARK H PARENT 6 10 1 12
REMARK Flexibility Score: inf
ROOT
ATOM      1  C   UNL     1      23.086  20.805  -0.221  1.00  0.00     0.048 A 
ATOM      2  C   UNL     1      22.183  21.877  -0.093  1.00  0.00     0.030 A 
ATOM      3  C   UNL     1      21.674  22.151   1.174  1.00  0.00     0.046 A 
ATOM      4  C   UNL     1      22.031  21.409   2.270  1.00  0.00     0.003 A 
ATOM      5  C   UNL     1      21.362  21.930   3.355  1.00  0.00     0.028 A 
ATOM      6  C   UNL     1      20.614  22.988   2.848  1.00  0.00     0.083 A 
ATOM      7  N   UNL     1      20.808  23.118   1.516  1.00  0.00    -0.361 N 
ATOM      8  C   UNL     1      22.922  20.342   2.177  1.00  0.00     0.056 A 
ATOM      9  C   UNL     1      23.456  20.037   0.910  1.00  0.00     0.116 A 
ATOM     10  H   UNL     1      20.371  23.828   0.886  1.00  0.00     0.166 HD
ENDROOT
BRANCH   9  11
ATOM     11  O   UNL     1      24.350  18.976   0.783  1.00  0.00    -0.508 OA
ATOM     12  H   UNL     1      25.075  18.812   1.471  1.00  0.00     0.293 HD
ENDBRANCH   9  11
TORSDOF 1
ENDMDL
MODEL 8
REMARK VINA RESULT:    -3.487     10.502     11.480
REMARK INTER + INTRA:          -3.589
REMARK INTER:                  -3.589
REMARK INTRA:                   0.000
REMARK UNBOUND:                 0.000
REMARK SMILES Oc1ccc2[nH]ccc2c1
REMARK SMILES IDX 3 1 4 2 5 3 9 4 8 5 7 6 6 7 10 8 2 9 1 11
REMARK H PARENT 6 10 1 12
REMARK Flexibility Score: inf
ROOT
ATOM      1  C   UNL     1       8.836  31.048  -6.400  1.00  0.00     0.048 A 
ATOM      2  C   UNL     1       9.031  30.282  -5.236  1.00  0.00     0.030 A 
ATOM      3  C   UNL     1      10.212  30.473  -4.522  1.00  0.00     0.046 A 
ATOM      4  C   UNL     1      11.161  31.374  -4.928  1.00  0.00     0.003 A 
ATOM      5  C   UNL     1      12.194  31.322  -4.018  1.00  0.00     0.028 A 
ATOM      6  C   UNL     1      11.807  30.369  -3.082  1.00  0.00     0.083 A 
ATOM      7  N   UNL     1      10.596  29.853  -3.395  1.00  0.00    -0.361 N 
ATOM      8  C   UNL     1      10.999  32.146  -6.076  1.00  0.00     0.056 A 
ATOM      9  C   UNL     1       9.816  31.978  -6.822  1.00  0.00     0.116 A 
ATOM     10  H   UNL     1      10.071  29.122  -2.864  1.00  0.00     0.166 HD
ENDROOT
BRANCH   9  11
ATOM     11  O   UNL     1       9.622  32.736  -7.975  1.00  0.00    -0.508 OA
ATOM     12  H   UNL     1       9.763  32.340  -8.897  1.00  0.00     0.293 HD
ENDBRANCH   9  11
TORSDOF 1
ENDMDL
MODEL 9
REMARK VINA RESULT:    -3.409      1.778      3.237
REMARK INTER + INTRA:          -3.509
REMARK INTER:                  -3.509
REMARK INTRA:                   0.000
REMARK UNBOUND:                 0.000
REMARK SMILES Oc1ccc2[nH]ccc2c1
REMARK SMILES IDX 3 1 4 2 5 3 9 4 8 5 7 6 6 7 10 8 2 9 1 11
REMARK H PARENT 6 10 1 12
REMARK Flexibility Score: inf
ROOT
ATOM      1  C   UNL     1      21.338  27.633  -8.340  1.00  0.00     0.048 A 
ATOM      2  C   UNL     1      21.368  26.268  -7.997  1.00  0.00     0.030 A 
ATOM      3  C   UNL     1      20.755  25.883  -6.806  1.00  0.00     0.046 A 
ATOM      4  C   UNL     1      20.140  26.792  -5.986  1.00  0.00     0.003 A 
ATOM      5  C   UNL     1      19.640  26.099  -4.905  1.00  0.00     0.028 A 
ATOM      6  C   UNL     1      19.988  24.771  -5.132  1.00  0.00     0.083 A 
ATOM      7  N   UNL     1      20.669  24.645  -6.294  1.00  0.00    -0.361 N 
ATOM      8  C   UNL     1      20.093  28.149  -6.297  1.00  0.00     0.056 A 
ATOM      9  C   UNL     1      20.703  28.573  -7.493  1.00  0.00     0.116 A 
ATOM     10  H   UNL     1      21.049  23.762  -6.705  1.00  0.00     0.166 HD
ENDROOT
BRANCH   9  11
ATOM     11  O   UNL     1      20.673  29.924  -7.833  1.00  0.00    -0.508 OA
ATOM     12  H   UNL     1      20.392  30.631  -7.164  1.00  0.00     0.293 HD
ENDBRANCH   9  11
TORSDOF 1
ENDMDL
