MODEL 1
REMARK VINA RESULT:    -3.524      0.000      0.000
REMARK INTER + INTRA:          -3.753
REMARK INTER:                  -3.730
REMARK INTRA:                  -0.022
REMARK UNBOUND:                -0.022
REMARK SMILES O=C([O-])c1cccnc1
REMARK SMILES IDX 4 1 5 2 9 3 6 4 8 5 7 6 2 7 1 8 3 9
REMARK H PARENT
REMARK Flexibility Score: inf
ROOT
ATOM      1  C   UNL     1      14.105  32.204  -9.640  1.00  0.00     0.016 A 
ATOM      2  C   UNL     1      14.475  32.986 -10.746  1.00  0.00     0.013 A 
ATOM      3  C   UNL     1      14.932  32.219  -8.503  1.00  0.00     0.120 A 
ATOM      4  C   UNL     1      15.640  33.754 -10.703  1.00  0.00     0.021 A 
ATOM      5  N   UNL     1      16.061  32.977  -8.488  1.00  0.00    -0.264 NA
ATOM      6  C   UNL     1      16.429  33.736  -9.553  1.00  0.00     0.111 A 
ENDROOT
BRANCH   1   7
ATOM      7  C   UNL     1      12.872  31.387  -9.674  1.00  0.00     0.073 C 
ATOM      8  O   UNL     1      11.912  31.707 -10.424  1.00  0.00    -0.545 OA
ATOM      9  O   UNL     1      12.757  30.253  -8.878  1.00  0.00    -0.545 OA
ENDBRANCH   1   7
TORSDOF 1
ENDMDL
MODEL 2
REMARK VINA RESULT:    -3.523      0.909      1.601
REMARK INTER + INTRA:          -3.752
REMARK INTER:                  -3.730
REMARK INTRA:                  -0.022
REMARK UNBOUND:                -0.022
REMARK SMILES O=C([O-])c1cccnc1
REMARK SMILES IDX 4 1 5 2 9 3 6 4 8 5 7 6 2 7 1 8 3 9
REMARK H PARENT
REMARK Flexibility Score: inf
ROOT
ATOM      1  C   UNL     1      14.076  32.189  -9.660  1.00  0.00     0.016 A 
ATOM      2  C   UNL     1      14.898  32.138  -8.523  1.00  0.00     0.013 A 
ATOM      3  C   UNL     1      14.474  33.000 -10.738  1.00  0.00     0.120 A 
ATOM      4  C   UNL     1      16.079  32.881  -8.478  1.00  0.00     0.021 A 
ATOM      5  N   UNL     1      15.630  33.714 -10.668  1.00  0.00    -0.264 NA
ATOM      6  C   UNL     1      16.432  33.672  -9.571  1.00  0.00     0.111 A 
ENDROOT
BRANCH   1   7
ATOM      7  C   UNL     1      12.822  31.406  -9.719  1.00  0.00     0.073 C 
ATOM      8  O   UNL     1      11.866  31.781 -10.450  1.00  0.00    -0.545 OA
ATOM      9  O   UNL     1      12.680  30.245  -8.969  1.00  0.00    -0.545 OA
ENDBRANCH   1   7
TORSDOF 1
ENDMDL
MODEL 3
REMARK VINA RESULT:    -3.220     13.899     14.573
REMARK INTER + INTRA:          -3.430
REMARK INTER:                  -3.411
REMARK INTRA:                  -0.019
REMARK UNBOUND:                -0.022
REMARK SMILES O=C([O-])c1cccnc1
REMARK SMILES IDX 4 1 5 2 9 3 6 4 8 5 7 6 2 7 1 8 3 9
REMARK H PARENT
REMARK Flexibility Score: inf
ROOT
ATOM      1  C   UNL     1      17.414  18.418 -10.472  1.00  0.00     0.016 A 
ATOM      2  C   UNL     1      17.913  17.106 -10.518  1.00  0.00     0.013 A 
ATOM      3  C   UNL     1      18.292  19.478 -10.762  1.00  0.00     0.120 A 
ATOM      4  C   UNL     1      19.251  16.876 -10.842  1.00  0.00     0.021 A 
ATOM      5  N   UNL     1      19.591  19.225 -11.076  1.00  0.00    -0.264 NA
ATOM      6  C   UNL     1      20.083  17.959 -11.121  1.00  0.00     0.111 A 
ENDROOT
BRANCH   1   7
ATOM      7  C   UNL     1      15.998  18.675 -10.129  1.00  0.00     0.073 C 
ATOM      8  O   UNL     1      15.485  18.159  -9.100  1.00  0.00    -0.545 OA
ATOM      9  O   UNL     1      15.213  19.488 -10.938  1.00  0.00    -0.545 OA
ENDBRANCH   1   7
TORSDOF 1
ENDMDL
MODEL 4
REMARK VINA RESULT:    -3.096     18.006     18.877
REMARK INTER + INTRA:          -3.300
REMARK INTER:                  -3.283
REMARK INTRA:                  -0.017
REMARK UNBOUND:                -0.022
REMARK SMILES O=C([O-])c1cccnc1
REMARK SMILES IDX 4 1 5 2 9 3 6 4 8 5 7 6 2 7 1 8 3 9
REMARK H PARENT
REMARK Flexibility Score: inf
ROOT
ATOM      1  C   UNL     1      28.045  22.003  -2.879  1.00  0.00     0.016 A 
ATOM      2  C   UNL     1      27.649  20.749  -2.386  1.00  0.00     0.013 A 
ATOM      3  C   UNL     1      28.796  22.048  -4.067  1.00  0.00     0.120 A 
ATOM      4  C   UNL     1      28.001  19.584  -3.070  1.00  0.00     0.021 A 
ATOM      5  N   UNL     1      29.125  20.897  -4.714  1.00  0.00    -0.264 NA
ATOM      6  C   UNL     1      28.747  19.679  -4.244  1.00  0.00     0.111 A 
ENDROOT
BRANCH   1   7
ATOM      7  C   UNL     1      27.678  23.244  -2.163  1.00  0.00     0.073 C 
ATOM      8  O   UNL     1      26.479  23.629  -2.122  1.00  0.00    -0.545 OA
ATOM      9  O   UNL     1      28.652  24.005  -1.527  1.00  0.00    -0.545 OA
ENDBRANCH   1   7
TORSDOF 1
ENDMDL
MODEL 5
REMARK VINA RESULT:    -2.945      2.792      3.507
REMARK INTER + INTRA:          -3.140
REMARK INTER:                  -3.117
REMARK INTRA:                  -0.023
REMARK UNBOUND:                -0.022
REMARK SMILES O=C([O-])c1cccnc1
REMARK SMILES IDX 4 1 5 2 9 3 6 4 8 5 7 6 2 7 1 8 3 9
REMARK H PARENT
REMARK Flexibility Score: inf
ROOT
ATOM      1  C   UNL     1      14.743  32.569  -9.578  1.00  0.00     0.016 A 
ATOM      2  C   UNL     1      14.109  33.131 -10.697  1.00  0.00     0.013 A 
ATOM      3  C   UNL     1      14.107  31.508  -8.911  1.00  0.00     0.120 A 
ATOM      4  C   UNL     1      12.875  32.638 -11.125  1.00  0.00     0.021 A 
ATOM      5  N   UNL     1      12.905  31.046  -9.349  1.00  0.00    -0.264 NA
ATOM      6  C   UNL     1      12.282  31.584 -10.430  1.00  0.00     0.111 A 
ENDROOT
BRANCH   1   7
ATOM      7  C   UNL     1      16.051  33.084  -9.116  1.00  0.00     0.073 C 
ATOM      8  O   UNL     1      16.472  34.205  -9.507  1.00  0.00    -0.545 OA
ATOM      9  O   UNL     1      16.834  32.337  -8.244  1.00  0.00    -0.545 OA
ENDBRANCH   1   7
TORSDOF 1
ENDMDL
MODEL 6
REMARK VINA RESULT:    -2.915     18.003     18.811
REMARK INTER + INTRA:          -3.108
REMARK INTER:                  -3.091
REMARK INTRA:                  -0.017
REMARK UNBOUND:                -0.022
REMARK SMILES O=C([O-])c1cccnc1
REMARK SMILES IDX 4 1 5 2 9 3 6 4 8 5 7 6 2 7 1 8 3 9
REMARK H PARENT
REMARK Flexibility Score: inf
ROOT
ATOM      1  C   UNL     1      28.016  22.006  -2.863  1.00  0.00     0.016 A 
ATOM      2  C   UNL     1      28.769  22.063  -4.046  1.00  0.00     0.013 A 
ATOM      3  C   UNL     1      27.637  20.745  -2.370  1.00  0.00     0.120 A 
ATOM      4  C   UNL     1      29.125  20.886  -4.708  1.00  0.00     0.021 A 
ATOM      5  N   UNL     1      27.998  19.614  -3.034  1.00  0.00    -0.264 NA
ATOM      6  C   UNL     1      28.726  19.658  -4.181  1.00  0.00     0.111 A 
ENDROOT
BRANCH   1   7
ATOM      7  C   UNL     1      27.633  23.247  -2.153  1.00  0.00     0.073 C 
ATOM      8  O   UNL     1      26.433  23.633  -2.141  1.00  0.00    -0.545 OA
ATOM      9  O   UNL     1      28.591  24.004  -1.491  1.00  0.00    -0.545 OA
ENDBRANCH   1   7
TORSDOF 1
ENDMDL
MODEL 7
REMARK VINA RESULT:    -2.915     14.216     14.775
REMARK INTER + INTRA:          -3.107
REMARK INTER:                  -3.084
REMARK INTRA:                  -0.024
REMARK UNBOUND:                -0.022
REMARK SMILES O=C([O-])c1cccnc1
REMARK SMILES IDX 4 1 5 2 9 3 6 4 8 5 7 6 2 7 1 8 3 9
REMARK H PARENT
REMARK Flexibility Score: inf
ROOT
ATOM      1  C   UNL     1      20.972  19.894 -11.013  1.00  0.00     0.016 A 
ATOM      2  C   UNL     1      19.575  20.035 -11.063  1.00  0.00     0.013 A 
ATOM      3  C   UNL     1      21.514  18.597 -11.021  1.00  0.00     0.120 A 
ATOM      4  C   UNL     1      18.758  18.905 -11.117  1.00  0.00     0.021 A 
ATOM      5  N   UNL     1      20.694  17.512 -11.075  1.00  0.00    -0.264 NA
ATOM      6  C   UNL     1      19.342  17.638 -11.122  1.00  0.00     0.111 A 
ENDROOT
BRANCH   1   7
ATOM      7  C   UNL     1      21.848  21.085 -10.956  1.00  0.00     0.073 C 
ATOM      8  O   UNL     1      21.370  22.240 -11.116  1.00  0.00    -0.545 OA
ATOM      9  O   UNL     1      23.211  20.946 -10.726  1.00  0.00    -0.545 OA
ENDBRANCH   1   7
TORSDOF 1
ENDMDL
MODEL 8
REMARK VINA RESULT:    -2.884      3.624      5.492
REMARK INTER + INTRA:          -3.076
REMARK INTER:                  -3.055
REMARK INTRA:                  -0.020
REMARK UNBOUND:                -0.022
REMARK SMILES O=C([O-])c1cccnc1
REMARK SMILES IDX 4 1 5 2 9 3 6 4 8 5 7 6 2 7 1 8 3 9
REMARK H PARENT
REMARK Flexibility Score: inf
ROOT
ATOM      1  C   UNL     1      11.652  30.118  -9.270  1.00  0.00     0.016 A 
ATOM      2  C   UNL     1      11.821  29.049  -8.375  1.00  0.00     0.013 A 
ATOM      3  C   UNL     1      10.357  30.394  -9.744  1.00  0.00     0.120 A 
ATOM      4  C   UNL     1      10.722  28.288  -7.976  1.00  0.00     0.021 A 
ATOM      5  N   UNL     1       9.303  29.636  -9.339  1.00  0.00    -0.264 NA
ATOM      6  C   UNL     1       9.457  28.600  -8.474  1.00  0.00     0.111 A 
ENDROOT
BRANCH   1   7
ATOM      7  C   UNL     1      12.810  30.932  -9.700  1.00  0.00     0.073 C 
ATOM      8  O   UNL     1      13.698  31.270  -8.873  1.00  0.00    -0.545 OA
ATOM      9  O   UNL     1      12.934  31.336 -11.024  1.00  0.00    -0.545 OA
ENDBRANCH   1   7
TORSDOF 1
ENDMDL
