MODEL 1
REMARK VINA RESULT:    -2.069      0.000      0.000
REMARK INTER + INTRA:          -2.069
REMARK INTER:                  -2.069
REMARK INTRA:                   0.000
REMARK UNBOUND:                 0.000
REMARK SMILES CC(=O)[O-]
REMARK SMILES IDX 1 1 2 2 3 3 4 4
REMARK H PARENT
REMARK Flexibility Score: inf
ROOT
ATOM      1  C   UNL     1      29.126  30.251 -12.785  1.00  0.00     0.063 C 
ATOM      2  C   UNL     1      27.741  30.448 -13.300  1.00  0.00     0.038 C 
ATOM      3  O   UNL     1      26.784  30.605 -12.496  1.00  0.00    -0.550 OA
ATOM      4  O   UNL     1      27.492  30.404 -14.666  1.00  0.00    -0.550 OA
ENDROOT
TORSDOF 0
ENDMDL
MODEL 2
REMARK VINA RESULT:    -2.059      0.133      1.622
REMARK INTER + INTRA:          -2.059
REMARK INTER:                  -2.059
REMARK INTRA:                   0.000
REMARK UNBOUND:                 0.000
REMARK SMILES CC(=O)[O-]
REMARK SMILES IDX 1 1 2 2 3 3 4 4
REMARK H PARENT
REMARK Flexibility Score: inf
ROOT
ATOM      1  C   UNL     1      29.042  30.290 -12.766  1.00  0.00     0.063 C 
ATOM      2  C   UNL     1      27.666  30.415 -13.326  1.00  0.00     0.038 C 
ATOM      3  O   UNL     1      27.490  30.437 -14.573  1.00  0.00    -0.550 OA
ATOM      4  O   UNL     1      26.578  30.565 -12.475  1.00  0.00    -0.550 OA
ENDROOT
TORSDOF 0
ENDMDL
MODEL 3
REMARK VINA RESULT:    -2.013      1.408      2.263
REMARK INTER + INTRA:          -2.013
REMARK INTER:                  -2.013
REMARK INTRA:                   0.000
REMARK UNBOUND:                 0.000
REMARK SMILES CC(=O)[O-]
REMARK SMILES IDX 1 1 2 2 3 3 4 4
REMARK H PARENT
REMARK Flexibility Score: inf
ROOT
ATOM      1  C   UNL     1      27.290  30.461 -14.405  1.00  0.00     0.063 C 
ATOM      2  C   UNL     1      28.032  30.417 -13.112  1.00  0.00     0.038 C 
ATOM      3  O   UNL     1      29.291  30.391 -13.107  1.00  0.00    -0.550 OA
ATOM      4  O   UNL     1      27.337  30.349 -11.911  1.00  0.00    -0.550 OA
ENDROOT
TORSDOF 0
ENDMDL
MODEL 4
REMARK VINA RESULT:    -1.988      2.114      2.646
REMARK INTER + INTRA:          -1.988
REMARK INTER:                  -1.988
REMARK INTRA:                   0.000
REMARK UNBOUND:                 0.000
REMARK SMILES CC(=O)[O-]
REMARK SMILES IDX 1 1 2 2 3 3 4 4
REMARK H PARENT
REMARK Flexibility Score: inf
ROOT
ATOM      1  C   UNL     1      27.632  28.875 -12.153  1.00  0.00     0.063 C 
ATOM      2  C   UNL     1      28.731  29.869 -12.314  1.00  0.00     0.038 C 
ATOM      3  O   UNL     1      28.840  30.523 -13.385  1.00  0.00    -0.550 OA
ATOM      4  O   UNL     1      29.672  30.038 -11.306  1.00  0.00    -0.550 OA
ENDROOT
TORSDOF 0
ENDMDL
MODEL 5
REMARK VINA RESULT:    -1.986      2.400      2.625
REMARK INTER + INTRA:          -1.986
REMARK INTER:                  -1.986
REMARK INTRA:                   0.000
REMARK UNBOUND:                 0.000
REMARK SMILES CC(=O)[O-]
REMARK SMILES IDX 1 1 2 2 3 3 4 4
REMARK H PARENT
REMARK Flexibility Score: inf
ROOT
ATOM      1  C   UNL     1      29.076  30.261 -12.761  1.00  0.00     0.063 C 
ATOM      2  C   UNL     1      28.522  30.106 -11.386  1.00  0.00     0.038 C 
ATOM      3  O   UNL     1      28.759  30.975 -10.507  1.00  0.00    -0.550 OA
ATOM      4  O   UNL     1      27.788  28.973 -11.055  1.00  0.00    -0.550 OA
ENDROOT
TORSDOF 0
ENDMDL
MODEL 6
REMARK VINA RESULT:    -1.921      1.394      2.021
REMARK INTER + INTRA:          -1.921
REMARK INTER:                  -1.921
REMARK INTRA:                   0.000
REMARK UNBOUND:                 0.000
REMARK SMILES CC(=O)[O-]
REMARK SMILES IDX 1 1 2 2 3 3 4 4
REMARK H PARENT
REMARK Flexibility Score: inf
ROOT
ATOM      1  C   UNL     1      26.656  30.444 -12.418  1.00  0.00     0.063 C 
ATOM      2  C   UNL     1      27.709  30.457 -13.475  1.00  0.00     0.038 C 
ATOM      3  O   UNL     1      27.384  30.438 -14.691  1.00  0.00    -0.550 OA
ATOM      4  O   UNL     1      29.052  30.433 -13.120  1.00  0.00    -0.550 OA
ENDROOT
TORSDOF 0
ENDMDL
MODEL 7
REMARK VINA RESULT:    -1.756      1.872      2.456
REMARK INTER + INTRA:          -1.756
REMARK INTER:                  -1.756
REMARK INTRA:                   0.000
REMARK UNBOUND:                 0.000
REMARK SMILES CC(=O)[O-]
REMARK SMILES IDX 1 1 2 2 3 3 4 4
REMARK H PARENT
REMARK Flexibility Score: inf
ROOT
ATOM      1  C   UNL     1      27.391  30.457 -14.327  1.00  0.00     0.063 C 
ATOM      2  C   UNL     1      26.146  31.099 -13.816  1.00  0.00     0.038 C 
ATOM      3  O   UNL     1      25.511  31.911 -14.539  1.00  0.00    -0.550 OA
ATOM      4  O   UNL     1      25.713  30.846 -12.520  1.00  0.00    -0.550 OA
ENDROOT
TORSDOF 0
ENDMDL
MODEL 8
REMARK VINA RESULT:    -1.732      3.395      3.881
REMARK INTER + INTRA:          -1.732
REMARK INTER:                  -1.732
REMARK INTRA:                   0.000
REMARK UNBOUND:                 0.000
REMARK SMILES CC(=O)[O-]
REMARK SMILES IDX 1 1 2 2 3 3 4 4
REMARK H PARENT
REMARK Flexibility Score: inf
ROOT
ATOM      1  C   UNL     1      24.278  32.621 -12.688  1.00  0.00     0.063 C 
ATOM      2  C   UNL     1      24.985  32.294 -13.960  1.00  0.00     0.038 C 
ATOM      3  O   UNL     1      24.619  32.826 -15.041  1.00  0.00    -0.550 OA
ATOM      4  O   UNL     1      26.012  31.359 -13.965  1.00  0.00    -0.550 OA
ENDROOT
TORSDOF 0
ENDMDL
MODEL 9
REMARK VINA RESULT:    -1.721     21.398     21.840
REMARK INTER + INTRA:          -1.721
REMARK INTER:                  -1.721
REMARK INTRA:                   0.000
REMARK UNBOUND:                 0.000
REMARK SMILES CC(=O)[O-]
REMARK SMILES IDX 1 1 2 2 3 3 4 4
REMARK H PARENT
REMARK Flexibility Score: inf
ROOT
ATOM      1  C   UNL     1      17.564  19.239   1.562  1.00  0.00     0.063 C 
ATOM      2  C   UNL     1      18.299  19.281   2.858  1.00  0.00     0.038 C 
ATOM      3  O   UNL     1      17.696  19.597   3.917  1.00  0.00    -0.550 OA
ATOM      4  O   UNL     1      19.665  19.026   2.893  1.00  0.00    -0.550 OA
ENDROOT
TORSDOF 0
ENDMDL
