MODEL 1
REMARK VINA RESULT:    -4.287      0.000      0.000
REMARK INTER + INTRA:          -9.736
REMARK INTER:                  -8.046
REMARK INTRA:                  -1.691
REMARK UNBOUND:                -1.691
REMARK SMILES CCCCCCCCC=CCCCCCCCC(=O)[O-]
REMARK SMILES IDX 10 1 9 2 11 3 12 4 13 5 14 6 15 7 16 8 17 9 18 10 19 11
REMARK SMILES IDX 20 12 8 13 7 14 6 15 5 16 4 17 3 18 2 19 1 20
REMARK H PARENT
REMARK Flexibility Score: inf
ROOT
ATOM      1  C   UNL     1       9.583 -27.030  30.913  1.00  0.00    -0.031 C 
ATOM      2  C   UNL     1       8.784 -27.414  31.926  1.00  0.00    -0.031 C 
ENDROOT
BRANCH   1   3
ATOM      3  C   UNL     1      11.071 -26.809  31.024  1.00  0.00     0.027 C 
BRANCH   3   4
ATOM      4  C   UNL     1      11.513 -25.502  30.351  1.00  0.00     0.004 C 
BRANCH   4   5
ATOM      5  C   UNL     1      10.331 -24.553  30.087  1.00  0.00     0.000 C 
BRANCH   5   6
ATOM      6  C   UNL     1      10.393 -23.917  28.689  1.00  0.00     0.000 C 
BRANCH   6   7
ATOM      7  C   UNL     1      10.575 -24.967  27.578  1.00  0.00     0.000 C 
BRANCH   7   8
ATOM      8  C   UNL     1       9.301 -25.789  27.330  1.00  0.00     0.006 C 
BRANCH   8   9
ATOM      9  C   UNL     1       9.121 -26.160  25.852  1.00  0.00     0.053 C 
BRANCH   9  10
ATOM     10  C   UNL     1       8.927 -24.930  25.025  1.00  0.00     0.041 C 
ATOM     11  O   UNL     1       9.732 -24.658  24.095  1.00  0.00    -0.550 OA
ATOM     12  O   UNL     1       7.829 -24.108  25.246  1.00  0.00    -0.550 OA
ENDBRANCH   9  10
ENDBRANCH   8   9
ENDBRANCH   7   8
ENDBRANCH   6   7
ENDBRANCH   5   6
ENDBRANCH   4   5
ENDBRANCH   3   4
ENDBRANCH   1   3
BRANCH   2  13
ATOM     13  C   UNL     1       9.233 -27.593  33.355  1.00  0.00     0.027 C 
BRANCH  13  14
ATOM     14  C   UNL     1       8.667 -28.872  33.999  1.00  0.00     0.004 C 
BRANCH  14  15
ATOM     15  C   UNL     1       7.556 -29.541  33.165  1.00  0.00     0.000 C 
BRANCH  15  16
ATOM     16  C   UNL     1       7.817 -31.041  32.942  1.00  0.00     0.000 C 
BRANCH  16  17
ATOM     17  C   UNL     1       9.312 -31.375  32.803  1.00  0.00    -0.000 C 
BRANCH  17  18
ATOM     18  C   UNL     1       9.706 -32.722  33.445  1.00  0.00    -0.000 C 
BRANCH  18  19
ATOM     19  C   UNL     1       9.497 -32.723  34.967  1.00  0.00    -0.003 C 
ATOM     20  C   UNL     1      10.350 -31.652  35.642  1.00  0.00     0.004 C 
ENDBRANCH  18  19
ENDBRANCH  17  18
ENDBRANCH  16  17
ENDBRANCH  15  16
ENDBRANCH  14  15
ENDBRANCH  13  14
ENDBRANCH   2  13
TORSDOF 15
ENDMDL
MODEL 2
REMARK VINA RESULT:    -4.285      1.304      2.417
REMARK INTER + INTRA:          -9.732
REMARK INTER:                  -8.448
REMARK INTRA:                  -1.284
REMARK UNBOUND:                -1.691
REMARK SMILES CCCCCCCCC=CCCCCCCCC(=O)[O-]
REMARK SMILES IDX 10 1 9 2 11 3 12 4 13 5 14 6 15 7 16 8 17 9 18 10 19 11
REMARK SMILES IDX 20 12 8 13 7 14 6 15 5 16 4 17 3 18 2 19 1 20
REMARK H PARENT
REMARK Flexibility Score: inf
ROOT
ATOM      1  C   UNL     1       8.320 -27.620  33.134  1.00  0.00    -0.031 C 
ATOM      2  C   UNL     1       7.808 -28.828  33.434  1.00  0.00    -0.031 C 
ENDROOT
BRANCH   1   3
ATOM      3  C   UNL     1       9.690 -27.384  32.549  1.00  0.00     0.027 C 
BRANCH   3   4
ATOM      4  C   UNL     1       9.641 -26.480  31.309  1.00  0.00     0.004 C 
BRANCH   4   5
ATOM      5  C   UNL     1       9.740 -24.987  31.672  1.00  0.00     0.000 C 
BRANCH   5   6
ATOM      6  C   UNL     1      10.426 -24.163  30.571  1.00  0.00     0.000 C 
BRANCH   6   7
ATOM      7  C   UNL     1      11.621 -24.906  29.944  1.00  0.00     0.000 C 
BRANCH   7   8
ATOM      8  C   UNL     1      11.512 -25.011  28.415  1.00  0.00     0.006 C 
BRANCH   8   9
ATOM      9  C   UNL     1      10.434 -24.083  27.839  1.00  0.00     0.053 C 
BRANCH   9  10
ATOM     10  C   UNL     1       9.408 -24.875  27.093  1.00  0.00     0.041 C 
ATOM     11  O   UNL     1       9.166 -26.067  27.421  1.00  0.00    -0.550 OA
ATOM     12  O   UNL     1       8.682 -24.282  26.067  1.00  0.00    -0.550 OA
ENDBRANCH   9  10
ENDBRANCH   8   9
ENDBRANCH   7   8
ENDBRANCH   6   7
ENDBRANCH   5   6
ENDBRANCH   4   5
ENDBRANCH   3   4
ENDBRANCH   1   3
BRANCH   2  13
ATOM     13  C   UNL     1       8.558 -30.132  33.323  1.00  0.00     0.027 C 
BRANCH  13  14
ATOM     14  C   UNL     1       7.755 -31.218  32.584  1.00  0.00     0.004 C 
BRANCH  14  15
ATOM     15  C   UNL     1       8.621 -32.392  32.085  1.00  0.00     0.000 C 
BRANCH  15  16
ATOM     16  C   UNL     1       8.346 -33.691  32.861  1.00  0.00     0.000 C 
BRANCH  16  17
ATOM     17  C   UNL     1       9.478 -34.059  33.835  1.00  0.00    -0.000 C 
BRANCH  17  18
ATOM     18  C   UNL     1      10.643 -33.046  33.839  1.00  0.00    -0.000 C 
BRANCH  18  19
ATOM     19  C   UNL     1      11.197 -32.806  35.252  1.00  0.00    -0.003 C 
ATOM     20  C   UNL     1      10.431 -31.694  35.964  1.00  0.00     0.004 C 
ENDBRANCH  18  19
ENDBRANCH  17  18
ENDBRANCH  16  17
ENDBRANCH  15  16
ENDBRANCH  14  15
ENDBRANCH  13  14
ENDBRANCH   2  13
TORSDOF 15
ENDMDL
MODEL 3
REMARK VINA RESULT:    -4.233      4.556      8.802
REMARK INTER + INTRA:          -9.635
REMARK INTER:                  -8.138
REMARK INTRA:                  -1.497
REMARK UNBOUND:                -1.691
REMARK SMILES CCCCCCCCC=CCCCCCCCC(=O)[O-]
REMARK SMILES IDX 10 1 9 2 11 3 12 4 13 5 14 6 15 7 16 8 17 9 18 10 19 11
REMARK SMILES IDX 20 12 8 13 7 14 6 15 5 16 4 17 3 18 2 19 1 20
REMARK H PARENT
REMARK Flexibility Score: inf
ROOT
ATOM      1  C   UNL     1       9.163 -27.640  31.265  1.00  0.00    -0.031 C 
ATOM      2  C   UNL     1      10.361 -27.496  30.669  1.00  0.00    -0.031 C 
ENDROOT
BRANCH   1   3
ATOM      3  C   UNL     1       8.706 -26.870  32.480  1.00  0.00     0.027 C 
BRANCH   3   4
ATOM      4  C   UNL     1       8.457 -27.787  33.685  1.00  0.00     0.004 C 
BRANCH   4   5
ATOM      5  C   UNL     1       7.809 -29.123  33.278  1.00  0.00     0.000 C 
BRANCH   5   6
ATOM      6  C   UNL     1       8.771 -30.311  33.441  1.00  0.00     0.000 C 
BRANCH   6   7
ATOM      7  C   UNL     1       8.175 -31.623  32.899  1.00  0.00     0.000 C 
BRANCH   7   8
ATOM      8  C   UNL     1       8.950 -32.861  33.375  1.00  0.00     0.006 C 
BRANCH   8   9
ATOM      9  C   UNL     1      10.428 -32.557  33.654  1.00  0.00     0.053 C 
BRANCH   9  10
ATOM     10  C   UNL     1      10.767 -32.875  35.076  1.00  0.00     0.041 C 
ATOM     11  O   UNL     1      10.869 -31.950  35.925  1.00  0.00    -0.550 OA
ATOM     12  O   UNL     1      10.921 -34.196  35.476  1.00  0.00    -0.550 OA
ENDBRANCH   9  10
ENDBRANCH   8   9
ENDBRANCH   7   8
ENDBRANCH   6   7
ENDBRANCH   5   6
ENDBRANCH   4   5
ENDBRANCH   3   4
ENDBRANCH   1   3
BRANCH   2  13
ATOM     13  C   UNL     1      11.474 -26.614  31.176  1.00  0.00     0.027 C 
BRANCH  13  14
ATOM     14  C   UNL     1      11.950 -25.596  30.123  1.00  0.00     0.004 C 
BRANCH  14  15
ATOM     15  C   UNL     1      11.157 -24.273  30.143  1.00  0.00     0.000 C 
BRANCH  15  16
ATOM     16  C   UNL     1       9.998 -24.273  29.132  1.00  0.00     0.000 C 
BRANCH  16  17
ATOM     17  C   UNL     1      10.434 -23.847  27.719  1.00  0.00    -0.000 C 
BRANCH  17  18
ATOM     18  C   UNL     1      10.073 -24.874  26.625  1.00  0.00    -0.000 C 
BRANCH  18  19
ATOM     19  C   UNL     1       9.798 -26.269  27.207  1.00  0.00    -0.003 C 
ATOM     20  C   UNL     1       8.390 -26.745  26.856  1.00  0.00     0.004 C 
ENDBRANCH  18  19
ENDBRANCH  17  18
ENDBRANCH  16  17
ENDBRANCH  15  16
ENDBRANCH  14  15
ENDBRANCH  13  14
ENDBRANCH   2  13
TORSDOF 15
ENDMDL
MODEL 4
REMARK VINA RESULT:    -4.121      4.518      8.721
REMARK INTER + INTRA:          -9.426
REMARK INTER:                  -7.716
REMARK INTRA:                  -1.709
REMARK UNBOUND:                -1.691
REMARK SMILES CCCCCCCCC=CCCCCCCCC(=O)[O-]
REMARK SMILES IDX 10 1 9 2 11 3 12 4 13 5 14 6 15 7 16 8 17 9 18 10 19 11
REMARK SMILES IDX 20 12 8 13 7 14 6 15 5 16 4 17 3 18 2 19 1 20
REMARK H PARENT
REMARK Flexibility Score: inf
ROOT
ATOM      1  C   UNL     1       9.795 -27.462  31.278  1.00  0.00    -0.031 C 
ATOM      2  C   UNL     1      10.530 -26.393  30.920  1.00  0.00    -0.031 C 
ENDROOT
BRANCH   1   3
ATOM      3  C   UNL     1       8.469 -27.397  31.995  1.00  0.00     0.027 C 
BRANCH   3   4
ATOM      4  C   UNL     1       8.608 -27.687  33.496  1.00  0.00     0.004 C 
BRANCH   4   5
ATOM      5  C   UNL     1       8.760 -29.190  33.788  1.00  0.00     0.000 C 
BRANCH   5   6
ATOM      6  C   UNL     1       7.632 -30.023  33.157  1.00  0.00     0.000 C 
BRANCH   6   7
ATOM      7  C   UNL     1       8.171 -31.156  32.265  1.00  0.00     0.000 C 
BRANCH   7   8
ATOM      8  C   UNL     1       9.468 -31.771  32.815  1.00  0.00     0.006 C 
BRANCH   8   9
ATOM      9  C   UNL     1       9.202 -32.919  33.798  1.00  0.00     0.053 C 
BRANCH   9  10
ATOM     10  C   UNL     1      10.164 -32.860  34.942  1.00  0.00     0.041 C 
ATOM     11  O   UNL     1      10.653 -33.921  35.413  1.00  0.00    -0.550 OA
ATOM     12  O   UNL     1      10.562 -31.632  35.455  1.00  0.00    -0.550 OA
ENDBRANCH   9  10
ENDBRANCH   8   9
ENDBRANCH   7   8
ENDBRANCH   6   7
ENDBRANCH   5   6
ENDBRANCH   4   5
ENDBRANCH   3   4
ENDBRANCH   1   3
BRANCH   2  13
ATOM     13  C   UNL     1      10.193 -24.964  31.262  1.00  0.00     0.027 C 
BRANCH  13  14
ATOM     14  C   UNL     1      10.624 -23.973  30.164  1.00  0.00     0.004 C 
BRANCH  14  15
ATOM     15  C   UNL     1       9.953 -24.236  28.800  1.00  0.00     0.000 C 
BRANCH  15  16
ATOM     16  C   UNL     1      10.790 -23.699  27.626  1.00  0.00     0.000 C 
BRANCH  16  17
ATOM     17  C   UNL     1      11.847 -24.704  27.134  1.00  0.00    -0.000 C 
BRANCH  17  18
ATOM     18  C   UNL     1      13.282 -24.362  27.587  1.00  0.00    -0.000 C 
BRANCH  18  19
ATOM     19  C   UNL     1      13.750 -25.250  28.749  1.00  0.00    -0.003 C 
ATOM     20  C   UNL     1      13.348 -26.706  28.529  1.00  0.00     0.004 C 
ENDBRANCH  18  19
ENDBRANCH  17  18
ENDBRANCH  16  17
ENDBRANCH  15  16
ENDBRANCH  14  15
ENDBRANCH  13  14
ENDBRANCH   2  13
TORSDOF 15
ENDMDL
MODEL 5
REMARK VINA RESULT:    -4.116      1.611      2.478
REMARK INTER + INTRA:          -9.417
REMARK INTER:                  -8.436
REMARK INTRA:                  -0.981
REMARK UNBOUND:                -1.691
REMARK SMILES CCCCCCCCC=CCCCCCCCC(=O)[O-]
REMARK SMILES IDX 10 1 9 2 11 3 12 4 13 5 14 6 15 7 16 8 17 9 18 10 19 11
REMARK SMILES IDX 20 12 8 13 7 14 6 15 5 16 4 17 3 18 2 19 1 20
REMARK H PARENT
REMARK Flexibility Score: inf
ROOT
ATOM      1  C   UNL     1       9.964 -24.801  31.179  1.00  0.00    -0.031 C 
ATOM      2  C   UNL     1       9.277 -25.444  32.142  1.00  0.00    -0.031 C 
ENDROOT
BRANCH   1   3
ATOM      3  C   UNL     1      10.352 -25.400  29.850  1.00  0.00     0.027 C 
BRANCH   3   4
ATOM      4  C   UNL     1      11.482 -24.613  29.170  1.00  0.00     0.004 C 
BRANCH   4   5
ATOM      5  C   UNL     1      11.062 -24.058  27.797  1.00  0.00     0.000 C 
BRANCH   5   6
ATOM      6  C   UNL     1       9.576 -24.311  27.495  1.00  0.00     0.000 C 
BRANCH   6   7
ATOM      7  C   UNL     1       9.361 -24.929  26.102  1.00  0.00     0.000 C 
BRANCH   7   8
ATOM      8  C   UNL     1       9.102 -26.443  26.163  1.00  0.00     0.006 C 
BRANCH   8   9
ATOM      9  C   UNL     1       7.605 -26.781  26.169  1.00  0.00     0.053 C 
BRANCH   9  10
ATOM     10  C   UNL     1       6.957 -26.300  24.910  1.00  0.00     0.041 C 
ATOM     11  O   UNL     1       6.053 -25.425  24.957  1.00  0.00    -0.550 OA
ATOM     12  O   UNL     1       7.385 -26.782  23.678  1.00  0.00    -0.550 OA
ENDBRANCH   9  10
ENDBRANCH   8   9
ENDBRANCH   7   8
ENDBRANCH   6   7
ENDBRANCH   5   6
ENDBRANCH   4   5
ENDBRANCH   3   4
ENDBRANCH   1   3
BRANCH   2  13
ATOM     13  C   UNL     1       8.869 -26.894  32.085  1.00  0.00     0.027 C 
BRANCH  13  14
ATOM     14  C   UNL     1       9.196 -27.654  33.383  1.00  0.00     0.004 C 
BRANCH  14  15
ATOM     15  C   UNL     1       8.025 -28.509  33.908  1.00  0.00     0.000 C 
BRANCH  15  16
ATOM     16  C   UNL     1       7.740 -29.723  33.007  1.00  0.00     0.000 C 
BRANCH  16  17
ATOM     17  C   UNL     1       8.703 -30.896  33.259  1.00  0.00    -0.000 C 
BRANCH  17  18
ATOM     18  C   UNL     1       8.497 -32.082  32.293  1.00  0.00    -0.000 C 
BRANCH  18  19
ATOM     19  C   UNL     1       7.018 -32.287  31.933  1.00  0.00    -0.003 C 
ATOM     20  C   UNL     1       6.688 -33.769  31.774  1.00  0.00     0.004 C 
ENDBRANCH  18  19
ENDBRANCH  17  18
ENDBRANCH  16  17
ENDBRANCH  15  16
ENDBRANCH  14  15
ENDBRANCH  13  14
ENDBRANCH   2  13
TORSDOF 15
ENDMDL
MODEL 6
REMARK VINA RESULT:    -4.102      1.914      2.528
REMARK INTER + INTRA:          -9.390
REMARK INTER:                  -7.726
REMARK INTRA:                  -1.665
REMARK UNBOUND:                -1.691
REMARK SMILES CCCCCCCCC=CCCCCCCCC(=O)[O-]
REMARK SMILES IDX 10 1 9 2 11 3 12 4 13 5 14 6 15 7 16 8 17 9 18 10 19 11
REMARK SMILES IDX 20 12 8 13 7 14 6 15 5 16 4 17 3 18 2 19 1 20
REMARK H PARENT
REMARK Flexibility Score: inf
ROOT
ATOM      1  C   UNL     1      10.189 -27.212  30.557  1.00  0.00    -0.031 C 
ATOM      2  C   UNL     1       9.229 -27.570  31.429  1.00  0.00    -0.031 C 
ENDROOT
BRANCH   1   3
ATOM      3  C   UNL     1      11.500 -26.566  30.934  1.00  0.00     0.027 C 
BRANCH   3   4
ATOM      4  C   UNL     1      11.750 -25.269  30.153  1.00  0.00     0.004 C 
BRANCH   4   5
ATOM      5  C   UNL     1      10.532 -24.329  30.175  1.00  0.00     0.000 C 
BRANCH   5   6
ATOM      6  C   UNL     1      10.090 -23.912  28.763  1.00  0.00     0.000 C 
BRANCH   6   7
ATOM      7  C   UNL     1      11.078 -24.383  27.680  1.00  0.00     0.000 C 
BRANCH   7   8
ATOM      8  C   UNL     1      10.377 -25.108  26.521  1.00  0.00     0.006 C 
BRANCH   8   9
ATOM      9  C   UNL     1       9.344 -26.132  27.010  1.00  0.00     0.053 C 
BRANCH   9  10
ATOM     10  C   UNL     1       9.859 -27.524  26.822  1.00  0.00     0.041 C 
ATOM     11  O   UNL     1      11.080 -27.777  27.000  1.00  0.00    -0.550 OA
ATOM     12  O   UNL     1       8.983 -28.553  26.499  1.00  0.00    -0.550 OA
ENDBRANCH   9  10
ENDBRANCH   8   9
ENDBRANCH   7   8
ENDBRANCH   6   7
ENDBRANCH   5   6
ENDBRANCH   4   5
ENDBRANCH   3   4
ENDBRANCH   1   3
BRANCH   2  13
ATOM     13  C   UNL     1       9.267 -27.297  32.912  1.00  0.00     0.027 C 
BRANCH  13  14
ATOM     14  C   UNL     1       8.142 -28.017  33.677  1.00  0.00     0.004 C 
BRANCH  14  15
ATOM     15  C   UNL     1       7.790 -29.401  33.096  1.00  0.00     0.000 C 
BRANCH  15  16
ATOM     16  C   UNL     1       8.806 -30.481  33.506  1.00  0.00     0.000 C 
BRANCH  16  17
ATOM     17  C   UNL     1       8.445 -31.878  32.974  1.00  0.00    -0.000 C 
BRANCH  17  18
ATOM     18  C   UNL     1       7.945 -31.873  31.514  1.00  0.00    -0.000 C 
BRANCH  18  19
ATOM     19  C   UNL     1       7.210 -33.171  31.148  1.00  0.00    -0.003 C 
ATOM     20  C   UNL     1       5.876 -33.276  31.883  1.00  0.00     0.004 C 
ENDBRANCH  18  19
ENDBRANCH  17  18
ENDBRANCH  16  17
ENDBRANCH  15  16
ENDBRANCH  14  15
ENDBRANCH  13  14
ENDBRANCH   2  13
TORSDOF 15
ENDMDL
MODEL 7
REMARK VINA RESULT:    -4.098      4.326      8.772
REMARK INTER + INTRA:          -9.382
REMARK INTER:                  -7.695
REMARK INTRA:                  -1.687
REMARK UNBOUND:                -1.691
REMARK SMILES CCCCCCCCC=CCCCCCCCC(=O)[O-]
REMARK SMILES IDX 10 1 9 2 11 3 12 4 13 5 14 6 15 7 16 8 17 9 18 10 19 11
REMARK SMILES IDX 20 12 8 13 7 14 6 15 5 16 4 17 3 18 2 19 1 20
REMARK H PARENT
REMARK Flexibility Score: inf
ROOT
ATOM      1  C   UNL     1      10.297 -25.202  30.280  1.00  0.00    -0.031 C 
ATOM      2  C   UNL     1      10.452 -24.078  29.556  1.00  0.00    -0.031 C 
ENDROOT
BRANCH   1   3
ATOM      3  C   UNL     1      10.190 -26.592  29.703  1.00  0.00     0.027 C 
BRANCH   3   4
ATOM      4  C   UNL     1       9.963 -27.652  30.790  1.00  0.00     0.004 C 
BRANCH   4   5
ATOM      5  C   UNL     1       9.815 -27.030  32.190  1.00  0.00     0.000 C 
BRANCH   5   6
ATOM      6  C   UNL     1       8.384 -27.158  32.737  1.00  0.00     0.000 C 
BRANCH   6   7
ATOM      7  C   UNL     1       8.251 -28.301  33.760  1.00  0.00     0.000 C 
BRANCH   7   8
ATOM      8  C   UNL     1       7.678 -29.584  33.136  1.00  0.00     0.006 C 
BRANCH   8   9
ATOM      9  C   UNL     1       8.756 -30.646  32.886  1.00  0.00     0.053 C 
BRANCH   9  10
ATOM     10  C   UNL     1       8.134 -31.998  32.745  1.00  0.00     0.041 C 
ATOM     11  O   UNL     1       7.051 -32.135  32.116  1.00  0.00    -0.550 OA
ATOM     12  O   UNL     1       8.773 -33.117  33.265  1.00  0.00    -0.550 OA
ENDBRANCH   9  10
ENDBRANCH   8   9
ENDBRANCH   7   8
ENDBRANCH   6   7
ENDBRANCH   5   6
ENDBRANCH   4   5
ENDBRANCH   3   4
ENDBRANCH   1   3
BRANCH   2  13
ATOM     13  C   UNL     1      10.448 -24.018  28.049  1.00  0.00     0.027 C 
BRANCH  13  14
ATOM     14  C   UNL     1      11.859 -23.848  27.457  1.00  0.00     0.004 C 
BRANCH  14  15
ATOM     15  C   UNL     1      12.589 -25.185  27.214  1.00  0.00     0.000 C 
BRANCH  15  16
ATOM     16  C   UNL     1      13.625 -25.491  28.309  1.00  0.00     0.000 C 
BRANCH  16  17
ATOM     17  C   UNL     1      14.103 -24.231  29.052  1.00  0.00    -0.000 C 
BRANCH  17  18
ATOM     18  C   UNL     1      15.441 -23.673  28.523  1.00  0.00    -0.000 C 
BRANCH  18  19
ATOM     19  C   UNL     1      15.274 -22.297  27.859  1.00  0.00    -0.003 C 
ATOM     20  C   UNL     1      15.461 -22.388  26.346  1.00  0.00     0.004 C 
ENDBRANCH  18  19
ENDBRANCH  17  18
ENDBRANCH  16  17
ENDBRANCH  15  16
ENDBRANCH  14  15
ENDBRANCH  13  14
ENDBRANCH   2  13
TORSDOF 15
ENDMDL
MODEL 8
REMARK VINA RESULT:    -4.065      3.480      6.112
REMARK INTER + INTRA:          -9.321
REMARK INTER:                  -7.580
REMARK INTRA:                  -1.740
REMARK UNBOUND:                -1.691
REMARK SMILES CCCCCCCCC=CCCCCCCCC(=O)[O-]
REMARK SMILES IDX 10 1 9 2 11 3 12 4 13 5 14 6 15 7 16 8 17 9 18 10 19 11
REMARK SMILES IDX 20 12 8 13 7 14 6 15 5 16 4 17 3 18 2 19 1 20
REMARK H PARENT
REMARK Flexibility Score: inf
ROOT
ATOM      1  C   UNL     1       7.293 -31.799  32.098  1.00  0.00    -0.031 C 
ATOM      2  C   UNL     1       6.590 -32.893  31.752  1.00  0.00    -0.031 C 
ENDROOT
BRANCH   1   3
ATOM      3  C   UNL     1       8.608 -31.816  32.839  1.00  0.00     0.027 C 
BRANCH   3   4
ATOM      4  C   UNL     1       8.838 -30.524  33.636  1.00  0.00     0.004 C 
BRANCH   4   5
ATOM      5  C   UNL     1       7.876 -29.399  33.214  1.00  0.00     0.000 C 
BRANCH   5   6
ATOM      6  C   UNL     1       8.451 -28.002  33.498  1.00  0.00     0.000 C 
BRANCH   6   7
ATOM      7  C   UNL     1       8.494 -27.120  32.237  1.00  0.00     0.000 C 
BRANCH   7   8
ATOM      8  C   UNL     1       9.917 -26.655  31.892  1.00  0.00     0.006 C 
BRANCH   8   9
ATOM      9  C   UNL     1       9.956 -25.204  31.396  1.00  0.00     0.053 C 
BRANCH   9  10
ATOM     10  C   UNL     1      10.337 -25.156  29.950  1.00  0.00     0.041 C 
ATOM     11  O   UNL     1      10.956 -26.120  29.427  1.00  0.00    -0.550 OA
ATOM     12  O   UNL     1       9.965 -24.071  29.167  1.00  0.00    -0.550 OA
ENDBRANCH   9  10
ENDBRANCH   8   9
ENDBRANCH   7   8
ENDBRANCH   6   7
ENDBRANCH   5   6
ENDBRANCH   4   5
ENDBRANCH   3   4
ENDBRANCH   1   3
BRANCH   2  13
ATOM     13  C   UNL     1       6.955 -34.306  32.134  1.00  0.00     0.027 C 
BRANCH  13  14
ATOM     14  C   UNL     1       7.461 -35.132  30.938  1.00  0.00     0.004 C 
BRANCH  14  15
ATOM     15  C   UNL     1       8.926 -34.831  30.558  1.00  0.00     0.000 C 
BRANCH  15  16
ATOM     16  C   UNL     1       9.198 -35.059  29.062  1.00  0.00     0.000 C 
BRANCH  16  17
ATOM     17  C   UNL     1       9.584 -33.767  28.319  1.00  0.00    -0.000 C 
BRANCH  17  18
ATOM     18  C   UNL     1       8.583 -32.611  28.531  1.00  0.00    -0.000 C 
BRANCH  18  19
ATOM     19  C   UNL     1       7.456 -32.621  27.488  1.00  0.00    -0.003 C 
ATOM     20  C   UNL     1       6.115 -32.976  28.127  1.00  0.00     0.004 C 
ENDBRANCH  18  19
ENDBRANCH  17  18
ENDBRANCH  16  17
ENDBRANCH  15  16
ENDBRANCH  14  15
ENDBRANCH  13  14
ENDBRANCH   2  13
TORSDOF 15
ENDMDL
MODEL 9
REMARK VINA RESULT:    -4.062      2.932      5.479
REMARK INTER + INTRA:          -9.314
REMARK INTER:                  -6.806
REMARK INTRA:                  -2.508
REMARK UNBOUND:                -1.691
REMARK SMILES CCCCCCCCC=CCCCCCCCC(=O)[O-]
REMARK SMILES IDX 10 1 9 2 11 3 12 4 13 5 14 6 15 7 16 8 17 9 18 10 19 11
REMARK SMILES IDX 20 12 8 13 7 14 6 15 5 16 4 17 3 18 2 19 1 20
REMARK H PARENT
REMARK Flexibility Score: inf
ROOT
ATOM      1  C   UNL     1       7.364 -31.486  32.379  1.00  0.00    -0.031 C 
ATOM      2  C   UNL     1       6.928 -32.556  31.690  1.00  0.00    -0.031 C 
ENDROOT
BRANCH   1   3
ATOM      3  C   UNL     1       8.578 -31.473  33.275  1.00  0.00     0.027 C 
BRANCH   3   4
ATOM      4  C   UNL     1       9.009 -30.046  33.643  1.00  0.00     0.004 C 
BRANCH   4   5
ATOM      5  C   UNL     1       7.880 -29.022  33.427  1.00  0.00     0.000 C 
BRANCH   5   6
ATOM      6  C   UNL     1       8.418 -27.618  33.108  1.00  0.00     0.000 C 
BRANCH   6   7
ATOM      7  C   UNL     1       9.009 -27.528  31.689  1.00  0.00     0.000 C 
BRANCH   7   8
ATOM      8  C   UNL     1      10.339 -26.759  31.653  1.00  0.00     0.006 C 
BRANCH   8   9
ATOM      9  C   UNL     1      10.296 -25.560  30.696  1.00  0.00     0.053 C 
BRANCH   9  10
ATOM     10  C   UNL     1      10.657 -25.986  29.309  1.00  0.00     0.041 C 
ATOM     11  O   UNL     1       9.760 -26.129  28.436  1.00  0.00    -0.550 OA
ATOM     12  O   UNL     1      11.989 -26.178  28.964  1.00  0.00    -0.550 OA
ENDBRANCH   9  10
ENDBRANCH   8   9
ENDBRANCH   7   8
ENDBRANCH   6   7
ENDBRANCH   5   6
ENDBRANCH   4   5
ENDBRANCH   3   4
ENDBRANCH   1   3
BRANCH   2  13
ATOM     13  C   UNL     1       7.527 -33.937  31.775  1.00  0.00     0.027 C 
BRANCH  13  14
ATOM     14  C   UNL     1       8.059 -34.439  30.421  1.00  0.00     0.004 C 
BRANCH  14  15
ATOM     15  C   UNL     1       7.683 -33.526  29.236  1.00  0.00     0.000 C 
BRANCH  15  16
ATOM     16  C   UNL     1       8.908 -32.815  28.636  1.00  0.00     0.000 C 
BRANCH  16  17
ATOM     17  C   UNL     1      10.217 -33.152  29.370  1.00  0.00    -0.000 C 
BRANCH  17  18
ATOM     18  C   UNL     1      10.755 -31.995  30.238  1.00  0.00    -0.000 C 
BRANCH  18  19
ATOM     19  C   UNL     1      10.026 -30.672  29.956  1.00  0.00    -0.003 C 
ATOM     20  C   UNL     1      10.896 -29.728  29.130  1.00  0.00     0.004 C 
ENDBRANCH  18  19
ENDBRANCH  17  18
ENDBRANCH  16  17
ENDBRANCH  15  16
ENDBRANCH  14  15
ENDBRANCH  13  14
ENDBRANCH   2  13
TORSDOF 15
ENDMDL
