MODEL 1
REMARK VINA RESULT:    -3.943      0.000      0.000
REMARK INTER + INTRA:          -4.605
REMARK INTER:                  -4.404
REMARK INTRA:                  -0.201
REMARK UNBOUND:                -0.201
REMARK SMILES O=C([O-])c1ccccc1C(=O)[O-]
REMARK SMILES IDX 4 1 9 2 5 3 8 4 6 5 7 6 2 7 1 8 3 9 10 10 11 11 12 12
REMARK H PARENT
REMARK Flexibility Score: inf
ROOT
ATOM      1  C   UNL     1      62.553  34.113  60.485  1.00  0.00     0.006 A 
ATOM      2  C   UNL     1      63.933  33.809  60.642  1.00  0.00     0.006 A 
ATOM      3  C   UNL     1      62.089  35.394  60.842  1.00  0.00     0.010 A 
ATOM      4  C   UNL     1      64.810  34.816  61.089  1.00  0.00     0.010 A 
ATOM      5  C   UNL     1      62.973  36.370  61.304  1.00  0.00     0.001 A 
ATOM      6  C   UNL     1      64.332  36.086  61.415  1.00  0.00     0.001 A 
ENDROOT
BRANCH   1   7
ATOM      7  C   UNL     1      61.580  33.165  59.895  1.00  0.00     0.072 C 
ATOM      8  O   UNL     1      61.245  33.257  58.684  1.00  0.00    -0.545 OA
ATOM      9  O   UNL     1      60.973  32.202  60.691  1.00  0.00    -0.545 OA
ENDBRANCH   1   7
BRANCH   2  10
ATOM     10  C   UNL     1      64.483  32.451  60.424  1.00  0.00     0.072 C 
ATOM     11  O   UNL     1      64.326  31.556  61.298  1.00  0.00    -0.545 OA
ATOM     12  O   UNL     1      65.120  32.127  59.233  1.00  0.00    -0.545 OA
ENDBRANCH   2  10
TORSDOF 2
ENDMDL
MODEL 2
REMARK VINA RESULT:    -3.943     12.213     14.172
REMARK INTER + INTRA:          -4.605
REMARK INTER:                  -4.413
REMARK INTRA:                  -0.192
REMARK UNBOUND:                -0.201
REMARK SMILES O=C([O-])c1ccccc1C(=O)[O-]
REMARK SMILES IDX 4 1 9 2 5 3 8 4 6 5 7 6 2 7 1 8 3 9 10 10 11 11 12 12
REMARK H PARENT
REMARK Flexibility Score: inf
ROOT
ATOM      1  C   UNL     1      56.019  27.703  50.702  1.00  0.00     0.006 A 
ATOM      2  C   UNL     1      56.217  26.311  50.490  1.00  0.00     0.006 A 
ATOM      3  C   UNL     1      54.761  28.267  50.418  1.00  0.00     0.010 A 
ATOM      4  C   UNL     1      55.131  25.523  50.064  1.00  0.00     0.010 A 
ATOM      5  C   UNL     1      53.705  27.470  49.975  1.00  0.00     0.001 A 
ATOM      6  C   UNL     1      53.886  26.099  49.810  1.00  0.00     0.001 A 
ENDROOT
BRANCH   1   7
ATOM      7  C   UNL     1      57.060  28.587  51.277  1.00  0.00     0.072 C 
ATOM      8  O   UNL     1      57.213  28.674  52.524  1.00  0.00    -0.545 OA
ATOM      9  O   UNL     1      57.836  29.384  50.445  1.00  0.00    -0.545 OA
ENDBRANCH   1   7
BRANCH   2  10
ATOM     10  C   UNL     1      57.541  25.660  50.628  1.00  0.00     0.072 C 
ATOM     11  O   UNL     1      57.743  24.824  51.550  1.00  0.00    -0.545 OA
ATOM     12  O   UNL     1      58.552  25.909  49.709  1.00  0.00    -0.545 OA
ENDBRANCH   2  10
TORSDOF 2
ENDMDL
MODEL 3
REMARK VINA RESULT:    -3.934     12.246     14.297
REMARK INTER + INTRA:          -4.596
REMARK INTER:                  -4.406
REMARK INTRA:                  -0.190
REMARK UNBOUND:                -0.201
REMARK SMILES O=C([O-])c1ccccc1C(=O)[O-]
REMARK SMILES IDX 4 1 9 2 5 3 8 4 6 5 7 6 2 7 1 8 3 9 10 10 11 11 12 12
REMARK H PARENT
REMARK Flexibility Score: inf
ROOT
ATOM      1  C   UNL     1      56.195  26.275  50.468  1.00  0.00     0.006 A 
ATOM      2  C   UNL     1      56.010  27.669  50.682  1.00  0.00     0.006 A 
ATOM      3  C   UNL     1      55.102  25.497  50.042  1.00  0.00     0.010 A 
ATOM      4  C   UNL     1      54.757  28.245  50.401  1.00  0.00     0.010 A 
ATOM      5  C   UNL     1      53.862  26.086  49.791  1.00  0.00     0.001 A 
ATOM      6  C   UNL     1      53.693  27.458  49.958  1.00  0.00     0.001 A 
ENDROOT
BRANCH   1   7
ATOM      7  C   UNL     1      57.509  25.606  50.604  1.00  0.00     0.072 C 
ATOM      8  O   UNL     1      57.739  24.828  51.568  1.00  0.00    -0.545 OA
ATOM      9  O   UNL     1      58.530  25.882  49.703  1.00  0.00    -0.545 OA
ENDBRANCH   1   7
BRANCH   2  10
ATOM     10  C   UNL     1      57.063  28.537  51.260  1.00  0.00     0.072 C 
ATOM     11  O   UNL     1      57.252  28.560  52.506  1.00  0.00    -0.545 OA
ATOM     12  O   UNL     1      57.896  29.284  50.436  1.00  0.00    -0.545 OA
ENDBRANCH   2  10
TORSDOF 2
ENDMDL
MODEL 4
REMARK VINA RESULT:    -3.933      0.070      3.152
REMARK INTER + INTRA:          -4.594
REMARK INTER:                  -4.388
REMARK INTRA:                  -0.205
REMARK UNBOUND:                -0.201
REMARK SMILES O=C([O-])c1ccccc1C(=O)[O-]
REMARK SMILES IDX 4 1 9 2 5 3 8 4 6 5 7 6 2 7 1 8 3 9 10 10 11 11 12 12
REMARK H PARENT
REMARK Flexibility Score: inf
ROOT
ATOM      1  C   UNL     1      63.951  33.821  60.598  1.00  0.00     0.006 A 
ATOM      2  C   UNL     1      62.574  34.153  60.466  1.00  0.00     0.006 A 
ATOM      3  C   UNL     1      64.852  34.806  61.043  1.00  0.00     0.010 A 
ATOM      4  C   UNL     1      62.140  35.437  60.847  1.00  0.00     0.010 A 
ATOM      5  C   UNL     1      64.403  36.080  61.394  1.00  0.00     0.001 A 
ATOM      6  C   UNL     1      63.048  36.390  61.308  1.00  0.00     0.001 A 
ENDROOT
BRANCH   1   7
ATOM      7  C   UNL     1      64.479  32.459  60.353  1.00  0.00     0.072 C 
ATOM      8  O   UNL     1      64.366  31.559  61.225  1.00  0.00    -0.545 OA
ATOM      9  O   UNL     1      65.168  32.179  59.179  1.00  0.00    -0.545 OA
ENDBRANCH   1   7
BRANCH   2  10
ATOM     10  C   UNL     1      61.580  33.227  59.875  1.00  0.00     0.072 C 
ATOM     11  O   UNL     1      61.307  33.290  58.646  1.00  0.00    -0.545 OA
ATOM     12  O   UNL     1      60.987  32.237  60.649  1.00  0.00    -0.545 OA
ENDBRANCH   2  10
TORSDOF 2
ENDMDL
MODEL 5
REMARK VINA RESULT:    -3.817      1.466      2.228
REMARK INTER + INTRA:          -4.465
REMARK INTER:                  -4.240
REMARK INTRA:                  -0.225
REMARK UNBOUND:                -0.201
REMARK SMILES O=C([O-])c1ccccc1C(=O)[O-]
REMARK SMILES IDX 4 1 9 2 5 3 8 4 6 5 7 6 2 7 1 8 3 9 10 10 11 11 12 12
REMARK H PARENT
REMARK Flexibility Score: inf
ROOT
ATOM      1  C   UNL     1      62.448  35.496  60.593  1.00  0.00     0.006 A 
ATOM      2  C   UNL     1      63.168  34.270  60.617  1.00  0.00     0.006 A 
ATOM      3  C   UNL     1      63.024  36.639  61.181  1.00  0.00     0.010 A 
ATOM      4  C   UNL     1      64.462  34.246  61.170  1.00  0.00     0.010 A 
ATOM      5  C   UNL     1      64.299  36.586  61.744  1.00  0.00     0.001 A 
ATOM      6  C   UNL     1      65.022  35.396  61.727  1.00  0.00     0.001 A 
ENDROOT
BRANCH   1   7
ATOM      7  C   UNL     1      61.142  35.652  59.913  1.00  0.00     0.072 C 
ATOM      8  O   UNL     1      60.069  35.659  60.573  1.00  0.00    -0.545 OA
ATOM      9  O   UNL     1      61.080  35.722  58.527  1.00  0.00    -0.545 OA
ENDBRANCH   1   7
BRANCH   2  10
ATOM     10  C   UNL     1      62.585  32.990  60.148  1.00  0.00     0.072 C 
ATOM     11  O   UNL     1      61.859  32.305  60.917  1.00  0.00    -0.545 OA
ATOM     12  O   UNL     1      62.775  32.563  58.840  1.00  0.00    -0.545 OA
ENDBRANCH   2  10
TORSDOF 2
ENDMDL
MODEL 6
REMARK VINA RESULT:    -3.782      1.839      3.241
REMARK INTER + INTRA:          -4.425
REMARK INTER:                  -4.233
REMARK INTRA:                  -0.192
REMARK UNBOUND:                -0.201
REMARK SMILES O=C([O-])c1ccccc1C(=O)[O-]
REMARK SMILES IDX 4 1 9 2 5 3 8 4 6 5 7 6 2 7 1 8 3 9 10 10 11 11 12 12
REMARK H PARENT
REMARK Flexibility Score: inf
ROOT
ATOM      1  C   UNL     1      63.570  35.023  60.768  1.00  0.00     0.006 A 
ATOM      2  C   UNL     1      63.300  33.663  60.450  1.00  0.00     0.006 A 
ATOM      3  C   UNL     1      62.504  35.942  60.801  1.00  0.00     0.010 A 
ATOM      4  C   UNL     1      61.968  33.260  60.241  1.00  0.00     0.010 A 
ATOM      5  C   UNL     1      61.193  35.524  60.568  1.00  0.00     0.001 A 
ATOM      6  C   UNL     1      60.924  34.183  60.301  1.00  0.00     0.001 A 
ENDROOT
BRANCH   1   7
ATOM      7  C   UNL     1      64.918  35.514  61.137  1.00  0.00     0.072 C 
ATOM      8  O   UNL     1      65.218  35.725  62.342  1.00  0.00    -0.545 OA
ATOM      9  O   UNL     1      65.847  35.811  60.149  1.00  0.00    -0.545 OA
ENDBRANCH   1   7
BRANCH   2  10
ATOM     10  C   UNL     1      64.373  32.659  60.257  1.00  0.00     0.072 C 
ATOM     11  O   UNL     1      64.552  31.751  61.113  1.00  0.00    -0.545 OA
ATOM     12  O   UNL     1      65.148  32.663  59.104  1.00  0.00    -0.545 OA
ENDBRANCH   2  10
TORSDOF 2
ENDMDL
MODEL 7
REMARK VINA RESULT:    -3.718     13.312     14.850
REMARK INTER + INTRA:          -4.354
REMARK INTER:                  -4.169
REMARK INTRA:                  -0.185
REMARK UNBOUND:                -0.201
REMARK SMILES O=C([O-])c1ccccc1C(=O)[O-]
REMARK SMILES IDX 4 1 9 2 5 3 8 4 6 5 7 6 2 7 1 8 3 9 10 10 11 11 12 12
REMARK H PARENT
REMARK Flexibility Score: inf
ROOT
ATOM      1  C   UNL     1      55.960  27.007  50.687  1.00  0.00     0.006 A 
ATOM      2  C   UNL     1      54.574  26.870  50.401  1.00  0.00     0.006 A 
ATOM      3  C   UNL     1      56.503  28.297  50.840  1.00  0.00     0.010 A 
ATOM      4  C   UNL     1      53.769  28.023  50.343  1.00  0.00     0.010 A 
ATOM      5  C   UNL     1      55.690  29.428  50.756  1.00  0.00     0.001 A 
ATOM      6  C   UNL     1      54.324  29.291  50.521  1.00  0.00     0.001 A 
ENDROOT
BRANCH   1   7
ATOM      7  C   UNL     1      56.858  25.849  50.903  1.00  0.00     0.072 C 
ATOM      8  O   UNL     1      57.735  25.547  50.051  1.00  0.00    -0.545 OA
ATOM      9  O   UNL     1      56.696  25.039  52.020  1.00  0.00    -0.545 OA
ENDBRANCH   1   7
BRANCH   2  10
ATOM     10  C   UNL     1      53.947  25.564  50.088  1.00  0.00     0.072 C 
ATOM     11  O   UNL     1      53.891  25.157  48.896  1.00  0.00    -0.545 OA
ATOM     12  O   UNL     1      53.472  24.744  51.104  1.00  0.00    -0.545 OA
ENDBRANCH   2  10
TORSDOF 2
ENDMDL
MODEL 8
REMARK VINA RESULT:    -3.705      1.998      4.457
REMARK INTER + INTRA:          -4.340
REMARK INTER:                  -4.155
REMARK INTRA:                  -0.184
REMARK UNBOUND:                -0.201
REMARK SMILES O=C([O-])c1ccccc1C(=O)[O-]
REMARK SMILES IDX 4 1 9 2 5 3 8 4 6 5 7 6 2 7 1 8 3 9 10 10 11 11 12 12
REMARK H PARENT
REMARK Flexibility Score: inf
ROOT
ATOM      1  C   UNL     1      63.302  32.130  60.609  1.00  0.00     0.006 A 
ATOM      2  C   UNL     1      61.930  32.484  60.488  1.00  0.00     0.006 A 
ATOM      3  C   UNL     1      63.642  30.906  61.215  1.00  0.00     0.010 A 
ATOM      4  C   UNL     1      60.947  31.573  60.918  1.00  0.00     0.010 A 
ATOM      5  C   UNL     1      62.651  30.028  61.655  1.00  0.00     0.001 A 
ATOM      6  C   UNL     1      61.307  30.354  61.495  1.00  0.00     0.001 A 
ENDROOT
BRANCH   1   7
ATOM      7  C   UNL     1      64.400  32.961  60.062  1.00  0.00     0.072 C 
ATOM      8  O   UNL     1      64.966  32.649  58.981  1.00  0.00    -0.545 OA
ATOM      9  O   UNL     1      64.866  34.059  60.775  1.00  0.00    -0.545 OA
ENDBRANCH   1   7
BRANCH   2  10
ATOM     10  C   UNL     1      61.485  33.808  59.992  1.00  0.00     0.072 C 
ATOM     11  O   UNL     1      60.918  33.906  58.870  1.00  0.00    -0.545 OA
ATOM     12  O   UNL     1      61.626  34.943  60.780  1.00  0.00    -0.545 OA
ENDBRANCH   2  10
TORSDOF 2
ENDMDL
MODEL 9
REMARK VINA RESULT:    -3.697      2.017      3.423
REMARK INTER + INTRA:          -4.331
REMARK INTER:                  -4.139
REMARK INTRA:                  -0.192
REMARK UNBOUND:                -0.201
REMARK SMILES O=C([O-])c1ccccc1C(=O)[O-]
REMARK SMILES IDX 4 1 9 2 5 3 8 4 6 5 7 6 2 7 1 8 3 9 10 10 11 11 12 12
REMARK H PARENT
REMARK Flexibility Score: inf
ROOT
ATOM      1  C   UNL     1      61.894  32.487  60.474  1.00  0.00     0.006 A 
ATOM      2  C   UNL     1      63.260  32.114  60.609  1.00  0.00     0.006 A 
ATOM      3  C   UNL     1      60.895  31.591  60.898  1.00  0.00     0.010 A 
ATOM      4  C   UNL     1      63.578  30.888  61.222  1.00  0.00     0.010 A 
ATOM      5  C   UNL     1      61.233  30.370  61.483  1.00  0.00     0.001 A 
ATOM      6  C   UNL     1      62.571  30.025  61.656  1.00  0.00     0.001 A 
ENDROOT
BRANCH   1   7
ATOM      7  C   UNL     1      61.466  33.812  59.968  1.00  0.00     0.072 C 
ATOM      8  O   UNL     1      61.033  33.943  58.793  1.00  0.00    -0.545 OA
ATOM      9  O   UNL     1      61.601  34.941  60.766  1.00  0.00    -0.545 OA
ENDBRANCH   1   7
BRANCH   2  10
ATOM     10  C   UNL     1      64.370  32.932  60.065  1.00  0.00     0.072 C 
ATOM     11  O   UNL     1      64.870  32.655  58.942  1.00  0.00    -0.545 OA
ATOM     12  O   UNL     1      64.831  34.048  60.752  1.00  0.00    -0.545 OA
ENDBRANCH   2  10
TORSDOF 2
ENDMDL
