MODEL 1
REMARK VINA RESULT:    -2.735      0.000      0.000
REMARK INTER + INTRA:          -2.735
REMARK INTER:                  -2.735
REMARK INTRA:                   0.000
REMARK UNBOUND:                 0.000
REMARK SMILES CC(=O)[O-]
REMARK SMILES IDX 1 1 2 2 3 3 4 4
REMARK H PARENT
REMARK Flexibility Score: inf
ROOT
ATOM      1  C   UNL     1      34.031   1.678  34.954  1.00  0.00     0.063 C 
ATOM      2  C   UNL     1      35.038   1.036  34.062  1.00  0.00     0.038 C 
ATOM      3  O   UNL     1      35.392  -0.156  34.263  1.00  0.00    -0.550 OA
ATOM      4  O   UNL     1      35.631   1.768  33.040  1.00  0.00    -0.550 OA
ENDROOT
TORSDOF 0
ENDMDL
MODEL 2
REMARK VINA RESULT:    -2.697      1.484      2.633
REMARK INTER + INTRA:          -2.697
REMARK INTER:                  -2.697
REMARK INTRA:                   0.000
REMARK UNBOUND:                 0.000
REMARK SMILES CC(=O)[O-]
REMARK SMILES IDX 1 1 2 2 3 3 4 4
REMARK H PARENT
REMARK Flexibility Score: inf
ROOT
ATOM      1  C   UNL     1      35.538   0.185  31.630  1.00  0.00     0.063 C 
ATOM      2  C   UNL     1      35.562   0.865  32.957  1.00  0.00     0.038 C 
ATOM      3  O   UNL     1      35.880   2.081  33.038  1.00  0.00    -0.550 OA
ATOM      4  O   UNL     1      35.288   0.146  34.114  1.00  0.00    -0.550 OA
ENDROOT
TORSDOF 0
ENDMDL
MODEL 3
REMARK VINA RESULT:    -2.692     15.648     15.816
REMARK INTER + INTRA:          -2.692
REMARK INTER:                  -2.692
REMARK INTRA:                   0.000
REMARK UNBOUND:                 0.000
REMARK SMILES CC(=O)[O-]
REMARK SMILES IDX 1 1 2 2 3 3 4 4
REMARK H PARENT
REMARK Flexibility Score: inf
ROOT
ATOM      1  C   UNL     1      20.771  -1.035  28.965  1.00  0.00     0.063 C 
ATOM      2  C   UNL     1      20.717  -0.279  27.680  1.00  0.00     0.038 C 
ATOM      3  O   UNL     1      20.238   0.885  27.651  1.00  0.00    -0.550 OA
ATOM      4  O   UNL     1      21.145  -0.878  26.501  1.00  0.00    -0.550 OA
ENDROOT
TORSDOF 0
ENDMDL
MODEL 4
REMARK VINA RESULT:    -2.664     15.820     15.883
REMARK INTER + INTRA:          -2.664
REMARK INTER:                  -2.664
REMARK INTRA:                   0.000
REMARK UNBOUND:                 0.000
REMARK SMILES CC(=O)[O-]
REMARK SMILES IDX 1 1 2 2 3 3 4 4
REMARK H PARENT
REMARK Flexibility Score: inf
ROOT
ATOM      1  C   UNL     1      21.985   0.963  25.657  1.00  0.00     0.063 C 
ATOM      2  C   UNL     1      21.189   0.080  26.557  1.00  0.00     0.038 C 
ATOM      3  O   UNL     1      21.141  -1.161  26.345  1.00  0.00    -0.550 OA
ATOM      4  O   UNL     1      20.455   0.629  27.601  1.00  0.00    -0.550 OA
ENDROOT
TORSDOF 0
ENDMDL
MODEL 5
REMARK VINA RESULT:    -2.409      2.616      2.841
REMARK INTER + INTRA:          -2.409
REMARK INTER:                  -2.409
REMARK INTRA:                   0.000
REMARK UNBOUND:                 0.000
REMARK SMILES CC(=O)[O-]
REMARK SMILES IDX 1 1 2 2 3 3 4 4
REMARK H PARENT
REMARK Flexibility Score: inf
ROOT
ATOM      1  C   UNL     1      35.512   1.136  32.686  1.00  0.00     0.063 C 
ATOM      2  C   UNL     1      35.354   0.138  31.590  1.00  0.00     0.038 C 
ATOM      3  O   UNL     1      36.046  -0.915  31.590  1.00  0.00    -0.550 OA
ATOM      4  O   UNL     1      34.485   0.391  30.536  1.00  0.00    -0.550 OA
ENDROOT
TORSDOF 0
ENDMDL
MODEL 6
REMARK VINA RESULT:    -2.395     15.095     15.307
REMARK INTER + INTRA:          -2.395
REMARK INTER:                  -2.395
REMARK INTRA:                   0.000
REMARK UNBOUND:                 0.000
REMARK SMILES CC(=O)[O-]
REMARK SMILES IDX 1 1 2 2 3 3 4 4
REMARK H PARENT
REMARK Flexibility Score: inf
ROOT
ATOM      1  C   UNL     1      21.386  -0.311  26.503  1.00  0.00     0.063 C 
ATOM      2  C   UNL     1      22.244   0.700  25.821  1.00  0.00     0.038 C 
ATOM      3  O   UNL     1      21.718   1.681  25.231  1.00  0.00    -0.550 OA
ATOM      4  O   UNL     1      23.623   0.535  25.786  1.00  0.00    -0.550 OA
ENDROOT
TORSDOF 0
ENDMDL
MODEL 7
REMARK VINA RESULT:    -2.332      2.120      2.688
REMARK INTER + INTRA:          -2.332
REMARK INTER:                  -2.332
REMARK INTRA:                   0.000
REMARK UNBOUND:                 0.000
REMARK SMILES CC(=O)[O-]
REMARK SMILES IDX 1 1 2 2 3 3 4 4
REMARK H PARENT
REMARK Flexibility Score: inf
ROOT
ATOM      1  C   UNL     1      34.923   0.709  34.268  1.00  0.00     0.063 C 
ATOM      2  C   UNL     1      33.852   1.618  34.770  1.00  0.00     0.038 C 
ATOM      3  O   UNL     1      34.130   2.801  35.099  1.00  0.00    -0.550 OA
ATOM      4  O   UNL     1      32.555   1.144  34.930  1.00  0.00    -0.550 OA
ENDROOT
TORSDOF 0
ENDMDL
MODEL 8
REMARK VINA RESULT:    -2.285     14.951     15.099
REMARK INTER + INTRA:          -2.285
REMARK INTER:                  -2.285
REMARK INTRA:                   0.000
REMARK UNBOUND:                 0.000
REMARK SMILES CC(=O)[O-]
REMARK SMILES IDX 1 1 2 2 3 3 4 4
REMARK H PARENT
REMARK Flexibility Score: inf
ROOT
ATOM      1  C   UNL     1      20.871  -0.185  27.856  1.00  0.00     0.063 C 
ATOM      2  C   UNL     1      21.026  -1.033  29.073  1.00  0.00     0.038 C 
ATOM      3  O   UNL     1      20.392  -2.116  29.175  1.00  0.00    -0.550 OA
ATOM      4  O   UNL     1      21.828  -0.603  30.124  1.00  0.00    -0.550 OA
ENDROOT
TORSDOF 0
ENDMDL
MODEL 9
REMARK VINA RESULT:    -2.024      6.843      6.947
REMARK INTER + INTRA:          -2.024
REMARK INTER:                  -2.024
REMARK INTRA:                   0.000
REMARK UNBOUND:                 0.000
REMARK SMILES CC(=O)[O-]
REMARK SMILES IDX 1 1 2 2 3 3 4 4
REMARK H PARENT
REMARK Flexibility Score: inf
ROOT
ATOM      1  C   UNL     1      28.874   0.503  28.888  1.00  0.00     0.063 C 
ATOM      2  C   UNL     1      29.662   0.862  30.102  1.00  0.00     0.038 C 
ATOM      3  O   UNL     1      30.818   0.392  30.267  1.00  0.00    -0.550 OA
ATOM      4  O   UNL     1      29.101   1.673  31.083  1.00  0.00    -0.550 OA
ENDROOT
TORSDOF 0
ENDMDL
