MODEL 1
REMARK VINA RESULT:    -3.867      0.000      0.000
REMARK INTER + INTRA:          -4.022
REMARK INTER:                  -4.771
REMARK INTRA:                   0.750
REMARK UNBOUND:                 0.750
REMARK SMILES CC1=CC=CC(C)(C)CC1=O
REMARK SMILES IDX 1 1 2 2 3 3 10 4 11 5 9 6 4 8 5 9 6 10 7 11 8 12
REMARK H PARENT
REMARK Flexibility Score: 80.00
ROOT
ATOM      1  C   UNL     1     120.724 179.275 122.605  1.00  0.00     0.048 C 
ATOM      2  C   UNL     1     120.789 179.181 124.111  1.00  0.00    -0.008 C 
ATOM      3  C   UNL     1     119.790 179.751 124.818  1.00  0.00     0.007 C 
ENDROOT
BRANCH   2   4
ATOM      4  C   UNL     1     121.911 178.400 124.692  1.00  0.00     0.159 C 
ATOM      5  O   UNL     1     122.625 177.698 123.924  1.00  0.00    -0.295 OA
BRANCH   4   6
ATOM      6  C   UNL     1     122.256 178.409 126.149  1.00  0.00     0.091 CG0
ATOM      7  G   UNL     1     121.101 177.920 127.051  1.00  0.00     0.000 G0
ENDBRANCH   4   6
ENDBRANCH   2   4
BRANCH   3   8
ATOM      8  C   UNL     1     119.566 179.799 126.282  1.00  0.00    -0.003 C 
ATOM      9  C   UNL     1     120.102 179.035 127.243  1.00  0.00    -0.020 C 
BRANCH   9  10
ATOM     10  C   UNL     1     121.111 177.928 127.051  1.00  0.00    -0.010 CG0
ATOM     11  C   UNL     1     121.718 177.582 128.430  1.00  0.00     0.016 C 
ATOM     12  C   UNL     1     120.410 176.662 126.508  1.00  0.00     0.016 C 
ATOM     13  G   UNL     1     122.253 178.417 126.132  1.00  0.00     0.000 G0
ENDBRANCH   9  10
ENDBRANCH   3   8
TORSDOF 0
ENDMDL
MODEL 2
REMARK VINA RESULT:    -3.669      2.141      3.521
REMARK INTER + INTRA:          -3.778
REMARK INTER:                  -4.525
REMARK INTRA:                   0.747
REMARK UNBOUND:                 0.750
REMARK SMILES CC1=CC=CC(C)(C)CC1=O
REMARK SMILES IDX 1 1 2 2 3 3 10 4 11 5 9 6 4 8 5 9 6 10 7 11 8 12
REMARK H PARENT
REMARK Flexibility Score: 80.00
ROOT
ATOM      1  C   UNL     1     123.059 178.593 126.551  1.00  0.00     0.048 C 
ATOM      2  C   UNL     1     121.729 178.943 125.927  1.00  0.00    -0.008 C 
ATOM      3  C   UNL     1     121.598 178.773 124.594  1.00  0.00     0.007 C 
ENDROOT
BRANCH   2   4
ATOM      4  C   UNL     1     120.645 179.376 126.845  1.00  0.00     0.159 C 
ATOM      5  O   UNL     1     120.813 179.245 128.089  1.00  0.00    -0.295 OA
BRANCH   4   6
ATOM      6  C   UNL     1     119.356 179.978 126.377  1.00  0.00     0.091 CG0
ATOM      7  G   UNL     1     118.552 179.045 125.444  1.00  0.00     0.000 G0
ENDBRANCH   4   6
ENDBRANCH   2   4
BRANCH   3   8
ATOM      8  C   UNL     1     120.427 179.000 123.716  1.00  0.00    -0.003 C 
ATOM      9  C   UNL     1     119.133 179.108 124.046  1.00  0.00    -0.020 C 
BRANCH   9  10
ATOM     10  C   UNL     1     118.554 179.046 125.439  1.00  0.00    -0.010 CG0
ATOM     11  C   UNL     1     117.105 179.581 125.385  1.00  0.00     0.016 C 
ATOM     12  C   UNL     1     118.504 177.580 125.926  1.00  0.00     0.016 C 
ATOM     13  G   UNL     1     119.368 179.960 126.382  1.00  0.00     0.000 G0
ENDBRANCH   9  10
ENDBRANCH   3   8
TORSDOF 0
ENDMDL
MODEL 3
REMARK VINA RESULT:    -3.658     12.459     13.924
REMARK INTER + INTRA:          -3.763
REMARK INTER:                  -4.523
REMARK INTRA:                   0.759
REMARK UNBOUND:                 0.750
REMARK SMILES CC1=CC=CC(C)(C)CC1=O
REMARK SMILES IDX 1 1 2 2 3 3 10 4 11 5 9 6 4 8 5 9 6 10 7 11 8 12
REMARK H PARENT
REMARK Flexibility Score: 80.00
ROOT
ATOM      1  C   UNL     1     123.980 168.399 129.368  1.00  0.00     0.048 C 
ATOM      2  C   UNL     1     124.759 167.140 129.069  1.00  0.00    -0.008 C 
ATOM      3  C   UNL     1     124.673 166.126 129.955  1.00  0.00     0.007 C 
ENDROOT
BRANCH   2   4
ATOM      4  C   UNL     1     125.499 167.092 127.782  1.00  0.00     0.159 C 
ATOM      5  O   UNL     1     125.288 167.995 126.926  1.00  0.00    -0.295 OA
BRANCH   4   6
ATOM      6  C   UNL     1     126.500 166.032 127.444  1.00  0.00     0.091 CG0
ATOM      7  G   UNL     1     125.904 164.606 127.452  1.00  0.00     0.000 G0
ENDBRANCH   4   6
ENDBRANCH   2   4
BRANCH   3   8
ATOM      8  C   UNL     1     125.290 164.779 129.924  1.00  0.00    -0.003 C 
ATOM      9  C   UNL     1     125.804 164.110 128.883  1.00  0.00    -0.020 C 
BRANCH   9  10
ATOM     10  C   UNL     1     125.898 164.602 127.459  1.00  0.00    -0.010 CG0
ATOM     11  C   UNL     1     126.862 163.672 126.688  1.00  0.00     0.016 C 
ATOM     12  C   UNL     1     124.512 164.520 126.779  1.00  0.00     0.016 C 
ATOM     13  G   UNL     1     126.488 166.029 127.438  1.00  0.00     0.000 G0
ENDBRANCH   9  10
ENDBRANCH   3   8
TORSDOF 0
ENDMDL
MODEL 4
REMARK VINA RESULT:    -3.567     12.114     13.632
REMARK INTER + INTRA:          -3.651
REMARK INTER:                  -4.410
REMARK INTRA:                   0.759
REMARK UNBOUND:                 0.750
REMARK SMILES CC1=CC=CC(C)(C)CC1=O
REMARK SMILES IDX 1 1 2 2 3 3 10 4 11 5 9 6 4 8 5 9 6 10 7 11 8 12
REMARK H PARENT
REMARK Flexibility Score: 80.00
ROOT
ATOM      1  C   UNL     1     124.863 164.785 130.847  1.00  0.00     0.048 C 
ATOM      2  C   UNL     1     124.949 165.611 129.586  1.00  0.00    -0.008 C 
ATOM      3  C   UNL     1     124.516 166.888 129.643  1.00  0.00     0.007 C 
ENDROOT
BRANCH   2   4
ATOM      4  C   UNL     1     125.576 164.971 128.401  1.00  0.00     0.159 C 
ATOM      5  O   UNL     1     126.183 163.876 128.552  1.00  0.00    -0.295 OA
BRANCH   4   6
ATOM      6  C   UNL     1     125.516 165.551 127.021  1.00  0.00     0.091 CG0
ATOM      7  G   UNL     1     126.163 166.950 126.920  1.00  0.00     0.000 G0
ENDBRANCH   4   6
ENDBRANCH   2   4
BRANCH   3   8
ATOM      8  C   UNL     1     124.498 167.935 128.595  1.00  0.00    -0.003 C 
ATOM      9  C   UNL     1     125.186 167.992 127.447  1.00  0.00    -0.020 C 
BRANCH   9  10
ATOM     10  C   UNL     1     126.151 166.953 126.927  1.00  0.00    -0.010 CG0
ATOM     11  C   UNL     1     126.426 167.251 125.435  1.00  0.00     0.016 C 
ATOM     12  C   UNL     1     127.493 167.051 127.688  1.00  0.00     0.016 C 
ATOM     13  G   UNL     1     125.511 165.551 127.027  1.00  0.00     0.000 G0
ENDBRANCH   9  10
ENDBRANCH   3   8
TORSDOF 0
ENDMDL
MODEL 5
REMARK VINA RESULT:    -3.561      1.541      2.530
REMARK INTER + INTRA:          -3.645
REMARK INTER:                  -4.407
REMARK INTRA:                   0.762
REMARK UNBOUND:                 0.750
REMARK SMILES CC1=CC=CC(C)(C)CC1=O
REMARK SMILES IDX 1 1 2 2 3 3 10 4 11 5 9 6 4 8 5 9 6 10 7 11 8 12
REMARK H PARENT
REMARK Flexibility Score: 80.00
ROOT
ATOM      1  C   UNL     1     120.752 179.485 122.797  1.00  0.00     0.048 C 
ATOM      2  C   UNL     1     121.097 178.587 123.961  1.00  0.00    -0.008 C 
ATOM      3  C   UNL     1     122.241 177.875 123.886  1.00  0.00     0.007 C 
ENDROOT
BRANCH   2   4
ATOM      4  C   UNL     1     120.183 178.618 125.132  1.00  0.00     0.159 C 
ATOM      5  O   UNL     1     119.301 179.517 125.190  1.00  0.00    -0.295 OA
BRANCH   4   6
ATOM      6  C   UNL     1     120.241 177.625 126.251  1.00  0.00     0.091 CG0
ATOM      7  G   UNL     1     121.603 177.609 126.981  1.00  0.00     0.000 G0
ENDBRANCH   4   6
ENDBRANCH   2   4
BRANCH   3   8
ATOM      8  C   UNL     1     122.850 176.944 124.865  1.00  0.00    -0.003 C 
ATOM      9  C   UNL     1     122.607 176.822 126.177  1.00  0.00    -0.020 C 
BRANCH   9  10
ATOM     10  C   UNL     1     121.605 177.614 126.981  1.00  0.00    -0.010 CG0
ATOM     11  C   UNL     1     121.414 176.911 128.345  1.00  0.00     0.016 C 
ATOM     12  C   UNL     1     122.148 179.036 127.250  1.00  0.00     0.016 C 
ATOM     13  G   UNL     1     120.243 177.624 126.252  1.00  0.00     0.000 G0
ENDBRANCH   9  10
ENDBRANCH   3   8
TORSDOF 0
ENDMDL
MODEL 6
REMARK VINA RESULT:    -3.486      2.311      4.369
REMARK INTER + INTRA:          -3.552
REMARK INTER:                  -4.306
REMARK INTRA:                   0.754
REMARK UNBOUND:                 0.750
REMARK SMILES CC1=CC=CC(C)(C)CC1=O
REMARK SMILES IDX 1 1 2 2 3 3 10 4 11 5 9 6 4 8 5 9 6 10 7 11 8 12
REMARK H PARENT
REMARK Flexibility Score: 80.00
ROOT
ATOM      1  C   UNL     1     124.063 177.172 130.427  1.00  0.00     0.048 C 
ATOM      2  C   UNL     1     123.305 177.787 129.275  1.00  0.00    -0.008 C 
ATOM      3  C   UNL     1     123.966 178.658 128.484  1.00  0.00     0.007 C 
ENDROOT
BRANCH   2   4
ATOM      4  C   UNL     1     121.909 177.325 129.061  1.00  0.00     0.159 C 
ATOM      5  O   UNL     1     121.500 176.314 129.694  1.00  0.00    -0.295 OA
BRANCH   4   6
ATOM      6  C   UNL     1     120.947 178.005 128.136  1.00  0.00     0.091 CG0
ATOM      7  G   UNL     1     121.433 178.042 126.670  1.00  0.00     0.000 G0
ENDBRANCH   4   6
ENDBRANCH   2   4
BRANCH   3   8
ATOM      8  C   UNL     1     123.506 179.391 127.281  1.00  0.00    -0.003 C 
ATOM      9  C   UNL     1     122.451 179.142 126.493  1.00  0.00    -0.020 C 
BRANCH   9  10
ATOM     10  C   UNL     1     121.441 178.035 126.671  1.00  0.00    -0.010 CG0
ATOM     11  C   UNL     1     120.223 178.342 125.769  1.00  0.00     0.016 C 
ATOM     12  C   UNL     1     122.046 176.689 126.212  1.00  0.00     0.016 C 
ATOM     13  G   UNL     1     120.956 178.002 128.137  1.00  0.00     0.000 G0
ENDBRANCH   9  10
ENDBRANCH   3   8
TORSDOF 0
ENDMDL
MODEL 7
REMARK VINA RESULT:    -3.464      2.531      4.216
REMARK INTER + INTRA:          -3.524
REMARK INTER:                  -4.275
REMARK INTRA:                   0.751
REMARK UNBOUND:                 0.750
REMARK SMILES CC1=CC=CC(C)(C)CC1=O
REMARK SMILES IDX 1 1 2 2 3 3 10 4 11 5 9 6 4 8 5 9 6 10 7 11 8 12
REMARK H PARENT
REMARK Flexibility Score: 80.00
ROOT
ATOM      1  C   UNL     1     118.441 175.701 129.459  1.00  0.00     0.048 C 
ATOM      2  C   UNL     1     119.605 176.600 129.119  1.00  0.00    -0.008 C 
ATOM      3  C   UNL     1     120.600 176.706 130.025  1.00  0.00     0.007 C 
ENDROOT
BRANCH   2   4
ATOM      4  C   UNL     1     119.597 177.238 127.777  1.00  0.00     0.159 C 
ATOM      5  O   UNL     1     118.738 176.865 126.933  1.00  0.00    -0.295 OA
BRANCH   4   6
ATOM      6  C   UNL     1     120.552 178.317 127.370  1.00  0.00     0.091 CG0
ATOM      7  G   UNL     1     122.033 177.886 127.460  1.00  0.00     0.000 G0
ENDBRANCH   4   6
ENDBRANCH   2   4
BRANCH   3   8
ATOM      8  C   UNL     1     121.865 177.476 129.965  1.00  0.00    -0.003 C 
ATOM      9  C   UNL     1     122.499 177.976 128.896  1.00  0.00    -0.020 C 
BRANCH   9  10
ATOM     10  C   UNL     1     122.042 177.887 127.459  1.00  0.00    -0.010 CG0
ATOM     11  C   UNL     1     122.876 178.885 126.624  1.00  0.00     0.016 C 
ATOM     12  C   UNL     1     122.304 176.468 126.908  1.00  0.00     0.016 C 
ATOM     13  G   UNL     1     120.557 178.301 127.359  1.00  0.00     0.000 G0
ENDBRANCH   9  10
ENDBRANCH   3   8
TORSDOF 0
ENDMDL
MODEL 8
REMARK VINA RESULT:    -3.447      8.021      9.223
REMARK INTER + INTRA:          -3.503
REMARK INTER:                  -4.248
REMARK INTRA:                   0.745
REMARK UNBOUND:                 0.750
REMARK SMILES CC1=CC=CC(C)(C)CC1=O
REMARK SMILES IDX 1 1 2 2 3 3 10 4 11 5 9 6 4 8 5 9 6 10 7 11 8 12
REMARK H PARENT
REMARK Flexibility Score: 80.00
ROOT
ATOM      1  C   UNL     1     125.580 176.580 122.391  1.00  0.00     0.048 C 
ATOM      2  C   UNL     1     126.729 175.600 122.413  1.00  0.00    -0.008 C 
ATOM      3  C   UNL     1     127.079 175.073 123.605  1.00  0.00     0.007 C 
ENDROOT
BRANCH   2   4
ATOM      4  C   UNL     1     127.334 175.237 121.106  1.00  0.00     0.159 C 
ATOM      5  O   UNL     1     126.752 175.598 120.046  1.00  0.00    -0.295 OA
BRANCH   4   6
ATOM      6  C   UNL     1     128.614 174.473 120.972  1.00  0.00     0.091 CG0
ATOM      7  G   UNL     1     128.564 173.078 121.636  1.00  0.00     0.000 G0
ENDBRANCH   4   6
ENDBRANCH   2   4
BRANCH   3   8
ATOM      8  C   UNL     1     128.129 174.082 123.937  1.00  0.00    -0.003 C 
ATOM      9  C   UNL     1     128.765 173.223 123.129  1.00  0.00    -0.020 C 
BRANCH   9  10
ATOM     10  C   UNL     1     128.569 173.081 121.638  1.00  0.00    -0.010 CG0
ATOM     11  C   UNL     1     129.749 172.260 121.070  1.00  0.00     0.016 C 
ATOM     12  C   UNL     1     127.264 172.305 121.349  1.00  0.00     0.016 C 
ATOM     13  G   UNL     1     128.591 174.476 120.975  1.00  0.00     0.000 G0
ENDBRANCH   9  10
ENDBRANCH   3   8
TORSDOF 0
ENDMDL
MODEL 9
REMARK VINA RESULT:    -3.398      6.721      8.476
REMARK INTER + INTRA:          -3.443
REMARK INTER:                  -4.193
REMARK INTRA:                   0.750
REMARK UNBOUND:                 0.750
REMARK SMILES CC1=CC=CC(C)(C)CC1=O
REMARK SMILES IDX 1 1 2 2 3 3 10 4 11 5 9 6 4 8 5 9 6 10 7 11 8 12
REMARK H PARENT
REMARK Flexibility Score: 80.00
ROOT
ATOM      1  C   UNL     1     117.792 170.204 130.349  1.00  0.00     0.048 C 
ATOM      2  C   UNL     1     119.181 170.639 129.947  1.00  0.00    -0.008 C 
ATOM      3  C   UNL     1     120.161 169.711 129.977  1.00  0.00     0.007 C 
ENDROOT
BRANCH   2   4
ATOM      4  C   UNL     1     119.342 172.039 129.476  1.00  0.00     0.159 C 
ATOM      5  O   UNL     1     118.308 172.728 129.254  1.00  0.00    -0.295 OA
BRANCH   4   6
ATOM      6  C   UNL     1     120.673 172.690 129.260  1.00  0.00     0.091 CG0
ATOM      7  G   UNL     1     121.548 171.957 128.219  1.00  0.00     0.000 G0
ENDBRANCH   4   6
ENDBRANCH   2   4
BRANCH   3   8
ATOM      8  C   UNL     1     121.594 169.828 129.619  1.00  0.00    -0.003 C 
ATOM      9  C   UNL     1     122.205 170.759 128.874  1.00  0.00    -0.020 C 
BRANCH   9  10
ATOM     10  C   UNL     1     121.556 171.959 128.228  1.00  0.00    -0.010 CG0
ATOM     11  C   UNL     1     122.671 172.936 127.789  1.00  0.00     0.016 C 
ATOM     12  C   UNL     1     120.779 171.524 126.965  1.00  0.00     0.016 C 
ATOM     13  G   UNL     1     120.660 172.684 129.258  1.00  0.00     0.000 G0
ENDBRANCH   9  10
ENDBRANCH   3   8
TORSDOF 0
ENDMDL
