MODEL 1
REMARK VINA RESULT:     1.333      0.000      0.000
REMARK INTER + INTRA:           5.986
REMARK INTER:                   3.514
REMARK INTRA:                   2.472
REMARK UNBOUND:                 2.472
REMARK SMILES CCCCCCCCCCCCCCCCCCCCCCCCCCCCCC(=O)[O-]
REMARK SMILES IDX 16 1 17 2 18 3 19 4 20 5 21 6 22 7 23 8 24 9 25 10 26 11
REMARK SMILES IDX 27 12 28 13 29 14 30 15 31 16 32 17 15 18 14 19 13 20 12 21
REMARK SMILES IDX 11 22 10 23 9 24 8 25 7 26 6 27 5 28 4 29 3 30 2 31 1 32
REMARK H PARENT
REMARK Flexibility Score: inf
ROOT
ATOM      1  C   UNL     1      42.977  61.668  55.094  1.00  0.00     0.000 C 
ENDROOT
BRANCH   1   2
ATOM      2  C   UNL     1      44.452  61.214  55.152  1.00  0.00     0.000 C 
BRANCH   2   3
ATOM      3  C   UNL     1      45.390  62.346  55.597  1.00  0.00     0.000 C 
BRANCH   3   4
ATOM      4  C   UNL     1      45.450  63.452  54.533  1.00  0.00     0.000 C 
BRANCH   4   5
ATOM      5  C   UNL     1      45.165  64.853  55.106  1.00  0.00     0.000 C 
BRANCH   5   6
ATOM      6  C   UNL     1      43.736  65.060  55.648  1.00  0.00     0.000 C 
BRANCH   6   7
ATOM      7  C   UNL     1      43.445  64.393  57.005  1.00  0.00     0.000 C 
BRANCH   7   8
ATOM      8  C   UNL     1      44.102  65.125  58.185  1.00  0.00     0.000 C 
BRANCH   8   9
ATOM      9  C   UNL     1      45.231  64.280  58.800  1.00  0.00     0.000 C 
BRANCH   9  10
ATOM     10  C   UNL     1      46.169  65.124  59.680  1.00  0.00     0.000 C 
BRANCH  10  11
ATOM     11  C   UNL     1      47.626  65.107  59.177  1.00  0.00     0.000 C 
BRANCH  11  12
ATOM     12  C   UNL     1      48.295  63.738  59.393  1.00  0.00     0.000 C 
BRANCH  12  13
ATOM     13  C   UNL     1      48.378  63.376  60.889  1.00  0.00     0.006 C 
BRANCH  13  14
ATOM     14  C   UNL     1      48.733  61.899  61.109  1.00  0.00     0.053 C 
BRANCH  14  15
ATOM     15  C   UNL     1      47.541  61.008  60.921  1.00  0.00     0.041 C 
ATOM     16  O   UNL     1      47.697  59.790  60.653  1.00  0.00    -0.550 OA
ATOM     17  O   UNL     1      46.258  61.533  61.017  1.00  0.00    -0.550 OA
ENDBRANCH  14  15
ENDBRANCH  13  14
ENDBRANCH  12  13
ENDBRANCH  11  12
ENDBRANCH  10  11
ENDBRANCH   9  10
ENDBRANCH   8   9
ENDBRANCH   7   8
ENDBRANCH   6   7
ENDBRANCH   5   6
ENDBRANCH   4   5
ENDBRANCH   3   4
ENDBRANCH   2   3
ENDBRANCH   1   2
BRANCH   1  18
ATOM     18  C   UNL     1      42.623  62.730  56.147  1.00  0.00     0.000 C 
BRANCH  18  19
ATOM     19  C   UNL     1      41.129  62.719  56.517  1.00  0.00     0.000 C 
BRANCH  19  20
ATOM     20  C   UNL     1      40.801  63.680  57.670  1.00  0.00     0.000 C 
BRANCH  20  21
ATOM     21  C   UNL     1      39.316  64.071  57.719  1.00  0.00     0.000 C 
BRANCH  21  22
ATOM     22  C   UNL     1      39.049  65.071  58.853  1.00  0.00     0.000 C 
BRANCH  22  23
ATOM     23  C   UNL     1      39.985  64.882  60.062  1.00  0.00     0.000 C 
BRANCH  23  24
ATOM     24  C   UNL     1      39.582  63.760  61.035  1.00  0.00    -0.000 C 
BRANCH  24  25
ATOM     25  C   UNL     1      40.317  62.435  60.769  1.00  0.00    -0.000 C 
BRANCH  25  26
ATOM     26  C   UNL     1      39.401  61.206  60.920  1.00  0.00    -0.000 C 
BRANCH  26  27
ATOM     27  C   UNL     1      38.796  60.712  59.587  1.00  0.00    -0.000 C 
BRANCH  27  28
ATOM     28  C   UNL     1      37.306  60.356  59.724  1.00  0.00    -0.000 C 
BRANCH  28  29
ATOM     29  C   UNL     1      36.423  61.603  59.607  1.00  0.00    -0.000 C 
BRANCH  29  30
ATOM     30  C   UNL     1      36.337  62.344  60.952  1.00  0.00    -0.000 C 
BRANCH  30  31
ATOM     31  C   UNL     1      36.436  63.869  60.792  1.00  0.00    -0.003 C 
ATOM     32  C   UNL     1      35.769  64.375  59.513  1.00  0.00     0.004 C 
ENDBRANCH  30  31
ENDBRANCH  29  30
ENDBRANCH  28  29
ENDBRANCH  27  28
ENDBRANCH  26  27
ENDBRANCH  25  26
ENDBRANCH  24  25
ENDBRANCH  23  24
ENDBRANCH  22  23
ENDBRANCH  21  22
ENDBRANCH  20  21
ENDBRANCH  19  20
ENDBRANCH  18  19
ENDBRANCH   1  18
TORSDOF 28
ENDMDL
MODEL 2
REMARK VINA RESULT:     1.583      1.922      2.176
REMARK INTER + INTRA:           6.646
REMARK INTER:                   7.546
REMARK INTRA:                  -0.900
REMARK UNBOUND:                 2.472
REMARK SMILES CCCCCCCCCCCCCCCCCCCCCCCCCCCCCC(=O)[O-]
REMARK SMILES IDX 16 1 17 2 18 3 19 4 20 5 21 6 22 7 23 8 24 9 25 10 26 11
REMARK SMILES IDX 27 12 28 13 29 14 30 15 31 16 32 17 15 18 14 19 13 20 12 21
REMARK SMILES IDX 11 22 10 23 9 24 8 25 7 26 6 27 5 28 4 29 3 30 2 31 1 32
REMARK H PARENT
REMARK Flexibility Score: inf
ROOT
ATOM      1  C   UNL     1      43.232  61.496  54.631  1.00  0.00     0.000 C 
ENDROOT
BRANCH   1   2
ATOM      2  C   UNL     1      44.741  61.189  54.518  1.00  0.00     0.000 C 
BRANCH   2   3
ATOM      3  C   UNL     1      45.588  62.108  55.411  1.00  0.00     0.000 C 
BRANCH   3   4
ATOM      4  C   UNL     1      45.718  63.504  54.786  1.00  0.00     0.000 C 
BRANCH   4   5
ATOM      5  C   UNL     1      45.196  64.625  55.704  1.00  0.00     0.000 C 
BRANCH   5   6
ATOM      6  C   UNL     1      43.660  64.735  55.794  1.00  0.00     0.000 C 
BRANCH   6   7
ATOM      7  C   UNL     1      43.075  64.627  57.214  1.00  0.00     0.000 C 
BRANCH   7   8
ATOM      8  C   UNL     1      44.042  65.124  58.300  1.00  0.00     0.000 C 
BRANCH   8   9
ATOM      9  C   UNL     1      44.668  63.945  59.065  1.00  0.00     0.000 C 
BRANCH   9  10
ATOM     10  C   UNL     1      46.146  64.201  59.408  1.00  0.00     0.000 C 
BRANCH  10  11
ATOM     11  C   UNL     1      46.772  63.050  60.220  1.00  0.00     0.000 C 
BRANCH  11  12
ATOM     12  C   UNL     1      48.037  63.496  60.973  1.00  0.00     0.000 C 
BRANCH  12  13
ATOM     13  C   UNL     1      49.058  64.159  60.027  1.00  0.00     0.006 C 
BRANCH  13  14
ATOM     14  C   UNL     1      50.254  63.244  59.732  1.00  0.00     0.053 C 
BRANCH  14  15
ATOM     15  C   UNL     1      51.400  64.005  59.132  1.00  0.00     0.041 C 
ATOM     16  O   UNL     1      51.187  64.886  58.261  1.00  0.00    -0.550 OA
ATOM     17  O   UNL     1      52.703  63.719  59.519  1.00  0.00    -0.550 OA
ENDBRANCH  14  15
ENDBRANCH  13  14
ENDBRANCH  12  13
ENDBRANCH  11  12
ENDBRANCH  10  11
ENDBRANCH   9  10
ENDBRANCH   8   9
ENDBRANCH   7   8
ENDBRANCH   6   7
ENDBRANCH   5   6
ENDBRANCH   4   5
ENDBRANCH   3   4
ENDBRANCH   2   3
ENDBRANCH   1   2
BRANCH   1  18
ATOM     18  C   UNL     1      42.816  62.014  56.017  1.00  0.00     0.000 C 
BRANCH  18  19
ATOM     19  C   UNL     1      41.311  61.835  56.286  1.00  0.00     0.000 C 
BRANCH  19  20
ATOM     20  C   UNL     1      40.802  62.752  57.409  1.00  0.00     0.000 C 
BRANCH  20  21
ATOM     21  C   UNL     1      39.446  63.398  57.084  1.00  0.00     0.000 C 
BRANCH  21  22
ATOM     22  C   UNL     1      38.964  64.276  58.247  1.00  0.00     0.000 C 
BRANCH  22  23
ATOM     23  C   UNL     1      40.083  64.628  59.246  1.00  0.00     0.000 C 
BRANCH  23  24
ATOM     24  C   UNL     1      40.012  63.894  60.597  1.00  0.00    -0.000 C 
BRANCH  24  25
ATOM     25  C   UNL     1      40.156  62.369  60.465  1.00  0.00    -0.000 C 
BRANCH  25  26
ATOM     26  C   UNL     1      38.993  61.602  61.125  1.00  0.00    -0.000 C 
BRANCH  26  27
ATOM     27  C   UNL     1      38.443  60.444  60.263  1.00  0.00    -0.000 C 
BRANCH  27  28
ATOM     28  C   UNL     1      37.242  60.879  59.407  1.00  0.00    -0.000 C 
BRANCH  28  29
ATOM     29  C   UNL     1      36.914  62.360  59.622  1.00  0.00    -0.000 C 
BRANCH  29  30
ATOM     30  C   UNL     1      35.442  62.545  60.027  1.00  0.00    -0.000 C 
BRANCH  30  31
ATOM     31  C   UNL     1      35.169  63.926  60.643  1.00  0.00    -0.003 C 
ATOM     32  C   UNL     1      36.240  64.957  60.285  1.00  0.00     0.004 C 
ENDBRANCH  30  31
ENDBRANCH  29  30
ENDBRANCH  28  29
ENDBRANCH  27  28
ENDBRANCH  26  27
ENDBRANCH  25  26
ENDBRANCH  24  25
ENDBRANCH  23  24
ENDBRANCH  22  23
ENDBRANCH  21  22
ENDBRANCH  20  21
ENDBRANCH  19  20
ENDBRANCH  18  19
ENDBRANCH   1  18
TORSDOF 28
ENDMDL
MODEL 3
REMARK VINA RESULT:     2.403     19.190     23.103
REMARK INTER + INTRA:           8.807
REMARK INTER:                   9.328
REMARK INTRA:                  -0.521
REMARK UNBOUND:                 2.472
REMARK SMILES CCCCCCCCCCCCCCCCCCCCCCCCCCCCCC(=O)[O-]
REMARK SMILES IDX 16 1 17 2 18 3 19 4 20 5 21 6 22 7 23 8 24 9 25 10 26 11
REMARK SMILES IDX 27 12 28 13 29 14 30 15 31 16 32 17 15 18 14 19 13 20 12 21
REMARK SMILES IDX 11 22 10 23 9 24 8 25 7 26 6 27 5 28 4 29 3 30 2 31 1 32
REMARK H PARENT
REMARK Flexibility Score: inf
ROOT
ATOM      1  C   UNL     1      46.413  49.424  49.205  1.00  0.00     0.000 C 
ENDROOT
BRANCH   1   2
ATOM      2  C   UNL     1      47.427  48.285  49.452  1.00  0.00     0.000 C 
BRANCH   2   3
ATOM      3  C   UNL     1      47.464  47.281  48.290  1.00  0.00     0.000 C 
BRANCH   3   4
ATOM      4  C   UNL     1      48.730  47.475  47.444  1.00  0.00     0.000 C 
BRANCH   4   5
ATOM      5  C   UNL     1      48.907  46.389  46.367  1.00  0.00     0.000 C 
BRANCH   5   6
ATOM      6  C   UNL     1      50.011  46.672  45.328  1.00  0.00     0.000 C 
BRANCH   6   7
ATOM      7  C   UNL     1      51.243  45.751  45.410  1.00  0.00     0.000 C 
BRANCH   7   8
ATOM      8  C   UNL     1      52.562  46.527  45.553  1.00  0.00     0.000 C 
BRANCH   8   9
ATOM      9  C   UNL     1      53.230  46.739  44.184  1.00  0.00     0.000 C 
BRANCH   9  10
ATOM     10  C   UNL     1      53.744  45.419  43.583  1.00  0.00     0.000 C 
BRANCH  10  11
ATOM     11  C   UNL     1      55.039  45.606  42.768  1.00  0.00     0.000 C 
BRANCH  11  12
ATOM     12  C   UNL     1      54.821  45.335  41.269  1.00  0.00     0.000 C 
BRANCH  12  13
ATOM     13  C   UNL     1      53.336  45.472  40.876  1.00  0.00     0.006 C 
BRANCH  13  14
ATOM     14  C   UNL     1      52.707  46.759  41.426  1.00  0.00     0.053 C 
BRANCH  14  15
ATOM     15  C   UNL     1      51.241  46.835  41.118  1.00  0.00     0.041 C 
ATOM     16  O   UNL     1      50.683  47.952  40.968  1.00  0.00    -0.550 OA
ATOM     17  O   UNL     1      50.489  45.671  41.023  1.00  0.00    -0.550 OA
ENDBRANCH  14  15
ENDBRANCH  13  14
ENDBRANCH  12  13
ENDBRANCH  11  12
ENDBRANCH  10  11
ENDBRANCH   9  10
ENDBRANCH   8   9
ENDBRANCH   7   8
ENDBRANCH   6   7
ENDBRANCH   5   6
ENDBRANCH   4   5
ENDBRANCH   3   4
ENDBRANCH   2   3
ENDBRANCH   1   2
BRANCH   1  18
ATOM     18  C   UNL     1      45.736  49.352  47.827  1.00  0.00     0.000 C 
BRANCH  18  19
ATOM     19  C   UNL     1      45.346  50.740  47.289  1.00  0.00     0.000 C 
BRANCH  19  20
ATOM     20  C   UNL     1      45.332  50.791  45.753  1.00  0.00     0.000 C 
BRANCH  20  21
ATOM     21  C   UNL     1      44.832  49.485  45.116  1.00  0.00     0.000 C 
BRANCH  21  22
ATOM     22  C   UNL     1      45.171  49.440  43.619  1.00  0.00     0.000 C 
BRANCH  22  23
ATOM     23  C   UNL     1      44.006  49.896  42.719  1.00  0.00     0.000 C 
BRANCH  23  24
ATOM     24  C   UNL     1      42.760  48.993  42.749  1.00  0.00    -0.000 C 
BRANCH  24  25
ATOM     25  C   UNL     1      42.750  47.941  41.626  1.00  0.00    -0.000 C 
BRANCH  25  26
ATOM     26  C   UNL     1      42.544  46.508  42.153  1.00  0.00    -0.000 C 
BRANCH  26  27
ATOM     27  C   UNL     1      42.785  45.413  41.090  1.00  0.00    -0.000 C 
BRANCH  27  28
ATOM     28  C   UNL     1      44.281  45.134  40.875  1.00  0.00    -0.000 C 
BRANCH  28  29
ATOM     29  C   UNL     1      45.109  45.574  42.088  1.00  0.00    -0.000 C 
BRANCH  29  30
ATOM     30  C   UNL     1      46.614  45.466  41.795  1.00  0.00    -0.000 C 
BRANCH  30  31
ATOM     31  C   UNL     1      47.272  46.837  41.571  1.00  0.00    -0.003 C 
ATOM     32  C   UNL     1      46.316  47.858  40.955  1.00  0.00     0.004 C 
ENDBRANCH  30  31
ENDBRANCH  29  30
ENDBRANCH  28  29
ENDBRANCH  27  28
ENDBRANCH  26  27
ENDBRANCH  25  26
ENDBRANCH  24  25
ENDBRANCH  23  24
ENDBRANCH  22  23
ENDBRANCH  21  22
ENDBRANCH  20  21
ENDBRANCH  19  20
ENDBRANCH  18  19
ENDBRANCH   1  18
TORSDOF 28
ENDMDL
MODEL 4
REMARK VINA RESULT:     2.575     19.296     24.163
REMARK INTER + INTRA:           9.262
REMARK INTER:                  11.043
REMARK INTRA:                  -1.781
REMARK UNBOUND:                 2.472
REMARK SMILES CCCCCCCCCCCCCCCCCCCCCCCCCCCCCC(=O)[O-]
REMARK SMILES IDX 16 1 17 2 18 3 19 4 20 5 21 6 22 7 23 8 24 9 25 10 26 11
REMARK SMILES IDX 27 12 28 13 29 14 30 15 31 16 32 17 15 18 14 19 13 20 12 21
REMARK SMILES IDX 11 22 10 23 9 24 8 25 7 26 6 27 5 28 4 29 3 30 2 31 1 32
REMARK H PARENT
REMARK Flexibility Score: inf
ROOT
ATOM      1  C   UNL     1      46.318  49.655  48.357  1.00  0.00     0.000 C 
ENDROOT
BRANCH   1   2
ATOM      2  C   UNL     1      45.255  49.466  47.253  1.00  0.00     0.000 C 
BRANCH   2   3
ATOM      3  C   UNL     1      44.921  50.785  46.539  1.00  0.00     0.000 C 
BRANCH   3   4
ATOM      4  C   UNL     1      45.175  50.666  45.030  1.00  0.00     0.000 C 
BRANCH   4   5
ATOM      5  C   UNL     1      44.205  49.695  44.331  1.00  0.00     0.000 C 
BRANCH   5   6
ATOM      6  C   UNL     1      43.420  50.295  43.147  1.00  0.00     0.000 C 
BRANCH   6   7
ATOM      7  C   UNL     1      44.127  50.213  41.781  1.00  0.00     0.000 C 
BRANCH   7   8
ATOM      8  C   UNL     1      44.152  48.790  41.203  1.00  0.00     0.000 C 
BRANCH   8   9
ATOM      9  C   UNL     1      42.751  48.155  41.236  1.00  0.00     0.000 C 
BRANCH   9  10
ATOM     10  C   UNL     1      42.807  46.652  41.561  1.00  0.00     0.000 C 
BRANCH  10  11
ATOM     11  C   UNL     1      44.225  46.182  41.940  1.00  0.00     0.000 C 
BRANCH  11  12
ATOM     12  C   UNL     1      44.629  44.902  41.188  1.00  0.00     0.000 C 
BRANCH  12  13
ATOM     13  C   UNL     1      46.138  44.878  40.875  1.00  0.00     0.006 C 
BRANCH  13  14
ATOM     14  C   UNL     1      46.765  46.277  40.936  1.00  0.00     0.053 C 
BRANCH  14  15
ATOM     15  C   UNL     1      47.704  46.415  42.097  1.00  0.00     0.041 C 
ATOM     16  O   UNL     1      48.077  47.553  42.478  1.00  0.00    -0.550 OA
ATOM     17  O   UNL     1      48.185  45.281  42.741  1.00  0.00    -0.550 OA
ENDBRANCH  14  15
ENDBRANCH  13  14
ENDBRANCH  12  13
ENDBRANCH  11  12
ENDBRANCH  10  11
ENDBRANCH   9  10
ENDBRANCH   8   9
ENDBRANCH   7   8
ENDBRANCH   6   7
ENDBRANCH   5   6
ENDBRANCH   4   5
ENDBRANCH   3   4
ENDBRANCH   2   3
ENDBRANCH   1   2
BRANCH   1  18
ATOM     18  C   UNL     1      47.690  49.067  47.992  1.00  0.00     0.000 C 
BRANCH  18  19
ATOM     19  C   UNL     1      47.745  47.540  48.179  1.00  0.00     0.000 C 
BRANCH  19  20
ATOM     20  C   UNL     1      48.975  46.910  47.507  1.00  0.00     0.000 C 
BRANCH  20  21
ATOM     21  C   UNL     1      48.716  45.481  47.005  1.00  0.00     0.000 C 
BRANCH  21  22
ATOM     22  C   UNL     1      49.424  45.233  45.665  1.00  0.00     0.000 C 
BRANCH  22  23
ATOM     23  C   UNL     1      50.921  44.904  45.822  1.00  0.00     0.000 C 
BRANCH  23  24
ATOM     24  C   UNL     1      51.757  45.019  44.535  1.00  0.00    -0.000 C 
BRANCH  24  25
ATOM     25  C   UNL     1      52.882  46.064  44.635  1.00  0.00    -0.000 C 
BRANCH  25  26
ATOM     26  C   UNL     1      52.797  47.138  43.534  1.00  0.00    -0.000 C 
BRANCH  26  27
ATOM     27  C   UNL     1      51.449  47.150  42.779  1.00  0.00    -0.000 C 
BRANCH  27  28
ATOM     28  C   UNL     1      51.640  47.149  41.253  1.00  0.00    -0.000 C 
BRANCH  28  29
ATOM     29  C   UNL     1      53.100  46.877  40.876  1.00  0.00    -0.000 C 
BRANCH  29  30
ATOM     30  C   UNL     1      53.400  45.369  40.889  1.00  0.00    -0.000 C 
BRANCH  30  31
ATOM     31  C   UNL     1      54.838  45.058  41.334  1.00  0.00    -0.003 C 
ATOM     32  C   UNL     1      54.975  44.940  42.852  1.00  0.00     0.004 C 
ENDBRANCH  30  31
ENDBRANCH  29  30
ENDBRANCH  28  29
ENDBRANCH  27  28
ENDBRANCH  26  27
ENDBRANCH  25  26
ENDBRANCH  24  25
ENDBRANCH  23  24
ENDBRANCH  22  23
ENDBRANCH  21  22
ENDBRANCH  20  21
ENDBRANCH  19  20
ENDBRANCH  18  19
ENDBRANCH   1  18
TORSDOF 28
ENDMDL
MODEL 5
REMARK VINA RESULT:     2.691      2.747      8.782
REMARK INTER + INTRA:           9.568
REMARK INTER:                   9.477
REMARK INTRA:                   0.092
REMARK UNBOUND:                 2.472
REMARK SMILES CCCCCCCCCCCCCCCCCCCCCCCCCCCCCC(=O)[O-]
REMARK SMILES IDX 16 1 17 2 18 3 19 4 20 5 21 6 22 7 23 8 24 9 25 10 26 11
REMARK SMILES IDX 27 12 28 13 29 14 30 15 31 16 32 17 15 18 14 19 13 20 12 21
REMARK SMILES IDX 11 22 10 23 9 24 8 25 7 26 6 27 5 28 4 29 3 30 2 31 1 32
REMARK H PARENT
REMARK Flexibility Score: inf
ROOT
ATOM      1  C   UNL     1      42.900  62.002  52.954  1.00  0.00     0.000 C 
ENDROOT
BRANCH   1   2
ATOM      2  C   UNL     1      41.570  62.784  53.008  1.00  0.00     0.000 C 
BRANCH   2   3
ATOM      3  C   UNL     1      41.759  64.271  52.673  1.00  0.00     0.000 C 
BRANCH   3   4
ATOM      4  C   UNL     1      41.721  65.125  53.949  1.00  0.00     0.000 C 
BRANCH   4   5
ATOM      5  C   UNL     1      41.058  64.402  55.136  1.00  0.00     0.000 C 
BRANCH   5   6
ATOM      6  C   UNL     1      41.233  65.094  56.504  1.00  0.00     0.000 C 
BRANCH   6   7
ATOM      7  C   UNL     1      39.998  65.055  57.423  1.00  0.00     0.000 C 
BRANCH   7   8
ATOM      8  C   UNL     1      40.261  64.325  58.749  1.00  0.00     0.000 C 
BRANCH   8   9
ATOM      9  C   UNL     1      38.993  63.611  59.249  1.00  0.00     0.000 C 
BRANCH   9  10
ATOM     10  C   UNL     1      38.194  64.479  60.237  1.00  0.00     0.000 C 
BRANCH  10  11
ATOM     11  C   UNL     1      36.718  64.048  60.342  1.00  0.00     0.000 C 
BRANCH  11  12
ATOM     12  C   UNL     1      36.368  62.939  59.335  1.00  0.00     0.000 C 
BRANCH  12  13
ATOM     13  C   UNL     1      35.833  61.677  60.042  1.00  0.00     0.006 C 
BRANCH  13  14
ATOM     14  C   UNL     1      36.941  60.907  60.771  1.00  0.00     0.053 C 
BRANCH  14  15
ATOM     15  C   UNL     1      38.051  60.519  59.839  1.00  0.00     0.041 C 
ATOM     16  O   UNL     1      37.888  60.592  58.595  1.00  0.00    -0.550 OA
ATOM     17  O   UNL     1      39.257  60.053  60.350  1.00  0.00    -0.550 OA
ENDBRANCH  14  15
ENDBRANCH  13  14
ENDBRANCH  12  13
ENDBRANCH  11  12
ENDBRANCH  10  11
ENDBRANCH   9  10
ENDBRANCH   8   9
ENDBRANCH   7   8
ENDBRANCH   6   7
ENDBRANCH   5   6
ENDBRANCH   4   5
ENDBRANCH   3   4
ENDBRANCH   2   3
ENDBRANCH   1   2
BRANCH   1  18
ATOM     18  C   UNL     1      44.040  62.680  53.730  1.00  0.00     0.000 C 
BRANCH  18  19
ATOM     19  C   UNL     1      44.074  62.265  55.212  1.00  0.00     0.000 C 
BRANCH  19  20
ATOM     20  C   UNL     1      44.791  63.298  56.095  1.00  0.00     0.000 C 
BRANCH  20  21
ATOM     21  C   UNL     1      43.820  64.145  56.933  1.00  0.00     0.000 C 
BRANCH  21  22
ATOM     22  C   UNL     1      44.539  64.779  58.132  1.00  0.00     0.000 C 
BRANCH  22  23
ATOM     23  C   UNL     1      46.036  65.037  57.874  1.00  0.00     0.000 C 
BRANCH  23  24
ATOM     24  C   UNL     1      46.969  64.734  59.061  1.00  0.00    -0.000 C 
BRANCH  24  25
ATOM     25  C   UNL     1      46.262  63.998  60.212  1.00  0.00    -0.000 C 
BRANCH  25  26
ATOM     26  C   UNL     1      46.746  62.544  60.376  1.00  0.00    -0.000 C 
BRANCH  26  27
ATOM     27  C   UNL     1      48.168  62.425  60.969  1.00  0.00    -0.000 C 
BRANCH  27  28
ATOM     28  C   UNL     1      49.255  62.804  59.948  1.00  0.00    -0.000 C 
BRANCH  28  29
ATOM     29  C   UNL     1      49.563  64.304  59.996  1.00  0.00    -0.000 C 
BRANCH  29  30
ATOM     30  C   UNL     1      51.021  64.553  60.415  1.00  0.00    -0.000 C 
BRANCH  30  31
ATOM     31  C   UNL     1      52.032  63.977  59.411  1.00  0.00    -0.003 C 
ATOM     32  C   UNL     1      52.091  64.774  58.108  1.00  0.00     0.004 C 
ENDBRANCH  30  31
ENDBRANCH  29  30
ENDBRANCH  28  29
ENDBRANCH  27  28
ENDBRANCH  26  27
ENDBRANCH  25  26
ENDBRANCH  24  25
ENDBRANCH  23  24
ENDBRANCH  22  23
ENDBRANCH  21  22
ENDBRANCH  20  21
ENDBRANCH  19  20
ENDBRANCH  18  19
ENDBRANCH   1  18
TORSDOF 28
ENDMDL
MODEL 6
REMARK VINA RESULT:     2.745      2.183      3.812
REMARK INTER + INTRA:           9.710
REMARK INTER:                   6.360
REMARK INTRA:                   3.350
REMARK UNBOUND:                 2.472
REMARK SMILES CCCCCCCCCCCCCCCCCCCCCCCCCCCCCC(=O)[O-]
REMARK SMILES IDX 16 1 17 2 18 3 19 4 20 5 21 6 22 7 23 8 24 9 25 10 26 11
REMARK SMILES IDX 27 12 28 13 29 14 30 15 31 16 32 17 15 18 14 19 13 20 12 21
REMARK SMILES IDX 11 22 10 23 9 24 8 25 7 26 6 27 5 28 4 29 3 30 2 31 1 32
REMARK H PARENT
REMARK Flexibility Score: inf
ROOT
ATOM      1  C   UNL     1      41.086  63.880  59.168  1.00  0.00     0.000 C 
ENDROOT
BRANCH   1   2
ATOM      2  C   UNL     1      41.278  63.069  57.868  1.00  0.00     0.000 C 
BRANCH   2   3
ATOM      3  C   UNL     1      41.270  63.964  56.619  1.00  0.00     0.000 C 
BRANCH   3   4
ATOM      4  C   UNL     1      42.263  65.125  56.776  1.00  0.00     0.000 C 
BRANCH   4   5
ATOM      5  C   UNL     1      43.715  64.721  56.461  1.00  0.00     0.000 C 
BRANCH   5   6
ATOM      6  C   UNL     1      44.255  63.530  57.279  1.00  0.00     0.000 C 
BRANCH   6   7
ATOM      7  C   UNL     1      45.764  63.260  57.130  1.00  0.00     0.000 C 
BRANCH   7   8
ATOM      8  C   UNL     1      46.403  62.710  58.414  1.00  0.00     0.000 C 
BRANCH   8   9
ATOM      9  C   UNL     1      46.289  63.723  59.567  1.00  0.00     0.000 C 
BRANCH   9  10
ATOM     10  C   UNL     1      46.895  65.088  59.197  1.00  0.00     0.000 C 
BRANCH  10  11
ATOM     11  C   UNL     1      48.425  65.124  59.382  1.00  0.00     0.000 C 
BRANCH  11  12
ATOM     12  C   UNL     1      48.842  64.755  60.816  1.00  0.00     0.000 C 
BRANCH  12  13
ATOM     13  C   UNL     1      49.917  63.649  60.830  1.00  0.00     0.006 C 
BRANCH  13  14
ATOM     14  C   UNL     1      51.323  64.204  60.571  1.00  0.00     0.053 C 
BRANCH  14  15
ATOM     15  C   UNL     1      51.715  64.072  59.129  1.00  0.00     0.041 C 
ATOM     16  O   UNL     1      52.038  65.089  58.464  1.00  0.00    -0.550 OA
ATOM     17  O   UNL     1      51.698  62.825  58.515  1.00  0.00    -0.550 OA
ENDBRANCH  14  15
ENDBRANCH  13  14
ENDBRANCH  12  13
ENDBRANCH  11  12
ENDBRANCH  10  11
ENDBRANCH   9  10
ENDBRANCH   8   9
ENDBRANCH   7   8
ENDBRANCH   6   7
ENDBRANCH   5   6
ENDBRANCH   4   5
ENDBRANCH   3   4
ENDBRANCH   2   3
ENDBRANCH   1   2
BRANCH   1  18
ATOM     18  C   UNL     1      40.171  65.103  58.996  1.00  0.00     0.000 C 
BRANCH  18  19
ATOM     19  C   UNL     1      38.967  65.078  59.954  1.00  0.00     0.000 C 
BRANCH  19  20
ATOM     20  C   UNL     1      39.162  64.092  61.117  1.00  0.00     0.000 C 
BRANCH  20  21
ATOM     21  C   UNL     1      38.373  62.786  60.931  1.00  0.00     0.000 C 
BRANCH  21  22
ATOM     22  C   UNL     1      39.286  61.564  61.104  1.00  0.00     0.000 C 
BRANCH  22  23
ATOM     23  C   UNL     1      39.961  61.121  59.792  1.00  0.00     0.000 C 
BRANCH  23  24
ATOM     24  C   UNL     1      38.998  60.716  58.661  1.00  0.00    -0.000 C 
BRANCH  24  25
ATOM     25  C   UNL     1      37.716  61.565  58.627  1.00  0.00    -0.000 C 
BRANCH  25  26
ATOM     26  C   UNL     1      37.975  63.018  58.187  1.00  0.00    -0.000 C 
BRANCH  26  27
ATOM     27  C   UNL     1      36.702  63.768  57.735  1.00  0.00    -0.000 C 
BRANCH  27  28
ATOM     28  C   UNL     1      36.202  64.755  58.803  1.00  0.00    -0.000 C 
BRANCH  28  29
ATOM     29  C   UNL     1      35.036  64.165  59.603  1.00  0.00    -0.000 C 
BRANCH  29  30
ATOM     30  C   UNL     1      35.538  63.137  60.630  1.00  0.00    -0.000 C 
BRANCH  30  31
ATOM     31  C   UNL     1      35.019  61.718  60.348  1.00  0.00    -0.003 C 
ATOM     32  C   UNL     1      35.898  60.632  60.969  1.00  0.00     0.004 C 
ENDBRANCH  30  31
ENDBRANCH  29  30
ENDBRANCH  28  29
ENDBRANCH  27  28
ENDBRANCH  26  27
ENDBRANCH  25  26
ENDBRANCH  24  25
ENDBRANCH  23  24
ENDBRANCH  22  23
ENDBRANCH  21  22
ENDBRANCH  20  21
ENDBRANCH  19  20
ENDBRANCH  18  19
ENDBRANCH   1  18
TORSDOF 28
ENDMDL
MODEL 7
REMARK VINA RESULT:     2.814     19.214     23.965
REMARK INTER + INTRA:           9.892
REMARK INTER:                   9.899
REMARK INTRA:                  -0.007
REMARK UNBOUND:                 2.472
REMARK SMILES CCCCCCCCCCCCCCCCCCCCCCCCCCCCCC(=O)[O-]
REMARK SMILES IDX 16 1 17 2 18 3 19 4 20 5 21 6 22 7 23 8 24 9 25 10 26 11
REMARK SMILES IDX 27 12 28 13 29 14 30 15 31 16 32 17 15 18 14 19 13 20 12 21
REMARK SMILES IDX 11 22 10 23 9 24 8 25 7 26 6 27 5 28 4 29 3 30 2 31 1 32
REMARK H PARENT
REMARK Flexibility Score: inf
ROOT
ATOM      1  C   UNL     1      48.582  46.761  44.451  1.00  0.00     0.000 C 
ENDROOT
BRANCH   1   2
ATOM      2  C   UNL     1      49.354  46.181  45.656  1.00  0.00     0.000 C 
BRANCH   2   3
ATOM      3  C   UNL     1      48.479  46.091  46.915  1.00  0.00     0.000 C 
BRANCH   3   4
ATOM      4  C   UNL     1      48.443  47.438  47.651  1.00  0.00     0.000 C 
BRANCH   4   5
ATOM      5  C   UNL     1      47.300  47.533  48.678  1.00  0.00     0.000 C 
BRANCH   5   6
ATOM      6  C   UNL     1      46.486  48.842  48.633  1.00  0.00     0.000 C 
BRANCH   6   7
ATOM      7  C   UNL     1      46.478  49.564  47.273  1.00  0.00     0.000 C 
BRANCH   7   8
ATOM      8  C   UNL     1      45.091  50.101  46.888  1.00  0.00     0.000 C 
BRANCH   8   9
ATOM      9  C   UNL     1      45.019  50.420  45.384  1.00  0.00     0.000 C 
BRANCH   9  10
ATOM     10  C   UNL     1      43.634  50.105  44.794  1.00  0.00     0.000 C 
BRANCH  10  11
ATOM     11  C   UNL     1      43.649  50.038  43.254  1.00  0.00     0.000 C 
BRANCH  11  12
ATOM     12  C   UNL     1      44.932  49.381  42.717  1.00  0.00     0.000 C 
BRANCH  12  13
ATOM     13  C   UNL     1      44.648  48.498  41.485  1.00  0.00     0.006 C 
BRANCH  13  14
ATOM     14  C   UNL     1      44.081  47.127  41.874  1.00  0.00     0.053 C 
BRANCH  14  15
ATOM     15  C   UNL     1      42.676  46.947  41.382  1.00  0.00     0.041 C 
ATOM     16  O   UNL     1      41.905  47.937  41.291  1.00  0.00    -0.550 OA
ATOM     17  O   UNL     1      42.211  45.681  41.049  1.00  0.00    -0.550 OA
ENDBRANCH  14  15
ENDBRANCH  13  14
ENDBRANCH  12  13
ENDBRANCH  11  12
ENDBRANCH  10  11
ENDBRANCH   9  10
ENDBRANCH   8   9
ENDBRANCH   7   8
ENDBRANCH   6   7
ENDBRANCH   5   6
ENDBRANCH   4   5
ENDBRANCH   3   4
ENDBRANCH   2   3
ENDBRANCH   1   2
BRANCH   1  18
ATOM     18  C   UNL     1      48.259  45.716  43.372  1.00  0.00     0.000 C 
BRANCH  18  19
ATOM     19  C   UNL     1      47.583  46.335  42.135  1.00  0.00     0.000 C 
BRANCH  19  20
ATOM     20  C   UNL     1      48.509  47.304  41.382  1.00  0.00     0.000 C 
BRANCH  20  21
ATOM     21  C   UNL     1      49.793  46.630  40.875  1.00  0.00     0.000 C 
BRANCH  21  22
ATOM     22  C   UNL     1      51.020  47.514  41.144  1.00  0.00     0.000 C 
BRANCH  22  23
ATOM     23  C   UNL     1      52.276  46.708  41.527  1.00  0.00     0.000 C 
BRANCH  23  24
ATOM     24  C   UNL     1      53.600  47.242  40.952  1.00  0.00    -0.000 C 
BRANCH  24  25
ATOM     25  C   UNL     1      54.837  46.517  41.510  1.00  0.00    -0.000 C 
BRANCH  25  26
ATOM     26  C   UNL     1      54.532  45.072  41.951  1.00  0.00    -0.000 C 
BRANCH  26  27
ATOM     27  C   UNL     1      54.298  44.922  43.471  1.00  0.00    -0.000 C 
BRANCH  27  28
ATOM     28  C   UNL     1      52.803  44.878  43.825  1.00  0.00    -0.000 C 
BRANCH  28  29
ATOM     29  C   UNL     1      52.428  46.005  44.793  1.00  0.00    -0.000 C 
BRANCH  29  30
ATOM     30  C   UNL     1      51.897  45.438  46.120  1.00  0.00    -0.000 C 
BRANCH  30  31
ATOM     31  C   UNL     1      51.628  46.532  47.165  1.00  0.00    -0.003 C 
ATOM     32  C   UNL     1      52.184  47.895  46.751  1.00  0.00     0.004 C 
ENDBRANCH  30  31
ENDBRANCH  29  30
ENDBRANCH  28  29
ENDBRANCH  27  28
ENDBRANCH  26  27
ENDBRANCH  25  26
ENDBRANCH  24  25
ENDBRANCH  23  24
ENDBRANCH  22  23
ENDBRANCH  21  22
ENDBRANCH  20  21
ENDBRANCH  19  20
ENDBRANCH  18  19
ENDBRANCH   1  18
TORSDOF 28
ENDMDL
