MODEL 1
REMARK VINA RESULT:    -4.202      0.000      0.000
REMARK INTER + INTRA:         -15.918
REMARK INTER:                 -10.589
REMARK INTRA:                  -5.329
REMARK UNBOUND:                -5.329
REMARK SMILES CCCCCCCCCCCCCCCCCCCCCCCCCCCC(=O)[O-]
REMARK SMILES IDX 15 1 16 2 17 3 18 4 19 5 20 6 21 7 22 8 23 9 24 10 25 11
REMARK SMILES IDX 26 12 27 13 28 14 29 15 30 16 14 17 13 18 12 19 11 20 10 21
REMARK SMILES IDX 9 22 8 23 7 24 6 25 5 26 4 27 3 28 2 29 1 30
REMARK H PARENT
REMARK Flexibility Score: inf
ROOT
ATOM      1  C   UNL     1      -1.975  26.769  57.483  1.00  0.00     0.000 C 
ENDROOT
BRANCH   1   2
ATOM      2  C   UNL     1      -2.773  26.428  58.753  1.00  0.00     0.000 C 
BRANCH   2   3
ATOM      3  C   UNL     1      -3.130  27.668  59.587  1.00  0.00     0.000 C 
BRANCH   3   4
ATOM      4  C   UNL     1      -2.034  28.745  59.543  1.00  0.00     0.000 C 
BRANCH   4   5
ATOM      5  C   UNL     1      -2.453  29.997  58.752  1.00  0.00     0.000 C 
BRANCH   5   6
ATOM      6  C   UNL     1      -1.460  30.451  57.662  1.00  0.00     0.000 C 
BRANCH   6   7
ATOM      7  C   UNL     1      -2.101  31.054  56.398  1.00  0.00     0.000 C 
BRANCH   7   8
ATOM      8  C   UNL     1      -1.139  31.083  55.196  1.00  0.00     0.000 C 
BRANCH   8   9
ATOM      9  C   UNL     1      -1.841  31.526  53.896  1.00  0.00     0.000 C 
BRANCH   9  10
ATOM     10  C   UNL     1      -2.966  32.550  54.123  1.00  0.00     0.000 C 
BRANCH  10  11
ATOM     11  C   UNL     1      -4.269  32.172  53.405  1.00  0.00     0.000 C 
BRANCH  11  12
ATOM     12  C   UNL     1      -5.493  32.617  54.212  1.00  0.00     0.006 C 
BRANCH  12  13
ATOM     13  C   UNL     1      -5.797  31.620  55.337  1.00  0.00     0.053 C 
BRANCH  13  14
ATOM     14  C   UNL     1      -7.273  31.498  55.550  1.00  0.00     0.041 C 
ATOM     15  O   UNL     1      -8.036  31.261  54.576  1.00  0.00    -0.550 OA
ATOM     16  O   UNL     1      -7.805  31.624  56.827  1.00  0.00    -0.550 OA
ENDBRANCH  13  14
ENDBRANCH  12  13
ENDBRANCH  11  12
ENDBRANCH  10  11
ENDBRANCH   9  10
ENDBRANCH   8   9
ENDBRANCH   7   8
ENDBRANCH   6   7
ENDBRANCH   5   6
ENDBRANCH   4   5
ENDBRANCH   3   4
ENDBRANCH   2   3
ENDBRANCH   1   2
BRANCH   1  17
ATOM     17  C   UNL     1      -2.097  25.675  56.402  1.00  0.00     0.000 C 
BRANCH  17  18
ATOM     18  C   UNL     1      -2.776  26.151  55.101  1.00  0.00     0.000 C 
BRANCH  18  19
ATOM     19  C   UNL     1      -2.567  27.649  54.793  1.00  0.00     0.000 C 
BRANCH  19  20
ATOM     20  C   UNL     1      -3.877  28.457  54.741  1.00  0.00     0.000 C 
BRANCH  20  21
ATOM     21  C   UNL     1      -5.046  27.711  55.403  1.00  0.00     0.000 C 
BRANCH  21  22
ATOM     22  C   UNL     1      -5.395  28.330  56.764  1.00  0.00    -0.000 C 
BRANCH  22  23
ATOM     23  C   UNL     1      -6.106  27.337  57.697  1.00  0.00    -0.000 C 
BRANCH  23  24
ATOM     24  C   UNL     1      -6.332  25.963  57.041  1.00  0.00    -0.000 C 
BRANCH  24  25
ATOM     25  C   UNL     1      -5.925  24.802  57.974  1.00  0.00    -0.000 C 
BRANCH  25  26
ATOM     26  C   UNL     1      -5.193  23.656  57.253  1.00  0.00    -0.000 C 
BRANCH  26  27
ATOM     27  C   UNL     1      -5.351  23.714  55.724  1.00  0.00    -0.000 C 
BRANCH  27  28
ATOM     28  C   UNL     1      -4.320  22.831  54.991  1.00  0.00    -0.000 C 
BRANCH  28  29
ATOM     29  C   UNL     1      -3.516  21.913  55.928  1.00  0.00    -0.003 C 
ATOM     30  C   UNL     1      -2.312  21.265  55.245  1.00  0.00     0.004 C 
ENDBRANCH  28  29
ENDBRANCH  27  28
ENDBRANCH  26  27
ENDBRANCH  25  26
ENDBRANCH  24  25
ENDBRANCH  23  24
ENDBRANCH  22  23
ENDBRANCH  21  22
ENDBRANCH  20  21
ENDBRANCH  19  20
ENDBRANCH  18  19
ENDBRANCH  17  18
ENDBRANCH   1  17
TORSDOF 26
ENDMDL
MODEL 2
REMARK VINA RESULT:    -4.033      1.713      4.061
REMARK INTER + INTRA:         -15.491
REMARK INTER:                 -10.877
REMARK INTRA:                  -4.615
REMARK UNBOUND:                -5.329
REMARK SMILES CCCCCCCCCCCCCCCCCCCCCCCCCCCC(=O)[O-]
REMARK SMILES IDX 15 1 16 2 17 3 18 4 19 5 20 6 21 7 22 8 23 9 24 10 25 11
REMARK SMILES IDX 26 12 27 13 28 14 29 15 30 16 14 17 13 18 12 19 11 20 10 21
REMARK SMILES IDX 9 22 8 23 7 24 6 25 5 26 4 27 3 28 2 29 1 30
REMARK H PARENT
REMARK Flexibility Score: inf
ROOT
ATOM      1  C   UNL     1      -3.282  30.464  57.939  1.00  0.00     0.000 C 
ENDROOT
BRANCH   1   2
ATOM      2  C   UNL     1      -4.445  30.313  56.943  1.00  0.00     0.000 C 
BRANCH   2   3
ATOM      3  C   UNL     1      -5.068  28.909  56.958  1.00  0.00     0.000 C 
BRANCH   3   4
ATOM      4  C   UNL     1      -5.084  28.255  55.566  1.00  0.00     0.000 C 
BRANCH   4   5
ATOM      5  C   UNL     1      -4.249  29.027  54.530  1.00  0.00     0.000 C 
BRANCH   5   6
ATOM      6  C   UNL     1      -2.866  28.420  54.213  1.00  0.00     0.000 C 
BRANCH   6   7
ATOM      7  C   UNL     1      -2.029  29.195  53.178  1.00  0.00     0.000 C 
BRANCH   7   8
ATOM      8  C   UNL     1      -1.740  30.645  53.609  1.00  0.00     0.000 C 
BRANCH   8   9
ATOM      9  C   UNL     1      -2.698  31.654  52.942  1.00  0.00     0.000 C 
BRANCH   9  10
ATOM     10  C   UNL     1      -2.789  32.998  53.684  1.00  0.00     0.000 C 
BRANCH  10  11
ATOM     11  C   UNL     1      -4.081  33.140  54.502  1.00  0.00     0.000 C 
BRANCH  11  12
ATOM     12  C   UNL     1      -5.236  32.374  53.846  1.00  0.00     0.006 C 
BRANCH  12  13
ATOM     13  C   UNL     1      -6.585  32.828  54.416  1.00  0.00     0.053 C 
BRANCH  13  14
ATOM     14  C   UNL     1      -7.342  31.661  54.970  1.00  0.00     0.041 C 
ATOM     15  O   UNL     1      -7.464  30.606  54.293  1.00  0.00    -0.550 OA
ATOM     16  O   UNL     1      -7.896  31.731  56.242  1.00  0.00    -0.550 OA
ENDBRANCH  13  14
ENDBRANCH  12  13
ENDBRANCH  11  12
ENDBRANCH  10  11
ENDBRANCH   9  10
ENDBRANCH   8   9
ENDBRANCH   7   8
ENDBRANCH   6   7
ENDBRANCH   5   6
ENDBRANCH   4   5
ENDBRANCH   3   4
ENDBRANCH   2   3
ENDBRANCH   1   2
BRANCH   1  17
ATOM     17  C   UNL     1      -1.905  30.382  57.249  1.00  0.00     0.000 C 
BRANCH  17  18
ATOM     18  C   UNL     1      -1.207  29.014  57.397  1.00  0.00     0.000 C 
BRANCH  18  19
ATOM     19  C   UNL     1      -1.721  28.171  58.585  1.00  0.00     0.000 C 
BRANCH  19  20
ATOM     20  C   UNL     1      -2.335  26.824  58.164  1.00  0.00     0.000 C 
BRANCH  20  21
ATOM     21  C   UNL     1      -3.420  26.348  59.143  1.00  0.00     0.000 C 
BRANCH  21  22
ATOM     22  C   UNL     1      -4.125  25.089  58.616  1.00  0.00    -0.000 C 
BRANCH  22  23
ATOM     23  C   UNL     1      -4.363  25.139  57.099  1.00  0.00    -0.000 C 
BRANCH  23  24
ATOM     24  C   UNL     1      -5.382  24.088  56.623  1.00  0.00    -0.000 C 
BRANCH  24  25
ATOM     25  C   UNL     1      -6.823  24.642  56.609  1.00  0.00    -0.000 C 
BRANCH  25  26
ATOM     26  C   UNL     1      -7.042  25.818  57.577  1.00  0.00    -0.000 C 
BRANCH  26  27
ATOM     27  C   UNL     1      -7.793  25.410  58.856  1.00  0.00    -0.000 C 
BRANCH  27  28
ATOM     28  C   UNL     1      -7.550  26.391  60.021  1.00  0.00    -0.000 C 
BRANCH  28  29
ATOM     29  C   UNL     1      -7.602  25.727  61.408  1.00  0.00    -0.003 C 
ATOM     30  C   UNL     1      -6.707  26.417  62.438  1.00  0.00     0.004 C 
ENDBRANCH  28  29
ENDBRANCH  27  28
ENDBRANCH  26  27
ENDBRANCH  25  26
ENDBRANCH  24  25
ENDBRANCH  23  24
ENDBRANCH  22  23
ENDBRANCH  21  22
ENDBRANCH  20  21
ENDBRANCH  19  20
ENDBRANCH  18  19
ENDBRANCH  17  18
ENDBRANCH   1  17
TORSDOF 26
ENDMDL
MODEL 3
REMARK VINA RESULT:    -4.024      1.327      4.117
REMARK INTER + INTRA:         -15.469
REMARK INTER:                 -10.516
REMARK INTRA:                  -4.953
REMARK UNBOUND:                -5.329
REMARK SMILES CCCCCCCCCCCCCCCCCCCCCCCCCCCC(=O)[O-]
REMARK SMILES IDX 15 1 16 2 17 3 18 4 19 5 20 6 21 7 22 8 23 9 24 10 25 11
REMARK SMILES IDX 26 12 27 13 28 14 29 15 30 16 14 17 13 18 12 19 11 20 10 21
REMARK SMILES IDX 9 22 8 23 7 24 6 25 5 26 4 27 3 28 2 29 1 30
REMARK H PARENT
REMARK Flexibility Score: inf
ROOT
ATOM      1  C   UNL     1      -6.176  25.139  57.629  1.00  0.00     0.000 C 
ENDROOT
BRANCH   1   2
ATOM      2  C   UNL     1      -5.667  25.773  58.935  1.00  0.00     0.000 C 
BRANCH   2   3
ATOM      3  C   UNL     1      -4.145  25.983  58.946  1.00  0.00     0.000 C 
BRANCH   3   4
ATOM      4  C   UNL     1      -3.738  27.381  58.449  1.00  0.00     0.000 C 
BRANCH   4   5
ATOM      5  C   UNL     1      -2.528  27.958  59.205  1.00  0.00     0.000 C 
BRANCH   5   6
ATOM      6  C   UNL     1      -2.140  29.401  58.821  1.00  0.00     0.000 C 
BRANCH   6   7
ATOM      7  C   UNL     1      -1.363  29.544  57.499  1.00  0.00     0.000 C 
BRANCH   7   8
ATOM      8  C   UNL     1      -1.558  30.921  56.838  1.00  0.00     0.000 C 
BRANCH   8   9
ATOM      9  C   UNL     1      -1.948  30.805  55.350  1.00  0.00     0.000 C 
BRANCH   9  10
ATOM     10  C   UNL     1      -3.336  31.387  55.032  1.00  0.00     0.000 C 
BRANCH  10  11
ATOM     11  C   UNL     1      -4.200  31.586  56.286  1.00  0.00     0.000 C 
BRANCH  11  12
ATOM     12  C   UNL     1      -5.485  30.754  56.208  1.00  0.00     0.006 C 
BRANCH  12  13
ATOM     13  C   UNL     1      -6.106  30.840  54.808  1.00  0.00     0.053 C 
BRANCH  13  14
ATOM     14  C   UNL     1      -7.334  31.695  54.828  1.00  0.00     0.041 C 
ATOM     15  O   UNL     1      -7.556  32.508  53.892  1.00  0.00    -0.550 OA
ATOM     16  O   UNL     1      -8.247  31.579  55.870  1.00  0.00    -0.550 OA
ENDBRANCH  13  14
ENDBRANCH  12  13
ENDBRANCH  11  12
ENDBRANCH  10  11
ENDBRANCH   9  10
ENDBRANCH   8   9
ENDBRANCH   7   8
ENDBRANCH   6   7
ENDBRANCH   5   6
ENDBRANCH   4   5
ENDBRANCH   3   4
ENDBRANCH   2   3
ENDBRANCH   1   2
BRANCH   1  17
ATOM     17  C   UNL     1      -5.615  23.719  57.410  1.00  0.00     0.000 C 
BRANCH  17  18
ATOM     18  C   UNL     1      -4.742  23.576  56.146  1.00  0.00     0.000 C 
BRANCH  18  19
ATOM     19  C   UNL     1      -3.808  22.347  56.163  1.00  0.00     0.000 C 
BRANCH  19  20
ATOM     20  C   UNL     1      -2.566  22.504  55.266  1.00  0.00     0.000 C 
BRANCH  20  21
ATOM     21  C   UNL     1      -2.114  23.968  55.151  1.00  0.00     0.000 C 
BRANCH  21  22
ATOM     22  C   UNL     1      -1.256  24.377  56.357  1.00  0.00    -0.000 C 
BRANCH  22  23
ATOM     23  C   UNL     1      -0.988  25.889  56.404  1.00  0.00    -0.000 C 
BRANCH  23  24
ATOM     24  C   UNL     1      -0.210  26.393  55.175  1.00  0.00    -0.000 C 
BRANCH  24  25
ATOM     25  C   UNL     1      -0.856  27.650  54.555  1.00  0.00    -0.000 C 
BRANCH  25  26
ATOM     26  C   UNL     1      -1.584  27.379  53.226  1.00  0.00    -0.000 C 
BRANCH  26  27
ATOM     27  C   UNL     1      -3.067  27.017  53.418  1.00  0.00    -0.000 C 
BRANCH  27  28
ATOM     28  C   UNL     1      -3.642  27.570  54.739  1.00  0.00    -0.000 C 
BRANCH  28  29
ATOM     29  C   UNL     1      -5.161  27.366  54.883  1.00  0.00    -0.003 C 
ATOM     30  C   UNL     1      -5.701  26.241  54.001  1.00  0.00     0.004 C 
ENDBRANCH  28  29
ENDBRANCH  27  28
ENDBRANCH  26  27
ENDBRANCH  25  26
ENDBRANCH  24  25
ENDBRANCH  23  24
ENDBRANCH  22  23
ENDBRANCH  21  22
ENDBRANCH  20  21
ENDBRANCH  19  20
ENDBRANCH  18  19
ENDBRANCH  17  18
ENDBRANCH   1  17
TORSDOF 26
ENDMDL
MODEL 4
REMARK VINA RESULT:    -3.973      1.456      3.572
REMARK INTER + INTRA:         -15.340
REMARK INTER:                 -10.072
REMARK INTRA:                  -5.269
REMARK UNBOUND:                -5.329
REMARK SMILES CCCCCCCCCCCCCCCCCCCCCCCCCCCC(=O)[O-]
REMARK SMILES IDX 15 1 16 2 17 3 18 4 19 5 20 6 21 7 22 8 23 9 24 10 25 11
REMARK SMILES IDX 26 12 27 13 28 14 29 15 30 16 14 17 13 18 12 19 11 20 10 21
REMARK SMILES IDX 9 22 8 23 7 24 6 25 5 26 4 27 3 28 2 29 1 30
REMARK H PARENT
REMARK Flexibility Score: inf
ROOT
ATOM      1  C   UNL     1      -3.561  27.017  54.725  1.00  0.00     0.000 C 
ENDROOT
BRANCH   1   2
ATOM      2  C   UNL     1      -4.671  27.898  55.325  1.00  0.00     0.000 C 
BRANCH   2   3
ATOM      3  C   UNL     1      -4.669  27.901  56.861  1.00  0.00     0.000 C 
BRANCH   3   4
ATOM      4  C   UNL     1      -3.717  26.847  57.452  1.00  0.00     0.000 C 
BRANCH   4   5
ATOM      5  C   UNL     1      -2.493  27.468  58.149  1.00  0.00     0.000 C 
BRANCH   5   6
ATOM      6  C   UNL     1      -2.773  28.756  58.950  1.00  0.00     0.000 C 
BRANCH   6   7
ATOM      7  C   UNL     1      -1.985  29.999  58.494  1.00  0.00     0.000 C 
BRANCH   7   8
ATOM      8  C   UNL     1      -1.461  29.877  57.051  1.00  0.00     0.000 C 
BRANCH   8   9
ATOM      9  C   UNL     1      -1.728  31.150  56.223  1.00  0.00     0.000 C 
BRANCH   9  10
ATOM     10  C   UNL     1      -3.216  31.377  55.906  1.00  0.00     0.000 C 
BRANCH  10  11
ATOM     11  C   UNL     1      -3.520  31.315  54.402  1.00  0.00     0.000 C 
BRANCH  11  12
ATOM     12  C   UNL     1      -4.926  31.843  54.101  1.00  0.00     0.006 C 
BRANCH  12  13
ATOM     13  C   UNL     1      -5.978  31.098  54.933  1.00  0.00     0.053 C 
BRANCH  13  14
ATOM     14  C   UNL     1      -7.307  31.778  54.834  1.00  0.00     0.041 C 
ATOM     15  O   UNL     1      -7.559  32.538  53.861  1.00  0.00    -0.550 OA
ATOM     16  O   UNL     1      -8.276  31.557  55.805  1.00  0.00    -0.550 OA
ENDBRANCH  13  14
ENDBRANCH  12  13
ENDBRANCH  11  12
ENDBRANCH  10  11
ENDBRANCH   9  10
ENDBRANCH   8   9
ENDBRANCH   7   8
ENDBRANCH   6   7
ENDBRANCH   5   6
ENDBRANCH   4   5
ENDBRANCH   3   4
ENDBRANCH   2   3
ENDBRANCH   1   2
BRANCH   1  17
ATOM     17  C   UNL     1      -2.375  27.848  54.196  1.00  0.00     0.000 C 
BRANCH  17  18
ATOM     18  C   UNL     1      -1.515  27.118  53.143  1.00  0.00     0.000 C 
BRANCH  18  19
ATOM     19  C   UNL     1      -0.411  26.221  53.745  1.00  0.00     0.000 C 
BRANCH  19  20
ATOM     20  C   UNL     1      -0.293  26.334  55.276  1.00  0.00     0.000 C 
BRANCH  20  21
ATOM     21  C   UNL     1      -0.656  25.019  55.985  1.00  0.00     0.000 C 
BRANCH  21  22
ATOM     22  C   UNL     1      -0.818  23.874  54.975  1.00  0.00    -0.000 C 
BRANCH  22  23
ATOM     23  C   UNL     1      -2.147  23.122  55.147  1.00  0.00    -0.000 C 
BRANCH  23  24
ATOM     24  C   UNL     1      -3.041  23.736  56.239  1.00  0.00    -0.000 C 
BRANCH  24  25
ATOM     25  C   UNL     1      -4.491  23.212  56.164  1.00  0.00    -0.000 C 
BRANCH  25  26
ATOM     26  C   UNL     1      -5.365  23.958  55.139  1.00  0.00    -0.000 C 
BRANCH  26  27
ATOM     27  C   UNL     1      -6.586  24.641  55.778  1.00  0.00    -0.000 C 
BRANCH  27  28
ATOM     28  C   UNL     1      -6.595  24.514  57.316  1.00  0.00    -0.000 C 
BRANCH  28  29
ATOM     29  C   UNL     1      -7.619  25.434  58.005  1.00  0.00    -0.003 C 
ATOM     30  C   UNL     1      -7.080  26.081  59.280  1.00  0.00     0.004 C 
ENDBRANCH  28  29
ENDBRANCH  27  28
ENDBRANCH  26  27
ENDBRANCH  25  26
ENDBRANCH  24  25
ENDBRANCH  23  24
ENDBRANCH  22  23
ENDBRANCH  21  22
ENDBRANCH  20  21
ENDBRANCH  19  20
ENDBRANCH  18  19
ENDBRANCH  17  18
ENDBRANCH   1  17
TORSDOF 26
ENDMDL
MODEL 5
REMARK VINA RESULT:    -3.944      2.076      6.866
REMARK INTER + INTRA:         -15.269
REMARK INTER:                  -9.967
REMARK INTRA:                  -5.302
REMARK UNBOUND:                -5.329
REMARK SMILES CCCCCCCCCCCCCCCCCCCCCCCCCCCC(=O)[O-]
REMARK SMILES IDX 15 1 16 2 17 3 18 4 19 5 20 6 21 7 22 8 23 9 24 10 25 11
REMARK SMILES IDX 26 12 27 13 28 14 29 15 30 16 14 17 13 18 12 19 11 20 10 21
REMARK SMILES IDX 9 22 8 23 7 24 6 25 5 26 4 27 3 28 2 29 1 30
REMARK H PARENT
REMARK Flexibility Score: inf
ROOT
ATOM      1  C   UNL     1      -2.880  25.922  57.620  1.00  0.00     0.000 C 
ENDROOT
BRANCH   1   2
ATOM      2  C   UNL     1      -1.511  26.231  56.990  1.00  0.00     0.000 C 
BRANCH   2   3
ATOM      3  C   UNL     1      -0.976  25.078  56.126  1.00  0.00     0.000 C 
BRANCH   3   4
ATOM      4  C   UNL     1      -2.020  23.969  55.908  1.00  0.00     0.000 C 
BRANCH   4   5
ATOM      5  C   UNL     1      -2.460  23.838  54.439  1.00  0.00     0.000 C 
BRANCH   5   6
ATOM      6  C   UNL     1      -2.342  25.127  53.599  1.00  0.00     0.000 C 
BRANCH   6   7
ATOM      7  C   UNL     1      -3.680  25.794  53.228  1.00  0.00     0.000 C 
BRANCH   7   8
ATOM      8  C   UNL     1      -4.225  26.701  54.346  1.00  0.00     0.000 C 
BRANCH   8   9
ATOM      9  C   UNL     1      -5.686  26.366  54.710  1.00  0.00     0.000 C 
BRANCH   9  10
ATOM     10  C   UNL     1      -5.976  24.857  54.760  1.00  0.00     0.000 C 
BRANCH  10  11
ATOM     11  C   UNL     1      -5.851  24.272  56.175  1.00  0.00     0.000 C 
BRANCH  11  12
ATOM     12  C   UNL     1      -7.027  24.707  57.056  1.00  0.00     0.006 C 
BRANCH  12  13
ATOM     13  C   UNL     1      -6.597  24.816  58.525  1.00  0.00     0.053 C 
BRANCH  13  14
ATOM     14  C   UNL     1      -7.168  26.049  59.151  1.00  0.00     0.041 C 
ATOM     15  O   UNL     1      -7.416  27.062  58.445  1.00  0.00    -0.550 OA
ATOM     16  O   UNL     1      -7.449  26.072  60.512  1.00  0.00    -0.550 OA
ENDBRANCH  13  14
ENDBRANCH  12  13
ENDBRANCH  11  12
ENDBRANCH  10  11
ENDBRANCH   9  10
ENDBRANCH   8   9
ENDBRANCH   7   8
ENDBRANCH   6   7
ENDBRANCH   5   6
ENDBRANCH   4   5
ENDBRANCH   3   4
ENDBRANCH   2   3
ENDBRANCH   1   2
BRANCH   1  17
ATOM     17  C   UNL     1      -3.619  27.199  58.070  1.00  0.00     0.000 C 
BRANCH  17  18
ATOM     18  C   UNL     1      -3.437  27.538  59.564  1.00  0.00     0.000 C 
BRANCH  18  19
ATOM     19  C   UNL     1      -2.300  28.544  59.847  1.00  0.00     0.000 C 
BRANCH  19  20
ATOM     20  C   UNL     1      -2.298  29.754  58.896  1.00  0.00     0.000 C 
BRANCH  20  21
ATOM     21  C   UNL     1      -0.999  29.852  58.081  1.00  0.00     0.000 C 
BRANCH  21  22
ATOM     22  C   UNL     1      -1.240  30.557  56.739  1.00  0.00    -0.000 C 
BRANCH  22  23
ATOM     23  C   UNL     1      -1.723  29.592  55.645  1.00  0.00    -0.000 C 
BRANCH  23  24
ATOM     24  C   UNL     1      -2.973  30.107  54.907  1.00  0.00    -0.000 C 
BRANCH  24  25
ATOM     25  C   UNL     1      -4.228  30.078  55.806  1.00  0.00    -0.000 C 
BRANCH  25  26
ATOM     26  C   UNL     1      -4.757  31.476  56.174  1.00  0.00    -0.000 C 
BRANCH  26  27
ATOM     27  C   UNL     1      -4.077  32.602  55.378  1.00  0.00    -0.000 C 
BRANCH  27  28
ATOM     28  C   UNL     1      -5.035  33.276  54.373  1.00  0.00    -0.000 C 
BRANCH  28  29
ATOM     29  C   UNL     1      -5.036  32.616  52.983  1.00  0.00    -0.003 C 
ATOM     30  C   UNL     1      -3.661  32.623  52.316  1.00  0.00     0.004 C 
ENDBRANCH  28  29
ENDBRANCH  27  28
ENDBRANCH  26  27
ENDBRANCH  25  26
ENDBRANCH  24  25
ENDBRANCH  23  24
ENDBRANCH  22  23
ENDBRANCH  21  22
ENDBRANCH  20  21
ENDBRANCH  19  20
ENDBRANCH  18  19
ENDBRANCH  17  18
ENDBRANCH   1  17
TORSDOF 26
ENDMDL
MODEL 6
REMARK VINA RESULT:    -3.940      3.138      7.289
REMARK INTER + INTRA:         -15.258
REMARK INTER:                  -9.701
REMARK INTRA:                  -5.557
REMARK UNBOUND:                -5.329
REMARK SMILES CCCCCCCCCCCCCCCCCCCCCCCCCCCC(=O)[O-]
REMARK SMILES IDX 15 1 16 2 17 3 18 4 19 5 20 6 21 7 22 8 23 9 24 10 25 11
REMARK SMILES IDX 26 12 27 13 28 14 29 15 30 16 14 17 13 18 12 19 11 20 10 21
REMARK SMILES IDX 9 22 8 23 7 24 6 25 5 26 4 27 3 28 2 29 1 30
REMARK H PARENT
REMARK Flexibility Score: inf
ROOT
ATOM      1  C   UNL     1      -2.861  28.209  59.268  1.00  0.00     0.000 C 
ENDROOT
BRANCH   1   2
ATOM      2  C   UNL     1      -2.816  26.753  58.771  1.00  0.00     0.000 C 
BRANCH   2   3
ATOM      3  C   UNL     1      -4.101  25.973  59.087  1.00  0.00     0.000 C 
BRANCH   3   4
ATOM      4  C   UNL     1      -4.526  25.044  57.937  1.00  0.00     0.000 C 
BRANCH   4   5
ATOM      5  C   UNL     1      -5.767  24.198  58.276  1.00  0.00     0.000 C 
BRANCH   5   6
ATOM      6  C   UNL     1      -6.914  24.269  57.247  1.00  0.00     0.000 C 
BRANCH   6   7
ATOM      7  C   UNL     1      -6.673  25.220  56.059  1.00  0.00     0.000 C 
BRANCH   7   8
ATOM      8  C   UNL     1      -6.369  24.471  54.748  1.00  0.00     0.000 C 
BRANCH   8   9
ATOM      9  C   UNL     1      -4.963  24.795  54.204  1.00  0.00     0.000 C 
BRANCH   9  10
ATOM     10  C   UNL     1      -3.902  23.746  54.578  1.00  0.00     0.000 C 
BRANCH  10  11
ATOM     11  C   UNL     1      -2.469  24.290  54.488  1.00  0.00     0.000 C 
BRANCH  11  12
ATOM     12  C   UNL     1      -1.729  24.118  55.819  1.00  0.00     0.006 C 
BRANCH  12  13
ATOM     13  C   UNL     1      -0.777  25.293  56.071  1.00  0.00     0.053 C 
BRANCH  13  14
ATOM     14  C   UNL     1       0.376  25.251  55.117  1.00  0.00     0.041 C 
ATOM     15  O   UNL     1       0.565  26.200  54.310  1.00  0.00    -0.550 OA
ATOM     16  O   UNL     1       1.254  24.175  55.134  1.00  0.00    -0.550 OA
ENDBRANCH  13  14
ENDBRANCH  12  13
ENDBRANCH  11  12
ENDBRANCH  10  11
ENDBRANCH   9  10
ENDBRANCH   8   9
ENDBRANCH   7   8
ENDBRANCH   6   7
ENDBRANCH   5   6
ENDBRANCH   4   5
ENDBRANCH   3   4
ENDBRANCH   2   3
ENDBRANCH   1   2
BRANCH   1  17
ATOM     17  C   UNL     1      -1.518  28.939  59.064  1.00  0.00     0.000 C 
BRANCH  17  18
ATOM     18  C   UNL     1      -1.609  30.181  58.153  1.00  0.00     0.000 C 
BRANCH  18  19
ATOM     19  C   UNL     1      -0.737  30.093  56.881  1.00  0.00     0.000 C 
BRANCH  19  20
ATOM     20  C   UNL     1      -1.118  28.924  55.953  1.00  0.00     0.000 C 
BRANCH  20  21
ATOM     21  C   UNL     1      -1.716  29.409  54.624  1.00  0.00     0.000 C 
BRANCH  21  22
ATOM     22  C   UNL     1      -2.996  28.633  54.279  1.00  0.00    -0.000 C 
BRANCH  22  23
ATOM     23  C   UNL     1      -3.540  27.835  55.474  1.00  0.00    -0.000 C 
BRANCH  23  24
ATOM     24  C   UNL     1      -4.938  28.305  55.915  1.00  0.00    -0.000 C 
BRANCH  24  25
ATOM     25  C   UNL     1      -5.211  29.771  55.513  1.00  0.00    -0.000 C 
BRANCH  25  26
ATOM     26  C   UNL     1      -4.769  30.795  56.573  1.00  0.00    -0.000 C 
BRANCH  26  27
ATOM     27  C   UNL     1      -4.108  32.042  55.963  1.00  0.00    -0.000 C 
BRANCH  27  28
ATOM     28  C   UNL     1      -4.713  32.420  54.595  1.00  0.00    -0.000 C 
BRANCH  28  29
ATOM     29  C   UNL     1      -3.720  33.123  53.653  1.00  0.00    -0.003 C 
ATOM     30  C   UNL     1      -2.260  32.921  54.062  1.00  0.00     0.004 C 
ENDBRANCH  28  29
ENDBRANCH  27  28
ENDBRANCH  26  27
ENDBRANCH  25  26
ENDBRANCH  24  25
ENDBRANCH  23  24
ENDBRANCH  22  23
ENDBRANCH  21  22
ENDBRANCH  20  21
ENDBRANCH  19  20
ENDBRANCH  18  19
ENDBRANCH  17  18
ENDBRANCH   1  17
TORSDOF 26
ENDMDL
MODEL 7
REMARK VINA RESULT:    -3.903      2.330      7.130
REMARK INTER + INTRA:         -15.165
REMARK INTER:                 -10.144
REMARK INTRA:                  -5.022
REMARK UNBOUND:                -5.329
REMARK SMILES CCCCCCCCCCCCCCCCCCCCCCCCCCCC(=O)[O-]
REMARK SMILES IDX 15 1 16 2 17 3 18 4 19 5 20 6 21 7 22 8 23 9 24 10 25 11
REMARK SMILES IDX 26 12 27 13 28 14 29 15 30 16 14 17 13 18 12 19 11 20 10 21
REMARK SMILES IDX 9 22 8 23 7 24 6 25 5 26 4 27 3 28 2 29 1 30
REMARK H PARENT
REMARK Flexibility Score: inf
ROOT
ATOM      1  C   UNL     1      -2.187  30.053  55.318  1.00  0.00     0.000 C 
ENDROOT
BRANCH   1   2
ATOM      2  C   UNL     1      -0.809  29.682  55.892  1.00  0.00     0.000 C 
BRANCH   2   3
ATOM      3  C   UNL     1      -0.370  30.605  57.040  1.00  0.00     0.000 C 
BRANCH   3   4
ATOM      4  C   UNL     1      -1.173  30.365  58.330  1.00  0.00     0.000 C 
BRANCH   4   5
ATOM      5  C   UNL     1      -1.091  28.911  58.827  1.00  0.00     0.000 C 
BRANCH   5   6
ATOM      6  C   UNL     1      -2.430  28.294  59.283  1.00  0.00     0.000 C 
BRANCH   6   7
ATOM      7  C   UNL     1      -2.783  26.939  58.641  1.00  0.00     0.000 C 
BRANCH   7   8
ATOM      8  C   UNL     1      -1.839  26.562  57.485  1.00  0.00     0.000 C 
BRANCH   8   9
ATOM      9  C   UNL     1      -2.303  25.294  56.741  1.00  0.00     0.000 C 
BRANCH   9  10
ATOM     10  C   UNL     1      -3.831  25.122  56.714  1.00  0.00     0.000 C 
BRANCH  10  11
ATOM     11  C   UNL     1      -4.393  25.015  55.288  1.00  0.00     0.000 C 
BRANCH  11  12
ATOM     12  C   UNL     1      -5.925  25.054  55.296  1.00  0.00     0.006 C 
BRANCH  12  13
ATOM     13  C   UNL     1      -6.450  25.645  56.610  1.00  0.00     0.053 C 
BRANCH  13  14
ATOM     14  C   UNL     1      -7.656  24.894  57.081  1.00  0.00     0.041 C 
ATOM     15  O   UNL     1      -7.894  23.738  56.642  1.00  0.00    -0.550 OA
ATOM     16  O   UNL     1      -8.506  25.463  58.022  1.00  0.00    -0.550 OA
ENDBRANCH  13  14
ENDBRANCH  12  13
ENDBRANCH  11  12
ENDBRANCH  10  11
ENDBRANCH   9  10
ENDBRANCH   8   9
ENDBRANCH   7   8
ENDBRANCH   6   7
ENDBRANCH   5   6
ENDBRANCH   4   5
ENDBRANCH   3   4
ENDBRANCH   2   3
ENDBRANCH   1   2
BRANCH   1  17
ATOM     17  C   UNL     1      -3.150  28.850  55.282  1.00  0.00     0.000 C 
BRANCH  17  18
ATOM     18  C   UNL     1      -4.533  29.131  55.906  1.00  0.00     0.000 C 
BRANCH  18  19
ATOM     19  C   UNL     1      -4.620  30.475  56.663  1.00  0.00     0.000 C 
BRANCH  19  20
ATOM     20  C   UNL     1      -5.639  31.457  56.059  1.00  0.00     0.000 C 
BRANCH  20  21
ATOM     21  C   UNL     1      -6.334  30.883  54.814  1.00  0.00     0.000 C 
BRANCH  21  22
ATOM     22  C   UNL     1      -6.379  31.917  53.680  1.00  0.00    -0.000 C 
BRANCH  22  23
ATOM     23  C   UNL     1      -5.439  33.107  53.931  1.00  0.00    -0.000 C 
BRANCH  23  24
ATOM     24  C   UNL     1      -4.440  33.327  52.781  1.00  0.00    -0.000 C 
BRANCH  24  25
ATOM     25  C   UNL     1      -3.291  32.296  52.806  1.00  0.00    -0.000 C 
BRANCH  25  26
ATOM     26  C   UNL     1      -1.933  32.873  52.369  1.00  0.00    -0.000 C 
BRANCH  26  27
ATOM     27  C   UNL     1      -0.817  32.625  53.398  1.00  0.00    -0.000 C 
BRANCH  27  28
ATOM     28  C   UNL     1      -0.609  33.826  54.344  1.00  0.00    -0.000 C 
BRANCH  28  29
ATOM     29  C   UNL     1      -1.480  33.772  55.611  1.00  0.00    -0.003 C 
ATOM     30  C   UNL     1      -2.622  34.789  55.597  1.00  0.00     0.004 C 
ENDBRANCH  28  29
ENDBRANCH  27  28
ENDBRANCH  26  27
ENDBRANCH  25  26
ENDBRANCH  24  25
ENDBRANCH  23  24
ENDBRANCH  22  23
ENDBRANCH  21  22
ENDBRANCH  20  21
ENDBRANCH  19  20
ENDBRANCH  18  19
ENDBRANCH  17  18
ENDBRANCH   1  17
TORSDOF 26
ENDMDL
MODEL 8
REMARK VINA RESULT:    -3.865      2.186      7.277
REMARK INTER + INTRA:         -15.070
REMARK INTER:                  -9.573
REMARK INTRA:                  -5.497
REMARK UNBOUND:                -5.329
REMARK SMILES CCCCCCCCCCCCCCCCCCCCCCCCCCCC(=O)[O-]
REMARK SMILES IDX 15 1 16 2 17 3 18 4 19 5 20 6 21 7 22 8 23 9 24 10 25 11
REMARK SMILES IDX 26 12 27 13 28 14 29 15 30 16 14 17 13 18 12 19 11 20 10 21
REMARK SMILES IDX 9 22 8 23 7 24 6 25 5 26 4 27 3 28 2 29 1 30
REMARK H PARENT
REMARK Flexibility Score: inf
ROOT
ATOM      1  C   UNL     1      -5.440  27.748  54.983  1.00  0.00     0.000 C 
ENDROOT
BRANCH   1   2
ATOM      2  C   UNL     1      -4.077  27.381  54.371  1.00  0.00     0.000 C 
BRANCH   2   3
ATOM      3  C   UNL     1      -4.032  25.945  53.827  1.00  0.00     0.000 C 
BRANCH   3   4
ATOM      4  C   UNL     1      -4.657  24.926  54.795  1.00  0.00     0.000 C 
BRANCH   4   5
ATOM      5  C   UNL     1      -3.716  23.752  55.121  1.00  0.00     0.000 C 
BRANCH   5   6
ATOM      6  C   UNL     1      -2.211  24.049  54.959  1.00  0.00     0.000 C 
BRANCH   6   7
ATOM      7  C   UNL     1      -1.478  24.455  56.252  1.00  0.00     0.000 C 
BRANCH   7   8
ATOM      8  C   UNL     1      -1.158  25.960  56.310  1.00  0.00     0.000 C 
BRANCH   8   9
ATOM      9  C   UNL     1      -1.961  26.686  57.409  1.00  0.00     0.000 C 
BRANCH   9  10
ATOM     10  C   UNL     1      -2.913  25.762  58.186  1.00  0.00     0.000 C 
BRANCH  10  11
ATOM     11  C   UNL     1      -3.702  26.502  59.277  1.00  0.00     0.000 C 
BRANCH  11  12
ATOM     12  C   UNL     1      -5.173  26.073  59.281  1.00  0.00     0.006 C 
BRANCH  12  13
ATOM     13  C   UNL     1      -5.390  24.859  58.369  1.00  0.00     0.053 C 
BRANCH  13  14
ATOM     14  C   UNL     1      -6.791  24.838  57.844  1.00  0.00     0.041 C 
ATOM     15  O   UNL     1      -7.562  25.811  58.056  1.00  0.00    -0.550 OA
ATOM     16  O   UNL     1      -7.240  23.752  57.102  1.00  0.00    -0.550 OA
ENDBRANCH  13  14
ENDBRANCH  12  13
ENDBRANCH  11  12
ENDBRANCH  10  11
ENDBRANCH   9  10
ENDBRANCH   8   9
ENDBRANCH   7   8
ENDBRANCH   6   7
ENDBRANCH   5   6
ENDBRANCH   4   5
ENDBRANCH   3   4
ENDBRANCH   2   3
ENDBRANCH   1   2
BRANCH   1  17
ATOM     17  C   UNL     1      -5.317  28.228  56.443  1.00  0.00     0.000 C 
BRANCH  17  18
ATOM     18  C   UNL     1      -4.812  29.678  56.588  1.00  0.00     0.000 C 
BRANCH  18  19
ATOM     19  C   UNL     1      -3.425  29.797  57.257  1.00  0.00     0.000 C 
BRANCH  19  20
ATOM     20  C   UNL     1      -2.732  31.148  57.002  1.00  0.00     0.000 C 
BRANCH  20  21
ATOM     21  C   UNL     1      -1.388  30.984  56.275  1.00  0.00     0.000 C 
BRANCH  21  22
ATOM     22  C   UNL     1      -1.376  29.709  55.418  1.00  0.00    -0.000 C 
BRANCH  22  23
ATOM     23  C   UNL     1      -1.443  30.011  53.913  1.00  0.00    -0.000 C 
BRANCH  23  24
ATOM     24  C   UNL     1      -2.811  30.567  53.479  1.00  0.00    -0.000 C 
BRANCH  24  25
ATOM     25  C   UNL     1      -2.679  31.612  52.350  1.00  0.00    -0.000 C 
BRANCH  25  26
ATOM     26  C   UNL     1      -3.606  32.828  52.523  1.00  0.00    -0.000 C 
BRANCH  26  27
ATOM     27  C   UNL     1      -3.588  33.397  53.952  1.00  0.00    -0.000 C 
BRANCH  27  28
ATOM     28  C   UNL     1      -4.842  33.002  54.760  1.00  0.00    -0.000 C 
BRANCH  28  29
ATOM     29  C   UNL     1      -6.068  32.691  53.883  1.00  0.00    -0.003 C 
ATOM     30  C   UNL     1      -6.871  31.489  54.381  1.00  0.00     0.004 C 
ENDBRANCH  28  29
ENDBRANCH  27  28
ENDBRANCH  26  27
ENDBRANCH  25  26
ENDBRANCH  24  25
ENDBRANCH  23  24
ENDBRANCH  22  23
ENDBRANCH  21  22
ENDBRANCH  20  21
ENDBRANCH  19  20
ENDBRANCH  18  19
ENDBRANCH  17  18
ENDBRANCH   1  17
TORSDOF 26
ENDMDL
MODEL 9
REMARK VINA RESULT:    -3.862      1.540      5.678
REMARK INTER + INTRA:         -15.062
REMARK INTER:                  -9.634
REMARK INTRA:                  -5.429
REMARK UNBOUND:                -5.329
REMARK SMILES CCCCCCCCCCCCCCCCCCCCCCCCCCCC(=O)[O-]
REMARK SMILES IDX 15 1 16 2 17 3 18 4 19 5 20 6 21 7 22 8 23 9 24 10 25 11
REMARK SMILES IDX 26 12 27 13 28 14 29 15 30 16 14 17 13 18 12 19 11 20 10 21
REMARK SMILES IDX 9 22 8 23 7 24 6 25 5 26 4 27 3 28 2 29 1 30
REMARK H PARENT
REMARK Flexibility Score: inf
ROOT
ATOM      1  C   UNL     1      -2.187  26.932  57.195  1.00  0.00     0.000 C 
ENDROOT
BRANCH   1   2
ATOM      2  C   UNL     1      -2.642  26.153  58.441  1.00  0.00     0.000 C 
BRANCH   2   3
ATOM      3  C   UNL     1      -3.794  26.842  59.190  1.00  0.00     0.000 C 
BRANCH   3   4
ATOM      4  C   UNL     1      -5.171  26.274  58.807  1.00  0.00     0.000 C 
BRANCH   4   5
ATOM      5  C   UNL     1      -5.083  24.907  58.105  1.00  0.00     0.000 C 
BRANCH   5   6
ATOM      6  C   UNL     1      -5.759  24.833  56.720  1.00  0.00     0.000 C 
BRANCH   6   7
ATOM      7  C   UNL     1      -4.800  24.655  55.528  1.00  0.00     0.000 C 
BRANCH   7   8
ATOM      8  C   UNL     1      -4.739  25.897  54.620  1.00  0.00     0.000 C 
BRANCH   8   9
ATOM      9  C   UNL     1      -5.681  27.020  55.103  1.00  0.00     0.000 C 
BRANCH   9  10
ATOM     10  C   UNL     1      -4.995  28.392  55.212  1.00  0.00     0.000 C 
BRANCH  10  11
ATOM     11  C   UNL     1      -5.341  29.128  56.515  1.00  0.00     0.000 C 
BRANCH  11  12
ATOM     12  C   UNL     1      -5.728  30.584  56.240  1.00  0.00     0.006 C 
BRANCH  12  13
ATOM     13  C   UNL     1      -6.214  30.756  54.795  1.00  0.00     0.053 C 
BRANCH  13  14
ATOM     14  C   UNL     1      -7.407  31.659  54.743  1.00  0.00     0.041 C 
ATOM     15  O   UNL     1      -8.308  31.567  55.618  1.00  0.00    -0.550 OA
ATOM     16  O   UNL     1      -7.512  32.615  53.742  1.00  0.00    -0.550 OA
ENDBRANCH  13  14
ENDBRANCH  12  13
ENDBRANCH  11  12
ENDBRANCH  10  11
ENDBRANCH   9  10
ENDBRANCH   8   9
ENDBRANCH   7   8
ENDBRANCH   6   7
ENDBRANCH   5   6
ENDBRANCH   4   5
ENDBRANCH   3   4
ENDBRANCH   2   3
ENDBRANCH   1   2
BRANCH   1  17
ATOM     17  C   UNL     1      -1.362  26.060  56.227  1.00  0.00     0.000 C 
BRANCH  17  18
ATOM     18  C   UNL     1      -0.568  26.864  55.177  1.00  0.00     0.000 C 
BRANCH  18  19
ATOM     19  C   UNL     1      -1.452  27.684  54.212  1.00  0.00     0.000 C 
BRANCH  19  20
ATOM     20  C   UNL     1      -1.650  27.015  52.839  1.00  0.00     0.000 C 
BRANCH  20  21
ATOM     21  C   UNL     1      -1.804  28.044  51.708  1.00  0.00     0.000 C 
BRANCH  21  22
ATOM     22  C   UNL     1      -1.213  29.402  52.112  1.00  0.00    -0.000 C 
BRANCH  22  23
ATOM     23  C   UNL     1      -1.868  30.575  51.366  1.00  0.00    -0.000 C 
BRANCH  23  24
ATOM     24  C   UNL     1      -2.103  31.798  52.271  1.00  0.00    -0.000 C 
BRANCH  24  25
ATOM     25  C   UNL     1      -2.744  31.406  53.620  1.00  0.00    -0.000 C 
BRANCH  25  26
ATOM     26  C   UNL     1      -1.812  31.609  54.828  1.00  0.00    -0.000 C 
BRANCH  26  27
ATOM     27  C   UNL     1      -2.248  30.801  56.063  1.00  0.00    -0.000 C 
BRANCH  27  28
ATOM     28  C   UNL     1      -1.048  30.224  56.842  1.00  0.00    -0.000 C 
BRANCH  28  29
ATOM     29  C   UNL     1      -1.180  30.362  58.369  1.00  0.00    -0.003 C 
ATOM     30  C   UNL     1      -0.390  29.303  59.138  1.00  0.00     0.004 C 
ENDBRANCH  28  29
ENDBRANCH  27  28
ENDBRANCH  26  27
ENDBRANCH  25  26
ENDBRANCH  24  25
ENDBRANCH  23  24
ENDBRANCH  22  23
ENDBRANCH  21  22
ENDBRANCH  20  21
ENDBRANCH  19  20
ENDBRANCH  18  19
ENDBRANCH  17  18
ENDBRANCH   1  17
TORSDOF 26
ENDMDL
