MODEL 1
REMARK VINA RESULT:    -5.069      0.000      0.000
REMARK INTER + INTRA:         -10.409
REMARK INTER:                  -9.513
REMARK INTRA:                  -0.896
REMARK UNBOUND:                -0.896
REMARK SMILES CCCCCC=CCC=CCCCCCCCC(=O)OC
REMARK SMILES IDX 11 1 10 2 9 3 8 4 7 5 6 6 5 7 4 8 3 9 2 10 1 11 12 12 13 13
REMARK SMILES IDX 14 14 15 15 16 16 17 17 18 18 19 19 20 20 21 21
REMARK H PARENT
REMARK Flexibility Score: inf
ROOT
ATOM      1  C   UNL     1      44.628   6.867 114.757  1.00  0.00     0.027 C 
ENDROOT
BRANCH   1   2
ATOM      2  C   UNL     1      45.393   7.171 113.496  1.00  0.00    -0.031 C 
ATOM      3  C   UNL     1      46.708   7.436 113.520  1.00  0.00    -0.027 C 
BRANCH   3   4
ATOM      4  C   UNL     1      47.470   7.734 112.260  1.00  0.00     0.054 C 
BRANCH   4   5
ATOM      5  C   UNL     1      48.398   6.599 111.929  1.00  0.00    -0.027 C 
ATOM      6  C   UNL     1      48.088   5.326 112.218  1.00  0.00    -0.031 C 
BRANCH   6   7
ATOM      7  C   UNL     1      49.011   4.195 111.860  1.00  0.00     0.027 C 
BRANCH   7   8
ATOM      8  C   UNL     1      50.377   4.724 111.397  1.00  0.00     0.004 C 
BRANCH   8   9
ATOM      9  C   UNL     1      51.434   4.666 112.519  1.00  0.00     0.000 C 
BRANCH   9  10
ATOM     10  C   UNL     1      50.869   4.198 113.871  1.00  0.00    -0.003 C 
ATOM     11  C   UNL     1      50.953   5.270 114.957  1.00  0.00     0.004 C 
ENDBRANCH   9  10
ENDBRANCH   8   9
ENDBRANCH   7   8
ENDBRANCH   6   7
ENDBRANCH   4   5
ENDBRANCH   3   4
ENDBRANCH   1   2
BRANCH   1  12
ATOM     12  C   UNL     1      43.526   7.902 115.041  1.00  0.00     0.004 C 
BRANCH  12  13
ATOM     13  C   UNL     1      43.733   9.256 114.333  1.00  0.00     0.000 C 
BRANCH  13  14
ATOM     14  C   UNL     1      43.221  10.483 115.115  1.00  0.00     0.000 C 
BRANCH  14  15
ATOM     15  C   UNL     1      42.327  11.447 114.309  1.00  0.00     0.001 C 
BRANCH  15  16
ATOM     16  C   UNL     1      42.177  12.853 114.915  1.00  0.00     0.012 C 
BRANCH  16  17
ATOM     17  C   UNL     1      42.164  13.960 113.853  1.00  0.00     0.123 C 
BRANCH  17  18
ATOM     18  C   UNL     1      40.852  14.677 113.861  1.00  0.00     0.305 C 
ATOM     19  O   UNL     1      39.794  14.056 113.570  1.00  0.00    -0.252 OA
BRANCH  18  20
ATOM     20  O   UNL     1      40.818  16.044 114.158  1.00  0.00    -0.469 OA
ATOM     21  C   UNL     1      41.267  16.572 115.400  1.00  0.00     0.282 C 
ENDBRANCH  18  20
ENDBRANCH  17  18
ENDBRANCH  16  17
ENDBRANCH  15  16
ENDBRANCH  14  15
ENDBRANCH  13  14
ENDBRANCH  12  13
ENDBRANCH   1  12
TORSDOF 15
ENDMDL
MODEL 2
REMARK VINA RESULT:    -4.992      5.762      7.870
REMARK INTER + INTRA:         -10.264
REMARK INTER:                  -8.653
REMARK INTRA:                  -1.611
REMARK UNBOUND:                -0.896
REMARK SMILES CCCCCC=CCC=CCCCCCCCC(=O)OC
REMARK SMILES IDX 11 1 10 2 9 3 8 4 7 5 6 6 5 7 4 8 3 9 2 10 1 11 12 12 13 13
REMARK SMILES IDX 14 14 15 15 16 16 17 17 18 18 19 19 20 20 21 21
REMARK H PARENT
REMARK Flexibility Score: inf
ROOT
ATOM      1  C   UNL     1      42.630  12.076 119.655  1.00  0.00     0.027 C 
ENDROOT
BRANCH   1   2
ATOM      2  C   UNL     1      42.961  10.627 119.417  1.00  0.00    -0.031 C 
ATOM      3  C   UNL     1      43.333  10.181 118.207  1.00  0.00    -0.027 C 
BRANCH   3   4
ATOM      4  C   UNL     1      43.667   8.736 117.973  1.00  0.00     0.054 C 
BRANCH   4   5
ATOM      5  C   UNL     1      44.026   8.509 116.531  1.00  0.00    -0.027 C 
ATOM      6  C   UNL     1      43.382   7.606 115.776  1.00  0.00    -0.031 C 
BRANCH   6   7
ATOM      7  C   UNL     1      43.731   7.404 114.328  1.00  0.00     0.027 C 
BRANCH   7   8
ATOM      8  C   UNL     1      44.843   8.370 113.890  1.00  0.00     0.004 C 
BRANCH   8   9
ATOM      9  C   UNL     1      46.126   7.625 113.466  1.00  0.00     0.000 C 
BRANCH   9  10
ATOM     10  C   UNL     1      47.173   7.519 114.587  1.00  0.00    -0.003 C 
ATOM     11  C   UNL     1      47.306   8.803 115.405  1.00  0.00     0.004 C 
ENDBRANCH   9  10
ENDBRANCH   8   9
ENDBRANCH   7   8
ENDBRANCH   6   7
ENDBRANCH   4   5
ENDBRANCH   3   4
ENDBRANCH   1   2
BRANCH   1  12
ATOM     12  C   UNL     1      42.300  12.370 121.128  1.00  0.00     0.004 C 
BRANCH  12  13
ATOM     13  C   UNL     1      43.169  11.592 122.138  1.00  0.00     0.000 C 
BRANCH  13  14
ATOM     14  C   UNL     1      43.962  12.473 123.126  1.00  0.00     0.000 C 
BRANCH  14  15
ATOM     15  C   UNL     1      45.374  12.876 122.655  1.00  0.00     0.001 C 
BRANCH  15  16
ATOM     16  C   UNL     1      45.707  12.495 121.201  1.00  0.00     0.012 C 
BRANCH  16  17
ATOM     17  C   UNL     1      46.973  11.638 121.087  1.00  0.00     0.123 C 
BRANCH  17  18
ATOM     18  C   UNL     1      46.737  10.475 120.176  1.00  0.00     0.305 C 
ATOM     19  O   UNL     1      47.143  10.519 118.983  1.00  0.00    -0.252 OA
BRANCH  18  20
ATOM     20  O   UNL     1      46.034   9.363 120.650  1.00  0.00    -0.469 OA
ATOM     21  C   UNL     1      46.166   8.881 121.983  1.00  0.00     0.282 C 
ENDBRANCH  18  20
ENDBRANCH  17  18
ENDBRANCH  16  17
ENDBRANCH  15  16
ENDBRANCH  14  15
ENDBRANCH  13  14
ENDBRANCH  12  13
ENDBRANCH   1  12
TORSDOF 15
ENDMDL
MODEL 3
REMARK VINA RESULT:    -4.970      5.941      9.203
REMARK INTER + INTRA:         -10.224
REMARK INTER:                  -8.903
REMARK INTRA:                  -1.321
REMARK UNBOUND:                -0.896
REMARK SMILES CCCCCC=CCC=CCCCCCCCC(=O)OC
REMARK SMILES IDX 11 1 10 2 9 3 8 4 7 5 6 6 5 7 4 8 3 9 2 10 1 11 12 12 13 13
REMARK SMILES IDX 14 14 15 15 16 16 17 17 18 18 19 19 20 20 21 21
REMARK H PARENT
REMARK Flexibility Score: inf
ROOT
ATOM      1  C   UNL     1      42.079   9.363 120.115  1.00  0.00     0.027 C 
ENDROOT
BRANCH   1   2
ATOM      2  C   UNL     1      43.071   9.917 119.128  1.00  0.00    -0.031 C 
ATOM      3  C   UNL     1      43.369   9.269 117.991  1.00  0.00    -0.027 C 
BRANCH   3   4
ATOM      4  C   UNL     1      44.355   9.827 117.006  1.00  0.00     0.054 C 
BRANCH   4   5
ATOM      5  C   UNL     1      43.636  10.500 115.871  1.00  0.00    -0.027 C 
ATOM      6  C   UNL     1      43.318   9.841 114.746  1.00  0.00    -0.031 C 
BRANCH   6   7
ATOM      7  C   UNL     1      42.576  10.516 113.626  1.00  0.00     0.027 C 
BRANCH   7   8
ATOM      8  C   UNL     1      41.770  11.717 114.145  1.00  0.00     0.004 C 
BRANCH   8   9
ATOM      9  C   UNL     1      40.989  12.424 113.017  1.00  0.00     0.000 C 
BRANCH   9  10
ATOM     10  C   UNL     1      40.853  13.942 113.223  1.00  0.00    -0.003 C 
ATOM     11  C   UNL     1      41.963  14.529 114.094  1.00  0.00     0.004 C 
ENDBRANCH   9  10
ENDBRANCH   8   9
ENDBRANCH   7   8
ENDBRANCH   6   7
ENDBRANCH   4   5
ENDBRANCH   3   4
ENDBRANCH   1   2
BRANCH   1  12
ATOM     12  C   UNL     1      41.642  10.405 121.159  1.00  0.00     0.004 C 
BRANCH  12  13
ATOM     13  C   UNL     1      42.078  11.848 120.832  1.00  0.00     0.000 C 
BRANCH  13  14
ATOM     14  C   UNL     1      42.990  12.505 121.888  1.00  0.00     0.000 C 
BRANCH  14  15
ATOM     15  C   UNL     1      43.876  11.528 122.687  1.00  0.00     0.001 C 
BRANCH  15  16
ATOM     16  C   UNL     1      45.388  11.798 122.593  1.00  0.00     0.012 C 
BRANCH  16  17
ATOM     17  C   UNL     1      45.814  12.314 121.213  1.00  0.00     0.123 C 
BRANCH  17  18
ATOM     18  C   UNL     1      46.939  11.491 120.671  1.00  0.00     0.305 C 
ATOM     19  O   UNL     1      48.130  11.781 120.968  1.00  0.00    -0.252 OA
BRANCH  18  20
ATOM     20  O   UNL     1      46.658  10.426 119.809  1.00  0.00    -0.469 OA
ATOM     21  C   UNL     1      47.381  10.200 118.605  1.00  0.00     0.282 C 
ENDBRANCH  18  20
ENDBRANCH  17  18
ENDBRANCH  16  17
ENDBRANCH  15  16
ENDBRANCH  14  15
ENDBRANCH  13  14
ENDBRANCH  12  13
ENDBRANCH   1  12
TORSDOF 15
ENDMDL
MODEL 4
REMARK VINA RESULT:    -4.925      3.666      4.968
REMARK INTER + INTRA:         -10.140
REMARK INTER:                  -8.155
REMARK INTRA:                  -1.985
REMARK UNBOUND:                -0.896
REMARK SMILES CCCCCC=CCC=CCCCCCCCC(=O)OC
REMARK SMILES IDX 11 1 10 2 9 3 8 4 7 5 6 6 5 7 4 8 3 9 2 10 1 11 12 12 13 13
REMARK SMILES IDX 14 14 15 15 16 16 17 17 18 18 19 19 20 20 21 21
REMARK H PARENT
REMARK Flexibility Score: inf
ROOT
ATOM      1  C   UNL     1      44.646   7.282 114.135  1.00  0.00     0.027 C 
ENDROOT
BRANCH   1   2
ATOM      2  C   UNL     1      45.889   7.072 114.957  1.00  0.00    -0.031 C 
ATOM      3  C   UNL     1      46.915   7.936 114.913  1.00  0.00    -0.027 C 
BRANCH   3   4
ATOM      4  C   UNL     1      48.152   7.727 115.738  1.00  0.00     0.054 C 
BRANCH   4   5
ATOM      5  C   UNL     1      49.227   7.078 114.911  1.00  0.00    -0.027 C 
ATOM      6  C   UNL     1      50.015   6.113 115.409  1.00  0.00    -0.031 C 
BRANCH   6   7
ATOM      7  C   UNL     1      51.071   5.452 114.567  1.00  0.00     0.027 C 
BRANCH   7   8
ATOM      8  C   UNL     1      50.946   5.875 113.096  1.00  0.00     0.004 C 
BRANCH   8   9
ATOM      9  C   UNL     1      50.460   4.718 112.197  1.00  0.00     0.000 C 
BRANCH   9  10
ATOM     10  C   UNL     1      49.061   4.950 111.601  1.00  0.00    -0.003 C 
ATOM     11  C   UNL     1      48.730   6.430 111.411  1.00  0.00     0.004 C 
ENDBRANCH   9  10
ENDBRANCH   8   9
ENDBRANCH   7   8
ENDBRANCH   6   7
ENDBRANCH   4   5
ENDBRANCH   3   4
ENDBRANCH   1   2
BRANCH   1  12
ATOM     12  C   UNL     1      44.526   8.722 113.607  1.00  0.00     0.004 C 
BRANCH  12  13
ATOM     13  C   UNL     1      43.166   9.390 113.895  1.00  0.00     0.000 C 
BRANCH  13  14
ATOM     14  C   UNL     1      43.190  10.460 115.005  1.00  0.00     0.000 C 
BRANCH  14  15
ATOM     15  C   UNL     1      44.188  10.192 116.151  1.00  0.00     0.001 C 
BRANCH  15  16
ATOM     16  C   UNL     1      43.648   9.304 117.286  1.00  0.00     0.012 C 
BRANCH  16  17
ATOM     17  C   UNL     1      44.761   8.582 118.055  1.00  0.00     0.123 C 
BRANCH  17  18
ATOM     18  C   UNL     1      45.371   9.493 119.072  1.00  0.00     0.305 C 
ATOM     19  O   UNL     1      44.691   9.872 120.065  1.00  0.00    -0.252 OA
BRANCH  18  20
ATOM     20  O   UNL     1      46.682   9.946 118.891  1.00  0.00    -0.469 OA
ATOM     21  C   UNL     1      47.364  10.732 119.861  1.00  0.00     0.282 C 
ENDBRANCH  18  20
ENDBRANCH  17  18
ENDBRANCH  16  17
ENDBRANCH  15  16
ENDBRANCH  14  15
ENDBRANCH  13  14
ENDBRANCH  12  13
ENDBRANCH   1  12
TORSDOF 15
ENDMDL
MODEL 5
REMARK VINA RESULT:    -4.901      3.293      6.989
REMARK INTER + INTRA:         -10.095
REMARK INTER:                  -8.300
REMARK INTRA:                  -1.795
REMARK UNBOUND:                -0.896
REMARK SMILES CCCCCC=CCC=CCCCCCCCC(=O)OC
REMARK SMILES IDX 11 1 10 2 9 3 8 4 7 5 6 6 5 7 4 8 3 9 2 10 1 11 12 12 13 13
REMARK SMILES IDX 14 14 15 15 16 16 17 17 18 18 19 19 20 20 21 21
REMARK H PARENT
REMARK Flexibility Score: inf
ROOT
ATOM      1  C   UNL     1      47.756   7.302 114.047  1.00  0.00     0.027 C 
ENDROOT
BRANCH   1   2
ATOM      2  C   UNL     1      47.611   7.742 115.480  1.00  0.00    -0.031 C 
ATOM      3  C   UNL     1      47.460   9.035 115.806  1.00  0.00    -0.027 C 
BRANCH   3   4
ATOM      4  C   UNL     1      47.311   9.470 117.236  1.00  0.00     0.054 C 
BRANCH   4   5
ATOM      5  C   UNL     1      45.865   9.729 117.555  1.00  0.00    -0.027 C 
ATOM      6  C   UNL     1      45.069   8.771 118.051  1.00  0.00    -0.031 C 
BRANCH   6   7
ATOM      7  C   UNL     1      43.630   9.046 118.391  1.00  0.00     0.027 C 
BRANCH   7   8
ATOM      8  C   UNL     1      43.489  10.373 119.153  1.00  0.00     0.004 C 
BRANCH   8   9
ATOM      9  C   UNL     1      42.353  10.327 120.196  1.00  0.00     0.000 C 
BRANCH   9  10
ATOM     10  C   UNL     1      42.049  11.694 120.832  1.00  0.00    -0.003 C 
ATOM     11  C   UNL     1      43.085  12.113 121.874  1.00  0.00     0.004 C 
ENDBRANCH   9  10
ENDBRANCH   8   9
ENDBRANCH   7   8
ENDBRANCH   6   7
ENDBRANCH   4   5
ENDBRANCH   3   4
ENDBRANCH   1   2
BRANCH   1  12
ATOM     12  C   UNL     1      46.444   7.436 113.256  1.00  0.00     0.004 C 
BRANCH  12  13
ATOM     13  C   UNL     1      45.249   6.688 113.881  1.00  0.00     0.000 C 
BRANCH  13  14
ATOM     14  C   UNL     1      44.178   7.596 114.521  1.00  0.00     0.000 C 
BRANCH  14  15
ATOM     15  C   UNL     1      44.310   9.097 114.190  1.00  0.00     0.001 C 
BRANCH  15  16
ATOM     16  C   UNL     1      42.988   9.884 114.209  1.00  0.00     0.012 C 
BRANCH  16  17
ATOM     17  C   UNL     1      42.401  10.094 112.808  1.00  0.00     0.123 C 
BRANCH  17  18
ATOM     18  C   UNL     1      41.859  11.481 112.671  1.00  0.00     0.305 C 
ATOM     19  O   UNL     1      42.100  12.149 111.629  1.00  0.00    -0.252 OA
BRANCH  18  20
ATOM     20  O   UNL     1      41.116  12.035 113.718  1.00  0.00    -0.469 OA
ATOM     21  C   UNL     1      40.995  13.439 113.915  1.00  0.00     0.282 C 
ENDBRANCH  18  20
ENDBRANCH  17  18
ENDBRANCH  16  17
ENDBRANCH  15  16
ENDBRANCH  14  15
ENDBRANCH  13  14
ENDBRANCH  12  13
ENDBRANCH   1  12
TORSDOF 15
ENDMDL
MODEL 6
REMARK VINA RESULT:    -4.873      5.078      8.037
REMARK INTER + INTRA:         -10.042
REMARK INTER:                  -8.752
REMARK INTRA:                  -1.290
REMARK UNBOUND:                -0.896
REMARK SMILES CCCCCC=CCC=CCCCCCCCC(=O)OC
REMARK SMILES IDX 11 1 10 2 9 3 8 4 7 5 6 6 5 7 4 8 3 9 2 10 1 11 12 12 13 13
REMARK SMILES IDX 14 14 15 15 16 16 17 17 18 18 19 19 20 20 21 21
REMARK H PARENT
REMARK Flexibility Score: inf
ROOT
ATOM      1  C   UNL     1      42.193  11.467 113.769  1.00  0.00     0.027 C 
ENDROOT
BRANCH   1   2
ATOM      2  C   UNL     1      42.953  10.247 114.215  1.00  0.00    -0.031 C 
ATOM      3  C   UNL     1      43.574  10.202 115.403  1.00  0.00    -0.027 C 
BRANCH   3   4
ATOM      4  C   UNL     1      44.328   8.981 115.848  1.00  0.00     0.054 C 
BRANCH   4   5
ATOM      5  C   UNL     1      44.219   8.813 117.338  1.00  0.00    -0.027 C 
ATOM      6  C   UNL     1      43.699   9.770 118.120  1.00  0.00    -0.031 C 
BRANCH   6   7
ATOM      7  C   UNL     1      43.570   9.583 119.606  1.00  0.00     0.027 C 
BRANCH   7   8
ATOM      8  C   UNL     1      42.094   9.522 120.027  1.00  0.00     0.004 C 
BRANCH   8   9
ATOM      9  C   UNL     1      41.810  10.379 121.279  1.00  0.00     0.000 C 
BRANCH   9  10
ATOM     10  C   UNL     1      42.096  11.877 121.075  1.00  0.00    -0.003 C 
ATOM     11  C   UNL     1      43.208  12.403 121.981  1.00  0.00     0.004 C 
ENDBRANCH   9  10
ENDBRANCH   8   9
ENDBRANCH   7   8
ENDBRANCH   6   7
ENDBRANCH   4   5
ENDBRANCH   3   4
ENDBRANCH   1   2
BRANCH   1  12
ATOM     12  C   UNL     1      42.139  12.556 114.854  1.00  0.00     0.004 C 
BRANCH  12  13
ATOM     13  C   UNL     1      41.878  13.976 114.313  1.00  0.00     0.000 C 
BRANCH  13  14
ATOM     14  C   UNL     1      41.635  14.057 112.792  1.00  0.00     0.000 C 
BRANCH  14  15
ATOM     15  C   UNL     1      42.725  14.803 111.995  1.00  0.00     0.001 C 
BRANCH  15  16
ATOM     16  C   UNL     1      43.384  13.982 110.872  1.00  0.00     0.012 C 
BRANCH  16  17
ATOM     17  C   UNL     1      42.548  12.765 110.458  1.00  0.00     0.123 C 
BRANCH  17  18
ATOM     18  C   UNL     1      41.836  13.033 109.171  1.00  0.00     0.305 C 
ATOM     19  O   UNL     1      40.691  13.561 109.185  1.00  0.00    -0.252 OA
BRANCH  18  20
ATOM     20  O   UNL     1      42.435  12.660 107.963  1.00  0.00    -0.469 OA
ATOM     21  C   UNL     1      41.824  12.890 106.699  1.00  0.00     0.282 C 
ENDBRANCH  18  20
ENDBRANCH  17  18
ENDBRANCH  16  17
ENDBRANCH  15  16
ENDBRANCH  14  15
ENDBRANCH  13  14
ENDBRANCH  12  13
ENDBRANCH   1  12
TORSDOF 15
ENDMDL
MODEL 7
REMARK VINA RESULT:    -4.850      5.462      8.682
REMARK INTER + INTRA:          -9.999
REMARK INTER:                  -8.688
REMARK INTRA:                  -1.312
REMARK UNBOUND:                -0.896
REMARK SMILES CCCCCC=CCC=CCCCCCCCC(=O)OC
REMARK SMILES IDX 11 1 10 2 9 3 8 4 7 5 6 6 5 7 4 8 3 9 2 10 1 11 12 12 13 13
REMARK SMILES IDX 14 14 15 15 16 16 17 17 18 18 19 19 20 20 21 21
REMARK H PARENT
REMARK Flexibility Score: inf
ROOT
ATOM      1  C   UNL     1      45.101   9.515 115.822  1.00  0.00     0.027 C 
ENDROOT
BRANCH   1   2
ATOM      2  C   UNL     1      43.777   9.359 115.121  1.00  0.00    -0.031 C 
ATOM      3  C   UNL     1      43.546   9.921 113.925  1.00  0.00    -0.027 C 
BRANCH   3   4
ATOM      4  C   UNL     1      42.226   9.760 113.226  1.00  0.00     0.054 C 
BRANCH   4   5
ATOM      5  C   UNL     1      41.447  11.044 113.278  1.00  0.00    -0.027 C 
ATOM      6  C   UNL     1      41.925  12.136 113.892  1.00  0.00    -0.031 C 
BRANCH   6   7
ATOM      7  C   UNL     1      41.150  13.424 113.917  1.00  0.00     0.027 C 
BRANCH   7   8
ATOM      8  C   UNL     1      42.058  14.620 113.590  1.00  0.00     0.004 C 
BRANCH   8   9
ATOM      9  C   UNL     1      41.967  15.029 112.105  1.00  0.00     0.000 C 
BRANCH   9  10
ATOM     10  C   UNL     1      43.204  14.633 111.282  1.00  0.00    -0.003 C 
ATOM     11  C   UNL     1      43.035  13.304 110.548  1.00  0.00     0.004 C 
ENDBRANCH   9  10
ENDBRANCH   8   9
ENDBRANCH   7   8
ENDBRANCH   6   7
ENDBRANCH   4   5
ENDBRANCH   3   4
ENDBRANCH   1   2
BRANCH   1  12
ATOM     12  C   UNL     1      44.964   9.475 117.353  1.00  0.00     0.004 C 
BRANCH  12  13
ATOM     13  C   UNL     1      43.876   8.509 117.866  1.00  0.00     0.000 C 
BRANCH  13  14
ATOM     14  C   UNL     1      43.014   9.055 119.022  1.00  0.00     0.000 C 
BRANCH  14  15
ATOM     15  C   UNL     1      42.991  10.593 119.150  1.00  0.00     0.001 C 
BRANCH  15  16
ATOM     16  C   UNL     1      42.367  11.126 120.452  1.00  0.00     0.012 C 
BRANCH  16  17
ATOM     17  C   UNL     1      42.908  12.504 120.849  1.00  0.00     0.123 C 
BRANCH  17  18
ATOM     18  C   UNL     1      44.246  12.372 121.504  1.00  0.00     0.305 C 
ATOM     19  O   UNL     1      45.239  12.995 121.036  1.00  0.00    -0.252 OA
BRANCH  18  20
ATOM     20  O   UNL     1      44.390  11.529 122.610  1.00  0.00    -0.469 OA
ATOM     21  C   UNL     1      43.743  11.774 123.853  1.00  0.00     0.282 C 
ENDBRANCH  18  20
ENDBRANCH  17  18
ENDBRANCH  16  17
ENDBRANCH  15  16
ENDBRANCH  14  15
ENDBRANCH  13  14
ENDBRANCH  12  13
ENDBRANCH   1  12
TORSDOF 15
ENDMDL
MODEL 8
REMARK VINA RESULT:    -4.820      4.387      8.720
REMARK INTER + INTRA:          -9.942
REMARK INTER:                  -8.560
REMARK INTRA:                  -1.382
REMARK UNBOUND:                -0.896
REMARK SMILES CCCCCC=CCC=CCCCCCCCC(=O)OC
REMARK SMILES IDX 11 1 10 2 9 3 8 4 7 5 6 6 5 7 4 8 3 9 2 10 1 11 12 12 13 13
REMARK SMILES IDX 14 14 15 15 16 16 17 17 18 18 19 19 20 20 21 21
REMARK H PARENT
REMARK Flexibility Score: inf
ROOT
ATOM      1  C   UNL     1      44.850   8.392 113.660  1.00  0.00     0.027 C 
ENDROOT
BRANCH   1   2
ATOM      2  C   UNL     1      43.676   9.281 113.972  1.00  0.00    -0.031 C 
ATOM      3  C   UNL     1      42.910   9.800 113.000  1.00  0.00    -0.027 C 
BRANCH   3   4
ATOM      4  C   UNL     1      41.736  10.683 113.314  1.00  0.00     0.054 C 
BRANCH   4   5
ATOM      5  C   UNL     1      42.207  12.002 113.863  1.00  0.00    -0.027 C 
ATOM      6  C   UNL     1      41.384  13.056 113.971  1.00  0.00    -0.031 C 
BRANCH   6   7
ATOM      7  C   UNL     1      41.857  14.363 114.544  1.00  0.00     0.027 C 
BRANCH   7   8
ATOM      8  C   UNL     1      41.456  15.538 113.639  1.00  0.00     0.004 C 
BRANCH   8   9
ATOM      9  C   UNL     1      41.049  15.070 112.225  1.00  0.00     0.000 C 
BRANCH   9  10
ATOM     10  C   UNL     1      42.064  15.456 111.136  1.00  0.00    -0.003 C 
ATOM     11  C   UNL     1      43.340  14.617 111.184  1.00  0.00     0.004 C 
ENDBRANCH   9  10
ENDBRANCH   8   9
ENDBRANCH   7   8
ENDBRANCH   6   7
ENDBRANCH   4   5
ENDBRANCH   3   4
ENDBRANCH   1   2
BRANCH   1  12
ATOM     12  C   UNL     1      45.587   7.926 114.927  1.00  0.00     0.004 C 
BRANCH  12  13
ATOM     13  C   UNL     1      46.497   8.998 115.560  1.00  0.00     0.000 C 
BRANCH  13  14
ATOM     14  C   UNL     1      46.222   9.286 117.049  1.00  0.00     0.000 C 
BRANCH  14  15
ATOM     15  C   UNL     1      44.912   8.687 117.601  1.00  0.00     0.001 C 
BRANCH  15  16
ATOM     16  C   UNL     1      43.838   9.719 117.986  1.00  0.00     0.012 C 
BRANCH  16  17
ATOM     17  C   UNL     1      43.007   9.287 119.200  1.00  0.00     0.123 C 
BRANCH  17  18
ATOM     18  C   UNL     1      43.095  10.311 120.286  1.00  0.00     0.305 C 
ATOM     19  O   UNL     1      44.109  10.348 121.035  1.00  0.00    -0.252 OA
BRANCH  18  20
ATOM     20  O   UNL     1      42.031  11.198 120.482  1.00  0.00    -0.469 OA
ATOM     21  C   UNL     1      42.213  12.518 120.979  1.00  0.00     0.282 C 
ENDBRANCH  18  20
ENDBRANCH  17  18
ENDBRANCH  16  17
ENDBRANCH  15  16
ENDBRANCH  14  15
ENDBRANCH  13  14
ENDBRANCH  12  13
ENDBRANCH   1  12
TORSDOF 15
ENDMDL
MODEL 9
REMARK VINA RESULT:    -4.811      3.794      4.987
REMARK INTER + INTRA:          -9.925
REMARK INTER:                  -8.038
REMARK INTRA:                  -1.887
REMARK UNBOUND:                -0.896
REMARK SMILES CCCCCC=CCC=CCCCCCCCC(=O)OC
REMARK SMILES IDX 11 1 10 2 9 3 8 4 7 5 6 6 5 7 4 8 3 9 2 10 1 11 12 12 13 13
REMARK SMILES IDX 14 14 15 15 16 16 17 17 18 18 19 19 20 20 21 21
REMARK H PARENT
REMARK Flexibility Score: inf
ROOT
ATOM      1  C   UNL     1      47.499   8.931 115.552  1.00  0.00     0.027 C 
ENDROOT
BRANCH   1   2
ATOM      2  C   UNL     1      48.912   8.695 115.089  1.00  0.00    -0.031 C 
ATOM      3  C   UNL     1      49.757   7.917 115.782  1.00  0.00    -0.027 C 
BRANCH   3   4
ATOM      4  C   UNL     1      51.165   7.679 115.316  1.00  0.00     0.054 C 
BRANCH   4   5
ATOM      5  C   UNL     1      51.215   6.499 114.386  1.00  0.00    -0.027 C 
ATOM      6  C   UNL     1      50.486   5.395 114.606  1.00  0.00    -0.031 C 
BRANCH   6   7
ATOM      7  C   UNL     1      50.523   4.230 113.656  1.00  0.00     0.027 C 
BRANCH   7   8
ATOM      8  C   UNL     1      50.582   4.710 112.198  1.00  0.00     0.004 C 
BRANCH   8   9
ATOM      9  C   UNL     1      49.181   5.026 111.633  1.00  0.00     0.000 C 
BRANCH   9  10
ATOM     10  C   UNL     1      49.028   6.478 111.150  1.00  0.00    -0.003 C 
ATOM     11  C   UNL     1      47.871   7.215 111.825  1.00  0.00     0.004 C 
ENDBRANCH   9  10
ENDBRANCH   8   9
ENDBRANCH   7   8
ENDBRANCH   6   7
ENDBRANCH   4   5
ENDBRANCH   3   4
ENDBRANCH   1   2
BRANCH   1  12
ATOM     12  C   UNL     1      46.757   7.621 115.868  1.00  0.00     0.004 C 
BRANCH  12  13
ATOM     13  C   UNL     1      45.603   7.298 114.897  1.00  0.00     0.000 C 
BRANCH  13  14
ATOM     14  C   UNL     1      44.307   8.097 115.139  1.00  0.00     0.000 C 
BRANCH  14  15
ATOM     15  C   UNL     1      43.781   8.067 116.589  1.00  0.00     0.001 C 
BRANCH  15  16
ATOM     16  C   UNL     1      43.733   9.436 117.290  1.00  0.00     0.012 C 
BRANCH  16  17
ATOM     17  C   UNL     1      44.785   9.574 118.397  1.00  0.00     0.123 C 
BRANCH  17  18
ATOM     18  C   UNL     1      44.151  10.041 119.668  1.00  0.00     0.305 C 
ATOM     19  O   UNL     1      44.736   9.851 120.769  1.00  0.00    -0.252 OA
BRANCH  18  20
ATOM     20  O   UNL     1      42.895  10.654 119.624  1.00  0.00    -0.469 OA
ATOM     21  C   UNL     1      42.698  12.028 119.940  1.00  0.00     0.282 C 
ENDBRANCH  18  20
ENDBRANCH  17  18
ENDBRANCH  16  17
ENDBRANCH  15  16
ENDBRANCH  14  15
ENDBRANCH  13  14
ENDBRANCH  12  13
ENDBRANCH   1  12
TORSDOF 15
ENDMDL
