MODEL 1
REMARK VINA RESULT:    -6.836      0.000      0.000
REMARK INTER + INTRA:          -8.474
REMARK INTER:                  -8.235
REMARK INTRA:                  -0.239
REMARK UNBOUND:                -0.239
REMARK SMILES O=c1c(O)c(-c2ccc(O)c(O)c2)oc2cc(O)cc(O)c12
REMARK SMILES IDX 5 1 3 2 2 3 1 4 22 5 20 6 19 7 17 8 16 9 15 10 14 11 6 12
REMARK SMILES IDX 7 13 8 14 9 15 13 16 11 17 10 18 12 20 4 22 21 24 18 26
REMARK H PARENT 10 19 12 21 4 23 21 25 18 27
REMARK Flexibility Score: inf
ROOT
ATOM      1  C   UNL     1     170.125 143.983 153.429  1.00  0.00     0.180 A 
ATOM      2  C   UNL     1     171.146 144.727 154.046  1.00  0.00     0.208 A 
ATOM      3  C   UNL     1     171.135 144.869 155.443  1.00  0.00     0.238 A 
ATOM      4  O   UNL     1     172.020 145.582 155.985  1.00  0.00    -0.285 OA
ATOM      5  C   UNL     1     170.115 144.252 156.206  1.00  0.00     0.111 A 
ATOM      6  C   UNL     1     170.029 144.296 157.630  1.00  0.00     0.134 A 
ATOM      7  C   UNL     1     168.906 143.759 158.271  1.00  0.00     0.093 A 
ATOM      8  C   UNL     1     167.897 143.123 157.544  1.00  0.00     0.123 A 
ATOM      9  C   UNL     1     168.001 143.023 156.159  1.00  0.00     0.094 A 
ATOM     10  C   UNL     1     169.092 143.580 155.487  1.00  0.00     0.146 A 
ATOM     11  O   UNL     1     169.146 143.472 154.165  1.00  0.00    -0.452 OA
ENDROOT
BRANCH   1  12
ATOM     12  C   UNL     1     170.082 143.768 151.964  1.00  0.00     0.025 A 
ATOM     13  C   UNL     1     169.742 144.809 151.082  1.00  0.00     0.016 A 
ATOM     14  C   UNL     1     169.731 144.590 149.702  1.00  0.00     0.051 A 
ATOM     15  C   UNL     1     170.072 143.334 149.183  1.00  0.00     0.157 A 
ATOM     16  C   UNL     1     170.442 142.517 151.438  1.00  0.00     0.062 A 
ATOM     17  C   UNL     1     170.431 142.297 150.052  1.00  0.00     0.158 A 
BRANCH  15  18
ATOM     18  O   UNL     1     170.060 143.111 147.808  1.00  0.00    -0.504 OA
ATOM     19  H   UNL     1     169.252 142.715 147.341  1.00  0.00     0.293 HD
ENDBRANCH  15  18
BRANCH  17  20
ATOM     20  O   UNL     1     170.776 141.049 149.535  1.00  0.00    -0.504 OA
ATOM     21  H   UNL     1     171.638 140.908 149.021  1.00  0.00     0.293 HD
ENDBRANCH  17  20
ENDBRANCH   1  12
BRANCH   2  22
ATOM     22  O   UNL     1     172.131 145.347 153.272  1.00  0.00    -0.502 OA
ATOM     23  H   UNL     1     172.822 144.823 152.749  1.00  0.00     0.293 HD
ENDBRANCH   2  22
BRANCH   6  24
ATOM     24  O   UNL     1     171.026 144.825 158.456  1.00  0.00    -0.507 OA
ATOM     25  H   UNL     1     170.863 145.238 159.361  1.00  0.00     0.293 HD
ENDBRANCH   6  24
BRANCH   8  26
ATOM     26  O   UNL     1     166.789 142.578 158.191  1.00  0.00    -0.508 OA
ATOM     27  H   UNL     1     165.944 142.342 157.686  1.00  0.00     0.293 HD
ENDBRANCH   8  26
TORSDOF 6
ENDMDL
MODEL 2
REMARK VINA RESULT:    -6.594      2.069      6.991
REMARK INTER + INTRA:          -8.182
REMARK INTER:                  -7.953
REMARK INTRA:                  -0.230
REMARK UNBOUND:                -0.239
REMARK SMILES O=c1c(O)c(-c2ccc(O)c(O)c2)oc2cc(O)cc(O)c12
REMARK SMILES IDX 5 1 3 2 2 3 1 4 22 5 20 6 19 7 17 8 16 9 15 10 14 11 6 12
REMARK SMILES IDX 7 13 8 14 9 15 13 16 11 17 10 18 12 20 4 22 21 24 18 26
REMARK H PARENT 10 19 12 21 4 23 21 25 18 27
REMARK Flexibility Score: inf
ROOT
ATOM      1  C   UNL     1     170.042 143.101 152.939  1.00  0.00     0.180 A 
ATOM      2  C   UNL     1     171.013 142.101 152.754  1.00  0.00     0.208 A 
ATOM      3  C   UNL     1     171.636 141.981 151.501  1.00  0.00     0.238 A 
ATOM      4  O   UNL     1     172.464 141.049 151.326  1.00  0.00    -0.285 OA
ATOM      5  C   UNL     1     171.294 142.871 150.456  1.00  0.00     0.111 A 
ATOM      6  C   UNL     1     171.892 142.867 149.160  1.00  0.00     0.134 A 
ATOM      7  C   UNL     1     171.384 143.709 148.162  1.00  0.00     0.093 A 
ATOM      8  C   UNL     1     170.344 144.601 148.433  1.00  0.00     0.123 A 
ATOM      9  C   UNL     1     169.795 144.655 149.712  1.00  0.00     0.094 A 
ATOM     10  C   UNL     1     170.256 143.802 150.718  1.00  0.00     0.146 A 
ATOM     11  O   UNL     1     169.696 143.878 151.920  1.00  0.00    -0.452 OA
ENDROOT
BRANCH   1  12
ATOM     12  C   UNL     1     169.359 143.306 154.236  1.00  0.00     0.025 A 
ATOM     13  C   UNL     1     169.622 144.437 155.031  1.00  0.00     0.016 A 
ATOM     14  C   UNL     1     168.947 144.622 156.241  1.00  0.00     0.051 A 
ATOM     15  C   UNL     1     167.993 143.689 156.668  1.00  0.00     0.157 A 
ATOM     16  C   UNL     1     168.388 142.385 154.660  1.00  0.00     0.062 A 
ATOM     17  C   UNL     1     167.711 142.570 155.875  1.00  0.00     0.158 A 
BRANCH  15  18
ATOM     18  O   UNL     1     167.321 143.869 157.875  1.00  0.00    -0.504 OA
ATOM     19  H   UNL     1     166.362 143.565 157.999  1.00  0.00     0.293 HD
ENDBRANCH  15  18
BRANCH  17  20
ATOM     20  O   UNL     1     166.757 141.646 156.298  1.00  0.00    -0.504 OA
ATOM     21  H   UNL     1     166.919 140.648 156.233  1.00  0.00     0.293 HD
ENDBRANCH  17  20
ENDBRANCH   1  12
BRANCH   2  22
ATOM     22  O   UNL     1     171.320 141.218 153.793  1.00  0.00    -0.502 OA
ATOM     23  H   UNL     1     172.242 141.165 154.208  1.00  0.00     0.293 HD
ENDBRANCH   2  22
BRANCH   6  24
ATOM     24  O   UNL     1     172.995 142.082 148.812  1.00  0.00    -0.507 OA
ATOM     25  H   UNL     1     173.633 141.663 149.471  1.00  0.00     0.293 HD
ENDBRANCH   6  24
BRANCH   8  26
ATOM     26  O   UNL     1     169.855 145.446 147.439  1.00  0.00    -0.508 OA
ATOM     27  H   UNL     1     169.279 145.096 146.682  1.00  0.00     0.293 HD
ENDBRANCH   8  26
TORSDOF 6
ENDMDL
MODEL 3
REMARK VINA RESULT:    -6.587      2.062      7.294
REMARK INTER + INTRA:          -8.174
REMARK INTER:                  -7.978
REMARK INTRA:                  -0.196
REMARK UNBOUND:                -0.239
REMARK SMILES O=c1c(O)c(-c2ccc(O)c(O)c2)oc2cc(O)cc(O)c12
REMARK SMILES IDX 5 1 3 2 2 3 1 4 22 5 20 6 19 7 17 8 16 9 15 10 14 11 6 12
REMARK SMILES IDX 7 13 8 14 9 15 13 16 11 17 10 18 12 20 4 22 21 24 18 26
REMARK H PARENT 10 19 12 21 4 23 21 25 18 27
REMARK Flexibility Score: inf
ROOT
ATOM      1  C   UNL     1     170.059 143.586 152.140  1.00  0.00     0.180 A 
ATOM      2  C   UNL     1     170.459 142.284 151.791  1.00  0.00     0.208 A 
ATOM      3  C   UNL     1     171.166 142.087 150.593  1.00  0.00     0.238 A 
ATOM      4  O   UNL     1     171.472 140.913 150.258  1.00  0.00    -0.285 OA
ATOM      5  C   UNL     1     171.479 143.195 149.770  1.00  0.00     0.111 A 
ATOM      6  C   UNL     1     172.226 143.117 148.556  1.00  0.00     0.134 A 
ATOM      7  C   UNL     1     172.365 144.258 147.756  1.00  0.00     0.093 A 
ATOM      8  C   UNL     1     171.839 145.488 148.158  1.00  0.00     0.123 A 
ATOM      9  C   UNL     1     171.160 145.587 149.370  1.00  0.00     0.094 A 
ATOM     10  C   UNL     1     170.974 144.459 150.173  1.00  0.00     0.146 A 
ATOM     11  O   UNL     1     170.311 144.595 151.315  1.00  0.00    -0.452 OA
ENDROOT
BRANCH   1  12
ATOM     12  C   UNL     1     169.333 143.876 153.397  1.00  0.00     0.025 A 
ATOM     13  C   UNL     1     167.983 144.271 153.387  1.00  0.00     0.016 A 
ATOM     14  C   UNL     1     167.310 144.517 154.588  1.00  0.00     0.051 A 
ATOM     15  C   UNL     1     167.971 144.359 155.813  1.00  0.00     0.157 A 
ATOM     16  C   UNL     1     169.984 143.700 154.629  1.00  0.00     0.062 A 
ATOM     17  C   UNL     1     169.309 143.947 155.834  1.00  0.00     0.158 A 
BRANCH  15  18
ATOM     18  O   UNL     1     167.305 144.605 157.011  1.00  0.00    -0.504 OA
ATOM     19  H   UNL     1     167.289 145.529 157.430  1.00  0.00     0.293 HD
ENDBRANCH  15  18
BRANCH  17  20
ATOM     20  O   UNL     1     169.963 143.784 157.054  1.00  0.00    -0.504 OA
ATOM     21  H   UNL     1     169.704 144.323 157.871  1.00  0.00     0.293 HD
ENDBRANCH  17  20
ENDBRANCH   1  12
BRANCH   2  22
ATOM     22  O   UNL     1     170.120 141.201 152.606  1.00  0.00    -0.502 OA
ATOM     23  H   UNL     1     169.495 141.291 153.398  1.00  0.00     0.293 HD
ENDBRANCH   2  22
BRANCH   6  24
ATOM     24  O   UNL     1     172.870 141.960 148.110  1.00  0.00    -0.507 OA
ATOM     25  H   UNL     1     173.092 141.165 148.690  1.00  0.00     0.293 HD
ENDBRANCH   6  24
BRANCH   8  26
ATOM     26  O   UNL     1     171.995 146.622 147.363  1.00  0.00    -0.508 OA
ATOM     27  H   UNL     1     172.898 147.068 147.248  1.00  0.00     0.293 HD
ENDBRANCH   8  26
TORSDOF 6
ENDMDL
MODEL 4
REMARK VINA RESULT:    -6.528      2.599      4.389
REMARK INTER + INTRA:          -8.102
REMARK INTER:                  -7.848
REMARK INTRA:                  -0.254
REMARK UNBOUND:                -0.239
REMARK SMILES O=c1c(O)c(-c2ccc(O)c(O)c2)oc2cc(O)cc(O)c12
REMARK SMILES IDX 5 1 3 2 2 3 1 4 22 5 20 6 19 7 17 8 16 9 15 10 14 11 6 12
REMARK SMILES IDX 7 13 8 14 9 15 13 16 11 17 10 18 12 20 4 22 21 24 18 26
REMARK H PARENT 10 19 12 21 4 23 21 25 18 27
REMARK Flexibility Score: inf
ROOT
ATOM      1  C   UNL     1     171.002 145.158 155.829  1.00  0.00     0.180 A 
ATOM      2  C   UNL     1     170.092 144.616 156.753  1.00  0.00     0.208 A 
ATOM      3  C   UNL     1     170.428 144.614 158.117  1.00  0.00     0.238 A 
ATOM      4  O   UNL     1     169.634 144.078 158.933  1.00  0.00    -0.285 OA
ATOM      5  C   UNL     1     171.659 145.168 158.540  1.00  0.00     0.111 A 
ATOM      6  C   UNL     1     172.084 145.256 159.900  1.00  0.00     0.134 A 
ATOM      7  C   UNL     1     173.377 145.705 160.192  1.00  0.00     0.093 A 
ATOM      8  C   UNL     1     174.238 146.131 159.178  1.00  0.00     0.123 A 
ATOM      9  C   UNL     1     173.811 146.105 157.853  1.00  0.00     0.094 A 
ATOM     10  C   UNL     1     172.539 145.629 157.526  1.00  0.00     0.146 A 
ATOM     11  O   UNL     1     172.177 145.611 156.249  1.00  0.00    -0.452 OA
ENDROOT
BRANCH   1  12
ATOM     12  C   UNL     1     170.709 145.219 154.378  1.00  0.00     0.025 A 
ATOM     13  C   UNL     1     169.753 146.112 153.861  1.00  0.00     0.016 A 
ATOM     14  C   UNL     1     169.511 146.169 152.486  1.00  0.00     0.051 A 
ATOM     15  C   UNL     1     170.228 145.345 151.608  1.00  0.00     0.157 A 
ATOM     16  C   UNL     1     171.438 144.411 153.491  1.00  0.00     0.062 A 
ATOM     17  C   UNL     1     171.196 144.467 152.111  1.00  0.00     0.158 A 
BRANCH  15  18
ATOM     18  O   UNL     1     169.987 145.398 150.237  1.00  0.00    -0.504 OA
ATOM     19  H   UNL     1     169.144 145.819 149.861  1.00  0.00     0.293 HD
ENDBRANCH  15  18
BRANCH  17  20
ATOM     20  O   UNL     1     171.912 143.653 151.235  1.00  0.00    -0.504 OA
ATOM     21  H   UNL     1     172.859 143.359 151.439  1.00  0.00     0.293 HD
ENDBRANCH  17  20
ENDBRANCH   1  12
BRANCH   2  22
ATOM     22  O   UNL     1     168.892 144.054 156.312  1.00  0.00    -0.502 OA
ATOM     23  H   UNL     1     168.743 143.053 156.267  1.00  0.00     0.293 HD
ENDBRANCH   2  22
BRANCH   6  24
ATOM     24  O   UNL     1     171.270 144.943 160.993  1.00  0.00    -0.507 OA
ATOM     25  H   UNL     1     170.777 145.621 161.555  1.00  0.00     0.293 HD
ENDBRANCH   6  24
BRANCH   8  26
ATOM     26  O   UNL     1     175.519 146.591 159.479  1.00  0.00    -0.508 OA
ATOM     27  H   UNL     1     175.876 146.582 160.427  1.00  0.00     0.293 HD
ENDBRANCH   8  26
TORSDOF 6
ENDMDL
MODEL 5
REMARK VINA RESULT:    -6.516      2.051      2.318
REMARK INTER + INTRA:          -8.089
REMARK INTER:                  -7.781
REMARK INTRA:                  -0.308
REMARK UNBOUND:                -0.239
REMARK SMILES O=c1c(O)c(-c2ccc(O)c(O)c2)oc2cc(O)cc(O)c12
REMARK SMILES IDX 5 1 3 2 2 3 1 4 22 5 20 6 19 7 17 8 16 9 15 10 14 11 6 12
REMARK SMILES IDX 7 13 8 14 9 15 13 16 11 17 10 18 12 20 4 22 21 24 18 26
REMARK H PARENT 10 19 12 21 4 23 21 25 18 27
REMARK Flexibility Score: inf
ROOT
ATOM      1  C   UNL     1     171.400 143.368 152.790  1.00  0.00     0.180 A 
ATOM      2  C   UNL     1     171.854 144.501 153.487  1.00  0.00     0.208 A 
ATOM      3  C   UNL     1     171.213 144.867 154.682  1.00  0.00     0.238 A 
ATOM      4  O   UNL     1     171.588 145.914 155.272  1.00  0.00    -0.285 OA
ATOM      5  C   UNL     1     170.139 144.087 155.173  1.00  0.00     0.111 A 
ATOM      6  C   UNL     1     169.444 144.342 156.393  1.00  0.00     0.134 A 
ATOM      7  C   UNL     1     168.313 143.581 156.716  1.00  0.00     0.093 A 
ATOM      8  C   UNL     1     167.891 142.533 155.894  1.00  0.00     0.123 A 
ATOM      9  C   UNL     1     168.599 142.239 154.731  1.00  0.00     0.094 A 
ATOM     10  C   UNL     1     169.710 143.003 154.364  1.00  0.00     0.146 A 
ATOM     11  O   UNL     1     170.349 142.695 153.242  1.00  0.00    -0.452 OA
ENDROOT
BRANCH   1  12
ATOM     12  C   UNL     1     172.040 142.905 151.537  1.00  0.00     0.025 A 
ATOM     13  C   UNL     1     171.531 143.270 150.278  1.00  0.00     0.016 A 
ATOM     14  C   UNL     1     172.166 142.841 149.109  1.00  0.00     0.051 A 
ATOM     15  C   UNL     1     173.322 142.054 149.180  1.00  0.00     0.157 A 
ATOM     16  C   UNL     1     173.210 142.133 151.603  1.00  0.00     0.062 A 
ATOM     17  C   UNL     1     173.848 141.702 150.430  1.00  0.00     0.158 A 
BRANCH  15  18
ATOM     18  O   UNL     1     173.955 141.623 148.017  1.00  0.00    -0.504 OA
ATOM     19  H   UNL     1     174.546 142.242 147.473  1.00  0.00     0.293 HD
ENDBRANCH  15  18
BRANCH  17  20
ATOM     20  O   UNL     1     175.002 140.923 150.499  1.00  0.00    -0.504 OA
ATOM     21  H   UNL     1     175.170 140.292 151.273  1.00  0.00     0.293 HD
ENDBRANCH  17  20
ENDBRANCH   1  12
BRANCH   2  22
ATOM     22  O   UNL     1     172.901 145.271 152.973  1.00  0.00    -0.502 OA
ATOM     23  H   UNL     1     173.678 144.864 152.466  1.00  0.00     0.293 HD
ENDBRANCH   2  22
BRANCH   6  24
ATOM     24  O   UNL     1     169.837 145.303 157.329  1.00  0.00    -0.507 OA
ATOM     25  H   UNL     1     170.724 145.309 157.809  1.00  0.00     0.293 HD
ENDBRANCH   6  24
BRANCH   8  26
ATOM     26  O   UNL     1     166.774 141.771 156.230  1.00  0.00    -0.508 OA
ATOM     27  H   UNL     1     166.602 141.475 157.184  1.00  0.00     0.293 HD
ENDBRANCH   8  26
TORSDOF 6
ENDMDL
MODEL 6
REMARK VINA RESULT:    -6.394      1.345      2.944
REMARK INTER + INTRA:          -7.941
REMARK INTER:                  -7.829
REMARK INTRA:                  -0.112
REMARK UNBOUND:                -0.239
REMARK SMILES O=c1c(O)c(-c2ccc(O)c(O)c2)oc2cc(O)cc(O)c12
REMARK SMILES IDX 5 1 3 2 2 3 1 4 22 5 20 6 19 7 17 8 16 9 15 10 14 11 6 12
REMARK SMILES IDX 7 13 8 14 9 15 13 16 11 17 10 18 12 20 4 22 21 24 18 26
REMARK H PARENT 10 19 12 21 4 23 21 25 18 27
REMARK Flexibility Score: inf
ROOT
ATOM      1  C   UNL     1     170.035 143.570 153.935  1.00  0.00     0.180 A 
ATOM      2  C   UNL     1     169.229 142.762 154.756  1.00  0.00     0.208 A 
ATOM      3  C   UNL     1     169.255 142.965 156.146  1.00  0.00     0.238 A 
ATOM      4  O   UNL     1     168.573 142.203 156.880  1.00  0.00    -0.285 OA
ATOM      5  C   UNL     1     170.071 143.982 156.695  1.00  0.00     0.111 A 
ATOM      6  C   UNL     1     170.144 144.302 158.084  1.00  0.00     0.134 A 
ATOM      7  C   UNL     1     171.083 145.241 158.528  1.00  0.00     0.093 A 
ATOM      8  C   UNL     1     171.907 145.918 157.627  1.00  0.00     0.123 A 
ATOM      9  C   UNL     1     171.802 145.656 156.262  1.00  0.00     0.094 A 
ATOM     10  C   UNL     1     170.900 144.699 155.792  1.00  0.00     0.146 A 
ATOM     11  O   UNL     1     170.840 144.472 154.485  1.00  0.00    -0.452 OA
ENDROOT
BRANCH   1  12
ATOM     12  C   UNL     1     170.045 143.433 152.461  1.00  0.00     0.025 A 
ATOM     13  C   UNL     1     169.684 144.505 151.624  1.00  0.00     0.016 A 
ATOM     14  C   UNL     1     169.724 144.360 150.235  1.00  0.00     0.051 A 
ATOM     15  C   UNL     1     170.136 143.150 149.662  1.00  0.00     0.157 A 
ATOM     16  C   UNL     1     170.476 142.229 151.880  1.00  0.00     0.062 A 
ATOM     17  C   UNL     1     170.516 142.084 150.486  1.00  0.00     0.158 A 
BRANCH  15  18
ATOM     18  O   UNL     1     170.174 143.002 148.277  1.00  0.00    -0.504 OA
ATOM     19  H   UNL     1     170.668 142.233 147.838  1.00  0.00     0.293 HD
ENDBRANCH  15  18
BRANCH  17  20
ATOM     20  O   UNL     1     170.931 140.882 149.914  1.00  0.00    -0.504 OA
ATOM     21  H   UNL     1     171.352 140.148 150.470  1.00  0.00     0.293 HD
ENDBRANCH  17  20
ENDBRANCH   1  12
BRANCH   2  22
ATOM     22  O   UNL     1     168.448 141.749 154.196  1.00  0.00    -0.502 OA
ATOM     23  H   UNL     1     167.694 141.300 154.702  1.00  0.00     0.293 HD
ENDBRANCH   2  22
BRANCH   6  24
ATOM     24  O   UNL     1     169.303 143.752 159.056  1.00  0.00    -0.507 OA
ATOM     25  H   UNL     1     169.391 142.820 159.431  1.00  0.00     0.293 HD
ENDBRANCH   6  24
BRANCH   8  26
ATOM     26  O   UNL     1     172.828 146.862 158.076  1.00  0.00    -0.508 OA
ATOM     27  H   UNL     1     172.540 147.792 158.358  1.00  0.00     0.293 HD
ENDBRANCH   8  26
TORSDOF 6
ENDMDL
MODEL 7
REMARK VINA RESULT:    -6.356      3.006      7.387
REMARK INTER + INTRA:          -7.895
REMARK INTER:                  -7.654
REMARK INTRA:                  -0.242
REMARK UNBOUND:                -0.239
REMARK SMILES O=c1c(O)c(-c2ccc(O)c(O)c2)oc2cc(O)cc(O)c12
REMARK SMILES IDX 5 1 3 2 2 3 1 4 22 5 20 6 19 7 17 8 16 9 15 10 14 11 6 12
REMARK SMILES IDX 7 13 8 14 9 15 13 16 11 17 10 18 12 20 4 22 21 24 18 26
REMARK H PARENT 10 19 12 21 4 23 21 25 18 27
REMARK Flexibility Score: inf
ROOT
ATOM      1  C   UNL     1     171.306 144.915 157.470  1.00  0.00     0.180 A 
ATOM      2  C   UNL     1     170.105 144.325 157.902  1.00  0.00     0.208 A 
ATOM      3  C   UNL     1     169.028 144.238 157.005  1.00  0.00     0.238 A 
ATOM      4  O   UNL     1     167.939 143.760 157.414  1.00  0.00    -0.285 OA
ATOM      5  C   UNL     1     169.171 144.726 155.684  1.00  0.00     0.111 A 
ATOM      6  C   UNL     1     168.159 144.653 154.680  1.00  0.00     0.134 A 
ATOM      7  C   UNL     1     168.363 145.284 153.446  1.00  0.00     0.093 A 
ATOM      8  C   UNL     1     169.568 145.930 153.158  1.00  0.00     0.123 A 
ATOM      9  C   UNL     1     170.584 145.955 154.111  1.00  0.00     0.094 A 
ATOM     10  C   UNL     1     170.397 145.365 155.364  1.00  0.00     0.146 A 
ATOM     11  O   UNL     1     171.387 145.422 156.246  1.00  0.00    -0.452 OA
ENDROOT
BRANCH   1  12
ATOM     12  C   UNL     1     172.493 145.021 158.349  1.00  0.00     0.025 A 
ATOM     13  C   UNL     1     172.873 146.248 158.922  1.00  0.00     0.016 A 
ATOM     14  C   UNL     1     173.982 146.319 159.768  1.00  0.00     0.051 A 
ATOM     15  C   UNL     1     174.720 145.165 160.064  1.00  0.00     0.157 A 
ATOM     16  C   UNL     1     173.225 143.865 158.666  1.00  0.00     0.062 A 
ATOM     17  C   UNL     1     174.339 143.935 159.515  1.00  0.00     0.158 A 
BRANCH  15  18
ATOM     18  O   UNL     1     175.829 145.233 160.905  1.00  0.00    -0.504 OA
ATOM     19  H   UNL     1     175.935 144.607 161.696  1.00  0.00     0.293 HD
ENDBRANCH  15  18
BRANCH  17  20
ATOM     20  O   UNL     1     175.070 142.787 159.815  1.00  0.00    -0.504 OA
ATOM     21  H   UNL     1     175.728 142.390 159.156  1.00  0.00     0.293 HD
ENDBRANCH  17  20
ENDBRANCH   1  12
BRANCH   2  22
ATOM     22  O   UNL     1     169.979 143.870 159.217  1.00  0.00    -0.502 OA
ATOM     23  H   UNL     1     170.032 142.889 159.461  1.00  0.00     0.293 HD
ENDBRANCH   2  22
BRANCH   6  24
ATOM     24  O   UNL     1     166.958 143.954 154.832  1.00  0.00    -0.507 OA
ATOM     25  H   UNL     1     166.875 142.949 154.844  1.00  0.00     0.293 HD
ENDBRANCH   6  24
BRANCH   8  26
ATOM     26  O   UNL     1     169.769 146.542 151.923  1.00  0.00    -0.508 OA
ATOM     27  H   UNL     1     169.480 146.099 151.059  1.00  0.00     0.293 HD
ENDBRANCH   8  26
TORSDOF 6
ENDMDL
MODEL 8
REMARK VINA RESULT:    -6.207      2.163      2.973
REMARK INTER + INTRA:          -7.717
REMARK INTER:                  -7.411
REMARK INTRA:                  -0.306
REMARK UNBOUND:                -0.239
REMARK SMILES O=c1c(O)c(-c2ccc(O)c(O)c2)oc2cc(O)cc(O)c12
REMARK SMILES IDX 5 1 3 2 2 3 1 4 22 5 20 6 19 7 17 8 16 9 15 10 14 11 6 12
REMARK SMILES IDX 7 13 8 14 9 15 13 16 11 17 10 18 12 20 4 22 21 24 18 26
REMARK H PARENT 10 19 12 21 4 23 21 25 18 27
REMARK Flexibility Score: inf
ROOT
ATOM      1  C   UNL     1     170.521 143.581 151.792  1.00  0.00     0.180 A 
ATOM      2  C   UNL     1     171.446 142.660 152.314  1.00  0.00     0.208 A 
ATOM      3  C   UNL     1     171.316 142.247 153.650  1.00  0.00     0.238 A 
ATOM      4  O   UNL     1     172.179 141.465 154.127  1.00  0.00    -0.285 OA
ATOM      5  C   UNL     1     170.254 142.746 154.442  1.00  0.00     0.111 A 
ATOM      6  C   UNL     1     170.003 142.365 155.794  1.00  0.00     0.134 A 
ATOM      7  C   UNL     1     169.002 143.019 156.521  1.00  0.00     0.093 A 
ATOM      8  C   UNL     1     168.200 143.996 155.926  1.00  0.00     0.123 A 
ATOM      9  C   UNL     1     168.398 144.332 154.588  1.00  0.00     0.094 A 
ATOM     10  C   UNL     1     169.413 143.722 153.847  1.00  0.00     0.146 A 
ATOM     11  O   UNL     1     169.575 144.080 152.579  1.00  0.00    -0.452 OA
ENDROOT
BRANCH   1  12
ATOM     12  C   UNL     1     170.577 144.044 150.388  1.00  0.00     0.025 A 
ATOM     13  C   UNL     1     170.091 143.249 149.334  1.00  0.00     0.016 A 
ATOM     14  C   UNL     1     170.132 143.718 148.018  1.00  0.00     0.051 A 
ATOM     15  C   UNL     1     170.647 144.990 147.737  1.00  0.00     0.157 A 
ATOM     16  C   UNL     1     171.074 145.327 150.102  1.00  0.00     0.062 A 
ATOM     17  C   UNL     1     171.116 145.797 148.781  1.00  0.00     0.158 A 
BRANCH  15  18
ATOM     18  O   UNL     1     170.693 145.459 146.426  1.00  0.00    -0.504 OA
ATOM     19  H   UNL     1     170.594 146.445 146.211  1.00  0.00     0.293 HD
ENDBRANCH  15  18
BRANCH  17  20
ATOM     20  O   UNL     1     171.622 147.065 148.500  1.00  0.00    -0.504 OA
ATOM     21  H   UNL     1     171.139 147.704 147.880  1.00  0.00     0.293 HD
ENDBRANCH  17  20
ENDBRANCH   1  12
BRANCH   2  22
ATOM     22  O   UNL     1     172.500 142.197 151.522  1.00  0.00    -0.502 OA
ATOM     23  H   UNL     1     173.420 142.619 151.540  1.00  0.00     0.293 HD
ENDBRANCH   2  22
BRANCH   6  24
ATOM     24  O   UNL     1     170.684 141.338 156.454  1.00  0.00    -0.507 OA
ATOM     25  H   UNL     1     170.941 140.457 156.036  1.00  0.00     0.293 HD
ENDBRANCH   6  24
BRANCH   8  26
ATOM     26  O   UNL     1     167.195 144.632 156.653  1.00  0.00    -0.508 OA
ATOM     27  H   UNL     1     166.297 144.192 156.811  1.00  0.00     0.293 HD
ENDBRANCH   8  26
TORSDOF 6
ENDMDL
