MODEL 1
REMARK VINA RESULT:    -3.970      0.000      0.000
REMARK INTER + INTRA:          -7.105
REMARK INTER:                  -6.291
REMARK INTRA:                  -0.814
REMARK UNBOUND:                -0.814
REMARK SMILES CCCCCCCCCCCC(=O)[O-]
REMARK SMILES IDX 7 1 8 2 9 3 10 4 11 5 12 6 13 7 14 8 6 9 5 10 4 11 3 12 2 13
REMARK SMILES IDX 1 14
REMARK H PARENT
REMARK Flexibility Score: inf
ROOT
ATOM      1  C   UNL     1      15.499  12.011  18.404  1.00  0.00     0.000 C 
ENDROOT
BRANCH   1   2
ATOM      2  C   UNL     1      15.673  12.036  16.877  1.00  0.00     0.000 C 
BRANCH   2   3
ATOM      3  C   UNL     1      14.331  12.026  16.125  1.00  0.00     0.000 C 
BRANCH   3   4
ATOM      4  C   UNL     1      14.456  11.525  14.675  1.00  0.00     0.006 C 
BRANCH   4   5
ATOM      5  C   UNL     1      13.107  11.352  13.956  1.00  0.00     0.053 C 
BRANCH   5   6
ATOM      6  C   UNL     1      13.101  11.968  12.591  1.00  0.00     0.041 C 
ATOM      7  O   UNL     1      13.520  13.144  12.424  1.00  0.00    -0.550 OA
ATOM      8  O   UNL     1      12.601  11.258  11.506  1.00  0.00    -0.550 OA
ENDBRANCH   5   6
ENDBRANCH   4   5
ENDBRANCH   3   4
ENDBRANCH   2   3
ENDBRANCH   1   2
BRANCH   1   9
ATOM      9  C   UNL     1      16.830  12.202  19.152  1.00  0.00     0.000 C 
BRANCH   9  10
ATOM     10  C   UNL     1      17.979  12.610  18.217  1.00  0.00    -0.000 C 
BRANCH  10  11
ATOM     11  C   UNL     1      19.101  11.563  18.164  1.00  0.00    -0.000 C 
BRANCH  11  12
ATOM     12  C   UNL     1      19.710  11.482  16.759  1.00  0.00    -0.000 C 
BRANCH  12  13
ATOM     13  C   UNL     1      19.089  12.529  15.827  1.00  0.00    -0.003 C 
ATOM     14  C   UNL     1      18.563  11.885  14.548  1.00  0.00     0.004 C 
ENDBRANCH  12  13
ENDBRANCH  11  12
ENDBRANCH  10  11
ENDBRANCH   9  10
ENDBRANCH   1   9
TORSDOF 10
ENDMDL
MODEL 2
REMARK VINA RESULT:    -3.927      1.190      2.862
REMARK INTER + INTRA:          -7.036
REMARK INTER:                  -6.442
REMARK INTRA:                  -0.594
REMARK UNBOUND:                -0.814
REMARK SMILES CCCCCCCCCCCC(=O)[O-]
REMARK SMILES IDX 7 1 8 2 9 3 10 4 11 5 12 6 13 7 14 8 6 9 5 10 4 11 3 12 2 13
REMARK SMILES IDX 1 14
REMARK H PARENT
REMARK Flexibility Score: inf
ROOT
ATOM      1  C   UNL     1      16.950  11.831  14.219  1.00  0.00     0.000 C 
ENDROOT
BRANCH   1   2
ATOM      2  C   UNL     1      15.850  11.816  15.292  1.00  0.00     0.000 C 
BRANCH   2   3
ATOM      3  C   UNL     1      14.567  11.111  14.820  1.00  0.00     0.000 C 
BRANCH   3   4
ATOM      4  C   UNL     1      13.735  11.964  13.845  1.00  0.00     0.006 C 
BRANCH   4   5
ATOM      5  C   UNL     1      12.478  11.255  13.313  1.00  0.00     0.053 C 
BRANCH   5   6
ATOM      6  C   UNL     1      12.471  11.143  11.819  1.00  0.00     0.041 C 
ATOM      7  O   UNL     1      12.739  12.146  11.107  1.00  0.00    -0.550 OA
ATOM      8  O   UNL     1      12.135   9.940  11.209  1.00  0.00    -0.550 OA
ENDBRANCH   5   6
ENDBRANCH   4   5
ENDBRANCH   3   4
ENDBRANCH   2   3
ENDBRANCH   1   2
BRANCH   1   9
ATOM      9  C   UNL     1      18.172  12.666  14.638  1.00  0.00     0.000 C 
BRANCH   9  10
ATOM     10  C   UNL     1      19.035  11.960  15.696  1.00  0.00    -0.000 C 
BRANCH  10  11
ATOM     11  C   UNL     1      19.124  12.746  17.012  1.00  0.00    -0.000 C 
BRANCH  11  12
ATOM     12  C   UNL     1      18.671  11.886  18.197  1.00  0.00    -0.000 C 
BRANCH  12  13
ATOM     13  C   UNL     1      17.307  12.347  18.724  1.00  0.00    -0.003 C 
ATOM     14  C   UNL     1      16.943  11.623  20.017  1.00  0.00     0.004 C 
ENDBRANCH  12  13
ENDBRANCH  11  12
ENDBRANCH  10  11
ENDBRANCH   9  10
ENDBRANCH   1   9
TORSDOF 10
ENDMDL
MODEL 3
REMARK VINA RESULT:    -3.883      5.562      8.412
REMARK INTER + INTRA:          -6.967
REMARK INTER:                  -5.551
REMARK INTRA:                  -1.416
REMARK UNBOUND:                -0.814
REMARK SMILES CCCCCCCCCCCC(=O)[O-]
REMARK SMILES IDX 7 1 8 2 9 3 10 4 11 5 12 6 13 7 14 8 6 9 5 10 4 11 3 12 2 13
REMARK SMILES IDX 1 14
REMARK H PARENT
REMARK Flexibility Score: inf
ROOT
ATOM      1  C   UNL     1      11.974  12.766   8.523  1.00  0.00     0.000 C 
ENDROOT
BRANCH   1   2
ATOM      2  C   UNL     1      12.037  11.382   9.190  1.00  0.00     0.000 C 
BRANCH   2   3
ATOM      3  C   UNL     1      10.716  10.993   9.875  1.00  0.00     0.000 C 
BRANCH   3   4
ATOM      4  C   UNL     1      10.884  10.673  11.371  1.00  0.00     0.006 C 
BRANCH   4   5
ATOM      5  C   UNL     1      12.325  10.835  11.885  1.00  0.00     0.053 C 
BRANCH   5   6
ATOM      6  C   UNL     1      12.380  11.203  13.336  1.00  0.00     0.041 C 
ATOM      7  O   UNL     1      13.479  11.192  13.951  1.00  0.00    -0.550 OA
ATOM      8  O   UNL     1      11.214  11.524  14.021  1.00  0.00    -0.550 OA
ENDBRANCH   5   6
ENDBRANCH   4   5
ENDBRANCH   3   4
ENDBRANCH   2   3
ENDBRANCH   1   2
BRANCH   1   9
ATOM      9  C   UNL     1      10.607  13.448   8.708  1.00  0.00     0.000 C 
BRANCH   9  10
ATOM     10  C   UNL     1      10.733  14.887   9.232  1.00  0.00    -0.000 C 
BRANCH  10  11
ATOM     11  C   UNL     1      11.902  15.063  10.212  1.00  0.00    -0.000 C 
BRANCH  11  12
ATOM     12  C   UNL     1      11.570  14.452  11.579  1.00  0.00    -0.000 C 
BRANCH  12  13
ATOM     13  C   UNL     1      10.343  15.129  12.202  1.00  0.00    -0.003 C 
ATOM     14  C   UNL     1       9.278  14.102  12.575  1.00  0.00     0.004 C 
ENDBRANCH  12  13
ENDBRANCH  11  12
ENDBRANCH  10  11
ENDBRANCH   9  10
ENDBRANCH   1   9
TORSDOF 10
ENDMDL
MODEL 4
REMARK VINA RESULT:    -3.825      6.010      7.713
REMARK INTER + INTRA:          -6.876
REMARK INTER:                  -5.242
REMARK INTRA:                  -1.634
REMARK UNBOUND:                -0.814
REMARK SMILES CCCCCCCCCCCC(=O)[O-]
REMARK SMILES IDX 7 1 8 2 9 3 10 4 11 5 12 6 13 7 14 8 6 9 5 10 4 11 3 12 2 13
REMARK SMILES IDX 1 14
REMARK H PARENT
REMARK Flexibility Score: inf
ROOT
ATOM      1  C   UNL     1       9.551  14.147  12.222  1.00  0.00     0.000 C 
ENDROOT
BRANCH   1   2
ATOM      2  C   UNL     1       9.022  13.559  10.904  1.00  0.00     0.000 C 
BRANCH   2   3
ATOM      3  C   UNL     1       9.436  12.092  10.699  1.00  0.00     0.000 C 
BRANCH   3   4
ATOM      4  C   UNL     1       9.498  11.294  12.014  1.00  0.00     0.006 C 
BRANCH   4   5
ATOM      5  C   UNL     1      10.870  10.655  12.291  1.00  0.00     0.053 C 
BRANCH   5   6
ATOM      6  C   UNL     1      11.543  11.238  13.496  1.00  0.00     0.041 C 
ATOM      7  O   UNL     1      12.795  11.363  13.524  1.00  0.00    -0.550 OA
ATOM      8  O   UNL     1      10.792  11.613  14.603  1.00  0.00    -0.550 OA
ENDBRANCH   5   6
ENDBRANCH   4   5
ENDBRANCH   3   4
ENDBRANCH   2   3
ENDBRANCH   1   2
BRANCH   1   9
ATOM      9  C   UNL     1      10.809  15.009  12.020  1.00  0.00     0.000 C 
BRANCH   9  10
ATOM     10  C   UNL     1      11.045  15.372  10.546  1.00  0.00    -0.000 C 
BRANCH  10  11
ATOM     11  C   UNL     1      12.369  14.816  10.001  1.00  0.00    -0.000 C 
BRANCH  11  12
ATOM     12  C   UNL     1      12.901  13.690  10.896  1.00  0.00    -0.000 C 
BRANCH  12  13
ATOM     13  C   UNL     1      13.151  12.413  10.086  1.00  0.00    -0.003 C 
ATOM     14  C   UNL     1      12.467  12.482   8.724  1.00  0.00     0.004 C 
ENDBRANCH  12  13
ENDBRANCH  11  12
ENDBRANCH  10  11
ENDBRANCH   9  10
ENDBRANCH   1   9
TORSDOF 10
ENDMDL
MODEL 5
REMARK VINA RESULT:    -3.800      7.228      8.834
REMARK INTER + INTRA:          -6.836
REMARK INTER:                  -5.090
REMARK INTRA:                  -1.746
REMARK UNBOUND:                -0.814
REMARK SMILES CCCCCCCCCCCC(=O)[O-]
REMARK SMILES IDX 7 1 8 2 9 3 10 4 11 5 12 6 13 7 14 8 6 9 5 10 4 11 3 12 2 13
REMARK SMILES IDX 1 14
REMARK H PARENT
REMARK Flexibility Score: inf
ROOT
ATOM      1  C   UNL     1      10.386  14.935   8.378  1.00  0.00     0.000 C 
ENDROOT
BRANCH   1   2
ATOM      2  C   UNL     1       8.982  14.534   8.859  1.00  0.00     0.000 C 
BRANCH   2   3
ATOM      3  C   UNL     1       8.875  13.037   9.198  1.00  0.00     0.000 C 
BRANCH   3   4
ATOM      4  C   UNL     1      10.108  12.229   8.752  1.00  0.00     0.006 C 
BRANCH   4   5
ATOM      5  C   UNL     1      10.532  11.138   9.749  1.00  0.00     0.053 C 
BRANCH   5   6
ATOM      6  C   UNL     1      12.021  11.014   9.866  1.00  0.00     0.041 C 
ATOM      7  O   UNL     1      12.563  10.950  11.001  1.00  0.00    -0.550 OA
ATOM      8  O   UNL     1      12.813  11.003   8.725  1.00  0.00    -0.550 OA
ENDBRANCH   5   6
ENDBRANCH   4   5
ENDBRANCH   3   4
ENDBRANCH   2   3
ENDBRANCH   1   2
BRANCH   1   9
ATOM      9  C   UNL     1      11.172  15.718   9.445  1.00  0.00     0.000 C 
BRANCH   9  10
ATOM     10  C   UNL     1      12.194  14.842  10.186  1.00  0.00    -0.000 C 
BRANCH  10  11
ATOM     11  C   UNL     1      11.663  14.314  11.527  1.00  0.00    -0.000 C 
BRANCH  11  12
ATOM     12  C   UNL     1      10.646  15.287  12.135  1.00  0.00    -0.000 C 
BRANCH  12  13
ATOM     13  C   UNL     1       9.372  14.553  12.571  1.00  0.00    -0.003 C 
ATOM     14  C   UNL     1       9.655  13.080  12.853  1.00  0.00     0.004 C 
ENDBRANCH  12  13
ENDBRANCH  11  12
ENDBRANCH  10  11
ENDBRANCH   9  10
ENDBRANCH   1   9
TORSDOF 10
ENDMDL
MODEL 6
REMARK VINA RESULT:    -3.793      6.115      9.100
REMARK INTER + INTRA:          -6.825
REMARK INTER:                  -5.895
REMARK INTRA:                  -0.930
REMARK UNBOUND:                -0.814
REMARK SMILES CCCCCCCCCCCC(=O)[O-]
REMARK SMILES IDX 7 1 8 2 9 3 10 4 11 5 12 6 13 7 14 8 6 9 5 10 4 11 3 12 2 13
REMARK SMILES IDX 1 14
REMARK H PARENT
REMARK Flexibility Score: inf
ROOT
ATOM      1  C   UNL     1      13.033  13.453  10.586  1.00  0.00     0.000 C 
ENDROOT
BRANCH   1   2
ATOM      2  C   UNL     1      12.781  12.427   9.468  1.00  0.00     0.000 C 
BRANCH   2   3
ATOM      3  C   UNL     1      11.690  11.407   9.834  1.00  0.00     0.000 C 
BRANCH   3   4
ATOM      4  C   UNL     1      12.183  10.318  10.804  1.00  0.00     0.006 C 
BRANCH   4   5
ATOM      5  C   UNL     1      11.303  10.153  12.055  1.00  0.00     0.053 C 
BRANCH   5   6
ATOM      6  C   UNL     1      11.637  11.144  13.127  1.00  0.00     0.041 C 
ATOM      7  O   UNL     1      10.735  11.871  13.621  1.00  0.00    -0.550 OA
ATOM      8  O   UNL     1      12.949  11.291  13.560  1.00  0.00    -0.550 OA
ENDBRANCH   5   6
ENDBRANCH   4   5
ENDBRANCH   3   4
ENDBRANCH   2   3
ENDBRANCH   1   2
BRANCH   1   9
ATOM      9  C   UNL     1      11.767  14.244  10.956  1.00  0.00     0.000 C 
BRANCH   9  10
ATOM     10  C   UNL     1      11.208  15.050   9.773  1.00  0.00    -0.000 C 
BRANCH  10  11
ATOM     11  C   UNL     1       9.801  14.597   9.357  1.00  0.00    -0.000 C 
BRANCH  11  12
ATOM     12  C   UNL     1       9.490  15.023   7.917  1.00  0.00    -0.000 C 
BRANCH  12  13
ATOM     13  C   UNL     1      10.042  16.424   7.625  1.00  0.00    -0.003 C 
ATOM     14  C   UNL     1       8.983  17.307   6.971  1.00  0.00     0.004 C 
ENDBRANCH  12  13
ENDBRANCH  11  12
ENDBRANCH  10  11
ENDBRANCH   9  10
ENDBRANCH   1   9
TORSDOF 10
ENDMDL
MODEL 7
REMARK VINA RESULT:    -3.776      5.789      8.412
REMARK INTER + INTRA:          -6.798
REMARK INTER:                  -5.514
REMARK INTRA:                  -1.284
REMARK UNBOUND:                -0.814
REMARK SMILES CCCCCCCCCCCC(=O)[O-]
REMARK SMILES IDX 7 1 8 2 9 3 10 4 11 5 12 6 13 7 14 8 6 9 5 10 4 11 3 12 2 13
REMARK SMILES IDX 1 14
REMARK H PARENT
REMARK Flexibility Score: inf
ROOT
ATOM      1  C   UNL     1      11.493  14.615  11.245  1.00  0.00     0.000 C 
ENDROOT
BRANCH   1   2
ATOM      2  C   UNL     1      10.289  15.034  12.105  1.00  0.00     0.000 C 
BRANCH   2   3
ATOM      3  C   UNL     1       9.573  13.834  12.749  1.00  0.00     0.000 C 
BRANCH   3   4
ATOM      4  C   UNL     1      10.169  12.479  12.327  1.00  0.00     0.006 C 
BRANCH   4   5
ATOM      5  C   UNL     1      10.804  11.689  13.484  1.00  0.00     0.053 C 
BRANCH   5   6
ATOM      6  C   UNL     1      12.134  11.105  13.119  1.00  0.00     0.041 C 
ATOM      7  O   UNL     1      12.222  10.265  12.185  1.00  0.00    -0.550 OA
ATOM      8  O   UNL     1      13.273  11.460  13.831  1.00  0.00    -0.550 OA
ENDBRANCH   5   6
ENDBRANCH   4   5
ENDBRANCH   3   4
ENDBRANCH   2   3
ENDBRANCH   1   2
BRANCH   1   9
ATOM      9  C   UNL     1      11.508  15.311   9.873  1.00  0.00     0.000 C 
BRANCH   9  10
ATOM     10  C   UNL     1      10.225  15.054   9.066  1.00  0.00    -0.000 C 
BRANCH  10  11
ATOM     11  C   UNL     1       9.962  13.560   8.829  1.00  0.00    -0.000 C 
BRANCH  11  12
ATOM     12  C   UNL     1      11.061  12.940   7.959  1.00  0.00    -0.000 C 
BRANCH  12  13
ATOM     13  C   UNL     1      11.653  11.692   8.624  1.00  0.00    -0.003 C 
ATOM     14  C   UNL     1      13.047  11.971   9.178  1.00  0.00     0.004 C 
ENDBRANCH  12  13
ENDBRANCH  11  12
ENDBRANCH  10  11
ENDBRANCH   9  10
ENDBRANCH   1   9
TORSDOF 10
ENDMDL
MODEL 8
REMARK VINA RESULT:    -3.745      6.924      8.277
REMARK INTER + INTRA:          -6.749
REMARK INTER:                  -5.168
REMARK INTRA:                  -1.581
REMARK UNBOUND:                -0.814
REMARK SMILES CCCCCCCCCCCC(=O)[O-]
REMARK SMILES IDX 7 1 8 2 9 3 10 4 11 5 12 6 13 7 14 8 6 9 5 10 4 11 3 12 2 13
REMARK SMILES IDX 1 14
REMARK H PARENT
REMARK Flexibility Score: inf
ROOT
ATOM      1  C   UNL     1      12.245  14.655  10.302  1.00  0.00     0.000 C 
ENDROOT
BRANCH   1   2
ATOM      2  C   UNL     1      11.129  14.936  11.322  1.00  0.00     0.000 C 
BRANCH   2   3
ATOM      3  C   UNL     1       9.881  14.066  11.093  1.00  0.00     0.000 C 
BRANCH   3   4
ATOM      4  C   UNL     1       9.276  14.239   9.688  1.00  0.00     0.006 C 
BRANCH   4   5
ATOM      5  C   UNL     1       9.208  12.936   8.874  1.00  0.00     0.053 C 
BRANCH   5   6
ATOM      6  C   UNL     1       9.971  13.022   7.587  1.00  0.00     0.041 C 
ATOM      7  O   UNL     1      10.174  14.140   7.046  1.00  0.00    -0.550 OA
ATOM      8  O   UNL     1      10.428  11.866   6.967  1.00  0.00    -0.550 OA
ENDBRANCH   5   6
ENDBRANCH   4   5
ENDBRANCH   3   4
ENDBRANCH   2   3
ENDBRANCH   1   2
BRANCH   1   9
ATOM      9  C   UNL     1      13.045  13.385  10.639  1.00  0.00     0.000 C 
BRANCH   9  10
ATOM     10  C   UNL     1      12.982  12.333   9.521  1.00  0.00    -0.000 C 
BRANCH  10  11
ATOM     11  C   UNL     1      12.330  11.020   9.976  1.00  0.00    -0.000 C 
BRANCH  11  12
ATOM     12  C   UNL     1      12.214  10.966  11.504  1.00  0.00    -0.000 C 
BRANCH  12  13
ATOM     13  C   UNL     1      11.135   9.967  11.941  1.00  0.00    -0.003 C 
ATOM     14  C   UNL     1       9.810  10.246  11.239  1.00  0.00     0.004 C 
ENDBRANCH  12  13
ENDBRANCH  11  12
ENDBRANCH  10  11
ENDBRANCH   9  10
ENDBRANCH   1   9
TORSDOF 10
ENDMDL
MODEL 9
REMARK VINA RESULT:    -3.711      6.498      8.789
REMARK INTER + INTRA:          -6.694
REMARK INTER:                  -5.103
REMARK INTRA:                  -1.591
REMARK UNBOUND:                -0.814
REMARK SMILES CCCCCCCCCCCC(=O)[O-]
REMARK SMILES IDX 7 1 8 2 9 3 10 4 11 5 12 6 13 7 14 8 6 9 5 10 4 11 3 12 2 13
REMARK SMILES IDX 1 14
REMARK H PARENT
REMARK Flexibility Score: inf
ROOT
ATOM      1  C   UNL     1      11.624  15.256   9.960  1.00  0.00     0.000 C 
ENDROOT
BRANCH   1   2
ATOM      2  C   UNL     1      11.545  14.593  11.345  1.00  0.00     0.000 C 
BRANCH   2   3
ATOM      3  C   UNL     1      10.272  14.980  12.118  1.00  0.00     0.000 C 
BRANCH   3   4
ATOM      4  C   UNL     1       9.544  13.767  12.726  1.00  0.00     0.006 C 
BRANCH   4   5
ATOM      5  C   UNL     1      10.210  12.417  12.408  1.00  0.00     0.053 C 
BRANCH   5   6
ATOM      6  C   UNL     1      10.782  11.759  13.626  1.00  0.00     0.041 C 
ATOM      7  O   UNL     1      11.929  11.240  13.585  1.00  0.00    -0.550 OA
ATOM      8  O   UNL     1      10.038  11.686  14.797  1.00  0.00    -0.550 OA
ENDBRANCH   5   6
ENDBRANCH   4   5
ENDBRANCH   3   4
ENDBRANCH   2   3
ENDBRANCH   1   2
BRANCH   1   9
ATOM      9  C   UNL     1      10.308  15.132   9.171  1.00  0.00     0.000 C 
BRANCH   9  10
ATOM     10  C   UNL     1      10.300  13.921   8.225  1.00  0.00    -0.000 C 
BRANCH  10  11
ATOM     11  C   UNL     1       9.472  12.748   8.769  1.00  0.00    -0.000 C 
BRANCH  11  12
ATOM     12  C   UNL     1      10.288  11.450   8.762  1.00  0.00    -0.000 C 
BRANCH  12  13
ATOM     13  C   UNL     1      11.774  11.734   8.512  1.00  0.00    -0.003 C 
ATOM     14  C   UNL     1      12.612  11.412   9.745  1.00  0.00     0.004 C 
ENDBRANCH  12  13
ENDBRANCH  11  12
ENDBRANCH  10  11
ENDBRANCH   9  10
ENDBRANCH   1   9
TORSDOF 10
ENDMDL
