MODEL 1
REMARK VINA RESULT:    -5.901      0.000      0.000
REMARK INTER + INTRA:          -6.073
REMARK INTER:                  -6.073
REMARK INTRA:                   0.000
REMARK UNBOUND:                 0.000
REMARK SMILES Cc1cccc(O)c1C
REMARK SMILES IDX 1 1 2 2 8 3 6 4 5 5 4 6 3 7 9 8 7 9
REMARK H PARENT 7 10
REMARK Flexibility Score: inf
ROOT
ATOM      1  C   UNL     1     -35.295  -8.496  24.879  1.00  0.00     0.045 C 
ATOM      2  C   UNL     1     -36.615  -8.476  25.606  1.00  0.00    -0.045 A 
ATOM      3  C   UNL     1     -36.815  -9.169  26.832  1.00  0.00    -0.006 A 
ATOM      4  C   UNL     1     -38.084  -9.106  27.461  1.00  0.00     0.118 A 
ATOM      5  C   UNL     1     -39.119  -8.372  26.877  1.00  0.00     0.046 A 
ATOM      6  C   UNL     1     -38.918  -7.695  25.677  1.00  0.00     0.004 A 
ATOM      7  C   UNL     1     -37.679  -7.745  25.045  1.00  0.00     0.004 A 
ATOM      8  C   UNL     1     -35.709  -9.971  27.482  1.00  0.00     0.048 C 
ENDROOT
BRANCH   4   9
ATOM      9  O   UNL     1     -38.351  -9.761  28.666  1.00  0.00    -0.508 OA
ATOM     10  H   UNL     1     -38.593  -9.279  29.521  1.00  0.00     0.293 HD
ENDBRANCH   4   9
TORSDOF 1
ENDMDL
MODEL 2
REMARK VINA RESULT:    -5.735      1.824      3.181
REMARK INTER + INTRA:          -5.903
REMARK INTER:                  -5.903
REMARK INTRA:                   0.000
REMARK UNBOUND:                 0.000
REMARK SMILES Cc1cccc(O)c1C
REMARK SMILES IDX 1 1 2 2 8 3 6 4 5 5 4 6 3 7 9 8 7 9
REMARK H PARENT 7 10
REMARK Flexibility Score: inf
ROOT
ATOM      1  C   UNL     1     -36.800  -9.869  27.952  1.00  0.00     0.045 C 
ATOM      2  C   UNL     1     -36.937  -8.943  26.771  1.00  0.00    -0.045 A 
ATOM      3  C   UNL     1     -38.159  -8.281  26.466  1.00  0.00    -0.006 A 
ATOM      4  C   UNL     1     -38.215  -7.423  25.339  1.00  0.00     0.118 A 
ATOM      5  C   UNL     1     -37.082  -7.236  24.543  1.00  0.00     0.046 A 
ATOM      6  C   UNL     1     -35.889  -7.887  24.847  1.00  0.00     0.004 A 
ATOM      7  C   UNL     1     -35.814  -8.733  25.949  1.00  0.00     0.004 A 
ATOM      8  C   UNL     1     -39.398  -8.468  27.313  1.00  0.00     0.048 C 
ENDROOT
BRANCH   4   9
ATOM      9  O   UNL     1     -39.381  -6.740  24.981  1.00  0.00    -0.508 OA
ATOM     10  H   UNL     1     -39.743  -6.712  24.037  1.00  0.00     0.293 HD
ENDBRANCH   4   9
TORSDOF 1
ENDMDL
MODEL 3
REMARK VINA RESULT:    -5.622      0.863      2.592
REMARK INTER + INTRA:          -5.786
REMARK INTER:                  -5.786
REMARK INTRA:                   0.000
REMARK UNBOUND:                 0.000
REMARK SMILES Cc1cccc(O)c1C
REMARK SMILES IDX 1 1 2 2 8 3 6 4 5 5 4 6 3 7 9 8 7 9
REMARK H PARENT 7 10
REMARK Flexibility Score: inf
ROOT
ATOM      1  C   UNL     1     -36.971  -6.892  24.561  1.00  0.00     0.045 C 
ATOM      2  C   UNL     1     -36.815  -7.928  25.645  1.00  0.00    -0.045 A 
ATOM      3  C   UNL     1     -37.895  -8.307  26.489  1.00  0.00    -0.006 A 
ATOM      4  C   UNL     1     -37.676  -9.289  27.489  1.00  0.00     0.118 A 
ATOM      5  C   UNL     1     -36.414  -9.870  27.636  1.00  0.00     0.046 A 
ATOM      6  C   UNL     1     -35.361  -9.494  26.806  1.00  0.00     0.004 A 
ATOM      7  C   UNL     1     -35.557  -8.532  25.819  1.00  0.00     0.004 A 
ATOM      8  C   UNL     1     -39.270  -7.692  26.349  1.00  0.00     0.048 C 
ENDROOT
BRANCH   4   9
ATOM      9  O   UNL     1     -38.691  -9.711  28.353  1.00  0.00    -0.508 OA
ATOM     10  H   UNL     1     -39.553 -10.134  28.036  1.00  0.00     0.293 HD
ENDBRANCH   4   9
TORSDOF 1
ENDMDL
MODEL 4
REMARK VINA RESULT:    -5.532      1.958      2.965
REMARK INTER + INTRA:          -5.694
REMARK INTER:                  -5.694
REMARK INTRA:                   0.000
REMARK UNBOUND:                 0.000
REMARK SMILES Cc1cccc(O)c1C
REMARK SMILES IDX 1 1 2 2 8 3 6 4 5 5 4 6 3 7 9 8 7 9
REMARK H PARENT 7 10
REMARK Flexibility Score: inf
ROOT
ATOM      1  C   UNL     1     -38.562  -9.442  27.899  1.00  0.00     0.045 C 
ATOM      2  C   UNL     1     -37.928  -8.685  26.760  1.00  0.00    -0.045 A 
ATOM      3  C   UNL     1     -36.583  -8.914  26.355  1.00  0.00    -0.006 A 
ATOM      4  C   UNL     1     -36.052  -8.164  25.275  1.00  0.00     0.118 A 
ATOM      5  C   UNL     1     -36.845  -7.216  24.623  1.00  0.00     0.046 A 
ATOM      6  C   UNL     1     -38.160  -6.997  25.024  1.00  0.00     0.004 A 
ATOM      7  C   UNL     1     -38.699  -7.723  26.082  1.00  0.00     0.004 A 
ATOM      8  C   UNL     1     -35.707  -9.935  27.046  1.00  0.00     0.048 C 
ENDROOT
BRANCH   4   9
ATOM      9  O   UNL     1     -34.741  -8.337  24.824  1.00  0.00    -0.508 OA
ATOM     10  H   UNL     1     -34.505  -8.823  23.969  1.00  0.00     0.293 HD
ENDBRANCH   4   9
TORSDOF 1
ENDMDL
MODEL 5
REMARK VINA RESULT:    -5.472      1.722      2.729
REMARK INTER + INTRA:          -5.632
REMARK INTER:                  -5.632
REMARK INTRA:                   0.000
REMARK UNBOUND:                 0.000
REMARK SMILES Cc1cccc(O)c1C
REMARK SMILES IDX 1 1 2 2 8 3 6 4 5 5 4 6 3 7 9 8 7 9
REMARK H PARENT 7 10
REMARK Flexibility Score: inf
ROOT
ATOM      1  C   UNL     1     -35.010  -8.862  25.946  1.00  0.00     0.045 C 
ATOM      2  C   UNL     1     -36.483  -8.733  26.238  1.00  0.00    -0.045 A 
ATOM      3  C   UNL     1     -37.311  -7.801  25.552  1.00  0.00    -0.006 A 
ATOM      4  C   UNL     1     -38.689  -7.734  25.878  1.00  0.00     0.118 A 
ATOM      5  C   UNL     1     -39.219  -8.575  26.860  1.00  0.00     0.046 A 
ATOM      6  C   UNL     1     -38.403  -9.486  27.527  1.00  0.00     0.004 A 
ATOM      7  C   UNL     1     -37.048  -9.566  27.221  1.00  0.00     0.004 A 
ATOM      8  C   UNL     1     -36.760  -6.881  24.486  1.00  0.00     0.048 C 
ENDROOT
BRANCH   4   9
ATOM      9  O   UNL     1     -39.562  -6.844  25.245  1.00  0.00    -0.508 OA
ATOM     10  H   UNL     1     -40.468  -7.112  24.885  1.00  0.00     0.293 HD
ENDBRANCH   4   9
TORSDOF 1
ENDMDL
MODEL 6
REMARK VINA RESULT:    -5.250      1.997      3.740
REMARK INTER + INTRA:          -5.404
REMARK INTER:                  -5.404
REMARK INTRA:                   0.000
REMARK UNBOUND:                 0.000
REMARK SMILES Cc1cccc(O)c1C
REMARK SMILES IDX 1 1 2 2 8 3 6 4 5 5 4 6 3 7 9 8 7 9
REMARK H PARENT 7 10
REMARK Flexibility Score: inf
ROOT
ATOM      1  C   UNL     1     -39.496  -8.146  26.942  1.00  0.00     0.045 C 
ATOM      2  C   UNL     1     -38.064  -8.604  26.853  1.00  0.00    -0.045 A 
ATOM      3  C   UNL     1     -37.171  -8.108  25.863  1.00  0.00    -0.006 A 
ATOM      4  C   UNL     1     -35.836  -8.585  25.838  1.00  0.00     0.118 A 
ATOM      5  C   UNL     1     -35.411  -9.529  26.777  1.00  0.00     0.046 A 
ATOM      6  C   UNL     1     -36.290 -10.010  27.744  1.00  0.00     0.004 A 
ATOM      7  C   UNL     1     -37.604  -9.554  27.783  1.00  0.00     0.004 A 
ATOM      8  C   UNL     1     -37.608  -7.086  24.837  1.00  0.00     0.048 C 
ENDROOT
BRANCH   4   9
ATOM      9  O   UNL     1     -34.904  -8.141  24.895  1.00  0.00    -0.508 OA
ATOM     10  H   UNL     1     -34.400  -7.268  24.977  1.00  0.00     0.293 HD
ENDBRANCH   4   9
TORSDOF 1
ENDMDL
MODEL 7
REMARK VINA RESULT:    -5.188      1.867      2.505
REMARK INTER + INTRA:          -5.340
REMARK INTER:                  -5.340
REMARK INTRA:                   0.000
REMARK UNBOUND:                 0.000
REMARK SMILES Cc1cccc(O)c1C
REMARK SMILES IDX 1 1 2 2 8 3 6 4 5 5 4 6 3 7 9 8 7 9
REMARK H PARENT 7 10
REMARK Flexibility Score: inf
ROOT
ATOM      1  C   UNL     1     -36.945 -10.776  23.984  1.00  0.00     0.045 C 
ATOM      2  C   UNL     1     -37.210  -9.464  24.675  1.00  0.00    -0.045 A 
ATOM      3  C   UNL     1     -38.327  -9.274  25.536  1.00  0.00    -0.006 A 
ATOM      4  C   UNL     1     -38.514  -8.011  26.153  1.00  0.00     0.118 A 
ATOM      5  C   UNL     1     -37.609  -6.973  25.915  1.00  0.00     0.046 A 
ATOM      6  C   UNL     1     -36.518  -7.166  25.071  1.00  0.00     0.004 A 
ATOM      7  C   UNL     1     -36.318  -8.398  24.456  1.00  0.00     0.004 A 
ATOM      8  C   UNL     1     -39.319 -10.382  25.809  1.00  0.00     0.048 C 
ENDROOT
BRANCH   4   9
ATOM      9  O   UNL     1     -39.587  -7.753  27.011  1.00  0.00    -0.508 OA
ATOM     10  H   UNL     1     -39.633  -6.948  27.621  1.00  0.00     0.293 HD
ENDBRANCH   4   9
TORSDOF 1
ENDMDL
MODEL 8
REMARK VINA RESULT:    -5.059      9.936     11.588
REMARK INTER + INTRA:          -5.207
REMARK INTER:                  -5.207
REMARK INTRA:                   0.000
REMARK UNBOUND:                 0.000
REMARK SMILES Cc1cccc(O)c1C
REMARK SMILES IDX 1 1 2 2 8 3 6 4 5 5 4 6 3 7 9 8 7 9
REMARK H PARENT 7 10
REMARK Flexibility Score: inf
ROOT
ATOM      1  C   UNL     1     -23.956 -11.293  28.728  1.00  0.00     0.045 C 
ATOM      2  C   UNL     1     -25.322 -10.783  28.346  1.00  0.00    -0.045 A 
ATOM      3  C   UNL     1     -25.925 -11.100  27.097  1.00  0.00    -0.006 A 
ATOM      4  C   UNL     1     -27.213 -10.585  26.804  1.00  0.00     0.118 A 
ATOM      5  C   UNL     1     -27.874  -9.778  27.734  1.00  0.00     0.046 A 
ATOM      6  C   UNL     1     -27.278  -9.472  28.955  1.00  0.00     0.004 A 
ATOM      7  C   UNL     1     -26.014  -9.968  29.260  1.00  0.00     0.004 A 
ATOM      8  C   UNL     1     -25.229 -11.971  26.075  1.00  0.00     0.048 C 
ENDROOT
BRANCH   4   9
ATOM      9  O   UNL     1     -27.866 -10.855  25.598  1.00  0.00    -0.508 OA
ATOM     10  H   UNL     1     -28.120 -10.141  24.928  1.00  0.00     0.293 HD
ENDBRANCH   4   9
TORSDOF 1
ENDMDL
MODEL 9
REMARK VINA RESULT:    -5.050     10.793     11.950
REMARK INTER + INTRA:          -5.198
REMARK INTER:                  -5.198
REMARK INTRA:                   0.000
REMARK UNBOUND:                 0.000
REMARK SMILES Cc1cccc(O)c1C
REMARK SMILES IDX 1 1 2 2 8 3 6 4 5 5 4 6 3 7 9 8 7 9
REMARK H PARENT 7 10
REMARK Flexibility Score: inf
ROOT
ATOM      1  C   UNL     1     -27.144  -9.088  29.357  1.00  0.00     0.045 C 
ATOM      2  C   UNL     1     -26.670  -9.941  28.208  1.00  0.00    -0.045 A 
ATOM      3  C   UNL     1     -25.614 -10.883  28.352  1.00  0.00    -0.006 A 
ATOM      4  C   UNL     1     -25.219 -11.652  27.228  1.00  0.00     0.118 A 
ATOM      5  C   UNL     1     -25.863 -11.479  26.000  1.00  0.00     0.046 A 
ATOM      6  C   UNL     1     -26.895 -10.555  25.866  1.00  0.00     0.004 A 
ATOM      7  C   UNL     1     -27.297  -9.792  26.958  1.00  0.00     0.004 A 
ATOM      8  C   UNL     1     -24.903 -11.087  29.671  1.00  0.00     0.048 C 
ENDROOT
BRANCH   4   9
ATOM      9  O   UNL     1     -24.191 -12.597  27.296  1.00  0.00    -0.508 OA
ATOM     10  H   UNL     1     -23.790 -12.922  28.165  1.00  0.00     0.293 HD
ENDBRANCH   4   9
TORSDOF 1
ENDMDL
