MODEL 1
REMARK VINA RESULT:    16.634      0.000      0.000
REMARK INTER + INTRA:          28.033
REMARK INTER:                  25.385
REMARK INTRA:                   2.648
REMARK UNBOUND:                 2.648
REMARK SMILES CC1=CCC[C@@H](C)C(=O)C[C@@H](C(C)C)C(=O)C1
REMARK SMILES IDX 8 1 9 2 6 3 7 4 5 5 4 6 3 7 2 8 1 9 10 11 11 12 15 13 16 14
REMARK SMILES IDX 17 15 12 17 13 18 14 19
REMARK H PARENT
REMARK Flexibility Score: 70.00
ROOT
ATOM      1  C   UNL     1      -5.505   2.062   7.169  1.00  0.00     0.136 C 
ATOM      2  O   UNL     1      -6.696   1.844   7.002  1.00  0.00    -0.299 OA
ENDROOT
BRANCH   1   3
ATOM      3  C   UNL     1      -4.532   1.708   6.055  1.00  0.00     0.053 C 
ATOM      4  C   UNL     1      -4.949   0.399   5.376  1.00  0.00     0.016 C 
BRANCH   3   5
ATOM      5  C   UNL     1      -3.076   1.632   6.554  1.00  0.00     0.015 C 
BRANCH   5   6
ATOM      6  C   UNL     1      -2.535   3.016   6.954  1.00  0.00     0.028 C 
BRANCH   6   7
ATOM      7  C   UNL     1      -2.651   4.041   5.854  1.00  0.00    -0.028 C 
ATOM      8  C   UNL     1      -3.230   5.264   5.960  1.00  0.00    -0.070 CG0
ATOM      9  C   UNL     1      -3.354   6.079   4.695  1.00  0.00     0.039 C 
ATOM     10  G   UNL     1      -3.684   5.895   7.274  1.00  0.00     0.000 G0
ENDBRANCH   6   7
ENDBRANCH   5   6
ENDBRANCH   3   5
ENDBRANCH   1   3
BRANCH   1  11
ATOM     11  C   UNL     1      -5.044   2.620   8.497  1.00  0.00     0.087 C 
BRANCH  11  12
ATOM     12  C   UNL     1      -5.200   4.163   8.596  1.00  0.00     0.066 C 
BRANCH  12  13
ATOM     13  C   UNL     1      -3.872   4.874   8.362  1.00  0.00     0.140 C 
ATOM     14  O   UNL     1      -2.890   4.519   8.999  1.00  0.00    -0.299 OA
BRANCH  13  15
ATOM     15  C   UNL     1      -3.708   5.889   7.253  1.00  0.00     0.106 CG0
ATOM     16  G   UNL     1      -3.144   5.331   5.949  1.00  0.00     0.000 G0
ENDBRANCH  13  15
ENDBRANCH  12  13
BRANCH  12  17
ATOM     17  C   UNL     1      -5.832   4.616   9.953  1.00  0.00    -0.006 C 
ATOM     18  C   UNL     1      -5.810   6.150  10.093  1.00  0.00     0.008 C 
ATOM     19  C   UNL     1      -7.282   4.128  10.121  1.00  0.00     0.008 C 
ENDBRANCH  12  17
ENDBRANCH  11  12
ENDBRANCH   1  11
TORSDOF 1
ENDMDL
MODEL 2
REMARK VINA RESULT:    16.993      1.971      5.296
REMARK INTER + INTRA:          28.582
REMARK INTER:                  26.165
REMARK INTRA:                   2.417
REMARK UNBOUND:                 2.648
REMARK SMILES CC1=CCC[C@@H](C)C(=O)C[C@@H](C(C)C)C(=O)C1
REMARK SMILES IDX 8 1 9 2 6 3 7 4 5 5 4 6 3 7 2 8 1 9 10 11 11 12 15 13 16 14
REMARK SMILES IDX 17 15 12 17 13 18 14 19
REMARK H PARENT
REMARK Flexibility Score: 70.00
ROOT
ATOM      1  C   UNL     1      -2.661   5.624   7.037  1.00  0.00     0.136 C 
ATOM      2  O   UNL     1      -1.811   4.904   7.540  1.00  0.00    -0.299 OA
ENDROOT
BRANCH   1   3
ATOM      3  C   UNL     1      -3.311   6.699   7.894  1.00  0.00     0.053 C 
ATOM      4  C   UNL     1      -2.304   7.258   8.906  1.00  0.00     0.016 C 
BRANCH   3   5
ATOM      5  C   UNL     1      -4.582   6.191   8.602  1.00  0.00     0.015 C 
BRANCH   5   6
ATOM      6  C   UNL     1      -4.267   5.598   9.987  1.00  0.00     0.028 C 
BRANCH   6   7
ATOM      7  C   UNL     1      -4.530   4.116  10.073  1.00  0.00    -0.028 C 
ATOM      8  C   UNL     1      -4.960   3.321   9.059  1.00  0.00    -0.070 CG0
ATOM      9  C   UNL     1      -5.287   1.887   9.399  1.00  0.00     0.039 C 
ATOM     10  G   UNL     1      -5.054   3.758   7.599  1.00  0.00     0.000 G0
ENDBRANCH   6   7
ENDBRANCH   5   6
ENDBRANCH   3   5
ENDBRANCH   1   3
BRANCH   1  11
ATOM     11  C   UNL     1      -3.071   5.376   5.602  1.00  0.00     0.087 C 
BRANCH  11  12
ATOM     12  C   UNL     1      -3.631   3.945   5.369  1.00  0.00     0.066 C 
BRANCH  12  13
ATOM     13  C   UNL     1      -3.951   3.248   6.687  1.00  0.00     0.140 C 
ATOM     14  O   UNL     1      -3.205   2.366   7.087  1.00  0.00    -0.299 OA
BRANCH  13  15
ATOM     15  C   UNL     1      -5.070   3.734   7.581  1.00  0.00     0.106 CG0
ATOM     16  G   UNL     1      -4.927   3.357   9.053  1.00  0.00     0.000 G0
ENDBRANCH  13  15
ENDBRANCH  12  13
BRANCH  12  17
ATOM     17  C   UNL     1      -2.674   3.062   4.502  1.00  0.00    -0.006 C 
ATOM     18  C   UNL     1      -3.304   2.737   3.133  1.00  0.00     0.008 C 
ATOM     19  C   UNL     1      -1.306   3.728   4.268  1.00  0.00     0.008 C 
ENDBRANCH  12  17
ENDBRANCH  11  12
ENDBRANCH   1  11
TORSDOF 1
ENDMDL
MODEL 3
REMARK VINA RESULT:    17.593      1.848      3.461
REMARK INTER + INTRA:          29.498
REMARK INTER:                  28.762
REMARK INTRA:                   0.736
REMARK UNBOUND:                 2.648
REMARK SMILES CC1=CCC[C@@H](C)C(=O)C[C@@H](C(C)C)C(=O)C1
REMARK SMILES IDX 8 1 9 2 6 3 7 4 5 5 4 6 3 7 2 8 1 9 10 11 11 12 15 13 16 14
REMARK SMILES IDX 17 15 12 17 13 18 14 19
REMARK H PARENT
REMARK Flexibility Score: 70.00
ROOT
ATOM      1  C   UNL     1      -3.624   2.987   5.689  1.00  0.00     0.136 C 
ATOM      2  O   UNL     1      -3.578   2.427   4.604  1.00  0.00    -0.299 OA
ENDROOT
BRANCH   1   3
ATOM      3  C   UNL     1      -3.393   4.489   5.748  1.00  0.00     0.053 C 
ATOM      4  C   UNL     1      -2.946   5.016   4.380  1.00  0.00     0.016 C 
BRANCH   3   5
ATOM      5  C   UNL     1      -2.386   4.882   6.847  1.00  0.00     0.015 C 
BRANCH   5   6
ATOM      6  C   UNL     1      -2.640   6.306   7.373  1.00  0.00     0.028 C 
BRANCH   6   7
ATOM      7  C   UNL     1      -3.857   6.404   8.259  1.00  0.00    -0.028 C 
ATOM      8  C   UNL     1      -4.244   5.491   9.186  1.00  0.00    -0.070 CG0
ATOM      9  C   UNL     1      -5.570   5.726   9.870  1.00  0.00     0.039 C 
ATOM     10  G   UNL     1      -3.399   4.302   9.634  1.00  0.00     0.000 G0
ENDBRANCH   6   7
ENDBRANCH   5   6
ENDBRANCH   3   5
ENDBRANCH   1   3
BRANCH   1  11
ATOM     11  C   UNL     1      -3.850   2.154   6.932  1.00  0.00     0.087 C 
BRANCH  11  12
ATOM     12  C   UNL     1      -4.825   2.821   7.942  1.00  0.00     0.066 C 
BRANCH  12  13
ATOM     13  C   UNL     1      -4.164   3.032   9.300  1.00  0.00     0.140 C 
ATOM     14  O   UNL     1      -4.081   2.086  10.071  1.00  0.00    -0.299 OA
BRANCH  13  15
ATOM     15  C   UNL     1      -3.469   4.330   9.643  1.00  0.00     0.106 CG0
ATOM     16  G   UNL     1      -4.182   5.589   9.157  1.00  0.00     0.000 G0
ENDBRANCH  13  15
ENDBRANCH  12  13
BRANCH  12  17
ATOM     17  C   UNL     1      -6.160   2.023   8.101  1.00  0.00    -0.006 C 
ATOM     18  C   UNL     1      -7.303   2.939   8.581  1.00  0.00     0.008 C 
ATOM     19  C   UNL     1      -6.597   1.336   6.794  1.00  0.00     0.008 C 
ENDBRANCH  12  17
ENDBRANCH  11  12
ENDBRANCH   1  11
TORSDOF 1
ENDMDL
MODEL 4
REMARK VINA RESULT:    18.361      1.769      4.160
REMARK INTER + INTRA:          30.669
REMARK INTER:                  28.592
REMARK INTRA:                   2.077
REMARK UNBOUND:                 2.648
REMARK SMILES CC1=CCC[C@@H](C)C(=O)C[C@@H](C(C)C)C(=O)C1
REMARK SMILES IDX 8 1 9 2 6 3 7 4 5 5 4 6 3 7 2 8 1 9 10 11 11 12 15 13 16 14
REMARK SMILES IDX 17 15 12 17 13 18 14 19
REMARK H PARENT
REMARK Flexibility Score: 70.00
ROOT
ATOM      1  C   UNL     1      -4.455   1.920   6.686  1.00  0.00     0.136 C 
ATOM      2  O   UNL     1      -5.594   1.477   6.698  1.00  0.00    -0.299 OA
ENDROOT
BRANCH   1   3
ATOM      3  C   UNL     1      -3.809   2.313   8.004  1.00  0.00     0.053 C 
ATOM      4  C   UNL     1      -3.077   1.115   8.620  1.00  0.00     0.016 C 
BRANCH   3   5
ATOM      5  C   UNL     1      -4.825   2.910   8.998  1.00  0.00     0.015 C 
BRANCH   5   6
ATOM      6  C   UNL     1      -4.164   3.920   9.953  1.00  0.00     0.028 C 
BRANCH   6   7
ATOM      7  C   UNL     1      -4.158   5.329   9.418  1.00  0.00    -0.028 C 
ATOM      8  C   UNL     1      -3.398   5.790   8.391  1.00  0.00    -0.070 CG0
ATOM      9  C   UNL     1      -3.453   7.272   8.105  1.00  0.00     0.039 C 
ATOM     10  G   UNL     1      -2.565   4.905   7.467  1.00  0.00     0.000 G0
ENDBRANCH   6   7
ENDBRANCH   5   6
ENDBRANCH   3   5
ENDBRANCH   1   3
BRANCH   1  11
ATOM     11  C   UNL     1      -3.761   2.113   5.355  1.00  0.00     0.087 C 
BRANCH  11  12
ATOM     12  C   UNL     1      -2.788   3.325   5.347  1.00  0.00     0.066 C 
BRANCH  12  13
ATOM     13  C   UNL     1      -3.318   4.472   6.201  1.00  0.00     0.140 C 
ATOM     14  O   UNL     1      -4.412   4.951   5.936  1.00  0.00    -0.299 OA
BRANCH  13  15
ATOM     15  C   UNL     1      -2.600   4.916   7.455  1.00  0.00     0.106 CG0
ATOM     16  G   UNL     1      -3.432   5.774   8.404  1.00  0.00     0.000 G0
ENDBRANCH  13  15
ENDBRANCH  12  13
BRANCH  12  17
ATOM     17  C   UNL     1      -2.464   3.823   3.901  1.00  0.00    -0.006 C 
ATOM     18  C   UNL     1      -0.947   4.006   3.701  1.00  0.00     0.008 C 
ATOM     19  C   UNL     1      -2.992   2.868   2.815  1.00  0.00     0.008 C 
ENDBRANCH  12  17
ENDBRANCH  11  12
ENDBRANCH   1  11
TORSDOF 1
ENDMDL
MODEL 5
REMARK VINA RESULT:    18.634      9.066     11.110
REMARK INTER + INTRA:          31.085
REMARK INTER:                  24.311
REMARK INTRA:                   6.774
REMARK UNBOUND:                 2.648
REMARK SMILES CC1=CCC[C@@H](C)C(=O)C[C@@H](C(C)C)C(=O)C1
REMARK SMILES IDX 8 1 9 2 6 3 7 4 5 5 4 6 3 7 2 8 1 9 10 11 11 12 15 13 16 14
REMARK SMILES IDX 17 15 12 17 13 18 14 19
REMARK H PARENT
REMARK Flexibility Score: 70.00
ROOT
ATOM      1  C   UNL     1      -1.899   8.646  -0.242  1.00  0.00     0.136 C 
ATOM      2  O   UNL     1      -2.032   7.430  -0.232  1.00  0.00    -0.299 OA
ENDROOT
BRANCH   1   3
ATOM      3  C   UNL     1      -2.992   9.506   0.369  1.00  0.00     0.053 C 
ATOM      4  C   UNL     1      -2.524  10.102   1.702  1.00  0.00     0.016 C 
BRANCH   3   5
ATOM      5  C   UNL     1      -4.315   8.734   0.545  1.00  0.00     0.015 C 
BRANCH   5   6
ATOM      6  C   UNL     1      -4.879   8.251  -0.803  1.00  0.00     0.028 C 
BRANCH   6   7
ATOM      7  C   UNL     1      -4.342   9.023  -1.982  1.00  0.00    -0.028 C 
ATOM      8  C   UNL     1      -3.216   8.731  -2.682  1.00  0.00    -0.070 CG0
ATOM      9  C   UNL     1      -2.791   9.715  -3.745  1.00  0.00     0.039 C 
ATOM     10  G   UNL     1      -2.407   7.446  -2.520  1.00  0.00     0.000 G0
ENDBRANCH   6   7
ENDBRANCH   5   6
ENDBRANCH   3   5
ENDBRANCH   1   3
BRANCH   1  11
ATOM     11  C   UNL     1      -0.682   9.241  -0.914  1.00  0.00     0.087 C 
BRANCH  11  12
ATOM     12  C   UNL     1       0.058   8.233  -1.837  1.00  0.00     0.066 C 
BRANCH  12  13
ATOM     13  C   UNL     1      -0.902   7.562  -2.813  1.00  0.00     0.140 C 
ATOM     14  O   UNL     1      -0.445   6.993  -3.795  1.00  0.00    -0.299 OA
BRANCH  13  15
ATOM     15  C   UNL     1      -2.378   7.445  -2.508  1.00  0.00     0.106 CG0
ATOM     16  G   UNL     1      -3.176   8.733  -2.687  1.00  0.00     0.000 G0
ENDBRANCH  13  15
ENDBRANCH  12  13
BRANCH  12  17
ATOM     17  C   UNL     1       0.859   7.159  -1.030  1.00  0.00    -0.006 C 
ATOM     18  C   UNL     1       0.241   5.758  -1.203  1.00  0.00     0.008 C 
ATOM     19  C   UNL     1       2.341   7.097  -1.439  1.00  0.00     0.008 C 
ENDBRANCH  12  17
ENDBRANCH  11  12
ENDBRANCH   1  11
TORSDOF 1
ENDMDL
MODEL 6
REMARK VINA RESULT:    19.039      1.907      3.305
REMARK INTER + INTRA:          31.703
REMARK INTER:                  18.456
REMARK INTRA:                  13.247
REMARK UNBOUND:                 2.648
REMARK SMILES CC1=CCC[C@@H](C)C(=O)C[C@@H](C(C)C)C(=O)C1
REMARK SMILES IDX 8 1 9 2 6 3 7 4 5 5 4 6 3 7 2 8 1 9 10 11 11 12 15 13 16 14
REMARK SMILES IDX 17 15 12 17 13 18 14 19
REMARK H PARENT
REMARK Flexibility Score: 70.00
ROOT
ATOM      1  C   UNL     1      -5.003   4.679   9.200  1.00  0.00     0.136 C 
ATOM      2  O   UNL     1      -6.175   4.441   8.946  1.00  0.00    -0.299 OA
ENDROOT
BRANCH   1   3
ATOM      3  C   UNL     1      -4.012   3.527   9.233  1.00  0.00     0.053 C 
ATOM      4  C   UNL     1      -2.798   3.838   8.349  1.00  0.00     0.016 C 
BRANCH   3   5
ATOM      5  C   UNL     1      -4.659   2.187   8.828  1.00  0.00     0.015 C 
BRANCH   5   6
ATOM      6  C   UNL     1      -4.462   1.886   7.332  1.00  0.00     0.028 C 
BRANCH   6   7
ATOM      7  C   UNL     1      -3.358   2.697   6.702  1.00  0.00    -0.028 C 
ATOM      8  C   UNL     1      -3.430   4.005   6.349  1.00  0.00    -0.070 CG0
ATOM      9  C   UNL     1      -2.248   4.585   5.610  1.00  0.00     0.039 C 
ATOM     10  G   UNL     1      -4.582   4.938   6.717  1.00  0.00     0.000 G0
ENDBRANCH   6   7
ENDBRANCH   5   6
ENDBRANCH   3   5
ENDBRANCH   1   3
BRANCH   1  11
ATOM     11  C   UNL     1      -4.601   6.100   9.528  1.00  0.00     0.087 C 
BRANCH  11  12
ATOM     12  C   UNL     1      -3.678   6.735   8.452  1.00  0.00     0.066 C 
BRANCH  12  13
ATOM     13  C   UNL     1      -4.125   6.363   7.042  1.00  0.00     0.140 C 
ATOM     14  O   UNL     1      -4.033   7.196   6.152  1.00  0.00    -0.299 OA
BRANCH  13  15
ATOM     15  C   UNL     1      -4.521   4.946   6.692  1.00  0.00     0.106 CG0
ATOM     16  G   UNL     1      -3.355   4.007   6.394  1.00  0.00     0.000 G0
ENDBRANCH  13  15
ENDBRANCH  12  13
BRANCH  12  17
ATOM     17  C   UNL     1      -2.172   6.370   8.663  1.00  0.00    -0.006 C 
ATOM     18  C   UNL     1      -1.265   7.595   8.436  1.00  0.00     0.008 C 
ATOM     19  C   UNL     1      -1.893   5.805  10.067  1.00  0.00     0.008 C 
ENDBRANCH  12  17
ENDBRANCH  11  12
ENDBRANCH   1  11
TORSDOF 1
ENDMDL
MODEL 7
REMARK VINA RESULT:    19.205      1.956      4.342
REMARK INTER + INTRA:          31.957
REMARK INTER:                  30.496
REMARK INTRA:                   1.461
REMARK UNBOUND:                 2.648
REMARK SMILES CC1=CCC[C@@H](C)C(=O)C[C@@H](C(C)C)C(=O)C1
REMARK SMILES IDX 8 1 9 2 6 3 7 4 5 5 4 6 3 7 2 8 1 9 10 11 11 12 15 13 16 14
REMARK SMILES IDX 17 15 12 17 13 18 14 19
REMARK H PARENT
REMARK Flexibility Score: 70.00
ROOT
ATOM      1  C   UNL     1      -3.222   4.669   9.085  1.00  0.00     0.136 C 
ATOM      2  O   UNL     1      -4.244   4.738   9.753  1.00  0.00    -0.299 OA
ENDROOT
BRANCH   1   3
ATOM      3  C   UNL     1      -2.762   5.900   8.322  1.00  0.00     0.053 C 
ATOM      4  C   UNL     1      -1.812   6.741   9.182  1.00  0.00     0.016 C 
BRANCH   3   5
ATOM      5  C   UNL     1      -3.945   6.750   7.816  1.00  0.00     0.015 C 
BRANCH   5   6
ATOM      6  C   UNL     1      -3.988   6.811   6.278  1.00  0.00     0.028 C 
BRANCH   6   7
ATOM      7  C   UNL     1      -3.008   5.875   5.618  1.00  0.00    -0.028 C 
ATOM      8  C   UNL     1      -3.138   4.528   5.513  1.00  0.00    -0.070 CG0
ATOM      9  C   UNL     1      -1.972   3.767   4.928  1.00  0.00     0.039 C 
ATOM     10  G   UNL     1      -4.403   3.751   5.868  1.00  0.00     0.000 G0
ENDBRANCH   6   7
ENDBRANCH   5   6
ENDBRANCH   3   5
ENDBRANCH   1   3
BRANCH   1  11
ATOM     11  C   UNL     1      -2.493   3.346   9.000  1.00  0.00     0.087 C 
BRANCH  11  12
ATOM     12  C   UNL     1      -2.891   2.512   7.751  1.00  0.00     0.066 C 
BRANCH  12  13
ATOM     13  C   UNL     1      -4.243   2.947   7.196  1.00  0.00     0.140 C 
ATOM     14  O   UNL     1      -5.241   2.807   7.890  1.00  0.00    -0.299 OA
BRANCH  13  15
ATOM     15  C   UNL     1      -4.352   3.691   5.884  1.00  0.00     0.106 CG0
ATOM     16  G   UNL     1      -3.135   4.537   5.521  1.00  0.00     0.000 G0
ENDBRANCH  13  15
ENDBRANCH  12  13
BRANCH  12  17
ATOM     17  C   UNL     1      -2.884   0.973   8.031  1.00  0.00    -0.006 C 
ATOM     18  C   UNL     1      -2.830   0.168   6.718  1.00  0.00     0.008 C 
ATOM     19  C   UNL     1      -1.707   0.541   8.922  1.00  0.00     0.008 C 
ENDBRANCH  12  17
ENDBRANCH  11  12
ENDBRANCH   1  11
TORSDOF 1
ENDMDL
