MODEL 1
REMARK VINA RESULT:    -3.762      0.000      0.000
REMARK INTER + INTRA:          -4.386
REMARK INTER:                  -4.312
REMARK INTRA:                  -0.074
REMARK UNBOUND:                -0.074
REMARK SMILES COc1cc(C(=O)[O-])ccc1O
REMARK SMILES IDX 5 1 9 2 4 3 10 4 3 5 11 6 6 7 7 8 8 9 2 10 1 11 12 12
REMARK H PARENT 12 13
REMARK Flexibility Score: inf
ROOT
ATOM      1  C   UNL     1      50.054  27.579  61.883  1.00  0.00     0.001 A 
ATOM      2  C   UNL     1      50.785  28.765  62.062  1.00  0.00     0.014 A 
ATOM      3  C   UNL     1      50.746  26.362  61.758  1.00  0.00     0.060 A 
ATOM      4  C   UNL     1      52.179  28.735  62.115  1.00  0.00     0.051 A 
ATOM      5  C   UNL     1      52.155  26.326  61.812  1.00  0.00     0.161 A 
ATOM      6  C   UNL     1      52.867  27.525  61.992  1.00  0.00     0.157 A 
ENDROOT
BRANCH   1   7
ATOM      7  C   UNL     1      48.575  27.608  61.825  1.00  0.00     0.072 C 
ATOM      8  O   UNL     1      47.887  27.264  62.823  1.00  0.00    -0.545 OA
ATOM      9  O   UNL     1      47.922  28.013  60.666  1.00  0.00    -0.545 OA
ENDBRANCH   1   7
BRANCH   5  10
ATOM     10  O   UNL     1      52.873  25.125  61.690  1.00  0.00    -0.493 OA
ATOM     11  C   UNL     1      52.343  23.915  61.155  1.00  0.00     0.278 C 
ENDBRANCH   5  10
BRANCH   6  12
ATOM     12  O   UNL     1      54.260  27.534  62.051  1.00  0.00    -0.504 OA
ATOM     13  H   UNL     1      54.817  28.220  61.556  1.00  0.00     0.293 HD
ENDBRANCH   6  12
TORSDOF 3
ENDMDL
MODEL 2
REMARK VINA RESULT:    -3.647     15.782     17.929
REMARK INTER + INTRA:          -4.254
REMARK INTER:                  -4.160
REMARK INTRA:                  -0.094
REMARK UNBOUND:                -0.074
REMARK SMILES COc1cc(C(=O)[O-])ccc1O
REMARK SMILES IDX 5 1 9 2 4 3 10 4 3 5 11 6 6 7 7 8 8 9 2 10 1 11 12 12
REMARK H PARENT 12 13
REMARK Flexibility Score: inf
ROOT
ATOM      1  C   UNL     1      37.484  25.314  73.796  1.00  0.00     0.001 A 
ATOM      2  C   UNL     1      36.380  24.526  74.162  1.00  0.00     0.014 A 
ATOM      3  C   UNL     1      38.509  24.738  73.026  1.00  0.00     0.060 A 
ATOM      4  C   UNL     1      36.302  23.191  73.765  1.00  0.00     0.051 A 
ATOM      5  C   UNL     1      38.436  23.389  72.623  1.00  0.00     0.161 A 
ATOM      6  C   UNL     1      37.321  22.619  72.999  1.00  0.00     0.157 A 
ENDROOT
BRANCH   1   7
ATOM      7  C   UNL     1      37.570  26.731  74.216  1.00  0.00     0.072 C 
ATOM      8  O   UNL     1      37.130  27.095  75.339  1.00  0.00    -0.545 OA
ATOM      9  O   UNL     1      38.136  27.683  73.375  1.00  0.00    -0.545 OA
ENDBRANCH   1   7
BRANCH   5  10
ATOM     10  O   UNL     1      39.445  22.787  71.854  1.00  0.00    -0.493 OA
ATOM     11  C   UNL     1      39.795  23.177  70.529  1.00  0.00     0.278 C 
ENDBRANCH   5  10
BRANCH   6  12
ATOM     12  O   UNL     1      37.209  21.281  72.622  1.00  0.00    -0.504 OA
ATOM     13  H   UNL     1      36.329  20.874  72.327  1.00  0.00     0.293 HD
ENDBRANCH   6  12
TORSDOF 3
ENDMDL
MODEL 3
REMARK VINA RESULT:    -3.582     15.584     17.343
REMARK INTER + INTRA:          -4.179
REMARK INTER:                  -4.086
REMARK INTRA:                  -0.093
REMARK UNBOUND:                -0.074
REMARK SMILES COc1cc(C(=O)[O-])ccc1O
REMARK SMILES IDX 5 1 9 2 4 3 10 4 3 5 11 6 6 7 7 8 8 9 2 10 1 11 12 12
REMARK H PARENT 12 13
REMARK Flexibility Score: inf
ROOT
ATOM      1  C   UNL     1      38.628  24.529  72.053  1.00  0.00     0.001 A 
ATOM      2  C   UNL     1      38.721  25.553  71.096  1.00  0.00     0.014 A 
ATOM      3  C   UNL     1      38.323  24.863  73.384  1.00  0.00     0.060 A 
ATOM      4  C   UNL     1      38.512  26.883  71.462  1.00  0.00     0.051 A 
ATOM      5  C   UNL     1      38.111  26.205  73.759  1.00  0.00     0.161 A 
ATOM      6  C   UNL     1      38.208  27.215  72.784  1.00  0.00     0.157 A 
ENDROOT
BRANCH   1   7
ATOM      7  C   UNL     1      38.850  23.117  71.668  1.00  0.00     0.072 C 
ATOM      8  O   UNL     1      39.939  22.758  71.145  1.00  0.00    -0.545 OA
ATOM      9  O   UNL     1      37.858  22.165  71.876  1.00  0.00    -0.545 OA
ENDBRANCH   1   7
BRANCH   5  10
ATOM     10  O   UNL     1      37.805  26.569  75.081  1.00  0.00    -0.493 OA
ATOM     11  C   UNL     1      36.599  26.226  75.756  1.00  0.00     0.278 C 
ENDBRANCH   5  10
BRANCH   6  12
ATOM     12  O   UNL     1      38.006  28.555  73.113  1.00  0.00    -0.504 OA
ATOM     13  H   UNL     1      37.824  28.858  74.062  1.00  0.00     0.293 HD
ENDBRANCH   6  12
TORSDOF 3
ENDMDL
MODEL 4
REMARK VINA RESULT:    -3.499     15.051     17.321
REMARK INTER + INTRA:          -4.085
REMARK INTER:                  -4.002
REMARK INTRA:                  -0.082
REMARK UNBOUND:                -0.074
REMARK SMILES COc1cc(C(=O)[O-])ccc1O
REMARK SMILES IDX 5 1 9 2 4 3 10 4 3 5 11 6 6 7 7 8 8 9 2 10 1 11 12 12
REMARK H PARENT 12 13
REMARK Flexibility Score: inf
ROOT
ATOM      1  C   UNL     1      38.472  25.080  71.291  1.00  0.00     0.001 A 
ATOM      2  C   UNL     1      39.151  23.870  71.071  1.00  0.00     0.014 A 
ATOM      3  C   UNL     1      37.481  25.136  72.286  1.00  0.00     0.060 A 
ATOM      4  C   UNL     1      38.845  22.739  71.830  1.00  0.00     0.051 A 
ATOM      5  C   UNL     1      37.167  23.997  73.055  1.00  0.00     0.161 A 
ATOM      6  C   UNL     1      37.860  22.796  72.819  1.00  0.00     0.157 A 
ENDROOT
BRANCH   1   7
ATOM      7  C   UNL     1      38.794  26.280  70.487  1.00  0.00     0.072 C 
ATOM      8  O   UNL     1      39.293  27.301  71.031  1.00  0.00    -0.545 OA
ATOM      9  O   UNL     1      38.547  26.300  69.119  1.00  0.00    -0.545 OA
ENDBRANCH   1   7
BRANCH   5  10
ATOM     10  O   UNL     1      36.182  24.023  74.055  1.00  0.00    -0.493 OA
ATOM     11  C   UNL     1      36.081  25.020  75.067  1.00  0.00     0.278 C 
ENDBRANCH   5  10
BRANCH   6  12
ATOM     12  O   UNL     1      37.582  21.646  73.557  1.00  0.00    -0.504 OA
ATOM     13  H   UNL     1      37.401  21.673  74.554  1.00  0.00     0.293 HD
ENDBRANCH   6  12
TORSDOF 3
ENDMDL
MODEL 5
REMARK VINA RESULT:    -3.494     15.274     17.728
REMARK INTER + INTRA:          -4.079
REMARK INTER:                  -4.003
REMARK INTRA:                  -0.076
REMARK UNBOUND:                -0.074
REMARK SMILES COc1cc(C(=O)[O-])ccc1O
REMARK SMILES IDX 5 1 9 2 4 3 10 4 3 5 11 6 6 7 7 8 8 9 2 10 1 11 12 12
REMARK H PARENT 12 13
REMARK Flexibility Score: inf
ROOT
ATOM      1  C   UNL     1      38.565  23.525  71.525  1.00  0.00     0.001 A 
ATOM      2  C   UNL     1      37.977  22.258  71.674  1.00  0.00     0.014 A 
ATOM      3  C   UNL     1      38.245  24.540  72.442  1.00  0.00     0.060 A 
ATOM      4  C   UNL     1      37.087  22.011  72.721  1.00  0.00     0.051 A 
ATOM      5  C   UNL     1      37.346  24.296  73.501  1.00  0.00     0.161 A 
ATOM      6  C   UNL     1      36.769  23.020  73.633  1.00  0.00     0.157 A 
ENDROOT
BRANCH   1   7
ATOM      7  C   UNL     1      39.509  23.790  70.415  1.00  0.00     0.072 C 
ATOM      8  O   UNL     1      40.478  23.014  70.199  1.00  0.00    -0.545 OA
ATOM      9  O   UNL     1      39.341  24.900  69.595  1.00  0.00    -0.545 OA
ENDBRANCH   1   7
BRANCH   5  10
ATOM     10  O   UNL     1      37.007  25.291  74.432  1.00  0.00    -0.493 OA
ATOM     11  C   UNL     1      37.679  26.540  74.564  1.00  0.00     0.278 C 
ENDBRANCH   5  10
BRANCH   6  12
ATOM     12  O   UNL     1      35.875  22.737  74.665  1.00  0.00    -0.504 OA
ATOM     13  H   UNL     1      35.149  23.385  74.945  1.00  0.00     0.293 HD
ENDBRANCH   6  12
TORSDOF 3
ENDMDL
MODEL 6
REMARK VINA RESULT:    -3.467     14.177     16.451
REMARK INTER + INTRA:          -4.048
REMARK INTER:                  -3.972
REMARK INTRA:                  -0.076
REMARK UNBOUND:                -0.074
REMARK SMILES COc1cc(C(=O)[O-])ccc1O
REMARK SMILES IDX 5 1 9 2 4 3 10 4 3 5 11 6 6 7 7 8 8 9 2 10 1 11 12 12
REMARK H PARENT 12 13
REMARK Flexibility Score: inf
ROOT
ATOM      1  C   UNL     1      38.202  24.897  72.860  1.00  0.00     0.001 A 
ATOM      2  C   UNL     1      38.541  23.535  72.895  1.00  0.00     0.014 A 
ATOM      3  C   UNL     1      38.436  25.630  71.684  1.00  0.00     0.060 A 
ATOM      4  C   UNL     1      39.102  22.917  71.777  1.00  0.00     0.051 A 
ATOM      5  C   UNL     1      39.004  25.011  70.551  1.00  0.00     0.161 A 
ATOM      6  C   UNL     1      39.335  23.646  70.608  1.00  0.00     0.157 A 
ENDROOT
BRANCH   1   7
ATOM      7  C   UNL     1      37.607  25.556  74.045  1.00  0.00     0.072 C 
ATOM      8  O   UNL     1      38.136  26.588  74.539  1.00  0.00    -0.545 OA
ATOM      9  O   UNL     1      36.456  25.043  74.633  1.00  0.00    -0.545 OA
ENDBRANCH   1   7
BRANCH   5  10
ATOM     10  O   UNL     1      39.250  25.718  69.363  1.00  0.00    -0.493 OA
ATOM     11  C   UNL     1      39.419  27.130  69.280  1.00  0.00     0.278 C 
ENDBRANCH   5  10
BRANCH   6  12
ATOM     12  O   UNL     1      39.898  22.994  69.510  1.00  0.00    -0.504 OA
ATOM     13  H   UNL     1      40.859  23.143  69.228  1.00  0.00     0.293 HD
ENDBRANCH   6  12
TORSDOF 3
ENDMDL
MODEL 7
REMARK VINA RESULT:    -3.442      2.260      3.755
REMARK INTER + INTRA:          -4.019
REMARK INTER:                  -3.918
REMARK INTRA:                  -0.101
REMARK UNBOUND:                -0.074
REMARK SMILES COc1cc(C(=O)[O-])ccc1O
REMARK SMILES IDX 5 1 9 2 4 3 10 4 3 5 11 6 6 7 7 8 8 9 2 10 1 11 12 12
REMARK H PARENT 12 13
REMARK Flexibility Score: inf
ROOT
ATOM      1  C   UNL     1      52.575  26.844  62.022  1.00  0.00     0.001 A 
ATOM      2  C   UNL     1      51.676  25.926  61.454  1.00  0.00     0.014 A 
ATOM      3  C   UNL     1      53.810  26.382  62.507  1.00  0.00     0.060 A 
ATOM      4  C   UNL     1      52.007  24.573  61.372  1.00  0.00     0.051 A 
ATOM      5  C   UNL     1      54.149  25.016  62.426  1.00  0.00     0.161 A 
ATOM      6  C   UNL     1      53.236  24.113  61.853  1.00  0.00     0.157 A 
ENDROOT
BRANCH   1   7
ATOM      7  C   UNL     1      52.226  28.280  62.111  1.00  0.00     0.072 C 
ATOM      8  O   UNL     1      53.080  29.125  62.494  1.00  0.00    -0.545 OA
ATOM      9  O   UNL     1      50.950  28.719  61.777  1.00  0.00    -0.545 OA
ENDBRANCH   1   7
BRANCH   5  10
ATOM     10  O   UNL     1      55.376  24.525  62.902  1.00  0.00    -0.493 OA
ATOM     11  C   UNL     1      55.629  24.148  64.252  1.00  0.00     0.278 C 
ENDBRANCH   5  10
BRANCH   6  12
ATOM     12  O   UNL     1      53.531  22.754  61.754  1.00  0.00    -0.504 OA
ATOM     13  H   UNL     1      54.108  22.379  61.011  1.00  0.00     0.293 HD
ENDBRANCH   6  12
TORSDOF 3
ENDMDL
MODEL 8
REMARK VINA RESULT:    -3.380     14.456     16.532
REMARK INTER + INTRA:          -3.947
REMARK INTER:                  -3.849
REMARK INTRA:                  -0.098
REMARK UNBOUND:                -0.074
REMARK SMILES COc1cc(C(=O)[O-])ccc1O
REMARK SMILES IDX 5 1 9 2 4 3 10 4 3 5 11 6 6 7 7 8 8 9 2 10 1 11 12 12
REMARK H PARENT 12 13
REMARK Flexibility Score: inf
ROOT
ATOM      1  C   UNL     1      38.609  24.456  72.088  1.00  0.00     0.001 A 
ATOM      2  C   UNL     1      38.356  24.795  73.428  1.00  0.00     0.014 A 
ATOM      3  C   UNL     1      38.746  25.482  71.138  1.00  0.00     0.060 A 
ATOM      4  C   UNL     1      38.243  26.133  73.809  1.00  0.00     0.051 A 
ATOM      5  C   UNL     1      38.633  26.835  71.517  1.00  0.00     0.161 A 
ATOM      6  C   UNL     1      38.380  27.153  72.864  1.00  0.00     0.157 A 
ENDROOT
BRANCH   1   7
ATOM      7  C   UNL     1      38.728  23.038  71.681  1.00  0.00     0.072 C 
ATOM      8  O   UNL     1      39.709  22.649  70.991  1.00  0.00    -0.545 OA
ATOM      9  O   UNL     1      37.758  22.113  72.051  1.00  0.00    -0.545 OA
ENDBRANCH   1   7
BRANCH   5  10
ATOM     10  O   UNL     1      38.765  27.881  70.589  1.00  0.00    -0.493 OA
ATOM     11  C   UNL     1      40.008  28.406  70.132  1.00  0.00     0.278 C 
ENDBRANCH   5  10
BRANCH   6  12
ATOM     12  O   UNL     1      38.261  28.478  73.282  1.00  0.00    -0.504 OA
ATOM     13  H   UNL     1      37.974  29.219  72.654  1.00  0.00     0.293 HD
ENDBRANCH   6  12
TORSDOF 3
ENDMDL
MODEL 9
REMARK VINA RESULT:    -3.365      1.898      4.382
REMARK INTER + INTRA:          -3.930
REMARK INTER:                  -3.828
REMARK INTRA:                  -0.102
REMARK UNBOUND:                -0.074
REMARK SMILES COc1cc(C(=O)[O-])ccc1O
REMARK SMILES IDX 5 1 9 2 4 3 10 4 3 5 11 6 6 7 7 8 8 9 2 10 1 11 12 12
REMARK H PARENT 12 13
REMARK Flexibility Score: inf
ROOT
ATOM      1  C   UNL     1      52.891  24.572  62.125  1.00  0.00     0.001 A 
ATOM      2  C   UNL     1      54.119  25.177  62.440  1.00  0.00     0.014 A 
ATOM      3  C   UNL     1      51.787  25.386  61.816  1.00  0.00     0.060 A 
ATOM      4  C   UNL     1      54.240  26.567  62.445  1.00  0.00     0.051 A 
ATOM      5  C   UNL     1      51.904  26.791  61.820  1.00  0.00     0.161 A 
ATOM      6  C   UNL     1      53.143  27.376  62.137  1.00  0.00     0.157 A 
ENDROOT
BRANCH   1   7
ATOM      7  C   UNL     1      52.758  23.098  62.120  1.00  0.00     0.072 C 
ATOM      8  O   UNL     1      53.577  22.378  62.752  1.00  0.00    -0.545 OA
ATOM      9  O   UNL     1      51.728  22.484  61.415  1.00  0.00    -0.545 OA
ENDBRANCH   1   7
BRANCH   5  10
ATOM     10  O   UNL     1      50.819  27.628  61.516  1.00  0.00    -0.493 OA
ATOM     11  C   UNL     1      49.816  28.025  62.446  1.00  0.00     0.278 C 
ENDBRANCH   5  10
BRANCH   6  12
ATOM     12  O   UNL     1      53.303  28.761  62.153  1.00  0.00    -0.504 OA
ATOM     13  H   UNL     1      53.650  29.275  61.352  1.00  0.00     0.293 HD
ENDBRANCH   6  12
TORSDOF 3
ENDMDL
