MODEL 1
REMARK VINA RESULT:    -5.591      0.000      0.000
REMARK INTER + INTRA:          -6.140
REMARK INTER:                  -6.244
REMARK INTRA:                   0.104
REMARK UNBOUND:                 0.104
REMARK SMILES O=C([O-])c1ccccc1C(=O)[O-]
REMARK SMILES IDX 4 1 9 2 5 3 8 4 6 5 7 6 2 7 1 8 3 9 10 10 11 11 12 12
REMARK H PARENT
REMARK Flexibility Score: inf
ROOT
ATOM      1  C   UNL     1      -0.676  -2.177   0.081  1.00  0.00     0.006 A 
ATOM      2  C   UNL     1      -1.377  -0.941   0.010  1.00  0.00     0.006 A 
ATOM      3  C   UNL     1      -1.127  -3.264  -0.691  1.00  0.00     0.010 A 
ATOM      4  C   UNL     1      -2.461  -0.818  -0.878  1.00  0.00     0.010 A 
ATOM      5  C   UNL     1      -2.219  -3.126  -1.550  1.00  0.00     0.001 A 
ATOM      6  C   UNL     1      -2.876  -1.903  -1.651  1.00  0.00     0.001 A 
ENDROOT
BRANCH   1   7
ATOM      7  C   UNL     1       0.557  -2.353   0.882  1.00  0.00     0.072 C 
ATOM      8  O   UNL     1       1.684  -2.354   0.318  1.00  0.00    -0.545 OA
ATOM      9  O   UNL     1       0.496  -2.453   2.267  1.00  0.00    -0.545 OA
ENDBRANCH   1   7
BRANCH   2  10
ATOM     10  C   UNL     1      -1.064   0.214   0.884  1.00  0.00     0.072 C 
ATOM     11  O   UNL     1       0.114   0.649   0.980  1.00  0.00    -0.545 OA
ATOM     12  O   UNL     1      -2.061   0.789   1.663  1.00  0.00    -0.545 OA
ENDBRANCH   2  10
TORSDOF 2
ENDMDL
MODEL 2
REMARK VINA RESULT:    -5.537      0.114      3.005
REMARK INTER + INTRA:          -6.080
REMARK INTER:                  -6.136
REMARK INTRA:                   0.056
REMARK UNBOUND:                 0.104
REMARK SMILES O=C([O-])c1ccccc1C(=O)[O-]
REMARK SMILES IDX 4 1 9 2 5 3 8 4 6 5 7 6 2 7 1 8 3 9 10 10 11 11 12 12
REMARK H PARENT
REMARK Flexibility Score: inf
ROOT
ATOM      1  C   UNL     1      -1.413  -0.894   0.109  1.00  0.00     0.006 A 
ATOM      2  C   UNL     1      -0.665  -2.104   0.138  1.00  0.00     0.006 A 
ATOM      3  C   UNL     1      -2.517  -0.793  -0.757  1.00  0.00     0.010 A 
ATOM      4  C   UNL     1      -1.088  -3.189  -0.651  1.00  0.00     0.010 A 
ATOM      5  C   UNL     1      -2.906  -1.875  -1.549  1.00  0.00     0.001 A 
ATOM      6  C   UNL     1      -2.199  -3.074  -1.486  1.00  0.00     0.001 A 
ENDROOT
BRANCH   1   7
ATOM      7  C   UNL     1      -1.123   0.247   1.008  1.00  0.00     0.072 C 
ATOM      8  O   UNL     1      -2.024   0.707   1.760  1.00  0.00    -0.545 OA
ATOM      9  O   UNL     1       0.157   0.784   1.084  1.00  0.00    -0.545 OA
ENDBRANCH   1   7
BRANCH   2  10
ATOM     10  C   UNL     1       0.589  -2.257   0.912  1.00  0.00     0.072 C 
ATOM     11  O   UNL     1       1.706  -2.300   0.330  1.00  0.00    -0.545 OA
ATOM     12  O   UNL     1       0.541  -2.425   2.291  1.00  0.00    -0.545 OA
ENDBRANCH   2  10
TORSDOF 2
ENDMDL
MODEL 3
REMARK VINA RESULT:    -4.672      1.967      3.168
REMARK INTER + INTRA:          -5.114
REMARK INTER:                  -5.498
REMARK INTRA:                   0.384
REMARK UNBOUND:                 0.104
REMARK SMILES O=C([O-])c1ccccc1C(=O)[O-]
REMARK SMILES IDX 4 1 9 2 5 3 8 4 6 5 7 6 2 7 1 8 3 9 10 10 11 11 12 12
REMARK H PARENT
REMARK Flexibility Score: inf
ROOT
ATOM      1  C   UNL     1      -0.732  -2.339  -0.147  1.00  0.00     0.006 A 
ATOM      2  C   UNL     1      -0.289  -1.228   0.624  1.00  0.00     0.006 A 
ATOM      3  C   UNL     1       0.121  -3.446  -0.304  1.00  0.00     0.010 A 
ATOM      4  C   UNL     1       0.963  -1.294   1.263  1.00  0.00     0.010 A 
ATOM      5  C   UNL     1       1.369  -3.482   0.320  1.00  0.00     0.001 A 
ATOM      6  C   UNL     1       1.783  -2.413   1.111  1.00  0.00     0.001 A 
ENDROOT
BRANCH   1   7
ATOM      7  C   UNL     1      -2.089  -2.412  -0.737  1.00  0.00     0.072 C 
ATOM      8  O   UNL     1      -2.271  -3.001  -1.836  1.00  0.00    -0.545 OA
ATOM      9  O   UNL     1      -3.187  -1.895  -0.059  1.00  0.00    -0.545 OA
ENDBRANCH   1   7
BRANCH   2  10
ATOM     10  C   UNL     1      -1.056   0.035   0.734  1.00  0.00     0.072 C 
ATOM     11  O   UNL     1      -1.417   0.661  -0.298  1.00  0.00    -0.545 OA
ATOM     12  O   UNL     1      -1.328   0.579   1.983  1.00  0.00    -0.545 OA
ENDBRANCH   2  10
TORSDOF 2
ENDMDL
MODEL 4
REMARK VINA RESULT:    -4.641      1.989      3.803
REMARK INTER + INTRA:          -5.079
REMARK INTER:                  -5.509
REMARK INTRA:                   0.430
REMARK UNBOUND:                 0.104
REMARK SMILES O=C([O-])c1ccccc1C(=O)[O-]
REMARK SMILES IDX 4 1 9 2 5 3 8 4 6 5 7 6 2 7 1 8 3 9 10 10 11 11 12 12
REMARK H PARENT
REMARK Flexibility Score: inf
ROOT
ATOM      1  C   UNL     1      -0.252  -1.209   0.621  1.00  0.00     0.006 A 
ATOM      2  C   UNL     1      -0.722  -2.322  -0.131  1.00  0.00     0.006 A 
ATOM      3  C   UNL     1       1.016  -1.280   1.228  1.00  0.00     0.010 A 
ATOM      4  C   UNL     1       0.120  -3.436  -0.303  1.00  0.00     0.010 A 
ATOM      5  C   UNL     1       1.825  -2.405   1.063  1.00  0.00     0.001 A 
ATOM      6  C   UNL     1       1.383  -3.475   0.289  1.00  0.00     0.001 A 
ENDROOT
BRANCH   1   7
ATOM      7  C   UNL     1      -1.012   0.056   0.737  1.00  0.00     0.072 C 
ATOM      8  O   UNL     1      -1.419   0.648  -0.299  1.00  0.00    -0.545 OA
ATOM      9  O   UNL     1      -1.344   0.574   1.983  1.00  0.00    -0.545 OA
ENDBRANCH   1   7
BRANCH   2  10
ATOM     10  C   UNL     1      -2.092  -2.397  -0.689  1.00  0.00     0.072 C 
ATOM     11  O   UNL     1      -3.077  -1.948  -0.045  1.00  0.00    -0.545 OA
ATOM     12  O   UNL     1      -2.314  -3.027  -1.908  1.00  0.00    -0.545 OA
ENDBRANCH   2  10
TORSDOF 2
ENDMDL
MODEL 5
REMARK VINA RESULT:    -3.811     11.213     12.665
REMARK INTER + INTRA:          -4.153
REMARK INTER:                  -4.469
REMARK INTRA:                   0.316
REMARK UNBOUND:                 0.104
REMARK SMILES O=C([O-])c1ccccc1C(=O)[O-]
REMARK SMILES IDX 4 1 9 2 5 3 8 4 6 5 7 6 2 7 1 8 3 9 10 10 11 11 12 12
REMARK H PARENT
REMARK Flexibility Score: inf
ROOT
ATOM      1  C   UNL     1       7.468  -9.460  -2.966  1.00  0.00     0.006 A 
ATOM      2  C   UNL     1       7.759  -9.353  -4.355  1.00  0.00     0.006 A 
ATOM      3  C   UNL     1       6.125  -9.532  -2.553  1.00  0.00     0.010 A 
ATOM      4  C   UNL     1       6.701  -9.387  -5.281  1.00  0.00     0.010 A 
ATOM      5  C   UNL     1       5.089  -9.542  -3.488  1.00  0.00     0.001 A 
ATOM      6  C   UNL     1       5.377  -9.482  -4.849  1.00  0.00     0.001 A 
ENDROOT
BRANCH   1   7
ATOM      7  C   UNL     1       8.523  -9.572  -1.934  1.00  0.00     0.072 C 
ATOM      8  O   UNL     1       8.289  -9.221  -0.746  1.00  0.00    -0.545 OA
ATOM      9  O   UNL     1       9.762 -10.124  -2.241  1.00  0.00    -0.545 OA
ENDBRANCH   1   7
BRANCH   2  10
ATOM     10  C   UNL     1       9.129  -9.135  -4.876  1.00  0.00     0.072 C 
ATOM     11  O   UNL     1       9.722  -8.039  -4.693  1.00  0.00    -0.545 OA
ATOM     12  O   UNL     1       9.751 -10.119  -5.635  1.00  0.00    -0.545 OA
ENDBRANCH   2  10
TORSDOF 2
ENDMDL
MODEL 6
REMARK VINA RESULT:    -3.711      2.305      3.764
REMARK INTER + INTRA:          -4.040
REMARK INTER:                  -4.766
REMARK INTRA:                   0.726
REMARK UNBOUND:                 0.104
REMARK SMILES O=C([O-])c1ccccc1C(=O)[O-]
REMARK SMILES IDX 4 1 9 2 5 3 8 4 6 5 7 6 2 7 1 8 3 9 10 10 11 11 12 12
REMARK H PARENT
REMARK Flexibility Score: inf
ROOT
ATOM      1  C   UNL     1       0.242  -0.936   0.702  1.00  0.00     0.006 A 
ATOM      2  C   UNL     1       1.587  -0.618   1.038  1.00  0.00     0.006 A 
ATOM      3  C   UNL     1      -0.065  -2.239   0.268  1.00  0.00     0.010 A 
ATOM      4  C   UNL     1       2.563  -1.630   0.989  1.00  0.00     0.010 A 
ATOM      5  C   UNL     1       0.923  -3.223   0.206  1.00  0.00     0.001 A 
ATOM      6  C   UNL     1       2.232  -2.921   0.577  1.00  0.00     0.001 A 
ENDROOT
BRANCH   1   7
ATOM      7  C   UNL     1      -0.871   0.028   0.858  1.00  0.00     0.072 C 
ATOM      8  O   UNL     1      -1.492   0.449  -0.154  1.00  0.00    -0.545 OA
ATOM      9  O   UNL     1      -1.290   0.431   2.121  1.00  0.00    -0.545 OA
ENDBRANCH   1   7
BRANCH   2  10
ATOM     10  C   UNL     1       2.031   0.756   1.372  1.00  0.00     0.072 C 
ATOM     11  O   UNL     1       1.203   1.703   1.440  1.00  0.00    -0.545 OA
ATOM     12  O   UNL     1       3.382   1.028   1.549  1.00  0.00    -0.545 OA
ENDBRANCH   2  10
TORSDOF 2
ENDMDL
MODEL 7
REMARK VINA RESULT:    -3.649     11.132     12.623
REMARK INTER + INTRA:          -3.971
REMARK INTER:                  -4.199
REMARK INTRA:                   0.228
REMARK UNBOUND:                 0.104
REMARK SMILES O=C([O-])c1ccccc1C(=O)[O-]
REMARK SMILES IDX 4 1 9 2 5 3 8 4 6 5 7 6 2 7 1 8 3 9 10 10 11 11 12 12
REMARK H PARENT
REMARK Flexibility Score: inf
ROOT
ATOM      1  C   UNL     1       7.838  -9.347  -4.393  1.00  0.00     0.006 A 
ATOM      2  C   UNL     1       7.501  -9.401  -3.011  1.00  0.00     0.006 A 
ATOM      3  C   UNL     1       6.808  -9.374  -5.350  1.00  0.00     0.010 A 
ATOM      4  C   UNL     1       6.145  -9.415  -2.638  1.00  0.00     0.010 A 
ATOM      5  C   UNL     1       5.469  -9.410  -4.957  1.00  0.00     0.001 A 
ATOM      6  C   UNL     1       5.139  -9.419  -3.604  1.00  0.00     0.001 A 
ENDROOT
BRANCH   1   7
ATOM      7  C   UNL     1       9.231  -9.189  -4.870  1.00  0.00     0.072 C 
ATOM      8  O   UNL     1       9.796 -10.125  -5.497  1.00  0.00    -0.545 OA
ATOM      9  O   UNL     1       9.911  -7.990  -4.694  1.00  0.00    -0.545 OA
ENDBRANCH   1   7
BRANCH   2  10
ATOM     10  C   UNL     1       8.517  -9.516  -1.938  1.00  0.00     0.072 C 
ATOM     11  O   UNL     1       9.601 -10.125  -2.138  1.00  0.00    -0.545 OA
ATOM     12  O   UNL     1       8.252  -9.007  -0.672  1.00  0.00    -0.545 OA
ENDBRANCH   2  10
TORSDOF 2
ENDMDL
MODEL 8
REMARK VINA RESULT:    -3.530      2.297      3.374
REMARK INTER + INTRA:          -3.839
REMARK INTER:                  -4.396
REMARK INTRA:                   0.557
REMARK UNBOUND:                 0.104
REMARK SMILES O=C([O-])c1ccccc1C(=O)[O-]
REMARK SMILES IDX 4 1 9 2 5 3 8 4 6 5 7 6 2 7 1 8 3 9 10 10 11 11 12 12
REMARK H PARENT
REMARK Flexibility Score: inf
ROOT
ATOM      1  C   UNL     1       1.621  -0.729   1.082  1.00  0.00     0.006 A 
ATOM      2  C   UNL     1       0.275  -1.006   0.712  1.00  0.00     0.006 A 
ATOM      3  C   UNL     1       2.574  -1.762   1.017  1.00  0.00     0.010 A 
ATOM      4  C   UNL     1      -0.052  -2.286   0.229  1.00  0.00     0.010 A 
ATOM      5  C   UNL     1       2.222  -3.032   0.557  1.00  0.00     0.001 A 
ATOM      6  C   UNL     1       0.914  -3.289   0.152  1.00  0.00     0.001 A 
ENDROOT
BRANCH   1   7
ATOM      7  C   UNL     1       2.083   0.625   1.466  1.00  0.00     0.072 C 
ATOM      8  O   UNL     1       1.410   1.640   1.143  1.00  0.00    -0.545 OA
ATOM      9  O   UNL     1       3.223   0.792   2.243  1.00  0.00    -0.545 OA
ENDBRANCH   1   7
BRANCH   2  10
ATOM     10  C   UNL     1      -0.824  -0.025   0.875  1.00  0.00     0.072 C 
ATOM     11  O   UNL     1      -1.187   0.351   2.021  1.00  0.00    -0.545 OA
ATOM     12  O   UNL     1      -1.512   0.442  -0.238  1.00  0.00    -0.545 OA
ENDBRANCH   2  10
TORSDOF 2
ENDMDL
MODEL 9
REMARK VINA RESULT:    -3.436     11.545     12.546
REMARK INTER + INTRA:          -3.733
REMARK INTER:                  -4.282
REMARK INTRA:                   0.549
REMARK UNBOUND:                 0.104
REMARK SMILES O=C([O-])c1ccccc1C(=O)[O-]
REMARK SMILES IDX 4 1 9 2 5 3 8 4 6 5 7 6 2 7 1 8 3 9 10 10 11 11 12 12
REMARK H PARENT
REMARK Flexibility Score: inf
ROOT
ATOM      1  C   UNL     1       8.009  -9.356  -3.557  1.00  0.00     0.006 A 
ATOM      2  C   UNL     1       6.604  -9.503  -3.722  1.00  0.00     0.006 A 
ATOM      3  C   UNL     1       8.552  -9.381  -2.259  1.00  0.00     0.010 A 
ATOM      4  C   UNL     1       5.802  -9.735  -2.589  1.00  0.00     0.010 A 
ATOM      5  C   UNL     1       7.735  -9.591  -1.147  1.00  0.00     0.001 A 
ATOM      6  C   UNL     1       6.365  -9.779  -1.313  1.00  0.00     0.001 A 
ENDROOT
BRANCH   1   7
ATOM      7  C   UNL     1       8.942  -9.249  -4.702  1.00  0.00     0.072 C 
ATOM      8  O   UNL     1       8.939 -10.125  -5.607  1.00  0.00    -0.545 OA
ATOM      9  O   UNL     1       9.786  -8.151  -4.829  1.00  0.00    -0.545 OA
ENDBRANCH   1   7
BRANCH   2  10
ATOM     10  C   UNL     1       5.926  -9.354  -5.031  1.00  0.00     0.072 C 
ATOM     11  O   UNL     1       6.384  -8.576  -5.910  1.00  0.00    -0.545 OA
ATOM     12  O   UNL     1       4.734 -10.024  -5.279  1.00  0.00    -0.545 OA
ENDBRANCH   2  10
TORSDOF 2
ENDMDL
