MODEL 1
REMARK VINA RESULT:    -0.950      0.000      0.000
REMARK INTER + INTRA:          -1.190
REMARK INTER:                  -1.088
REMARK INTRA:                  -0.102
REMARK UNBOUND:                -0.102
REMARK SMILES COc1cc(C(=O)[O-])ccc1O
REMARK SMILES IDX 5 1 9 2 4 3 10 4 3 5 11 6 6 7 7 8 8 9 2 10 1 11 12 12
REMARK H PARENT 12 13
REMARK Flexibility Score: inf
ROOT
ATOM      1  C   UNL     1     152.572 169.992 153.044  1.00  0.00     0.001 A 
ATOM      2  C   UNL     1     152.345 169.199 151.908  1.00  0.00     0.014 A 
ATOM      3  C   UNL     1     153.225 169.425 154.154  1.00  0.00     0.060 A 
ATOM      4  C   UNL     1     152.763 167.869 151.880  1.00  0.00     0.051 A 
ATOM      5  C   UNL     1     153.649 168.082 154.131  1.00  0.00     0.161 A 
ATOM      6  C   UNL     1     153.412 167.305 152.982  1.00  0.00     0.157 A 
ENDROOT
BRANCH   1   7
ATOM      7  C   UNL     1     152.126 171.404 153.069  1.00  0.00     0.072 C 
ATOM      8  O   UNL     1     151.875 171.978 154.162  1.00  0.00    -0.545 OA
ATOM      9  O   UNL     1     151.980 172.116 151.885  1.00  0.00    -0.545 OA
ENDBRANCH   1   7
BRANCH   5  10
ATOM     10  O   UNL     1     154.303 167.490 155.224  1.00  0.00    -0.493 OA
ATOM     11  C   UNL     1     153.647 166.966 156.373  1.00  0.00     0.278 C 
ENDBRANCH   5  10
BRANCH   6  12
ATOM     12  O   UNL     1     153.815 165.971 152.917  1.00  0.00    -0.504 OA
ATOM     13  H   UNL     1     153.154 165.205 152.963  1.00  0.00     0.293 HD
ENDBRANCH   6  12
TORSDOF 3
ENDMDL
MODEL 2
REMARK VINA RESULT:    -0.874      1.412      1.412
REMARK INTER + INTRA:          -1.103
REMARK INTER:                  -1.000
REMARK INTRA:                  -0.103
REMARK UNBOUND:                -0.102
REMARK SMILES COc1cc(C(=O)[O-])ccc1O
REMARK SMILES IDX 5 1 9 2 4 3 10 4 3 5 11 6 6 7 7 8 8 9 2 10 1 11 12 12
REMARK H PARENT 12 13
REMARK Flexibility Score: inf
ROOT
ATOM      1  C   UNL     1     152.044 169.452 153.696  1.00  0.00     0.001 A 
ATOM      2  C   UNL     1     152.076 168.653 152.541  1.00  0.00     0.014 A 
ATOM      3  C   UNL     1     152.085 168.832 154.958  1.00  0.00     0.060 A 
ATOM      4  C   UNL     1     152.151 167.264 152.647  1.00  0.00     0.051 A 
ATOM      5  C   UNL     1     152.160 167.429 155.070  1.00  0.00     0.161 A 
ATOM      6  C   UNL     1     152.192 166.648 153.901  1.00  0.00     0.157 A 
ENDROOT
BRANCH   1   7
ATOM      7  C   UNL     1     151.965 170.925 153.579  1.00  0.00     0.072 C 
ATOM      8  O   UNL     1     151.979 171.652 154.608  1.00  0.00    -0.545 OA
ATOM      9  O   UNL     1     151.875 171.529 152.330  1.00  0.00    -0.545 OA
ENDBRANCH   1   7
BRANCH   5  10
ATOM     10  O   UNL     1     152.203 166.784 156.316  1.00  0.00    -0.493 OA
ATOM     11  C   UNL     1     153.351 166.721 157.155  1.00  0.00     0.278 C 
ENDBRANCH   5  10
BRANCH   6  12
ATOM     12  O   UNL     1     152.266 165.256 153.965  1.00  0.00    -0.504 OA
ATOM     13  H   UNL     1     151.874 164.660 153.246  1.00  0.00     0.293 HD
ENDBRANCH   6  12
TORSDOF 3
ENDMDL
MODEL 3
REMARK VINA RESULT:    -0.853     16.899     17.408
REMARK INTER + INTRA:          -1.080
REMARK INTER:                  -0.981
REMARK INTRA:                  -0.099
REMARK UNBOUND:                -0.102
REMARK SMILES COc1cc(C(=O)[O-])ccc1O
REMARK SMILES IDX 5 1 9 2 4 3 10 4 3 5 11 6 6 7 7 8 8 9 2 10 1 11 12 12
REMARK H PARENT 12 13
REMARK Flexibility Score: inf
ROOT
ATOM      1  C   UNL     1     153.037 169.809 171.028  1.00  0.00     0.001 A 
ATOM      2  C   UNL     1     151.909 169.032 171.336  1.00  0.00     0.014 A 
ATOM      3  C   UNL     1     154.168 169.183 170.471  1.00  0.00     0.060 A 
ATOM      4  C   UNL     1     151.910 167.659 171.092  1.00  0.00     0.051 A 
ATOM      5  C   UNL     1     154.174 167.796 170.224  1.00  0.00     0.161 A 
ATOM      6  C   UNL     1     153.033 167.036 170.540  1.00  0.00     0.157 A 
ENDROOT
BRANCH   1   7
ATOM      7  C   UNL     1     153.032 171.266 171.288  1.00  0.00     0.072 C 
ATOM      8  O   UNL     1     154.019 171.823 171.839  1.00  0.00    -0.545 OA
ATOM      9  O   UNL     1     151.937 172.042 170.927  1.00  0.00    -0.545 OA
ENDBRANCH   1   7
BRANCH   5  10
ATOM     10  O   UNL     1     155.287 167.144 169.670  1.00  0.00    -0.493 OA
ATOM     11  C   UNL     1     156.452 166.770 170.398  1.00  0.00     0.278 C 
ENDBRANCH   5  10
BRANCH   6  12
ATOM     12  O   UNL     1     152.996 165.660 170.311  1.00  0.00    -0.504 OA
ATOM     13  H   UNL     1     153.732 165.176 169.813  1.00  0.00     0.293 HD
ENDBRANCH   6  12
TORSDOF 3
ENDMDL
MODEL 4
REMARK VINA RESULT:    -0.849     16.952     17.721
REMARK INTER + INTRA:          -1.074
REMARK INTER:                  -0.975
REMARK INTRA:                  -0.100
REMARK UNBOUND:                -0.102
REMARK SMILES COc1cc(C(=O)[O-])ccc1O
REMARK SMILES IDX 5 1 9 2 4 3 10 4 3 5 11 6 6 7 7 8 8 9 2 10 1 11 12 12
REMARK H PARENT 12 13
REMARK Flexibility Score: inf
ROOT
ATOM      1  C   UNL     1     170.963 169.915 152.879  1.00  0.00     0.001 A 
ATOM      2  C   UNL     1     172.121 169.172 153.159  1.00  0.00     0.014 A 
ATOM      3  C   UNL     1     169.803 169.240 152.454  1.00  0.00     0.060 A 
ATOM      4  C   UNL     1     172.121 167.785 153.019  1.00  0.00     0.051 A 
ATOM      5  C   UNL     1     169.798 167.839 152.310  1.00  0.00     0.161 A 
ATOM      6  C   UNL     1     170.969 167.114 152.596  1.00  0.00     0.157 A 
ENDROOT
BRANCH   1   7
ATOM      7  C   UNL     1     170.968 171.388 153.030  1.00  0.00     0.072 C 
ATOM      8  O   UNL     1     170.383 172.120 152.188  1.00  0.00    -0.545 OA
ATOM      9  O   UNL     1     171.618 171.983 154.104  1.00  0.00    -0.545 OA
ENDBRANCH   1   7
BRANCH   5  10
ATOM     10  O   UNL     1     168.656 167.139 151.888  1.00  0.00    -0.493 OA
ATOM     11  C   UNL     1     167.521 166.874 152.705  1.00  0.00     0.278 C 
ENDBRANCH   5  10
BRANCH   6  12
ATOM     12  O   UNL     1     171.008 165.725 152.468  1.00  0.00    -0.504 OA
ATOM     13  H   UNL     1     171.844 165.233 152.179  1.00  0.00     0.293 HD
ENDBRANCH   6  12
TORSDOF 3
ENDMDL
MODEL 5
REMARK VINA RESULT:    -0.827     17.334     18.009
REMARK INTER + INTRA:          -1.050
REMARK INTER:                  -0.959
REMARK INTRA:                  -0.092
REMARK UNBOUND:                -0.102
REMARK SMILES COc1cc(C(=O)[O-])ccc1O
REMARK SMILES IDX 5 1 9 2 4 3 10 4 3 5 11 6 6 7 7 8 8 9 2 10 1 11 12 12
REMARK H PARENT 12 13
REMARK Flexibility Score: inf
ROOT
ATOM      1  C   UNL     1     155.739 170.116 170.804  1.00  0.00     0.001 A 
ATOM      2  C   UNL     1     155.509 171.498 170.888  1.00  0.00     0.014 A 
ATOM      3  C   UNL     1     154.656 169.231 170.960  1.00  0.00     0.060 A 
ATOM      4  C   UNL     1     154.223 171.987 171.121  1.00  0.00     0.051 A 
ATOM      5  C   UNL     1     153.356 169.719 171.197  1.00  0.00     0.161 A 
ATOM      6  C   UNL     1     153.147 171.108 171.276  1.00  0.00     0.157 A 
ENDROOT
BRANCH   1   7
ATOM      7  C   UNL     1     157.105 169.602 170.557  1.00  0.00     0.072 C 
ATOM      8  O   UNL     1     157.375 168.385 170.737  1.00  0.00    -0.545 OA
ATOM      9  O   UNL     1     158.110 170.457 170.120  1.00  0.00    -0.545 OA
ENDBRANCH   1   7
BRANCH   5  10
ATOM     10  O   UNL     1     152.256 168.860 171.356  1.00  0.00    -0.493 OA
ATOM     11  C   UNL     1     151.877 167.851 170.426  1.00  0.00     0.278 C 
ENDBRANCH   5  10
BRANCH   6  12
ATOM     12  O   UNL     1     151.876 171.634 171.508  1.00  0.00    -0.504 OA
ATOM     13  H   UNL     1     151.728 172.454 172.085  1.00  0.00     0.293 HD
ENDBRANCH   6  12
TORSDOF 3
ENDMDL
MODEL 6
REMARK VINA RESULT:    -0.813      2.407      3.821
REMARK INTER + INTRA:          -1.034
REMARK INTER:                  -0.935
REMARK INTRA:                  -0.099
REMARK UNBOUND:                -0.102
REMARK SMILES COc1cc(C(=O)[O-])ccc1O
REMARK SMILES IDX 5 1 9 2 4 3 10 4 3 5 11 6 6 7 7 8 8 9 2 10 1 11 12 12
REMARK H PARENT 12 13
REMARK Flexibility Score: inf
ROOT
ATOM      1  C   UNL     1     152.336 170.813 154.067  1.00  0.00     0.001 A 
ATOM      2  C   UNL     1     152.330 172.031 154.765  1.00  0.00     0.014 A 
ATOM      3  C   UNL     1     152.186 169.612 154.785  1.00  0.00     0.060 A 
ATOM      4  C   UNL     1     152.176 172.049 156.152  1.00  0.00     0.051 A 
ATOM      5  C   UNL     1     152.031 169.625 156.186  1.00  0.00     0.161 A 
ATOM      6  C   UNL     1     152.027 170.857 156.866  1.00  0.00     0.157 A 
ENDROOT
BRANCH   1   7
ATOM      7  C   UNL     1     152.500 170.799 152.596  1.00  0.00     0.072 C 
ATOM      8  O   UNL     1     151.927 171.662 151.879  1.00  0.00    -0.545 OA
ATOM      9  O   UNL     1     153.290 169.832 151.985  1.00  0.00    -0.545 OA
ENDBRANCH   1   7
BRANCH   5  10
ATOM     10  O   UNL     1     151.879 168.443 156.928  1.00  0.00    -0.493 OA
ATOM     11  C   UNL     1     152.925 167.517 157.198  1.00  0.00     0.278 C 
ENDBRANCH   5  10
BRANCH   6  12
ATOM     12  O   UNL     1     151.876 170.916 158.251  1.00  0.00    -0.504 OA
ATOM     13  H   UNL     1     152.424 170.340 158.879  1.00  0.00     0.293 HD
ENDBRANCH   6  12
TORSDOF 3
ENDMDL
MODEL 7
REMARK VINA RESULT:    -0.812      1.541      4.764
REMARK INTER + INTRA:          -1.033
REMARK INTER:                  -0.934
REMARK INTRA:                  -0.099
REMARK UNBOUND:                -0.102
REMARK SMILES COc1cc(C(=O)[O-])ccc1O
REMARK SMILES IDX 5 1 9 2 4 3 10 4 3 5 11 6 6 7 7 8 8 9 2 10 1 11 12 12
REMARK H PARENT 12 13
REMARK Flexibility Score: inf
ROOT
ATOM      1  C   UNL     1     153.422 167.820 153.241  1.00  0.00     0.001 A 
ATOM      2  C   UNL     1     154.258 168.032 154.349  1.00  0.00     0.014 A 
ATOM      3  C   UNL     1     152.630 168.882 152.768  1.00  0.00     0.060 A 
ATOM      4  C   UNL     1     154.302 169.280 154.971  1.00  0.00     0.051 A 
ATOM      5  C   UNL     1     152.670 170.144 153.393  1.00  0.00     0.161 A 
ATOM      6  C   UNL     1     153.515 170.336 154.502  1.00  0.00     0.157 A 
ENDROOT
BRANCH   1   7
ATOM      7  C   UNL     1     153.378 166.494 152.585  1.00  0.00     0.072 C 
ATOM      8  O   UNL     1     152.277 165.976 152.259  1.00  0.00    -0.545 OA
ATOM      9  O   UNL     1     154.554 165.802 152.317  1.00  0.00    -0.545 OA
ENDBRANCH   1   7
BRANCH   5  10
ATOM     10  O   UNL     1     151.891 171.222 152.943  1.00  0.00    -0.493 OA
ATOM     11  C   UNL     1     152.259 172.102 151.887  1.00  0.00     0.278 C 
ENDBRANCH   5  10
BRANCH   6  12
ATOM     12  O   UNL     1     153.586 171.569 155.150  1.00  0.00    -0.504 OA
ATOM     13  H   UNL     1     153.962 172.395 154.699  1.00  0.00     0.293 HD
ENDBRANCH   6  12
TORSDOF 3
ENDMDL
