MODEL 1
REMARK VINA RESULT:    -3.294      0.000      0.000
REMARK INTER + INTRA:          -4.170
REMARK INTER:                  -4.642
REMARK INTRA:                   0.471
REMARK UNBOUND:                 0.471
REMARK SMILES CC1=CCC(=C(C)C)C(=O)CC(C)=CCC1
REMARK SMILES IDX 12 1 14 2 13 3 15 4 16 5 2 6 1 7 3 8 11 10 9 11 10 12 5 13
REMARK SMILES IDX 6 14 7 15 8 16 4 17
REMARK H PARENT
REMARK Flexibility Score: 60.00
ROOT
ATOM      1  C   UNL     1      -0.686   7.623  -8.560  1.00  0.00    -0.070 C 
ATOM      2  C   UNL     1       0.496   8.120  -8.110  1.00  0.00    -0.027 C 
ATOM      3  C   UNL     1      -1.945   8.143  -7.911  1.00  0.00     0.039 C 
ENDROOT
BRANCH   2   4
ATOM      4  C   UNL     1       1.872   7.673  -8.540  1.00  0.00     0.032 C 
BRANCH   4   5
ATOM      5  C   UNL     1       2.439   8.492  -9.707  1.00  0.00     0.034 C 
BRANCH   5   6
ATOM      6  C   UNL     1       1.770   9.852  -9.766  1.00  0.00    -0.077 C 
ATOM      7  C   UNL     1       2.250  10.926  -8.823  1.00  0.00     0.039 C 
ATOM      8  C   UNL     1       0.820  10.177 -10.674  1.00  0.00    -0.023 CG0
ATOM      9  G   UNL     1       0.206   9.235 -11.684  1.00  0.00     0.000 G0
ENDBRANCH   5   6
ENDBRANCH   4   5
ENDBRANCH   2   4
BRANCH   1  10
ATOM     10  C   UNL     1      -0.823   6.642  -9.721  1.00  0.00     0.111 C 
BRANCH  10  11
ATOM     11  C   UNL     1      -1.348   7.265 -10.990  1.00  0.00     0.163 C 
ATOM     12  O   UNL     1      -1.991   6.522 -11.781  1.00  0.00    -0.294 OA
BRANCH  11  13
ATOM     13  C   UNL     1      -1.185   8.723 -11.306  1.00  0.00    -0.002 C 
ATOM     14  C   UNL     1      -2.265   9.567 -11.288  1.00  0.00    -0.069 C 
ATOM     15  C   UNL     1      -2.145  11.019 -11.696  1.00  0.00     0.039 C 
ATOM     16  C   UNL     1      -3.625   9.109 -10.810  1.00  0.00     0.039 C 
BRANCH  13  17
ATOM     17  C   UNL     1       0.196   9.239 -11.703  1.00  0.00     0.066 CG0
ATOM     18  G   UNL     1       0.780  10.164 -10.661  1.00  0.00     0.000 G0
ENDBRANCH  13  17
ENDBRANCH  11  13
ENDBRANCH  10  11
ENDBRANCH   1  10
TORSDOF 0
ENDMDL
MODEL 2
REMARK VINA RESULT:    -3.228      1.452      3.712
REMARK INTER + INTRA:          -4.077
REMARK INTER:                  -4.402
REMARK INTRA:                   0.324
REMARK UNBOUND:                 0.471
REMARK SMILES CC1=CCC(=C(C)C)C(=O)CC(C)=CCC1
REMARK SMILES IDX 12 1 14 2 13 3 15 4 16 5 2 6 1 7 3 8 11 10 9 11 10 12 5 13
REMARK SMILES IDX 6 14 7 15 8 16 4 17
REMARK H PARENT
REMARK Flexibility Score: 60.00
ROOT
ATOM      1  C   UNL     1      -0.051   7.580  -8.510  1.00  0.00    -0.070 C 
ATOM      2  C   UNL     1      -1.246   8.141  -8.186  1.00  0.00    -0.027 C 
ATOM      3  C   UNL     1       1.119   7.877  -7.605  1.00  0.00     0.039 C 
ENDROOT
BRANCH   2   4
ATOM      4  C   UNL     1      -2.517   8.063  -8.997  1.00  0.00     0.032 C 
BRANCH   4   5
ATOM      5  C   UNL     1      -2.978   9.424  -9.533  1.00  0.00     0.034 C 
BRANCH   5   6
ATOM      6  C   UNL     1      -2.866   9.456 -11.046  1.00  0.00    -0.077 C 
ATOM      7  C   UNL     1      -4.128   9.314 -11.858  1.00  0.00     0.039 C 
ATOM      8  C   UNL     1      -1.705   9.686 -11.703  1.00  0.00    -0.023 CG0
ATOM      9  G   UNL     1      -0.345   9.838 -11.063  1.00  0.00     0.000 G0
ENDBRANCH   5   6
ENDBRANCH   4   5
ENDBRANCH   2   4
BRANCH   1  10
ATOM     10  C   UNL     1       0.161   6.615  -9.672  1.00  0.00     0.111 C 
BRANCH  10  11
ATOM     11  C   UNL     1       0.038   7.256 -11.032  1.00  0.00     0.163 C 
ATOM     12  O   UNL     1      -0.587   6.619 -11.923  1.00  0.00    -0.294 OA
BRANCH  11  13
ATOM     13  C   UNL     1       0.572   8.626 -11.333  1.00  0.00    -0.002 C 
ATOM     14  C   UNL     1       1.858   8.793 -11.778  1.00  0.00    -0.069 C 
ATOM     15  C   UNL     1       2.450  10.169 -11.997  1.00  0.00     0.039 C 
ATOM     16  C   UNL     1       2.740   7.615 -12.124  1.00  0.00     0.039 C 
BRANCH  13  17
ATOM     17  C   UNL     1      -0.326   9.836 -11.082  1.00  0.00     0.066 CG0
ATOM     18  G   UNL     1      -1.693   9.669 -11.703  1.00  0.00     0.000 G0
ENDBRANCH  13  17
ENDBRANCH  11  13
ENDBRANCH  10  11
ENDBRANCH   1  10
TORSDOF 0
ENDMDL
MODEL 3
REMARK VINA RESULT:    -3.147      9.394     10.734
REMARK INTER + INTRA:          -3.964
REMARK INTER:                  -4.197
REMARK INTRA:                   0.233
REMARK UNBOUND:                 0.471
REMARK SMILES CC1=CCC(=C(C)C)C(=O)CC(C)=CCC1
REMARK SMILES IDX 12 1 14 2 13 3 15 4 16 5 2 6 1 7 3 8 11 10 9 11 10 12 5 13
REMARK SMILES IDX 6 14 7 15 8 16 4 17
REMARK H PARENT
REMARK Flexibility Score: 60.00
ROOT
ATOM      1  C   UNL     1      10.649   9.278  -6.193  1.00  0.00    -0.070 C 
ATOM      2  C   UNL     1      11.048   9.088  -7.478  1.00  0.00    -0.027 C 
ATOM      3  C   UNL     1      11.600   8.843  -5.105  1.00  0.00     0.039 C 
ENDROOT
BRANCH   2   4
ATOM      4  C   UNL     1      10.224   9.353  -8.715  1.00  0.00     0.032 C 
BRANCH   4   5
ATOM      5  C   UNL     1      10.471  10.739  -9.323  1.00  0.00     0.034 C 
BRANCH   5   6
ATOM      6  C   UNL     1       9.156  11.377  -9.728  1.00  0.00    -0.077 C 
ATOM      7  C   UNL     1       8.457  10.854 -10.957  1.00  0.00     0.039 C 
ATOM      8  C   UNL     1       8.537  12.336  -9.001  1.00  0.00    -0.023 CG0
ATOM      9  G   UNL     1       9.087  12.991  -7.756  1.00  0.00     0.000 G0
ENDBRANCH   5   6
ENDBRANCH   4   5
ENDBRANCH   2   4
BRANCH   1  10
ATOM     10  C   UNL     1       9.352   9.970  -5.786  1.00  0.00     0.111 C 
BRANCH  10  11
ATOM     11  C   UNL     1       9.461  11.470  -5.691  1.00  0.00     0.163 C 
ATOM     12  O   UNL     1      10.377  11.944  -4.965  1.00  0.00    -0.294 OA
BRANCH  11  13
ATOM     13  C   UNL     1       8.571  12.399  -6.465  1.00  0.00    -0.002 C 
ATOM     14  C   UNL     1       7.293  12.657  -6.042  1.00  0.00    -0.069 C 
ATOM     15  C   UNL     1       6.344  13.512  -6.855  1.00  0.00     0.039 C 
ATOM     16  C   UNL     1       6.774  12.146  -4.717  1.00  0.00     0.039 C 
BRANCH  13  17
ATOM     17  C   UNL     1       9.096  13.008  -7.763  1.00  0.00     0.066 CG0
ATOM     18  G   UNL     1       8.527  12.324  -8.984  1.00  0.00     0.000 G0
ENDBRANCH  13  17
ENDBRANCH  11  13
ENDBRANCH  10  11
ENDBRANCH   1  10
TORSDOF 0
ENDMDL
MODEL 4
REMARK VINA RESULT:    -3.106      1.816      3.773
REMARK INTER + INTRA:          -3.905
REMARK INTER:                  -4.589
REMARK INTRA:                   0.684
REMARK UNBOUND:                 0.471
REMARK SMILES CC1=CCC(=C(C)C)C(=O)CC(C)=CCC1
REMARK SMILES IDX 12 1 14 2 13 3 15 4 16 5 2 6 1 7 3 8 11 10 9 11 10 12 5 13
REMARK SMILES IDX 6 14 7 15 8 16 4 17
REMARK H PARENT
REMARK Flexibility Score: 60.00
ROOT
ATOM      1  C   UNL     1       0.403   8.072  -8.612  1.00  0.00    -0.070 C 
ATOM      2  C   UNL     1      -0.919   7.770  -8.529  1.00  0.00    -0.027 C 
ATOM      3  C   UNL     1       1.067   8.610  -7.368  1.00  0.00     0.039 C 
ENDROOT
BRANCH   2   4
ATOM      4  C   UNL     1      -1.803   7.318  -9.666  1.00  0.00     0.032 C 
BRANCH   4   5
ATOM      5  C   UNL     1      -1.438   7.960 -11.011  1.00  0.00     0.034 C 
BRANCH   5   6
ATOM      6  C   UNL     1      -1.892   9.407 -11.042  1.00  0.00    -0.077 C 
ATOM      7  C   UNL     1      -3.303   9.721 -10.616  1.00  0.00     0.039 C 
ATOM      8  C   UNL     1      -1.074  10.439 -11.356  1.00  0.00    -0.023 CG0
ATOM      9  G   UNL     1       0.359  10.319 -11.819  1.00  0.00     0.000 G0
ENDBRANCH   5   6
ENDBRANCH   4   5
ENDBRANCH   2   4
BRANCH   1  10
ATOM     10  C   UNL     1       1.267   7.831  -9.846  1.00  0.00     0.111 C 
BRANCH  10  11
ATOM     11  C   UNL     1       2.034   9.046 -10.304  1.00  0.00     0.163 C 
ATOM     12  O   UNL     1       3.285   8.935 -10.421  1.00  0.00    -0.294 OA
BRANCH  11  13
ATOM     13  C   UNL     1       1.364  10.336 -10.676  1.00  0.00    -0.002 C 
ATOM     14  C   UNL     1       1.610  11.482  -9.965  1.00  0.00    -0.069 C 
ATOM     15  C   UNL     1       0.875  12.772 -10.259  1.00  0.00     0.039 C 
ATOM     16  C   UNL     1       2.664  11.537  -8.883  1.00  0.00     0.039 C 
BRANCH  13  17
ATOM     17  C   UNL     1       0.360  10.337 -11.826  1.00  0.00     0.066 CG0
ATOM     18  G   UNL     1      -1.066  10.441 -11.338  1.00  0.00     0.000 G0
ENDBRANCH  13  17
ENDBRANCH  11  13
ENDBRANCH  10  11
ENDBRANCH   1  10
TORSDOF 0
ENDMDL
MODEL 5
REMARK VINA RESULT:    -3.041     10.793     12.305
REMARK INTER + INTRA:          -3.813
REMARK INTER:                  -3.928
REMARK INTRA:                   0.115
REMARK UNBOUND:                 0.471
REMARK SMILES CC1=CCC(=C(C)C)C(=O)CC(C)=CCC1
REMARK SMILES IDX 12 1 14 2 13 3 15 4 16 5 2 6 1 7 3 8 11 10 9 11 10 12 5 13
REMARK SMILES IDX 6 14 7 15 8 16 4 17
REMARK H PARENT
REMARK Flexibility Score: 60.00
ROOT
ATOM      1  C   UNL     1      12.003   7.878  -9.725  1.00  0.00    -0.070 C 
ATOM      2  C   UNL     1      12.074   8.492 -10.935  1.00  0.00    -0.027 C 
ATOM      3  C   UNL     1      12.892   6.678  -9.508  1.00  0.00     0.039 C 
ENDROOT
BRANCH   2   4
ATOM      4  C   UNL     1      11.210   9.638 -11.405  1.00  0.00     0.032 C 
BRANCH   4   5
ATOM      5  C   UNL     1      11.637  10.995 -10.829  1.00  0.00     0.034 C 
BRANCH   5   6
ATOM      6  C   UNL     1      10.446  11.700 -10.210  1.00  0.00    -0.077 C 
ATOM      7  C   UNL     1       9.252  11.986 -11.084  1.00  0.00     0.039 C 
ATOM      8  C   UNL     1      10.366  12.015  -8.896  1.00  0.00    -0.023 CG0
ATOM      9  G   UNL     1      11.462  11.820  -7.874  1.00  0.00     0.000 G0
ENDBRANCH   5   6
ENDBRANCH   4   5
ENDBRANCH   2   4
BRANCH   1  10
ATOM     10  C   UNL     1      11.151   8.367  -8.558  1.00  0.00     0.111 C 
BRANCH  10  11
ATOM     11  C   UNL     1      11.884   9.272  -7.601  1.00  0.00     0.163 C 
ATOM     12  O   UNL     1      13.070   8.965  -7.300  1.00  0.00    -0.294 OA
BRANCH  11  13
ATOM     13  C   UNL     1      11.281  10.533  -7.054  1.00  0.00    -0.002 C 
ATOM     14  C   UNL     1      10.554  10.514  -5.892  1.00  0.00    -0.069 C 
ATOM     15  C   UNL     1       9.855  11.751  -5.371  1.00  0.00     0.039 C 
ATOM     16  C   UNL     1      10.450   9.270  -5.038  1.00  0.00     0.039 C 
BRANCH  13  17
ATOM     17  C   UNL     1      11.445  11.828  -7.845  1.00  0.00     0.066 CG0
ATOM     18  G   UNL     1      10.359  12.004  -8.881  1.00  0.00     0.000 G0
ENDBRANCH  13  17
ENDBRANCH  11  13
ENDBRANCH  10  11
ENDBRANCH   1  10
TORSDOF 0
ENDMDL
MODEL 6
REMARK VINA RESULT:    -2.962      9.625     11.516
REMARK INTER + INTRA:          -3.702
REMARK INTER:                  -3.840
REMARK INTRA:                   0.138
REMARK UNBOUND:                 0.471
REMARK SMILES CC1=CCC(=C(C)C)C(=O)CC(C)=CCC1
REMARK SMILES IDX 12 1 14 2 13 3 15 4 16 5 2 6 1 7 3 8 11 10 9 11 10 12 5 13
REMARK SMILES IDX 6 14 7 15 8 16 4 17
REMARK H PARENT
REMARK Flexibility Score: 60.00
ROOT
ATOM      1  C   UNL     1       7.842  12.603  -5.690  1.00  0.00    -0.070 C 
ATOM      2  C   UNL     1       7.288  13.158  -6.800  1.00  0.00    -0.027 C 
ATOM      3  C   UNL     1       7.747  13.389  -4.405  1.00  0.00     0.039 C 
ENDROOT
BRANCH   2   4
ATOM      4  C   UNL     1       7.353  12.601  -8.201  1.00  0.00     0.032 C 
BRANCH   4   5
ATOM      5  C   UNL     1       8.720  12.796  -8.869  1.00  0.00     0.034 C 
BRANCH   5   6
ATOM      6  C   UNL     1       9.206  11.486  -9.459  1.00  0.00    -0.077 C 
ATOM      7  C   UNL     1       8.459  10.912 -10.636  1.00  0.00     0.039 C 
ATOM      8  C   UNL     1      10.322  10.846  -9.036  1.00  0.00    -0.023 CG0
ATOM      9  G   UNL     1      11.186  11.259  -7.869  1.00  0.00     0.000 G0
ENDBRANCH   5   6
ENDBRANCH   4   5
ENDBRANCH   2   4
BRANCH   1  10
ATOM     10  C   UNL     1       8.476  11.216  -5.644  1.00  0.00     0.111 C 
BRANCH  10  11
ATOM     11  C   UNL     1       9.982  11.233  -5.569  1.00  0.00     0.163 C 
ATOM     12  O   UNL     1      10.511  11.822  -4.588  1.00  0.00    -0.294 OA
BRANCH  11  13
ATOM     13  C   UNL     1      10.851  10.533  -6.572  1.00  0.00    -0.002 C 
ATOM     14  C   UNL     1      11.356   9.285  -6.311  1.00  0.00    -0.069 C 
ATOM     15  C   UNL     1      12.312   8.599  -7.262  1.00  0.00     0.039 C 
ATOM     16  C   UNL     1      10.946   8.502  -5.083  1.00  0.00     0.039 C 
BRANCH  13  17
ATOM     17  C   UNL     1      11.211  11.259  -7.867  1.00  0.00     0.066 CG0
ATOM     18  G   UNL     1      10.314  10.855  -9.014  1.00  0.00     0.000 G0
ENDBRANCH  13  17
ENDBRANCH  11  13
ENDBRANCH  10  11
ENDBRANCH   1  10
TORSDOF 0
ENDMDL
MODEL 7
REMARK VINA RESULT:    -2.880     10.078     12.210
REMARK INTER + INTRA:          -3.587
REMARK INTER:                  -3.851
REMARK INTRA:                   0.264
REMARK UNBOUND:                 0.471
REMARK SMILES CC1=CCC(=C(C)C)C(=O)CC(C)=CCC1
REMARK SMILES IDX 12 1 14 2 13 3 15 4 16 5 2 6 1 7 3 8 11 10 9 11 10 12 5 13
REMARK SMILES IDX 6 14 7 15 8 16 4 17
REMARK H PARENT
REMARK Flexibility Score: 60.00
ROOT
ATOM      1  C   UNL     1      12.162   8.510  -7.704  1.00  0.00    -0.070 C 
ATOM      2  C   UNL     1      11.614   8.491  -6.460  1.00  0.00    -0.027 C 
ATOM      3  C   UNL     1      11.787   7.387  -8.640  1.00  0.00     0.039 C 
ENDROOT
BRANCH   2   4
ATOM      4  C   UNL     1      11.924   9.449  -5.335  1.00  0.00     0.032 C 
BRANCH   4   5
ATOM      5  C   UNL     1      10.770  10.409  -5.021  1.00  0.00     0.034 C 
BRANCH   5   6
ATOM      6  C   UNL     1      11.045  11.774  -5.621  1.00  0.00    -0.077 C 
ATOM      7  C   UNL     1      11.793  12.783  -4.787  1.00  0.00     0.039 C 
ATOM      8  C   UNL     1      10.725  12.107  -6.894  1.00  0.00    -0.023 CG0
ATOM      9  G   UNL     1       9.967  11.238  -7.869  1.00  0.00     0.000 G0
ENDBRANCH   5   6
ENDBRANCH   4   5
ENDBRANCH   2   4
BRANCH   1  10
ATOM     10  C   UNL     1      13.060   9.624  -8.233  1.00  0.00     0.111 C 
BRANCH  10  11
ATOM     11  C   UNL     1      12.310  10.759  -8.882  1.00  0.00     0.163 C 
ATOM     12  O   UNL     1      12.987  11.718  -9.344  1.00  0.00    -0.294 OA
BRANCH  11  13
ATOM     13  C   UNL     1      10.818  10.756  -9.048  1.00  0.00    -0.002 C 
ATOM     14  C   UNL     1      10.247  10.376 -10.234  1.00  0.00    -0.069 C 
ATOM     15  C   UNL     1       8.752  10.457 -10.459  1.00  0.00     0.039 C 
ATOM     16  C   UNL     1      11.070   9.808 -11.368  1.00  0.00     0.039 C 
BRANCH  13  17
ATOM     17  C   UNL     1       9.949  11.238  -7.888  1.00  0.00     0.066 CG0
ATOM     18  G   UNL     1      10.725  12.091  -6.911  1.00  0.00     0.000 G0
ENDBRANCH  13  17
ENDBRANCH  11  13
ENDBRANCH  10  11
ENDBRANCH   1  10
TORSDOF 0
ENDMDL
MODEL 8
REMARK VINA RESULT:    -2.826     10.786     12.275
REMARK INTER + INTRA:          -3.511
REMARK INTER:                  -4.027
REMARK INTRA:                   0.516
REMARK UNBOUND:                 0.471
REMARK SMILES CC1=CCC(=C(C)C)C(=O)CC(C)=CCC1
REMARK SMILES IDX 12 1 14 2 13 3 15 4 16 5 2 6 1 7 3 8 11 10 9 11 10 12 5 13
REMARK SMILES IDX 6 14 7 15 8 16 4 17
REMARK H PARENT
REMARK Flexibility Score: 60.00
ROOT
ATOM      1  C   UNL     1       9.085  11.348  -6.931  1.00  0.00    -0.070 C 
ATOM      2  C   UNL     1       9.355  10.731  -5.750  1.00  0.00    -0.027 C 
ATOM      3  C   UNL     1       8.573  12.766  -6.867  1.00  0.00     0.039 C 
ENDROOT
BRANCH   2   4
ATOM      4  C   UNL     1       9.776   9.292  -5.572  1.00  0.00     0.032 C 
BRANCH   4   5
ATOM      5  C   UNL     1      11.139   9.140  -4.886  1.00  0.00     0.034 C 
BRANCH   5   6
ATOM      6  C   UNL     1      12.126  10.143  -5.452  1.00  0.00    -0.077 C 
ATOM      7  C   UNL     1      12.583  11.273  -4.565  1.00  0.00     0.039 C 
ATOM      8  C   UNL     1      12.679  10.032  -6.683  1.00  0.00    -0.023 CG0
ATOM      9  G   UNL     1      12.336   8.981  -7.712  1.00  0.00     0.000 G0
ENDBRANCH   5   6
ENDBRANCH   4   5
ENDBRANCH   2   4
BRANCH   1  10
ATOM     10  C   UNL     1       9.338  10.731  -8.303  1.00  0.00     0.111 C 
BRANCH  10  11
ATOM     11  C   UNL     1      10.777  10.800  -8.750  1.00  0.00     0.163 C 
ATOM     12  O   UNL     1      11.284  11.944  -8.911  1.00  0.00    -0.294 OA
BRANCH  11  13
ATOM     13  C   UNL     1      11.625   9.577  -8.945  1.00  0.00    -0.002 C 
ATOM     14  C   UNL     1      11.714   8.977 -10.174  1.00  0.00    -0.069 C 
ATOM     15  C   UNL     1      12.484   7.690 -10.376  1.00  0.00     0.039 C 
ATOM     16  C   UNL     1      11.093   9.594 -11.408  1.00  0.00     0.039 C 
BRANCH  13  17
ATOM     17  C   UNL     1      12.342   8.980  -7.737  1.00  0.00     0.066 CG0
ATOM     18  G   UNL     1      12.678  10.026  -6.700  1.00  0.00     0.000 G0
ENDBRANCH  13  17
ENDBRANCH  11  13
ENDBRANCH  10  11
ENDBRANCH   1  10
TORSDOF 0
ENDMDL
MODEL 9
REMARK VINA RESULT:    -2.511      9.626     10.624
REMARK INTER + INTRA:          -3.067
REMARK INTER:                  -3.257
REMARK INTRA:                   0.189
REMARK UNBOUND:                 0.471
REMARK SMILES CC1=CCC(=C(C)C)C(=O)CC(C)=CCC1
REMARK SMILES IDX 12 1 14 2 13 3 15 4 16 5 2 6 1 7 3 8 11 10 9 11 10 12 5 13
REMARK SMILES IDX 6 14 7 15 8 16 4 17
REMARK H PARENT
REMARK Flexibility Score: 60.00
ROOT
ATOM      1  C   UNL     1      10.478   9.419  -7.026  1.00  0.00    -0.070 C 
ATOM      2  C   UNL     1      10.109   9.650  -5.739  1.00  0.00    -0.027 C 
ATOM      3  C   UNL     1      11.734   8.612  -7.250  1.00  0.00     0.039 C 
ENDROOT
BRANCH   2   4
ATOM      4  C   UNL     1       8.954  10.509  -5.284  1.00  0.00     0.032 C 
BRANCH   4   5
ATOM      5  C   UNL     1       9.184  12.008  -5.520  1.00  0.00     0.034 C 
BRANCH   5   6
ATOM      6  C   UNL     1       7.979  12.620  -6.208  1.00  0.00    -0.077 C 
ATOM      7  C   UNL     1       6.651  12.578  -5.496  1.00  0.00     0.039 C 
ATOM      8  C   UNL     1       8.048  13.272  -7.393  1.00  0.00    -0.023 CG0
ATOM      9  G   UNL     1       9.281  13.404  -8.256  1.00  0.00     0.000 G0
ENDBRANCH   5   6
ENDBRANCH   4   5
ENDBRANCH   2   4
BRANCH   1  10
ATOM     10  C   UNL     1       9.669   9.850  -8.246  1.00  0.00     0.111 C 
BRANCH  10  11
ATOM     11  C   UNL     1      10.222  11.062  -8.951  1.00  0.00     0.163 C 
ATOM     12  O   UNL     1      11.430  11.025  -9.314  1.00  0.00    -0.294 OA
BRANCH  11  13
ATOM     13  C   UNL     1       9.383  12.261  -9.283  1.00  0.00    -0.002 C 
ATOM     14  C   UNL     1       8.763  12.365 -10.501  1.00  0.00    -0.069 C 
ATOM     15  C   UNL     1       7.991  13.606 -10.896  1.00  0.00     0.039 C 
ATOM     16  C   UNL     1       8.770  11.228 -11.498  1.00  0.00     0.039 C 
BRANCH  13  17
ATOM     17  C   UNL     1       9.279  13.390  -8.260  1.00  0.00     0.066 CG0
ATOM     18  G   UNL     1       8.038  13.272  -7.407  1.00  0.00     0.000 G0
ENDBRANCH  13  17
ENDBRANCH  11  13
ENDBRANCH  10  11
ENDBRANCH   1  10
TORSDOF 0
ENDMDL
