MODEL 1
REMARK VINA RESULT:    -5.221      0.000      0.000
REMARK INTER + INTRA:          -8.721
REMARK INTER:                  -7.357
REMARK INTRA:                  -1.364
REMARK UNBOUND:                -1.364
REMARK SMILES OCC1=C[C@H](O)[C@@H]2C=CO[C@@H](O[C@H]3O[C@H](CO)[C@@H](O)[C@H](O)[C@H]3O)[C@H]12
REMARK SMILES IDX 12 1 11 2 8 3 9 4 7 5 10 6 24 7 5 8 3 9 4 10 6 11 2 13 1 14
REMARK SMILES IDX 13 16 22 17 14 18 20 19 15 20 18 21 23 22 21 24 16 26 17 27
REMARK SMILES IDX 19 29
REMARK H PARENT 6 12 1 15 23 23 21 25 17 28 19 30
REMARK Flexibility Score: inf
ROOT
ATOM      1  O   UNL     1      22.478  -1.576  19.020  1.00  0.00    -0.310 OA
ENDROOT
BRANCH   1   2
ATOM      2  C   UNL     1      21.548  -2.580  18.635  1.00  0.00     0.316 C 
ATOM      3  C   UNL     1      20.067  -5.023  18.979  1.00  0.00     0.018 C 
ATOM      4  C   UNL     1      19.785  -3.948  19.713  1.00  0.00     0.186 C 
ATOM      5  C   UNL     1      21.284  -5.091  18.089  1.00  0.00     0.061 C 
ATOM      6  O   UNL     1      20.590  -2.810  19.671  1.00  0.00    -0.472 OA
ATOM      7  C   UNL     1      22.255  -3.889  18.188  1.00  0.00     0.096 C 
ATOM      8  C   UNL     1      20.948  -5.234  16.590  1.00  0.00     0.145 C 
ATOM      9  C   UNL     1      22.762  -3.771  16.780  1.00  0.00    -0.036 C 
ATOM     10  C   UNL     1      22.047  -4.487  15.923  1.00  0.00     0.007 C 
BRANCH   8  11
ATOM     11  O   UNL     1      19.719  -4.634  16.258  1.00  0.00    -0.388 OA
ATOM     12  H   UNL     1      19.012  -5.264  16.571  1.00  0.00     0.211 HD
ENDBRANCH   8  11
BRANCH   9  13
ATOM     13  C   UNL     1      23.901  -2.886  16.352  1.00  0.00     0.187 C 
BRANCH  13  14
ATOM     14  O   UNL     1      23.438  -1.586  16.098  1.00  0.00    -0.392 OA
ATOM     15  H   UNL     1      23.079  -1.587  15.172  1.00  0.00     0.211 HD
ENDBRANCH  13  14
ENDBRANCH   9  13
ENDBRANCH   1   2
BRANCH   1  16
ATOM     16  C   UNL     1      23.273  -1.957  20.143  1.00  0.00     0.286 C 
ATOM     17  C   UNL     1      23.185  -0.905  21.272  1.00  0.00     0.202 C 
ATOM     18  O   UNL     1      24.621  -2.168  19.746  1.00  0.00    -0.341 OA
ATOM     19  C   UNL     1      23.889   0.405  20.875  1.00  0.00     0.179 C 
ATOM     20  C   UNL     1      25.233  -0.979  19.267  1.00  0.00     0.178 C 
ATOM     21  C   UNL     1      25.310   0.087  20.384  1.00  0.00     0.177 C 
BRANCH  17  22
ATOM     22  O   UNL     1      21.852  -0.672  21.652  1.00  0.00    -0.385 OA
ATOM     23  H   UNL     1      21.265  -0.997  20.918  1.00  0.00     0.211 HD
ENDBRANCH  17  22
BRANCH  19  24
ATOM     24  O   UNL     1      23.943   1.260  21.990  1.00  0.00    -0.387 OA
ATOM     25  H   UNL     1      23.381   0.848  22.700  1.00  0.00     0.211 HD
ENDBRANCH  19  24
BRANCH  20  26
ATOM     26  C   UNL     1      26.638  -1.338  18.757  1.00  0.00     0.191 C 
BRANCH  26  27
ATOM     27  O   UNL     1      27.534  -1.443  19.833  1.00  0.00    -0.394 OA
ATOM     28  H   UNL     1      28.339  -1.910  19.482  1.00  0.00     0.210 HD
ENDBRANCH  26  27
ENDBRANCH  20  26
BRANCH  21  29
ATOM     29  O   UNL     1      25.905   1.267  19.899  1.00  0.00    -0.387 OA
ATOM     30  H   UNL     1      25.179   1.802  19.480  1.00  0.00     0.211 HD
ENDBRANCH  21  29
ENDBRANCH   1  16
TORSDOF 10
ENDMDL
MODEL 2
REMARK VINA RESULT:    -5.010      3.969      6.745
REMARK INTER + INTRA:          -8.425
REMARK INTER:                  -7.271
REMARK INTRA:                  -1.153
REMARK UNBOUND:                -1.364
REMARK SMILES OCC1=C[C@H](O)[C@@H]2C=CO[C@@H](O[C@H]3O[C@H](CO)[C@@H](O)[C@H](O)[C@H]3O)[C@H]12
REMARK SMILES IDX 12 1 11 2 8 3 9 4 7 5 10 6 24 7 5 8 3 9 4 10 6 11 2 13 1 14
REMARK SMILES IDX 13 16 22 17 14 18 20 19 15 20 18 21 23 22 21 24 16 26 17 27
REMARK SMILES IDX 19 29
REMARK H PARENT 6 12 1 15 23 23 21 25 17 28 19 30
REMARK Flexibility Score: inf
ROOT
ATOM      1  O   UNL     1      25.260   0.217  15.742  1.00  0.00    -0.310 OA
ENDROOT
BRANCH   1   2
ATOM      2  C   UNL     1      25.026  -0.790  16.719  1.00  0.00     0.316 C 
ATOM      3  C   UNL     1      23.514  -2.888  17.980  1.00  0.00     0.018 C 
ATOM      4  C   UNL     1      24.082  -3.080  16.791  1.00  0.00     0.186 C 
ATOM      5  C   UNL     1      23.455  -1.528  18.631  1.00  0.00     0.061 C 
ATOM      6  O   UNL     1      24.682  -2.031  16.097  1.00  0.00    -0.472 OA
ATOM      7  C   UNL     1      23.972  -0.349  17.771  1.00  0.00     0.096 C 
ATOM      8  C   UNL     1      24.232  -1.444  19.963  1.00  0.00     0.145 C 
ATOM      9  C   UNL     1      24.587   0.553  18.800  1.00  0.00    -0.036 C 
ATOM     10  C   UNL     1      24.735  -0.045  19.975  1.00  0.00     0.007 C 
BRANCH   8  11
ATOM     11  O   UNL     1      25.326  -2.326  19.999  1.00  0.00    -0.388 OA
ATOM     12  H   UNL     1      26.026  -1.875  20.547  1.00  0.00     0.211 HD
ENDBRANCH   8  11
BRANCH   9  13
ATOM     13  C   UNL     1      25.062   1.956  18.535  1.00  0.00     0.187 C 
BRANCH  13  14
ATOM     14  O   UNL     1      24.238   2.577  17.584  1.00  0.00    -0.392 OA
ATOM     15  H   UNL     1      24.700   2.493  16.709  1.00  0.00     0.211 HD
ENDBRANCH  13  14
ENDBRANCH   9  13
ENDBRANCH   1   2
BRANCH   1  16
ATOM     16  C   UNL     1      24.840  -0.170  14.434  1.00  0.00     0.286 C 
ATOM     17  C   UNL     1      26.054  -0.485  13.529  1.00  0.00     0.202 C 
ATOM     18  O   UNL     1      24.022   0.839  13.857  1.00  0.00    -0.341 OA
ATOM     19  C   UNL     1      26.849   0.789  13.192  1.00  0.00     0.179 C 
ATOM     20  C   UNL     1      24.729   2.054  13.657  1.00  0.00     0.178 C 
ATOM     21  C   UNL     1      25.886   1.856  12.649  1.00  0.00     0.177 C 
BRANCH  17  22
ATOM     22  O   UNL     1      26.881  -1.465  14.106  1.00  0.00    -0.385 OA
ATOM     23  H   UNL     1      27.747  -1.457  13.618  1.00  0.00     0.211 HD
ENDBRANCH  17  22
BRANCH  19  24
ATOM     24  O   UNL     1      27.826   0.485  12.227  1.00  0.00    -0.387 OA
ATOM     25  H   UNL     1      27.394   0.579  11.336  1.00  0.00     0.211 HD
ENDBRANCH  19  24
BRANCH  20  26
ATOM     26  C   UNL     1      23.733   3.106  13.143  1.00  0.00     0.191 C 
BRANCH  26  27
ATOM     27  O   UNL     1      23.656   3.061  11.742  1.00  0.00    -0.394 OA
ATOM     28  H   UNL     1      23.280   2.170  11.511  1.00  0.00     0.210 HD
ENDBRANCH  26  27
ENDBRANCH  20  26
BRANCH  21  29
ATOM     29  O   UNL     1      26.590   3.061  12.465  1.00  0.00    -0.387 OA
ATOM     30  H   UNL     1      27.081   2.977  11.605  1.00  0.00     0.211 HD
ENDBRANCH  21  29
ENDBRANCH   1  16
TORSDOF 10
ENDMDL
MODEL 3
REMARK VINA RESULT:    -4.959      1.922      6.316
REMARK INTER + INTRA:          -8.353
REMARK INTER:                  -7.603
REMARK INTRA:                  -0.750
REMARK UNBOUND:                -1.364
REMARK SMILES OCC1=C[C@H](O)[C@@H]2C=CO[C@@H](O[C@H]3O[C@H](CO)[C@@H](O)[C@H](O)[C@H]3O)[C@H]12
REMARK SMILES IDX 12 1 11 2 8 3 9 4 7 5 10 6 24 7 5 8 3 9 4 10 6 11 2 13 1 14
REMARK SMILES IDX 13 16 22 17 14 18 20 19 15 20 18 21 23 22 21 24 16 26 17 27
REMARK SMILES IDX 19 29
REMARK H PARENT 6 12 1 15 23 23 21 25 17 28 19 30
REMARK Flexibility Score: inf
ROOT
ATOM      1  O   UNL     1      22.722  -3.365  18.599  1.00  0.00    -0.310 OA
ENDROOT
BRANCH   1   2
ATOM      2  C   UNL     1      23.541  -2.285  18.168  1.00  0.00     0.316 C 
ATOM      3  C   UNL     1      26.002  -1.075  17.297  1.00  0.00     0.018 C 
ATOM      4  C   UNL     1      25.333  -1.905  16.499  1.00  0.00     0.186 C 
ATOM      5  C   UNL     1      25.630  -0.882  18.747  1.00  0.00     0.061 C 
ATOM      6  O   UNL     1      24.228  -2.620  16.959  1.00  0.00    -0.472 OA
ATOM      7  C   UNL     1      24.513  -1.809  19.283  1.00  0.00     0.096 C 
ATOM      8  C   UNL     1      25.177   0.555  19.084  1.00  0.00     0.145 C 
ATOM      9  C   UNL     1      23.806  -0.924  20.267  1.00  0.00    -0.036 C 
ATOM     10  C   UNL     1      24.159   0.349  20.148  1.00  0.00     0.007 C 
BRANCH   8  11
ATOM     11  O   UNL     1      24.572   1.195  17.988  1.00  0.00    -0.388 OA
ATOM     12  H   UNL     1      24.063   0.488  17.502  1.00  0.00     0.211 HD
ENDBRANCH   8  11
BRANCH   9  13
ATOM     13  C   UNL     1      22.755  -1.391  21.238  1.00  0.00     0.187 C 
BRANCH  13  14
ATOM     14  O   UNL     1      23.358  -1.936  22.382  1.00  0.00    -0.392 OA
ATOM     15  H   UNL     1      24.339  -1.900  22.232  1.00  0.00     0.211 HD
ENDBRANCH  13  14
ENDBRANCH   9  13
ENDBRANCH   1   2
BRANCH   1  16
ATOM     16  C   UNL     1      21.464  -3.411  17.924  1.00  0.00     0.286 C 
ATOM     17  C   UNL     1      20.402  -4.145  18.774  1.00  0.00     0.202 C 
ATOM     18  O   UNL     1      21.608  -4.021  16.649  1.00  0.00    -0.341 OA
ATOM     19  C   UNL     1      20.708  -5.650  18.878  1.00  0.00     0.179 C 
ATOM     20  C   UNL     1      22.008  -5.380  16.746  1.00  0.00     0.178 C 
ATOM     21  C   UNL     1      20.928  -6.219  17.468  1.00  0.00     0.177 C 
BRANCH  17  22
ATOM     22  O   UNL     1      20.273  -3.562  20.047  1.00  0.00    -0.385 OA
ATOM     23  H   UNL     1      20.467  -4.264  20.724  1.00  0.00     0.211 HD
ENDBRANCH  17  22
BRANCH  19  24
ATOM     24  O   UNL     1      19.627  -6.302  19.500  1.00  0.00    -0.387 OA
ATOM     25  H   UNL     1      18.921  -6.416  18.808  1.00  0.00     0.211 HD
ENDBRANCH  19  24
BRANCH  20  26
ATOM     26  C   UNL     1      22.247  -5.910  15.322  1.00  0.00     0.191 C 
BRANCH  26  27
ATOM     27  O   UNL     1      23.298  -6.840  15.319  1.00  0.00    -0.394 OA
ATOM     28  H   UNL     1      23.201  -7.375  16.152  1.00  0.00     0.210 HD
ENDBRANCH  26  27
ENDBRANCH  20  26
BRANCH  21  29
ATOM     29  O   UNL     1      21.335  -7.563  17.572  1.00  0.00    -0.387 OA
ATOM     30  H   UNL     1      20.624  -8.111  17.147  1.00  0.00     0.211 HD
ENDBRANCH  21  29
ENDBRANCH   1  16
TORSDOF 10
ENDMDL
MODEL 4
REMARK VINA RESULT:    -4.883      3.925      6.442
REMARK INTER + INTRA:          -8.245
REMARK INTER:                  -7.438
REMARK INTRA:                  -0.807
REMARK UNBOUND:                -1.364
REMARK SMILES OCC1=C[C@H](O)[C@@H]2C=CO[C@@H](O[C@H]3O[C@H](CO)[C@@H](O)[C@H](O)[C@H]3O)[C@H]12
REMARK SMILES IDX 12 1 11 2 8 3 9 4 7 5 10 6 24 7 5 8 3 9 4 10 6 11 2 13 1 14
REMARK SMILES IDX 13 16 22 17 14 18 20 19 15 20 18 21 23 22 21 24 16 26 17 27
REMARK SMILES IDX 19 29
REMARK H PARENT 6 12 1 15 23 23 21 25 17 28 19 30
REMARK Flexibility Score: inf
ROOT
ATOM      1  O   UNL     1      24.917  -0.694  15.656  1.00  0.00    -0.310 OA
ENDROOT
BRANCH   1   2
ATOM      2  C   UNL     1      25.789  -0.596  14.537  1.00  0.00     0.316 C 
ATOM      3  C   UNL     1      28.075   0.399  13.100  1.00  0.00     0.018 C 
ATOM      4  C   UNL     1      28.228  -0.431  14.130  1.00  0.00     0.186 C 
ATOM      5  C   UNL     1      26.741   1.018  12.760  1.00  0.00     0.061 C 
ATOM      6  O   UNL     1      27.148  -0.798  14.932  1.00  0.00    -0.472 OA
ATOM      7  C   UNL     1      25.595   0.736  13.761  1.00  0.00     0.096 C 
ATOM      8  C   UNL     1      26.199   0.599  11.376  1.00  0.00     0.145 C 
ATOM      9  C   UNL     1      24.395   0.663  12.862  1.00  0.00    -0.036 C 
ATOM     10  C   UNL     1      24.727   0.577  11.581  1.00  0.00     0.007 C 
BRANCH   8  11
ATOM     11  O   UNL     1      26.629  -0.687  11.002  1.00  0.00    -0.388 OA
ATOM     12  H   UNL     1      26.862  -1.158  11.850  1.00  0.00     0.211 HD
ENDBRANCH   8  11
BRANCH   9  13
ATOM     13  C   UNL     1      22.969   0.612  13.341  1.00  0.00     0.187 C 
BRANCH  13  14
ATOM     14  O   UNL     1      22.169   1.475  12.576  1.00  0.00    -0.392 OA
ATOM     15  H   UNL     1      22.398   1.306  11.624  1.00  0.00     0.211 HD
ENDBRANCH  13  14
ENDBRANCH   9  13
ENDBRANCH   1   2
BRANCH   1  16
ATOM     16  C   UNL     1      25.476  -1.450  16.731  1.00  0.00     0.286 C 
ATOM     17  C   UNL     1      24.463  -2.485  17.271  1.00  0.00     0.202 C 
ATOM     18  O   UNL     1      25.923  -0.585  17.765  1.00  0.00    -0.341 OA
ATOM     19  C   UNL     1      23.295  -1.798  18.002  1.00  0.00     0.179 C 
ATOM     20  C   UNL     1      24.854   0.138  18.359  1.00  0.00     0.178 C 
ATOM     21  C   UNL     1      23.857  -0.823  19.048  1.00  0.00     0.177 C 
BRANCH  17  22
ATOM     22  O   UNL     1      23.998  -3.329  16.247  1.00  0.00    -0.385 OA
ATOM     23  H   UNL     1      24.535  -4.165  16.275  1.00  0.00     0.211 HD
ENDBRANCH  17  22
BRANCH  19  24
ATOM     24  O   UNL     1      22.502  -2.775  18.630  1.00  0.00    -0.387 OA
ATOM     25  H   UNL     1      22.443  -3.547  18.005  1.00  0.00     0.211 HD
ENDBRANCH  19  24
BRANCH  20  26
ATOM     26  C   UNL     1      25.453   1.123  19.377  1.00  0.00     0.191 C 
BRANCH  26  27
ATOM     27  O   UNL     1      25.412   0.575  20.668  1.00  0.00    -0.394 OA
ATOM     28  H   UNL     1      25.227  -0.395  20.555  1.00  0.00     0.210 HD
ENDBRANCH  26  27
ENDBRANCH  20  26
BRANCH  21  29
ATOM     29  O   UNL     1      22.794  -0.102  19.623  1.00  0.00    -0.387 OA
ATOM     30  H   UNL     1      23.076   0.135  20.547  1.00  0.00     0.211 HD
ENDBRANCH  21  29
ENDBRANCH   1  16
TORSDOF 10
ENDMDL
MODEL 5
REMARK VINA RESULT:    -4.734      1.610      5.781
REMARK INTER + INTRA:          -8.036
REMARK INTER:                  -6.471
REMARK INTRA:                  -1.565
REMARK UNBOUND:                -1.364
REMARK SMILES OCC1=C[C@H](O)[C@@H]2C=CO[C@@H](O[C@H]3O[C@H](CO)[C@@H](O)[C@H](O)[C@H]3O)[C@H]12
REMARK SMILES IDX 12 1 11 2 8 3 9 4 7 5 10 6 24 7 5 8 3 9 4 10 6 11 2 13 1 14
REMARK SMILES IDX 13 16 22 17 14 18 20 19 15 20 18 21 23 22 21 24 16 26 17 27
REMARK SMILES IDX 19 29
REMARK H PARENT 6 12 1 15 23 23 21 25 17 28 19 30
REMARK Flexibility Score: inf
ROOT
ATOM      1  O   UNL     1      22.754  -2.967  19.393  1.00  0.00    -0.310 OA
ENDROOT
BRANCH   1   2
ATOM      2  C   UNL     1      23.255  -1.773  19.980  1.00  0.00     0.316 C 
ATOM      3  C   UNL     1      23.103   0.975  20.818  1.00  0.00     0.018 C 
ATOM      4  C   UNL     1      22.413   0.031  21.455  1.00  0.00     0.186 C 
ATOM      5  C   UNL     1      23.828   0.703  19.523  1.00  0.00     0.061 C 
ATOM      6  O   UNL     1      22.351  -1.274  20.969  1.00  0.00    -0.472 OA
ATOM      7  C   UNL     1      23.606  -0.701  18.911  1.00  0.00     0.096 C 
ATOM      8  C   UNL     1      25.359   0.878  19.621  1.00  0.00     0.145 C 
ATOM      9  C   UNL     1      24.937  -0.990  18.280  1.00  0.00    -0.036 C 
ATOM     10  C   UNL     1      25.879  -0.144  18.675  1.00  0.00     0.007 C 
BRANCH   8  11
ATOM     11  O   UNL     1      25.846   0.599  20.911  1.00  0.00    -0.388 OA
ATOM     12  H   UNL     1      25.141   0.057  21.361  1.00  0.00     0.211 HD
ENDBRANCH   8  11
BRANCH   9  13
ATOM     13  C   UNL     1      25.215  -2.148  17.361  1.00  0.00     0.187 C 
BRANCH  13  14
ATOM     14  O   UNL     1      24.357  -2.105  16.251  1.00  0.00    -0.392 OA
ATOM     15  H   UNL     1      23.988  -3.020  16.141  1.00  0.00     0.211 HD
ENDBRANCH  13  14
ENDBRANCH   9  13
ENDBRANCH   1   2
BRANCH   1  16
ATOM     16  C   UNL     1      21.605  -2.744  18.574  1.00  0.00     0.286 C 
ATOM     17  C   UNL     1      20.346  -3.394  19.190  1.00  0.00     0.202 C 
ATOM     18  O   UNL     1      21.836  -3.225  17.257  1.00  0.00    -0.341 OA
ATOM     19  C   UNL     1      20.422  -4.931  19.135  1.00  0.00     0.179 C 
ATOM     20  C   UNL     1      22.025  -4.632  17.224  1.00  0.00     0.178 C 
ATOM     21  C   UNL     1      20.751  -5.368  17.699  1.00  0.00     0.177 C 
BRANCH  17  22
ATOM     22  O   UNL     1      20.126  -2.942  20.503  1.00  0.00    -0.385 OA
ATOM     23  H   UNL     1      21.012  -2.856  20.947  1.00  0.00     0.211 HD
ENDBRANCH  17  22
BRANCH  19  24
ATOM     24  O   UNL     1      19.187  -5.472  19.534  1.00  0.00    -0.387 OA
ATOM     25  H   UNL     1      18.483  -5.014  19.000  1.00  0.00     0.211 HD
ENDBRANCH  19  24
BRANCH  20  26
ATOM     26  C   UNL     1      22.381  -5.032  15.783  1.00  0.00     0.191 C 
BRANCH  26  27
ATOM     27  O   UNL     1      23.100  -6.237  15.775  1.00  0.00    -0.394 OA
ATOM     28  H   UNL     1      22.713  -6.799  16.498  1.00  0.00     0.210 HD
ENDBRANCH  26  27
ENDBRANCH  20  26
BRANCH  21  29
ATOM     29  O   UNL     1      20.950  -6.762  17.676  1.00  0.00    -0.387 OA
ATOM     30  H   UNL     1      20.777  -7.060  16.744  1.00  0.00     0.211 HD
ENDBRANCH  21  29
ENDBRANCH   1  16
TORSDOF 10
ENDMDL
MODEL 6
REMARK VINA RESULT:    -4.702      1.120      2.654
REMARK INTER + INTRA:          -7.991
REMARK INTER:                  -6.830
REMARK INTRA:                  -1.161
REMARK UNBOUND:                -1.364
REMARK SMILES OCC1=C[C@H](O)[C@@H]2C=CO[C@@H](O[C@H]3O[C@H](CO)[C@@H](O)[C@H](O)[C@H]3O)[C@H]12
REMARK SMILES IDX 12 1 11 2 8 3 9 4 7 5 10 6 24 7 5 8 3 9 4 10 6 11 2 13 1 14
REMARK SMILES IDX 13 16 22 17 14 18 20 19 15 20 18 21 23 22 21 24 16 26 17 27
REMARK SMILES IDX 19 29
REMARK H PARENT 6 12 1 15 23 23 21 25 17 28 19 30
REMARK Flexibility Score: inf
ROOT
ATOM      1  O   UNL     1      22.313  -2.110  19.082  1.00  0.00    -0.310 OA
ENDROOT
BRANCH   1   2
ATOM      2  C   UNL     1      22.337  -3.304  18.310  1.00  0.00     0.316 C 
ATOM      3  C   UNL     1      22.004  -4.857  15.911  1.00  0.00     0.018 C 
ATOM      4  C   UNL     1      23.007  -3.989  16.025  1.00  0.00     0.186 C 
ATOM      5  C   UNL     1      20.887  -4.930  16.923  1.00  0.00     0.061 C 
ATOM      6  O   UNL     1      23.093  -3.119  17.112  1.00  0.00    -0.472 OA
ATOM      7  C   UNL     1      20.908  -3.844  18.026  1.00  0.00     0.096 C 
ATOM      8  C   UNL     1      20.814  -6.280  17.669  1.00  0.00     0.145 C 
ATOM      9  C   UNL     1      20.367  -4.583  19.215  1.00  0.00    -0.036 C 
ATOM     10  C   UNL     1      20.330  -5.895  19.021  1.00  0.00     0.007 C 
BRANCH   8  11
ATOM     11  O   UNL     1      22.074  -6.892  17.789  1.00  0.00    -0.388 OA
ATOM     12  H   UNL     1      22.321  -7.199  16.873  1.00  0.00     0.211 HD
ENDBRANCH   8  11
BRANCH   9  13
ATOM     13  C   UNL     1      19.978  -3.941  20.518  1.00  0.00     0.187 C 
BRANCH  13  14
ATOM     14  O   UNL     1      19.602  -2.605  20.309  1.00  0.00    -0.392 OA
ATOM     15  H   UNL     1      19.095  -2.322  21.114  1.00  0.00     0.211 HD
ENDBRANCH  13  14
ENDBRANCH   9  13
ENDBRANCH   1   2
BRANCH   1  16
ATOM     16  C   UNL     1      23.154  -2.177  20.234  1.00  0.00     0.286 C 
ATOM     17  C   UNL     1      22.888  -0.990  21.189  1.00  0.00     0.202 C 
ATOM     18  O   UNL     1      24.520  -2.225  19.848  1.00  0.00    -0.341 OA
ATOM     19  C   UNL     1      23.370   0.339  20.579  1.00  0.00     0.179 C 
ATOM     20  C   UNL     1      24.931  -1.043  19.178  1.00  0.00     0.178 C 
ATOM     21  C   UNL     1      24.826   0.183  20.115  1.00  0.00     0.177 C 
BRANCH  17  22
ATOM     22  O   UNL     1      21.532  -0.921  21.555  1.00  0.00    -0.385 OA
ATOM     23  H   UNL     1      21.100  -0.227  20.990  1.00  0.00     0.211 HD
ENDBRANCH  17  22
BRANCH  19  24
ATOM     24  O   UNL     1      23.277   1.355  21.548  1.00  0.00    -0.387 OA
ATOM     25  H   UNL     1      24.117   1.325  22.081  1.00  0.00     0.211 HD
ENDBRANCH  19  24
BRANCH  20  26
ATOM     26  C   UNL     1      26.379  -1.243  18.702  1.00  0.00     0.191 C 
BRANCH  26  27
ATOM     27  O   UNL     1      26.874  -2.476  19.154  1.00  0.00    -0.394 OA
ATOM     28  H   UNL     1      27.844  -2.342  19.329  1.00  0.00     0.210 HD
ENDBRANCH  26  27
ENDBRANCH  20  26
BRANCH  21  29
ATOM     29  O   UNL     1      25.223   1.354  19.442  1.00  0.00    -0.387 OA
ATOM     30  H   UNL     1      24.461   1.990  19.502  1.00  0.00     0.211 HD
ENDBRANCH  21  29
ENDBRANCH   1  16
TORSDOF 10
ENDMDL
MODEL 7
REMARK VINA RESULT:    -4.664      1.991      6.754
REMARK INTER + INTRA:          -7.937
REMARK INTER:                  -6.394
REMARK INTRA:                  -1.543
REMARK UNBOUND:                -1.364
REMARK SMILES OCC1=C[C@H](O)[C@@H]2C=CO[C@@H](O[C@H]3O[C@H](CO)[C@@H](O)[C@H](O)[C@H]3O)[C@H]12
REMARK SMILES IDX 12 1 11 2 8 3 9 4 7 5 10 6 24 7 5 8 3 9 4 10 6 11 2 13 1 14
REMARK SMILES IDX 13 16 22 17 14 18 20 19 15 20 18 21 23 22 21 24 16 26 17 27
REMARK SMILES IDX 19 29
REMARK H PARENT 6 12 1 15 23 23 21 25 17 28 19 30
REMARK Flexibility Score: inf
ROOT
ATOM      1  O   UNL     1      21.671  -3.171  17.229  1.00  0.00    -0.310 OA
ENDROOT
BRANCH   1   2
ATOM      2  C   UNL     1      22.798  -2.307  17.289  1.00  0.00     0.316 C 
ATOM      3  C   UNL     1      25.604  -1.704  17.491  1.00  0.00     0.018 C 
ATOM      4  C   UNL     1      25.104  -2.248  16.383  1.00  0.00     0.186 C 
ATOM      5  C   UNL     1      24.790  -1.563  18.754  1.00  0.00     0.061 C 
ATOM      6  O   UNL     1      23.783  -2.690  16.325  1.00  0.00    -0.472 OA
ATOM      7  C   UNL     1      23.386  -2.213  18.724  1.00  0.00     0.096 C 
ATOM      8  C   UNL     1      24.562  -0.098  19.183  1.00  0.00     0.145 C 
ATOM      9  C   UNL     1      22.580  -1.274  19.573  1.00  0.00    -0.036 C 
ATOM     10  C   UNL     1      23.213  -0.133  19.807  1.00  0.00     0.007 C 
BRANCH   8  11
ATOM     11  O   UNL     1      24.538   0.783  18.087  1.00  0.00    -0.388 OA
ATOM     12  H   UNL     1      23.628   1.190  18.080  1.00  0.00     0.211 HD
ENDBRANCH   8  11
BRANCH   9  13
ATOM     13  C   UNL     1      21.179  -1.542  20.052  1.00  0.00     0.187 C 
BRANCH  13  14
ATOM     14  O   UNL     1      21.153  -2.685  20.866  1.00  0.00    -0.392 OA
ATOM     15  H   UNL     1      20.366  -3.219  20.583  1.00  0.00     0.211 HD
ENDBRANCH  13  14
ENDBRANCH   9  13
ENDBRANCH   1   2
BRANCH   1  16
ATOM     16  C   UNL     1      21.906  -4.435  17.850  1.00  0.00     0.286 C 
ATOM     17  C   UNL     1      21.943  -5.572  16.803  1.00  0.00     0.202 C 
ATOM     18  O   UNL     1      20.924  -4.689  18.845  1.00  0.00    -0.341 OA
ATOM     19  C   UNL     1      20.550  -5.824  16.198  1.00  0.00     0.179 C 
ATOM     20  C   UNL     1      19.620  -4.802  18.296  1.00  0.00     0.178 C 
ATOM     21  C   UNL     1      19.532  -6.010  17.334  1.00  0.00     0.177 C 
BRANCH  17  22
ATOM     22  O   UNL     1      22.895  -5.315  15.801  1.00  0.00    -0.385 OA
ATOM     23  H   UNL     1      23.688  -4.900  16.234  1.00  0.00     0.211 HD
ENDBRANCH  17  22
BRANCH  19  24
ATOM     24  O   UNL     1      20.594  -6.977  15.395  1.00  0.00    -0.387 OA
ATOM     25  H   UNL     1      20.580  -6.672  14.448  1.00  0.00     0.211 HD
ENDBRANCH  19  24
BRANCH  20  26
ATOM     26  C   UNL     1      18.625  -4.958  19.458  1.00  0.00     0.191 C 
BRANCH  26  27
ATOM     27  O   UNL     1      18.447  -3.730  20.115  1.00  0.00    -0.394 OA
ATOM     28  H   UNL     1      17.485  -3.498  20.020  1.00  0.00     0.210 HD
ENDBRANCH  26  27
ENDBRANCH  20  26
BRANCH  21  29
ATOM     29  O   UNL     1      18.240  -6.109  16.783  1.00  0.00    -0.387 OA
ATOM     30  H   UNL     1      18.099  -7.066  16.554  1.00  0.00     0.211 HD
ENDBRANCH  21  29
ENDBRANCH   1  16
TORSDOF 10
ENDMDL
MODEL 8
REMARK VINA RESULT:    -4.533     13.393     16.083
REMARK INTER + INTRA:          -7.752
REMARK INTER:                  -6.816
REMARK INTRA:                  -0.937
REMARK UNBOUND:                -1.364
REMARK SMILES OCC1=C[C@H](O)[C@@H]2C=CO[C@@H](O[C@H]3O[C@H](CO)[C@@H](O)[C@H](O)[C@H]3O)[C@H]12
REMARK SMILES IDX 12 1 11 2 8 3 9 4 7 5 10 6 24 7 5 8 3 9 4 10 6 11 2 13 1 14
REMARK SMILES IDX 13 16 22 17 14 18 20 19 15 20 18 21 23 22 21 24 16 26 17 27
REMARK SMILES IDX 19 29
REMARK H PARENT 6 12 1 15 23 23 21 25 17 28 19 30
REMARK Flexibility Score: inf
ROOT
ATOM      1  O   UNL     1      32.175  -0.658   6.362  1.00  0.00    -0.310 OA
ENDROOT
BRANCH   1   2
ATOM      2  C   UNL     1      31.253  -0.616   5.280  1.00  0.00     0.316 C 
ATOM      3  C   UNL     1      30.068   0.518   2.916  1.00  0.00     0.018 C 
ATOM      4  C   UNL     1      31.285  -0.021   2.875  1.00  0.00     0.186 C 
ATOM      5  C   UNL     1      29.336   0.749   4.215  1.00  0.00     0.061 C 
ATOM      6  O   UNL     1      31.936  -0.432   4.038  1.00  0.00    -0.472 OA
ATOM      7  C   UNL     1      30.142   0.447   5.502  1.00  0.00     0.096 C 
ATOM      8  C   UNL     1      28.029  -0.062   4.342  1.00  0.00     0.145 C 
ATOM      9  C   UNL     1      29.081  -0.073   6.429  1.00  0.00    -0.036 C 
ATOM     10  C   UNL     1      27.950  -0.355   5.797  1.00  0.00     0.007 C 
BRANCH   8  11
ATOM     11  O   UNL     1      28.082  -1.275   3.631  1.00  0.00    -0.388 OA
ATOM     12  H   UNL     1      28.204  -1.990   4.315  1.00  0.00     0.211 HD
ENDBRANCH   8  11
BRANCH   9  13
ATOM     13  C   UNL     1      29.279  -0.325   7.900  1.00  0.00     0.187 C 
BRANCH  13  14
ATOM     14  O   UNL     1      28.059  -0.670   8.502  1.00  0.00    -0.392 OA
ATOM     15  H   UNL     1      28.278  -1.250   9.278  1.00  0.00     0.211 HD
ENDBRANCH  13  14
ENDBRANCH   9  13
ENDBRANCH   1   2
BRANCH   1  16
ATOM     16  C   UNL     1      33.517  -0.386   5.959  1.00  0.00     0.286 C 
ATOM     17  C   UNL     1      34.397  -1.653   6.056  1.00  0.00     0.202 C 
ATOM     18  O   UNL     1      34.061   0.674   6.733  1.00  0.00    -0.341 OA
ATOM     19  C   UNL     1      34.633  -2.061   7.521  1.00  0.00     0.179 C 
ATOM     20  C   UNL     1      34.166   0.336   8.108  1.00  0.00     0.178 C 
ATOM     21  C   UNL     1      35.145  -0.845   8.309  1.00  0.00     0.177 C 
BRANCH  17  22
ATOM     22  O   UNL     1      33.851  -2.714   5.313  1.00  0.00    -0.385 OA
ATOM     23  H   UNL     1      33.912  -2.473   4.350  1.00  0.00     0.211 HD
ENDBRANCH  17  22
BRANCH  19  24
ATOM     24  O   UNL     1      35.581  -3.100   7.567  1.00  0.00    -0.387 OA
ATOM     25  H   UNL     1      35.204  -3.811   8.152  1.00  0.00     0.211 HD
ENDBRANCH  19  24
BRANCH  20  26
ATOM     26  C   UNL     1      34.651   1.580   8.870  1.00  0.00     0.191 C 
BRANCH  26  27
ATOM     27  O   UNL     1      34.308   1.485  10.228  1.00  0.00    -0.394 OA
ATOM     28  H   UNL     1      33.320   1.583  10.274  1.00  0.00     0.210 HD
ENDBRANCH  26  27
ENDBRANCH  20  26
BRANCH  21  29
ATOM     29  O   UNL     1      35.235  -1.184   9.672  1.00  0.00    -0.387 OA
ATOM     30  H   UNL     1      36.202  -1.282   9.879  1.00  0.00     0.211 HD
ENDBRANCH  21  29
ENDBRANCH   1  16
TORSDOF 10
ENDMDL
