MODEL 1
REMARK VINA RESULT:    -5.607      0.000      0.000
REMARK INTER + INTRA:          -7.820
REMARK INTER:                  -7.573
REMARK INTRA:                  -0.247
REMARK UNBOUND:                -0.247
REMARK SMILES CCCCCCC=CC(=O)[O-]
REMARK SMILES IDX 5 1 6 2 7 3 8 4 9 5 10 6 11 7 4 8 3 9 2 10 1 11
REMARK H PARENT
REMARK Flexibility Score: inf
ROOT
ATOM      1  C   UNL     1     152.853 155.377 159.422  1.00  0.00     0.004 C 
ENDROOT
BRANCH   1   2
ATOM      2  C   UNL     1     152.612 156.869 159.126  1.00  0.00     0.027 C 
BRANCH   2   3
ATOM      3  C   UNL     1     151.824 157.087 157.861  1.00  0.00    -0.025 C 
ATOM      4  C   UNL     1     150.568 157.556 157.817  1.00  0.00     0.020 C 
BRANCH   4   5
ATOM      5  C   UNL     1     149.738 157.926 158.982  1.00  0.00     0.064 C 
ATOM      6  O   UNL     1     149.177 159.053 158.997  1.00  0.00    -0.545 OA
ATOM      7  O   UNL     1     149.546 157.068 160.057  1.00  0.00    -0.545 OA
ENDBRANCH   4   5
ENDBRANCH   2   3
ENDBRANCH   1   2
BRANCH   1   8
ATOM      8  C   UNL     1     152.399 154.921 160.825  1.00  0.00     0.000 C 
BRANCH   8   9
ATOM      9  C   UNL     1     153.460 154.161 161.647  1.00  0.00    -0.000 C 
BRANCH   9  10
ATOM     10  C   UNL     1     154.855 154.095 161.004  1.00  0.00    -0.003 C 
ATOM     11  C   UNL     1     155.984 154.070 162.035  1.00  0.00     0.004 C 
ENDBRANCH   9  10
ENDBRANCH   8   9
ENDBRANCH   1   8
TORSDOF 6
ENDMDL
MODEL 2
REMARK VINA RESULT:    -5.456      3.298      5.939
REMARK INTER + INTRA:          -7.616
REMARK INTER:                  -7.394
REMARK INTRA:                  -0.223
REMARK UNBOUND:                -0.247
REMARK SMILES CCCCCCC=CC(=O)[O-]
REMARK SMILES IDX 5 1 6 2 7 3 8 4 9 5 10 6 11 7 4 8 3 9 2 10 1 11
REMARK H PARENT
REMARK Flexibility Score: inf
ROOT
ATOM      1  C   UNL     1     152.858 155.573 158.187  1.00  0.00     0.004 C 
ENDROOT
BRANCH   1   2
ATOM      2  C   UNL     1     152.968 155.632 159.721  1.00  0.00     0.027 C 
BRANCH   2   3
ATOM      3  C   UNL     1     152.624 154.319 160.376  1.00  0.00    -0.025 C 
ATOM      4  C   UNL     1     153.374 153.713 161.308  1.00  0.00     0.020 C 
BRANCH   4   5
ATOM      5  C   UNL     1     154.659 154.206 161.845  1.00  0.00     0.064 C 
ATOM      6  O   UNL     1     154.746 154.469 163.073  1.00  0.00    -0.545 OA
ATOM      7  O   UNL     1     155.779 154.381 161.042  1.00  0.00    -0.545 OA
ENDBRANCH   4   5
ENDBRANCH   2   3
ENDBRANCH   1   2
BRANCH   1   8
ATOM      8  C   UNL     1     152.015 156.704 157.562  1.00  0.00     0.000 C 
BRANCH   8   9
ATOM      9  C   UNL     1     151.085 157.451 158.538  1.00  0.00    -0.000 C 
BRANCH   9  10
ATOM     10  C   UNL     1     149.915 158.200 157.877  1.00  0.00    -0.003 C 
ATOM     11  C   UNL     1     149.025 158.923 158.887  1.00  0.00     0.004 C 
ENDBRANCH   9  10
ENDBRANCH   8   9
ENDBRANCH   1   8
TORSDOF 6
ENDMDL
MODEL 3
REMARK VINA RESULT:    -5.446      3.267      5.309
REMARK INTER + INTRA:          -7.603
REMARK INTER:                  -7.106
REMARK INTRA:                  -0.498
REMARK UNBOUND:                -0.247
REMARK SMILES CCCCCCC=CC(=O)[O-]
REMARK SMILES IDX 5 1 6 2 7 3 8 4 9 5 10 6 11 7 4 8 3 9 2 10 1 11
REMARK H PARENT
REMARK Flexibility Score: inf
ROOT
ATOM      1  C   UNL     1     150.787 156.599 160.337  1.00  0.00     0.004 C 
ENDROOT
BRANCH   1   2
ATOM      2  C   UNL     1     152.083 155.951 160.859  1.00  0.00     0.027 C 
BRANCH   2   3
ATOM      3  C   UNL     1     152.225 154.515 160.427  1.00  0.00    -0.025 C 
ATOM      4  C   UNL     1     153.267 153.727 160.732  1.00  0.00     0.020 C 
BRANCH   4   5
ATOM      5  C   UNL     1     154.451 154.121 161.523  1.00  0.00     0.064 C 
ATOM      6  O   UNL     1     155.536 154.350 160.926  1.00  0.00    -0.545 OA
ATOM      7  O   UNL     1     154.406 154.259 162.905  1.00  0.00    -0.545 OA
ENDBRANCH   4   5
ENDBRANCH   2   3
ENDBRANCH   1   2
BRANCH   1   8
ATOM      8  C   UNL     1     151.000 157.658 159.235  1.00  0.00     0.000 C 
BRANCH   8   9
ATOM      9  C   UNL     1     151.137 157.103 157.803  1.00  0.00    -0.000 C 
BRANCH   9  10
ATOM     10  C   UNL     1     152.521 156.527 157.460  1.00  0.00    -0.003 C 
ATOM     11  C   UNL     1     152.442 155.180 156.741  1.00  0.00     0.004 C 
ENDBRANCH   9  10
ENDBRANCH   8   9
ENDBRANCH   1   8
TORSDOF 6
ENDMDL
MODEL 4
REMARK VINA RESULT:    -5.327      1.206      1.542
REMARK INTER + INTRA:          -7.442
REMARK INTER:                  -7.343
REMARK INTRA:                  -0.099
REMARK UNBOUND:                -0.247
REMARK SMILES CCCCCCC=CC(=O)[O-]
REMARK SMILES IDX 5 1 6 2 7 3 8 4 9 5 10 6 11 7 4 8 3 9 2 10 1 11
REMARK H PARENT
REMARK Flexibility Score: inf
ROOT
ATOM      1  C   UNL     1     152.998 155.645 159.289  1.00  0.00     0.004 C 
ENDROOT
BRANCH   1   2
ATOM      2  C   UNL     1     152.267 156.926 159.732  1.00  0.00     0.027 C 
BRANCH   2   3
ATOM      3  C   UNL     1     150.910 156.642 160.323  1.00  0.00    -0.025 C 
ATOM      4  C   UNL     1     149.761 157.173 159.881  1.00  0.00     0.020 C 
BRANCH   4   5
ATOM      5  C   UNL     1     149.618 158.126 158.762  1.00  0.00     0.064 C 
ATOM      6  O   UNL     1     150.306 157.954 157.722  1.00  0.00    -0.545 OA
ATOM      7  O   UNL     1     148.740 159.202 158.813  1.00  0.00    -0.545 OA
ENDBRANCH   4   5
ENDBRANCH   2   3
ENDBRANCH   1   2
BRANCH   1   8
ATOM      8  C   UNL     1     152.510 154.357 159.983  1.00  0.00     0.000 C 
BRANCH   8   9
ATOM      9  C   UNL     1     153.585 153.585 160.774  1.00  0.00    -0.000 C 
BRANCH   9  10
ATOM     10  C   UNL     1     154.933 154.310 160.915  1.00  0.00    -0.003 C 
ATOM     11  C   UNL     1     155.569 154.122 162.293  1.00  0.00     0.004 C 
ENDBRANCH   9  10
ENDBRANCH   8   9
ENDBRANCH   1   8
TORSDOF 6
ENDMDL
MODEL 5
REMARK VINA RESULT:    -4.937     14.932     16.489
REMARK INTER + INTRA:          -6.916
REMARK INTER:                  -6.505
REMARK INTRA:                  -0.411
REMARK UNBOUND:                -0.247
REMARK SMILES CCCCCCC=CC(=O)[O-]
REMARK SMILES IDX 5 1 6 2 7 3 8 4 9 5 10 6 11 7 4 8 3 9 2 10 1 11
REMARK H PARENT
REMARK Flexibility Score: inf
ROOT
ATOM      1  C   UNL     1     150.876 169.495 151.238  1.00  0.00     0.004 C 
ENDROOT
BRANCH   1   2
ATOM      2  C   UNL     1     151.768 169.064 152.417  1.00  0.00     0.027 C 
BRANCH   2   3
ATOM      3  C   UNL     1     152.892 170.034 152.675  1.00  0.00    -0.025 C 
ATOM      4  C   UNL     1     154.189 169.772 152.458  1.00  0.00     0.020 C 
BRANCH   4   5
ATOM      5  C   UNL     1     154.745 168.503 151.945  1.00  0.00     0.064 C 
ATOM      6  O   UNL     1     155.283 167.702 152.753  1.00  0.00    -0.545 OA
ATOM      7  O   UNL     1     154.683 168.158 150.600  1.00  0.00    -0.545 OA
ENDBRANCH   4   5
ENDBRANCH   2   3
ENDBRANCH   1   2
BRANCH   1   8
ATOM      8  C   UNL     1     150.984 168.592 149.991  1.00  0.00     0.000 C 
BRANCH   8   9
ATOM      9  C   UNL     1     149.859 168.767 148.950  1.00  0.00    -0.000 C 
BRANCH   9  10
ATOM     10  C   UNL     1     148.748 169.750 149.354  1.00  0.00    -0.003 C 
ATOM     11  C   UNL     1     147.420 169.055 149.656  1.00  0.00     0.004 C 
ENDBRANCH   9  10
ENDBRANCH   8   9
ENDBRANCH   1   8
TORSDOF 6
ENDMDL
MODEL 6
REMARK VINA RESULT:    -4.869     15.786     16.839
REMARK INTER + INTRA:          -6.824
REMARK INTER:                  -6.311
REMARK INTRA:                  -0.513
REMARK UNBOUND:                -0.247
REMARK SMILES CCCCCCC=CC(=O)[O-]
REMARK SMILES IDX 5 1 6 2 7 3 8 4 9 5 10 6 11 7 4 8 3 9 2 10 1 11
REMARK H PARENT
REMARK Flexibility Score: inf
ROOT
ATOM      1  C   UNL     1     148.750 171.623 151.051  1.00  0.00     0.004 C 
ENDROOT
BRANCH   1   2
ATOM      2  C   UNL     1     148.388 170.173 150.679  1.00  0.00     0.027 C 
BRANCH   2   3
ATOM      3  C   UNL     1     148.677 169.858 149.234  1.00  0.00    -0.025 C 
ATOM      4  C   UNL     1     149.551 168.930 148.817  1.00  0.00     0.020 C 
BRANCH   4   5
ATOM      5  C   UNL     1     150.385 168.071 149.682  1.00  0.00     0.064 C 
ATOM      6  O   UNL     1     149.871 167.047 150.202  1.00  0.00    -0.545 OA
ATOM      7  O   UNL     1     151.723 168.350 149.933  1.00  0.00    -0.545 OA
ENDBRANCH   4   5
ENDBRANCH   2   3
ENDBRANCH   1   2
BRANCH   1   8
ATOM      8  C   UNL     1     149.787 171.752 152.186  1.00  0.00     0.000 C 
BRANCH   8   9
ATOM      9  C   UNL     1     150.561 170.462 152.525  1.00  0.00    -0.000 C 
BRANCH   9  10
ATOM     10  C   UNL     1     152.019 170.676 152.964  1.00  0.00    -0.003 C 
ATOM     11  C   UNL     1     152.247 172.034 153.627  1.00  0.00     0.004 C 
ENDBRANCH   9  10
ENDBRANCH   8   9
ENDBRANCH   1   8
TORSDOF 6
ENDMDL
MODEL 7
REMARK VINA RESULT:    -4.810     15.273     16.888
REMARK INTER + INTRA:          -6.743
REMARK INTER:                  -6.247
REMARK INTRA:                  -0.496
REMARK UNBOUND:                -0.247
REMARK SMILES CCCCCCC=CC(=O)[O-]
REMARK SMILES IDX 5 1 6 2 7 3 8 4 9 5 10 6 11 7 4 8 3 9 2 10 1 11
REMARK H PARENT
REMARK Flexibility Score: inf
ROOT
ATOM      1  C   UNL     1     151.195 171.754 153.068  1.00  0.00     0.004 C 
ENDROOT
BRANCH   1   2
ATOM      2  C   UNL     1     152.512 170.982 153.270  1.00  0.00     0.027 C 
BRANCH   2   3
ATOM      3  C   UNL     1     152.533 169.672 152.526  1.00  0.00    -0.025 C 
ATOM      4  C   UNL     1     153.647 168.998 152.203  1.00  0.00     0.020 C 
BRANCH   4   5
ATOM      5  C   UNL     1     155.032 169.414 152.503  1.00  0.00     0.064 C 
ATOM      6  O   UNL     1     155.564 170.314 151.802  1.00  0.00    -0.545 OA
ATOM      7  O   UNL     1     155.766 168.854 153.542  1.00  0.00    -0.545 OA
ENDBRANCH   4   5
ENDBRANCH   2   3
ENDBRANCH   1   2
BRANCH   1   8
ATOM      8  C   UNL     1     150.012 170.888 152.588  1.00  0.00     0.000 C 
BRANCH   8   9
ATOM      9  C   UNL     1     149.125 171.526 151.500  1.00  0.00    -0.000 C 
BRANCH   9  10
ATOM     10  C   UNL     1     148.738 170.587 150.345  1.00  0.00    -0.003 C 
ATOM     11  C   UNL     1     149.742 169.452 150.140  1.00  0.00     0.004 C 
ENDBRANCH   9  10
ENDBRANCH   8   9
ENDBRANCH   1   8
TORSDOF 6
ENDMDL
MODEL 8
REMARK VINA RESULT:    -4.712     15.275     16.311
REMARK INTER + INTRA:          -6.612
REMARK INTER:                  -5.880
REMARK INTRA:                  -0.731
REMARK UNBOUND:                -0.247
REMARK SMILES CCCCCCC=CC(=O)[O-]
REMARK SMILES IDX 5 1 6 2 7 3 8 4 9 5 10 6 11 7 4 8 3 9 2 10 1 11
REMARK H PARENT
REMARK Flexibility Score: inf
ROOT
ATOM      1  C   UNL     1     150.962 168.813 150.449  1.00  0.00     0.004 C 
ENDROOT
BRANCH   1   2
ATOM      2  C   UNL     1     149.483 169.019 150.076  1.00  0.00     0.027 C 
BRANCH   2   3
ATOM      3  C   UNL     1     149.064 170.464 150.148  1.00  0.00    -0.025 C 
ATOM      4  C   UNL     1     148.325 170.995 151.132  1.00  0.00     0.020 C 
BRANCH   4   5
ATOM      5  C   UNL     1     147.784 170.271 152.301  1.00  0.00     0.064 C 
ATOM      6  O   UNL     1     146.712 169.624 152.176  1.00  0.00    -0.545 OA
ATOM      7  O   UNL     1     148.428 170.268 153.533  1.00  0.00    -0.545 OA
ENDBRANCH   4   5
ENDBRANCH   2   3
ENDBRANCH   1   2
BRANCH   1   8
ATOM      8  C   UNL     1     151.256 168.876 151.962  1.00  0.00     0.000 C 
BRANCH   8   9
ATOM      9  C   UNL     1     152.495 169.704 152.360  1.00  0.00    -0.000 C 
BRANCH   9  10
ATOM     10  C   UNL     1     152.262 170.715 153.496  1.00  0.00    -0.003 C 
ATOM     11  C   UNL     1     151.458 171.936 153.051  1.00  0.00     0.004 C 
ENDBRANCH   9  10
ENDBRANCH   8   9
ENDBRANCH   1   8
TORSDOF 6
ENDMDL
MODEL 9
REMARK VINA RESULT:    -4.661     15.410     16.818
REMARK INTER + INTRA:          -6.542
REMARK INTER:                  -5.781
REMARK INTRA:                  -0.761
REMARK UNBOUND:                -0.247
REMARK SMILES CCCCCCC=CC(=O)[O-]
REMARK SMILES IDX 5 1 6 2 7 3 8 4 9 5 10 6 11 7 4 8 3 9 2 10 1 11
REMARK H PARENT
REMARK Flexibility Score: inf
ROOT
ATOM      1  C   UNL     1     150.502 168.300 150.124  1.00  0.00     0.004 C 
ENDROOT
BRANCH   1   2
ATOM      2  C   UNL     1     151.341 169.127 151.114  1.00  0.00     0.027 C 
BRANCH   2   3
ATOM      3  C   UNL     1     150.895 168.947 152.542  1.00  0.00    -0.025 C 
ATOM      4  C   UNL     1     150.849 169.929 153.455  1.00  0.00     0.020 C 
BRANCH   4   5
ATOM      5  C   UNL     1     151.232 171.338 153.235  1.00  0.00     0.064 C 
ATOM      6  O   UNL     1     150.394 172.125 152.721  1.00  0.00    -0.545 OA
ATOM      7  O   UNL     1     152.483 171.830 153.588  1.00  0.00    -0.545 OA
ENDBRANCH   4   5
ENDBRANCH   2   3
ENDBRANCH   1   2
BRANCH   1   8
ATOM      8  C   UNL     1     149.537 169.130 149.252  1.00  0.00     0.000 C 
BRANCH   8   9
ATOM      9  C   UNL     1     148.726 170.205 150.005  1.00  0.00    -0.000 C 
BRANCH   9  10
ATOM     10  C   UNL     1     147.592 169.662 150.890  1.00  0.00    -0.003 C 
ATOM     11  C   UNL     1     147.363 170.503 152.146  1.00  0.00     0.004 C 
ENDBRANCH   9  10
ENDBRANCH   8   9
ENDBRANCH   1   8
TORSDOF 6
ENDMDL
