MODEL 1
REMARK VINA RESULT:    -3.682      0.000      0.000
REMARK INTER + INTRA:          -8.540
REMARK INTER:                  -6.695
REMARK INTRA:                  -1.846
REMARK UNBOUND:                -1.846
REMARK SMILES CCCCCCCCCCCCCCCC(=O)[O-]
REMARK SMILES IDX 9 1 10 2 11 3 12 4 13 5 14 6 15 7 16 8 17 9 18 10 8 11 7 12
REMARK SMILES IDX 6 13 5 14 4 15 3 16 2 17 1 18
REMARK H PARENT
REMARK Flexibility Score: inf
ROOT
ATOM      1  C   UNL     1     -31.742   6.845  -0.223  1.00  0.00     0.000 C 
ENDROOT
BRANCH   1   2
ATOM      2  C   UNL     1     -31.787   5.315  -0.096  1.00  0.00     0.000 C 
BRANCH   2   3
ATOM      3  C   UNL     1     -32.749   4.706  -1.122  1.00  0.00     0.000 C 
BRANCH   3   4
ATOM      4  C   UNL     1     -34.176   4.631  -0.565  1.00  0.00     0.000 C 
BRANCH   4   5
ATOM      5  C   UNL     1     -35.212   4.755  -1.692  1.00  0.00     0.000 C 
BRANCH   5   6
ATOM      6  C   UNL     1     -36.102   6.004  -1.548  1.00  0.00     0.006 C 
BRANCH   6   7
ATOM      7  C   UNL     1     -35.392   7.328  -1.876  1.00  0.00     0.053 C 
BRANCH   7   8
ATOM      8  C   UNL     1     -35.759   7.841  -3.233  1.00  0.00     0.041 C 
ATOM      9  O   UNL     1     -36.096   9.044  -3.386  1.00  0.00    -0.550 OA
ATOM     10  O   UNL     1     -35.694   7.000  -4.337  1.00  0.00    -0.550 OA
ENDBRANCH   7   8
ENDBRANCH   6   7
ENDBRANCH   5   6
ENDBRANCH   4   5
ENDBRANCH   3   4
ENDBRANCH   2   3
ENDBRANCH   1   2
BRANCH   1  11
ATOM     11  C   UNL     1     -31.712   7.319  -1.685  1.00  0.00     0.000 C 
BRANCH  11  12
ATOM     12  C   UNL     1     -30.636   8.390  -1.938  1.00  0.00    -0.000 C 
BRANCH  12  13
ATOM     13  C   UNL     1     -29.219   7.889  -1.614  1.00  0.00    -0.000 C 
BRANCH  13  14
ATOM     14  C   UNL     1     -28.404   7.571  -2.879  1.00  0.00    -0.000 C 
BRANCH  14  15
ATOM     15  C   UNL     1     -27.823   6.145  -2.872  1.00  0.00    -0.000 C 
BRANCH  15  16
ATOM     16  C   UNL     1     -28.790   5.045  -2.391  1.00  0.00    -0.000 C 
BRANCH  16  17
ATOM     17  C   UNL     1     -28.213   4.090  -1.332  1.00  0.00    -0.003 C 
ATOM     18  C   UNL     1     -27.603   4.823  -0.138  1.00  0.00     0.004 C 
ENDBRANCH  16  17
ENDBRANCH  15  16
ENDBRANCH  14  15
ENDBRANCH  13  14
ENDBRANCH  12  13
ENDBRANCH  11  12
ENDBRANCH   1  11
TORSDOF 14
ENDMDL
MODEL 2
REMARK VINA RESULT:    -3.656      2.752      6.820
REMARK INTER + INTRA:          -8.494
REMARK INTER:                  -6.442
REMARK INTRA:                  -2.052
REMARK UNBOUND:                -1.846
REMARK SMILES CCCCCCCCCCCCCCCC(=O)[O-]
REMARK SMILES IDX 9 1 10 2 11 3 12 4 13 5 14 6 15 7 16 8 17 9 18 10 8 11 7 12
REMARK SMILES IDX 6 13 5 14 4 15 3 16 2 17 1 18
REMARK H PARENT
REMARK Flexibility Score: inf
ROOT
ATOM      1  C   UNL     1     -32.081   7.933  -2.127  1.00  0.00     0.000 C 
ENDROOT
BRANCH   1   2
ATOM      2  C   UNL     1     -30.835   8.771  -2.446  1.00  0.00     0.000 C 
BRANCH   2   3
ATOM      3  C   UNL     1     -29.692   7.885  -2.954  1.00  0.00     0.000 C 
BRANCH   3   4
ATOM      4  C   UNL     1     -28.684   7.588  -1.836  1.00  0.00     0.000 C 
BRANCH   4   5
ATOM      5  C   UNL     1     -28.943   6.206  -1.218  1.00  0.00     0.000 C 
BRANCH   5   6
ATOM      6  C   UNL     1     -27.926   5.146  -1.681  1.00  0.00     0.006 C 
BRANCH   6   7
ATOM      7  C   UNL     1     -28.555   3.808  -2.101  1.00  0.00     0.053 C 
BRANCH   7   8
ATOM      8  C   UNL     1     -28.755   3.720  -3.582  1.00  0.00     0.041 C 
ATOM      9  O   UNL     1     -28.104   2.882  -4.260  1.00  0.00    -0.550 OA
ATOM     10  O   UNL     1     -29.686   4.538  -4.208  1.00  0.00    -0.550 OA
ENDBRANCH   7   8
ENDBRANCH   6   7
ENDBRANCH   5   6
ENDBRANCH   4   5
ENDBRANCH   3   4
ENDBRANCH   2   3
ENDBRANCH   1   2
BRANCH   1  11
ATOM     11  C   UNL     1     -32.209   6.691  -3.025  1.00  0.00     0.000 C 
BRANCH  11  12
ATOM     12  C   UNL     1     -32.511   5.412  -2.227  1.00  0.00    -0.000 C 
BRANCH  12  13
ATOM     13  C   UNL     1     -33.366   5.685  -0.977  1.00  0.00    -0.000 C 
BRANCH  13  14
ATOM     14  C   UNL     1     -34.671   4.872  -0.968  1.00  0.00    -0.000 C 
BRANCH  14  15
ATOM     15  C   UNL     1     -35.911   5.730  -1.280  1.00  0.00    -0.000 C 
BRANCH  15  16
ATOM     16  C   UNL     1     -35.654   7.248  -1.365  1.00  0.00    -0.000 C 
BRANCH  16  17
ATOM     17  C   UNL     1     -35.888   7.871  -2.752  1.00  0.00    -0.003 C 
ATOM     18  C   UNL     1     -35.928   6.832  -3.873  1.00  0.00     0.004 C 
ENDBRANCH  16  17
ENDBRANCH  15  16
ENDBRANCH  14  15
ENDBRANCH  13  14
ENDBRANCH  12  13
ENDBRANCH  11  12
ENDBRANCH   1  11
TORSDOF 14
ENDMDL
MODEL 3
REMARK VINA RESULT:    -3.642      3.499      5.146
REMARK INTER + INTRA:          -8.468
REMARK INTER:                  -6.126
REMARK INTRA:                  -2.342
REMARK UNBOUND:                -1.846
REMARK SMILES CCCCCCCCCCCCCCCC(=O)[O-]
REMARK SMILES IDX 9 1 10 2 11 3 12 4 13 5 14 6 15 7 16 8 17 9 18 10 8 11 7 12
REMARK SMILES IDX 6 13 5 14 4 15 3 16 2 17 1 18
REMARK H PARENT
REMARK Flexibility Score: inf
ROOT
ATOM      1  C   UNL     1     -35.841   7.571  -1.653  1.00  0.00     0.000 C 
ENDROOT
BRANCH   1   2
ATOM      2  C   UNL     1     -36.371   6.143  -1.458  1.00  0.00     0.000 C 
BRANCH   2   3
ATOM      3  C   UNL     1     -36.638   5.467  -2.809  1.00  0.00     0.000 C 
BRANCH   3   4
ATOM      4  C   UNL     1     -35.546   4.443  -3.140  1.00  0.00     0.000 C 
BRANCH   4   5
ATOM      5  C   UNL     1     -35.186   4.488  -4.632  1.00  0.00     0.000 C 
BRANCH   5   6
ATOM      6  C   UNL     1     -34.246   3.343  -5.053  1.00  0.00     0.006 C 
BRANCH   6   7
ATOM      7  C   UNL     1     -34.919   2.252  -5.902  1.00  0.00     0.053 C 
BRANCH   7   8
ATOM      8  C   UNL     1     -35.120   0.984  -5.132  1.00  0.00     0.041 C 
ATOM      9  O   UNL     1     -35.732   1.001  -4.032  1.00  0.00    -0.550 OA
ATOM     10  O   UNL     1     -34.662  -0.223  -5.646  1.00  0.00    -0.550 OA
ENDBRANCH   7   8
ENDBRANCH   6   7
ENDBRANCH   5   6
ENDBRANCH   4   5
ENDBRANCH   3   4
ENDBRANCH   2   3
ENDBRANCH   1   2
BRANCH   1  11
ATOM     11  C   UNL     1     -35.940   8.049  -3.110  1.00  0.00     0.000 C 
BRANCH  11  12
ATOM     12  C   UNL     1     -34.687   8.814  -3.569  1.00  0.00    -0.000 C 
BRANCH  12  13
ATOM     13  C   UNL     1     -33.395   8.254  -2.952  1.00  0.00    -0.000 C 
BRANCH  13  14
ATOM     14  C   UNL     1     -32.763   7.147  -3.812  1.00  0.00    -0.000 C 
BRANCH  14  15
ATOM     15  C   UNL     1     -32.167   6.003  -2.971  1.00  0.00    -0.000 C 
BRANCH  15  16
ATOM     16  C   UNL     1     -32.032   6.298  -1.464  1.00  0.00    -0.000 C 
BRANCH  16  17
ATOM     17  C   UNL     1     -32.990   5.505  -0.558  1.00  0.00    -0.003 C 
ATOM     18  C   UNL     1     -32.574   4.045  -0.383  1.00  0.00     0.004 C 
ENDBRANCH  16  17
ENDBRANCH  15  16
ENDBRANCH  14  15
ENDBRANCH  13  14
ENDBRANCH  12  13
ENDBRANCH  11  12
ENDBRANCH   1  11
TORSDOF 14
ENDMDL
MODEL 4
REMARK VINA RESULT:    -3.640      2.701      4.313
REMARK INTER + INTRA:          -8.465
REMARK INTER:                  -6.186
REMARK INTRA:                  -2.280
REMARK UNBOUND:                -1.846
REMARK SMILES CCCCCCCCCCCCCCCC(=O)[O-]
REMARK SMILES IDX 9 1 10 2 11 3 12 4 13 5 14 6 15 7 16 8 17 9 18 10 8 11 7 12
REMARK SMILES IDX 6 13 5 14 4 15 3 16 2 17 1 18
REMARK H PARENT
REMARK Flexibility Score: inf
ROOT
ATOM      1  C   UNL     1     -34.972   8.853  -3.231  1.00  0.00     0.000 C 
ENDROOT
BRANCH   1   2
ATOM      2  C   UNL     1     -35.804   7.567  -3.113  1.00  0.00     0.000 C 
BRANCH   2   3
ATOM      3  C   UNL     1     -36.311   7.371  -1.679  1.00  0.00     0.000 C 
BRANCH   3   4
ATOM      4  C   UNL     1     -36.001   5.957  -1.171  1.00  0.00     0.000 C 
BRANCH   4   5
ATOM      5  C   UNL     1     -35.948   4.956  -2.334  1.00  0.00     0.000 C 
BRANCH   5   6
ATOM      6  C   UNL     1     -34.824   3.915  -2.174  1.00  0.00     0.006 C 
BRANCH   6   7
ATOM      7  C   UNL     1     -34.264   3.804  -0.747  1.00  0.00     0.053 C 
BRANCH   7   8
ATOM      8  C   UNL     1     -33.098   2.869  -0.672  1.00  0.00     0.041 C 
ATOM      9  O   UNL     1     -32.457   2.569  -1.714  1.00  0.00    -0.550 OA
ATOM     10  O   UNL     1     -32.695   2.354   0.554  1.00  0.00    -0.550 OA
ENDBRANCH   7   8
ENDBRANCH   6   7
ENDBRANCH   5   6
ENDBRANCH   4   5
ENDBRANCH   3   4
ENDBRANCH   2   3
ENDBRANCH   1   2
BRANCH   1  11
ATOM     11  C   UNL     1     -33.464   8.577  -3.342  1.00  0.00     0.000 C 
BRANCH  11  12
ATOM     12  C   UNL     1     -33.153   7.105  -3.661  1.00  0.00    -0.000 C 
BRANCH  12  13
ATOM     13  C   UNL     1     -32.222   6.460  -2.620  1.00  0.00    -0.000 C 
BRANCH  13  14
ATOM     14  C   UNL     1     -32.465   6.998  -1.200  1.00  0.00    -0.000 C 
BRANCH  14  15
ATOM     15  C   UNL     1     -31.530   6.364  -0.153  1.00  0.00    -0.000 C 
BRANCH  15  16
ATOM     16  C   UNL     1     -30.431   5.446  -0.725  1.00  0.00    -0.000 C 
BRANCH  16  17
ATOM     17  C   UNL     1     -29.032   6.081  -0.807  1.00  0.00    -0.003 C 
ATOM     18  C   UNL     1     -27.905   5.054  -0.710  1.00  0.00     0.004 C 
ENDBRANCH  16  17
ENDBRANCH  15  16
ENDBRANCH  14  15
ENDBRANCH  13  14
ENDBRANCH  12  13
ENDBRANCH  11  12
ENDBRANCH   1  11
TORSDOF 14
ENDMDL
MODEL 5
REMARK VINA RESULT:    -3.618      3.284      6.267
REMARK INTER + INTRA:          -8.425
REMARK INTER:                  -6.281
REMARK INTRA:                  -2.144
REMARK UNBOUND:                -1.846
REMARK SMILES CCCCCCCCCCCCCCCC(=O)[O-]
REMARK SMILES IDX 9 1 10 2 11 3 12 4 13 5 14 6 15 7 16 8 17 9 18 10 8 11 7 12
REMARK SMILES IDX 6 13 5 14 4 15 3 16 2 17 1 18
REMARK H PARENT
REMARK Flexibility Score: inf
ROOT
ATOM      1  C   UNL     1     -36.148   5.719  -1.698  1.00  0.00     0.000 C 
ENDROOT
BRANCH   1   2
ATOM      2  C   UNL     1     -36.026   7.158  -2.221  1.00  0.00     0.000 C 
BRANCH   2   3
ATOM      3  C   UNL     1     -34.573   7.643  -2.158  1.00  0.00     0.000 C 
BRANCH   3   4
ATOM      4  C   UNL     1     -33.799   6.928  -1.043  1.00  0.00     0.000 C 
BRANCH   4   5
ATOM      5  C   UNL     1     -32.327   6.732  -1.436  1.00  0.00     0.000 C 
BRANCH   5   6
ATOM      6  C   UNL     1     -31.453   6.265  -0.257  1.00  0.00     0.006 C 
BRANCH   6   7
ATOM      7  C   UNL     1     -30.446   5.160  -0.615  1.00  0.00     0.053 C 
BRANCH   7   8
ATOM      8  C   UNL     1     -29.038   5.668  -0.635  1.00  0.00     0.041 C 
ATOM      9  O   UNL     1     -28.786   6.820  -1.076  1.00  0.00    -0.550 OA
ATOM     10  O   UNL     1     -28.008   4.882  -0.134  1.00  0.00    -0.550 OA
ENDBRANCH   7   8
ENDBRANCH   6   7
ENDBRANCH   5   6
ENDBRANCH   4   5
ENDBRANCH   3   4
ENDBRANCH   2   3
ENDBRANCH   1   2
BRANCH   1  11
ATOM     11  C   UNL     1     -36.556   4.721  -2.793  1.00  0.00     0.000 C 
BRANCH  11  12
ATOM     12  C   UNL     1     -35.671   3.462  -2.806  1.00  0.00    -0.000 C 
BRANCH  12  13
ATOM     13  C   UNL     1     -34.181   3.791  -3.000  1.00  0.00    -0.000 C 
BRANCH  13  14
ATOM     14  C   UNL     1     -33.290   3.137  -1.931  1.00  0.00    -0.000 C 
BRANCH  14  15
ATOM     15  C   UNL     1     -34.069   2.742  -0.663  1.00  0.00    -0.000 C 
BRANCH  15  16
ATOM     16  C   UNL     1     -33.773   3.600   0.583  1.00  0.00    -0.000 C 
BRANCH  16  17
ATOM     17  C   UNL     1     -33.748   2.828   1.913  1.00  0.00    -0.003 C 
ATOM     18  C   UNL     1     -35.106   2.802   2.613  1.00  0.00     0.004 C 
ENDBRANCH  16  17
ENDBRANCH  15  16
ENDBRANCH  14  15
ENDBRANCH  13  14
ENDBRANCH  12  13
ENDBRANCH  11  12
ENDBRANCH   1  11
TORSDOF 14
ENDMDL
MODEL 6
REMARK VINA RESULT:    -3.600      3.324      6.936
REMARK INTER + INTRA:          -8.392
REMARK INTER:                  -6.428
REMARK INTRA:                  -1.963
REMARK UNBOUND:                -1.846
REMARK SMILES CCCCCCCCCCCCCCCC(=O)[O-]
REMARK SMILES IDX 9 1 10 2 11 3 12 4 13 5 14 6 15 7 16 8 17 9 18 10 8 11 7 12
REMARK SMILES IDX 6 13 5 14 4 15 3 16 2 17 1 18
REMARK H PARENT
REMARK Flexibility Score: inf
ROOT
ATOM      1  C   UNL     1     -31.376   7.363  -1.794  1.00  0.00     0.000 C 
ENDROOT
BRANCH   1   2
ATOM      2  C   UNL     1     -30.017   8.036  -2.039  1.00  0.00     0.000 C 
BRANCH   2   3
ATOM      3  C   UNL     1     -28.913   7.359  -1.219  1.00  0.00     0.000 C 
BRANCH   3   4
ATOM      4  C   UNL     1     -28.408   6.088  -1.915  1.00  0.00     0.000 C 
BRANCH   4   5
ATOM      5  C   UNL     1     -27.765   5.128  -0.904  1.00  0.00     0.000 C 
BRANCH   5   6
ATOM      6  C   UNL     1     -28.372   3.714  -0.957  1.00  0.00     0.006 C 
BRANCH   6   7
ATOM      7  C   UNL     1     -28.099   2.862   0.293  1.00  0.00     0.053 C 
BRANCH   7   8
ATOM      8  C   UNL     1     -29.327   2.147   0.766  1.00  0.00     0.041 C 
ATOM      9  O   UNL     1     -29.419   1.772   1.964  1.00  0.00    -0.550 OA
ATOM     10  O   UNL     1     -30.384   1.927  -0.107  1.00  0.00    -0.550 OA
ENDBRANCH   7   8
ENDBRANCH   6   7
ENDBRANCH   5   6
ENDBRANCH   4   5
ENDBRANCH   3   4
ENDBRANCH   2   3
ENDBRANCH   1   2
BRANCH   1  11
ATOM     11  C   UNL     1     -31.584   6.961  -0.325  1.00  0.00     0.000 C 
BRANCH  11  12
ATOM     12  C   UNL     1     -31.872   5.460  -0.156  1.00  0.00    -0.000 C 
BRANCH  12  13
ATOM     13  C   UNL     1     -32.015   4.732  -1.503  1.00  0.00    -0.000 C 
BRANCH  13  14
ATOM     14  C   UNL     1     -33.443   4.216  -1.745  1.00  0.00    -0.000 C 
BRANCH  14  15
ATOM     15  C   UNL     1     -34.469   4.817  -0.767  1.00  0.00    -0.000 C 
BRANCH  15  16
ATOM     16  C   UNL     1     -35.694   5.480  -1.427  1.00  0.00    -0.000 C 
BRANCH  16  17
ATOM     17  C   UNL     1     -35.713   7.017  -1.367  1.00  0.00    -0.003 C 
ATOM     18  C   UNL     1     -34.944   7.669  -2.516  1.00  0.00     0.004 C 
ENDBRANCH  16  17
ENDBRANCH  15  16
ENDBRANCH  14  15
ENDBRANCH  13  14
ENDBRANCH  12  13
ENDBRANCH  11  12
ENDBRANCH   1  11
TORSDOF 14
ENDMDL
MODEL 7
REMARK VINA RESULT:    -3.572      3.132      4.547
REMARK INTER + INTRA:          -8.341
REMARK INTER:                  -6.040
REMARK INTRA:                  -2.301
REMARK UNBOUND:                -1.846
REMARK SMILES CCCCCCCCCCCCCCCC(=O)[O-]
REMARK SMILES IDX 9 1 10 2 11 3 12 4 13 5 14 6 15 7 16 8 17 9 18 10 8 11 7 12
REMARK SMILES IDX 6 13 5 14 4 15 3 16 2 17 1 18
REMARK H PARENT
REMARK Flexibility Score: inf
ROOT
ATOM      1  C   UNL     1     -33.782   8.787  -3.139  1.00  0.00     0.000 C 
ENDROOT
BRANCH   1   2
ATOM      2  C   UNL     1     -35.274   8.862  -3.497  1.00  0.00     0.000 C 
BRANCH   2   3
ATOM      3  C   UNL     1     -35.987   7.548  -3.158  1.00  0.00     0.000 C 
BRANCH   3   4
ATOM      4  C   UNL     1     -36.017   7.310  -1.643  1.00  0.00     0.000 C 
BRANCH   4   5
ATOM      5  C   UNL     1     -35.901   5.813  -1.320  1.00  0.00     0.000 C 
BRANCH   5   6
ATOM      6  C   UNL     1     -36.216   4.916  -2.532  1.00  0.00     0.006 C 
BRANCH   6   7
ATOM      7  C   UNL     1     -35.095   3.930  -2.898  1.00  0.00     0.053 C 
BRANCH   7   8
ATOM      8  C   UNL     1     -35.618   2.549  -3.141  1.00  0.00     0.041 C 
ATOM      9  O   UNL     1     -36.019   2.216  -4.287  1.00  0.00    -0.550 OA
ATOM     10  O   UNL     1     -35.629   1.617  -2.110  1.00  0.00    -0.550 OA
ENDBRANCH   7   8
ENDBRANCH   6   7
ENDBRANCH   5   6
ENDBRANCH   4   5
ENDBRANCH   3   4
ENDBRANCH   2   3
ENDBRANCH   1   2
BRANCH   1  11
ATOM     11  C   UNL     1     -33.076   7.584  -3.786  1.00  0.00     0.000 C 
BRANCH  11  12
ATOM     12  C   UNL     1     -32.298   6.736  -2.765  1.00  0.00    -0.000 C 
BRANCH  12  13
ATOM     13  C   UNL     1     -32.334   7.336  -1.350  1.00  0.00    -0.000 C 
BRANCH  13  14
ATOM     14  C   UNL     1     -31.993   6.302  -0.263  1.00  0.00    -0.000 C 
BRANCH  14  15
ATOM     15  C   UNL     1     -32.306   4.858  -0.694  1.00  0.00    -0.000 C 
BRANCH  15  16
ATOM     16  C   UNL     1     -31.668   3.759   0.180  1.00  0.00    -0.000 C 
BRANCH  16  17
ATOM     17  C   UNL     1     -32.669   2.843   0.906  1.00  0.00    -0.003 C 
ATOM     18  C   UNL     1     -34.118   3.303   0.752  1.00  0.00     0.004 C 
ENDBRANCH  16  17
ENDBRANCH  15  16
ENDBRANCH  14  15
ENDBRANCH  13  14
ENDBRANCH  12  13
ENDBRANCH  11  12
ENDBRANCH   1  11
TORSDOF 14
ENDMDL
MODEL 8
REMARK VINA RESULT:    -3.564      4.413      6.828
REMARK INTER + INTRA:          -8.327
REMARK INTER:                  -6.071
REMARK INTRA:                  -2.255
REMARK UNBOUND:                -1.846
REMARK SMILES CCCCCCCCCCCCCCCC(=O)[O-]
REMARK SMILES IDX 9 1 10 2 11 3 12 4 13 5 14 6 15 7 16 8 17 9 18 10 8 11 7 12
REMARK SMILES IDX 6 13 5 14 4 15 3 16 2 17 1 18
REMARK H PARENT
REMARK Flexibility Score: inf
ROOT
ATOM      1  C   UNL     1     -36.004   7.694  -3.999  1.00  0.00     0.000 C 
ENDROOT
BRANCH   1   2
ATOM      2  C   UNL     1     -35.521   7.868  -2.552  1.00  0.00     0.000 C 
BRANCH   2   3
ATOM      3  C   UNL     1     -36.389   7.058  -1.582  1.00  0.00     0.000 C 
BRANCH   3   4
ATOM      4  C   UNL     1     -35.596   5.896  -0.970  1.00  0.00     0.000 C 
BRANCH   4   5
ATOM      5  C   UNL     1     -34.094   6.048  -1.252  1.00  0.00     0.000 C 
BRANCH   5   6
ATOM      6  C   UNL     1     -33.268   4.854  -0.739  1.00  0.00     0.006 C 
BRANCH   6   7
ATOM      7  C   UNL     1     -34.100   3.750  -0.068  1.00  0.00     0.053 C 
BRANCH   7   8
ATOM      8  C   UNL     1     -33.243   2.768   0.667  1.00  0.00     0.041 C 
ATOM      9  O   UNL     1     -33.169   1.574   0.275  1.00  0.00    -0.550 OA
ATOM     10  O   UNL     1     -32.498   3.178   1.765  1.00  0.00    -0.550 OA
ENDBRANCH   7   8
ENDBRANCH   6   7
ENDBRANCH   5   6
ENDBRANCH   4   5
ENDBRANCH   3   4
ENDBRANCH   2   3
ENDBRANCH   1   2
BRANCH   1  11
ATOM     11  C   UNL     1     -35.019   6.890  -4.863  1.00  0.00     0.000 C 
BRANCH  11  12
ATOM     12  C   UNL     1     -35.239   5.371  -4.751  1.00  0.00    -0.000 C 
BRANCH  12  13
ATOM     13  C   UNL     1     -36.727   4.996  -4.654  1.00  0.00    -0.000 C 
BRANCH  13  14
ATOM     14  C   UNL     1     -36.980   3.845  -3.666  1.00  0.00    -0.000 C 
BRANCH  14  15
ATOM     15  C   UNL     1     -35.731   2.977  -3.427  1.00  0.00    -0.000 C 
BRANCH  15  16
ATOM     16  C   UNL     1     -35.708   1.636  -4.187  1.00  0.00    -0.000 C 
BRANCH  16  17
ATOM     17  C   UNL     1     -34.848   1.626  -5.462  1.00  0.00    -0.003 C 
ATOM     18  C   UNL     1     -35.610   2.099  -6.700  1.00  0.00     0.004 C 
ENDBRANCH  16  17
ENDBRANCH  15  16
ENDBRANCH  14  15
ENDBRANCH  13  14
ENDBRANCH  12  13
ENDBRANCH  11  12
ENDBRANCH   1  11
TORSDOF 14
ENDMDL
MODEL 9
REMARK VINA RESULT:    -3.551      3.395      5.432
REMARK INTER + INTRA:          -8.303
REMARK INTER:                  -5.567
REMARK INTRA:                  -2.736
REMARK UNBOUND:                -1.846
REMARK SMILES CCCCCCCCCCCCCCCC(=O)[O-]
REMARK SMILES IDX 9 1 10 2 11 3 12 4 13 5 14 6 15 7 16 8 17 9 18 10 8 11 7 12
REMARK SMILES IDX 6 13 5 14 4 15 3 16 2 17 1 18
REMARK H PARENT
REMARK Flexibility Score: inf
ROOT
ATOM      1  C   UNL     1     -36.138   7.361  -1.685  1.00  0.00     0.000 C 
ENDROOT
BRANCH   1   2
ATOM      2  C   UNL     1     -35.479   7.911  -2.959  1.00  0.00     0.000 C 
BRANCH   2   3
ATOM      3  C   UNL     1     -35.832   7.047  -4.176  1.00  0.00     0.000 C 
BRANCH   3   4
ATOM      4  C   UNL     1     -34.569   6.618  -4.934  1.00  0.00     0.000 C 
BRANCH   4   5
ATOM      5  C   UNL     1     -34.634   5.131  -5.312  1.00  0.00     0.000 C 
BRANCH   5   6
ATOM      6  C   UNL     1     -36.079   4.615  -5.450  1.00  0.00     0.006 C 
BRANCH   6   7
ATOM      7  C   UNL     1     -36.331   3.255  -4.780  1.00  0.00     0.053 C 
BRANCH   7   8
ATOM      8  C   UNL     1     -35.934   2.111  -5.661  1.00  0.00     0.041 C 
ATOM      9  O   UNL     1     -36.677   1.759  -6.614  1.00  0.00    -0.550 OA
ATOM     10  O   UNL     1     -34.728   1.456  -5.451  1.00  0.00    -0.550 OA
ENDBRANCH   7   8
ENDBRANCH   6   7
ENDBRANCH   5   6
ENDBRANCH   4   5
ENDBRANCH   3   4
ENDBRANCH   2   3
ENDBRANCH   1   2
BRANCH   1  11
ATOM     11  C   UNL     1     -36.369   5.843  -1.743  1.00  0.00     0.000 C 
BRANCH  11  12
ATOM     12  C   UNL     1     -35.333   5.055  -0.923  1.00  0.00    -0.000 C 
BRANCH  12  13
ATOM     13  C   UNL     1     -34.422   4.185  -1.805  1.00  0.00    -0.000 C 
BRANCH  13  14
ATOM     14  C   UNL     1     -32.983   4.724  -1.876  1.00  0.00    -0.000 C 
BRANCH  14  15
ATOM     15  C   UNL     1     -32.612   5.598  -0.665  1.00  0.00    -0.000 C 
BRANCH  15  16
ATOM     16  C   UNL     1     -32.261   7.062  -0.996  1.00  0.00    -0.000 C 
BRANCH  16  17
ATOM     17  C   UNL     1     -31.912   7.330  -2.470  1.00  0.00    -0.003 C 
ATOM     18  C   UNL     1     -31.782   8.819  -2.791  1.00  0.00     0.004 C 
ENDBRANCH  16  17
ENDBRANCH  15  16
ENDBRANCH  14  15
ENDBRANCH  13  14
ENDBRANCH  12  13
ENDBRANCH  11  12
ENDBRANCH   1  11
TORSDOF 14
ENDMDL
