MODEL 1
REMARK VINA RESULT:    -3.817      0.000      0.000
REMARK INTER + INTRA:          -5.991
REMARK INTER:                  -5.602
REMARK INTRA:                  -0.389
REMARK UNBOUND:                -0.389
REMARK SMILES CC(C)COC(=O)c1ccccc1C(=O)OCC(C)C
REMARK SMILES IDX 8 1 9 2 10 3 11 4 12 5 13 6 6 7 7 8 5 9 4 10 2 11 1 12 3 13
REMARK SMILES IDX 14 14 15 15 16 16 17 17 18 18 19 19 20 20
REMARK H PARENT
REMARK Flexibility Score: inf
ROOT
ATOM      1  C   UNL     1       8.281 -33.947  13.610  1.00  0.00     0.074 A 
ATOM      2  C   UNL     1       7.698 -35.218  13.458  1.00  0.00     0.016 A 
ATOM      3  C   UNL     1       8.477 -36.320  13.103  1.00  0.00     0.001 A 
ATOM      4  C   UNL     1       9.847 -36.171  12.895  1.00  0.00     0.001 A 
ATOM      5  C   UNL     1      10.441 -34.915  13.017  1.00  0.00     0.016 A 
ATOM      6  C   UNL     1       9.670 -33.785  13.351  1.00  0.00     0.074 A 
ENDROOT
BRANCH   1   7
ATOM      7  C   UNL     1       7.424 -32.844  14.095  1.00  0.00     0.339 C 
ATOM      8  O   UNL     1       6.693 -32.205  13.288  1.00  0.00    -0.246 OA
BRANCH   7   9
ATOM      9  O   UNL     1       7.469 -32.479  15.446  1.00  0.00    -0.462 OA
BRANCH   9  10
ATOM     10  C   UNL     1       8.619 -31.905  16.067  1.00  0.00     0.236 C 
BRANCH  10  11
ATOM     11  C   UNL     1       8.980 -32.651  17.366  1.00  0.00     0.021 C 
ATOM     12  C   UNL     1       8.443 -34.086  17.321  1.00  0.00     0.011 C 
ATOM     13  C   UNL     1       8.432 -31.915  18.596  1.00  0.00     0.011 C 
ENDBRANCH  10  11
ENDBRANCH   9  10
ENDBRANCH   7   9
ENDBRANCH   1   7
BRANCH   6  14
ATOM     14  C   UNL     1      10.339 -32.465  13.355  1.00  0.00     0.339 C 
ATOM     15  O   UNL     1       9.753 -31.456  12.875  1.00  0.00    -0.246 OA
BRANCH  14  16
ATOM     16  O   UNL     1      11.646 -32.357  13.843  1.00  0.00    -0.462 OA
BRANCH  16  17
ATOM     17  C   UNL     1      12.205 -31.137  14.329  1.00  0.00     0.236 C 
BRANCH  17  18
ATOM     18  C   UNL     1      13.741 -31.147  14.219  1.00  0.00     0.021 C 
ATOM     19  C   UNL     1      14.223 -32.295  13.322  1.00  0.00     0.011 C 
ATOM     20  C   UNL     1      14.245 -29.804  13.681  1.00  0.00     0.011 C 
ENDBRANCH  17  18
ENDBRANCH  16  17
ENDBRANCH  14  16
ENDBRANCH   6  14
TORSDOF 8
ENDMDL
MODEL 2
REMARK VINA RESULT:    -3.771      0.975      4.710
REMARK INTER + INTRA:          -5.924
REMARK INTER:                  -5.187
REMARK INTRA:                  -0.737
REMARK UNBOUND:                -0.389
REMARK SMILES CC(C)COC(=O)c1ccccc1C(=O)OCC(C)C
REMARK SMILES IDX 8 1 9 2 10 3 11 4 12 5 13 6 6 7 7 8 5 9 4 10 2 11 1 12 3 13
REMARK SMILES IDX 14 14 15 15 16 16 17 17 18 18 19 19 20 20
REMARK H PARENT
REMARK Flexibility Score: inf
ROOT
ATOM      1  C   UNL     1       9.519 -33.761  13.708  1.00  0.00     0.074 A 
ATOM      2  C   UNL     1       9.935 -34.824  12.886  1.00  0.00     0.016 A 
ATOM      3  C   UNL     1       9.243 -36.037  12.886  1.00  0.00     0.001 A 
ATOM      4  C   UNL     1       8.129 -36.206  13.706  1.00  0.00     0.001 A 
ATOM      5  C   UNL     1       7.715 -35.172  14.547  1.00  0.00     0.016 A 
ATOM      6  C   UNL     1       8.412 -33.950  14.579  1.00  0.00     0.074 A 
ENDROOT
BRANCH   1   7
ATOM      7  C   UNL     1      10.225 -32.468  13.578  1.00  0.00     0.339 C 
ATOM      8  O   UNL     1       9.635 -31.468  13.083  1.00  0.00    -0.246 OA
BRANCH   7   9
ATOM      9  O   UNL     1      11.569 -32.375  13.960  1.00  0.00    -0.462 OA
BRANCH   9  10
ATOM     10  C   UNL     1      12.183 -31.158  14.387  1.00  0.00     0.236 C 
BRANCH  10  11
ATOM     11  C   UNL     1      13.711 -31.214  14.203  1.00  0.00     0.021 C 
ATOM     12  C   UNL     1      14.229 -29.881  13.652  1.00  0.00     0.011 C 
ATOM     13  C   UNL     1      14.114 -32.368  13.275  1.00  0.00     0.011 C 
ENDBRANCH  10  11
ENDBRANCH   9  10
ENDBRANCH   7   9
ENDBRANCH   1   7
BRANCH   6  14
ATOM     14  C   UNL     1       7.990 -32.937  15.572  1.00  0.00     0.339 C 
ATOM     15  O   UNL     1       7.037 -32.153  15.313  1.00  0.00    -0.246 OA
BRANCH  14  16
ATOM     16  O   UNL     1       8.694 -32.819  16.776  1.00  0.00    -0.462 OA
BRANCH  16  17
ATOM     17  C   UNL     1       8.161 -32.185  17.939  1.00  0.00     0.236 C 
BRANCH  17  18
ATOM     18  C   UNL     1       9.080 -31.048  18.423  1.00  0.00     0.021 C 
ATOM     19  C   UNL     1       9.666 -31.362  19.805  1.00  0.00     0.011 C 
ATOM     20  C   UNL     1      10.205 -30.806  17.411  1.00  0.00     0.011 C 
ENDBRANCH  17  18
ENDBRANCH  16  17
ENDBRANCH  14  16
ENDBRANCH   6  14
TORSDOF 8
ENDMDL
MODEL 3
REMARK VINA RESULT:    -3.524      1.588      4.984
REMARK INTER + INTRA:          -5.561
REMARK INTER:                  -4.967
REMARK INTRA:                  -0.594
REMARK UNBOUND:                -0.389
REMARK SMILES CC(C)COC(=O)c1ccccc1C(=O)OCC(C)C
REMARK SMILES IDX 8 1 9 2 10 3 11 4 12 5 13 6 6 7 7 8 5 9 4 10 2 11 1 12 3 13
REMARK SMILES IDX 14 14 15 15 16 16 17 17 18 18 19 19 20 20
REMARK H PARENT
REMARK Flexibility Score: inf
ROOT
ATOM      1  C   UNL     1      11.702 -33.504  13.447  1.00  0.00     0.074 A 
ATOM      2  C   UNL     1      13.059 -33.369  13.103  1.00  0.00     0.016 A 
ATOM      3  C   UNL     1      13.755 -32.196  13.399  1.00  0.00     0.001 A 
ATOM      4  C   UNL     1      13.109 -31.143  14.042  1.00  0.00     0.001 A 
ATOM      5  C   UNL     1      11.757 -31.247  14.370  1.00  0.00     0.016 A 
ATOM      6  C   UNL     1      11.030 -32.411  14.059  1.00  0.00     0.074 A 
ENDROOT
BRANCH   1   7
ATOM      7  C   UNL     1      11.052 -34.811  13.207  1.00  0.00     0.339 C 
ATOM      8  O   UNL     1      11.729 -35.875  13.253  1.00  0.00    -0.246 OA
BRANCH   7   9
ATOM      9  O   UNL     1       9.693 -34.854  12.875  1.00  0.00    -0.462 OA
BRANCH   9  10
ATOM     10  C   UNL     1       8.863 -35.994  13.102  1.00  0.00     0.236 C 
BRANCH  10  11
ATOM     11  C   UNL     1       7.668 -35.641  14.007  1.00  0.00     0.021 C 
ATOM     12  C   UNL     1       6.981 -36.917  14.503  1.00  0.00     0.011 C 
ATOM     13  C   UNL     1       6.663 -34.745  13.270  1.00  0.00     0.011 C 
ENDBRANCH  10  11
ENDBRANCH   9  10
ENDBRANCH   7   9
ENDBRANCH   1   7
BRANCH   6  14
ATOM     14  C   UNL     1       9.575 -32.415  14.332  1.00  0.00     0.339 C 
ATOM     15  O   UNL     1       8.775 -31.879  13.517  1.00  0.00    -0.246 OA
BRANCH  14  16
ATOM     16  O   UNL     1       9.101 -32.968  15.527  1.00  0.00    -0.462 OA
BRANCH  16  17
ATOM     17  C   UNL     1       8.367 -32.225  16.500  1.00  0.00     0.236 C 
BRANCH  17  18
ATOM     18  C   UNL     1       9.230 -31.934  17.743  1.00  0.00     0.021 C 
ATOM     19  C   UNL     1      10.127 -30.710  17.517  1.00  0.00     0.011 C 
ATOM     20  C   UNL     1       8.339 -31.721  18.971  1.00  0.00     0.011 C 
ENDBRANCH  17  18
ENDBRANCH  16  17
ENDBRANCH  14  16
ENDBRANCH   6  14
TORSDOF 8
ENDMDL
MODEL 4
REMARK VINA RESULT:    -3.452      2.104      6.111
REMARK INTER + INTRA:          -5.455
REMARK INTER:                  -4.624
REMARK INTRA:                  -0.831
REMARK UNBOUND:                -0.389
REMARK SMILES CC(C)COC(=O)c1ccccc1C(=O)OCC(C)C
REMARK SMILES IDX 8 1 9 2 10 3 11 4 12 5 13 6 6 7 7 8 5 9 4 10 2 11 1 12 3 13
REMARK SMILES IDX 14 14 15 15 16 16 17 17 18 18 19 19 20 20
REMARK H PARENT
REMARK Flexibility Score: inf
ROOT
ATOM      1  C   UNL     1       9.616 -31.915  15.518  1.00  0.00     0.074 A 
ATOM      2  C   UNL     1      10.510 -31.173  16.311  1.00  0.00     0.016 A 
ATOM      3  C   UNL     1      10.213 -30.894  17.647  1.00  0.00     0.001 A 
ATOM      4  C   UNL     1       9.024 -31.351  18.209  1.00  0.00     0.001 A 
ATOM      5  C   UNL     1       8.113 -32.068  17.433  1.00  0.00     0.016 A 
ATOM      6  C   UNL     1       8.380 -32.340  16.079  1.00  0.00     0.074 A 
ENDROOT
BRANCH   1   7
ATOM      7  C   UNL     1      10.039 -32.272  14.146  1.00  0.00     0.339 C 
ATOM      8  O   UNL     1       9.879 -31.453  13.199  1.00  0.00    -0.246 OA
BRANCH   7   9
ATOM      9  O   UNL     1      10.567 -33.545  13.897  1.00  0.00    -0.462 OA
BRANCH   9  10
ATOM     10  C   UNL     1       9.802 -34.620  13.351  1.00  0.00     0.236 C 
BRANCH  10  11
ATOM     11  C   UNL     1      10.716 -35.765  12.876  1.00  0.00     0.021 C 
ATOM     12  C   UNL     1       9.953 -37.094  12.884  1.00  0.00     0.011 C 
ATOM     13  C   UNL     1      11.973 -35.867  13.749  1.00  0.00     0.011 C 
ENDBRANCH  10  11
ENDBRANCH   9  10
ENDBRANCH   7   9
ENDBRANCH   1   7
BRANCH   6  14
ATOM     14  C   UNL     1       7.326 -33.007  15.283  1.00  0.00     0.339 C 
ATOM     15  O   UNL     1       6.634 -32.342  14.463  1.00  0.00    -0.246 OA
BRANCH  14  16
ATOM     16  O   UNL     1       7.066 -34.367  15.487  1.00  0.00    -0.462 OA
BRANCH  16  17
ATOM     17  C   UNL     1       5.875 -35.015  15.041  1.00  0.00     0.236 C 
BRANCH  17  18
ATOM     18  C   UNL     1       6.013 -36.547  15.121  1.00  0.00     0.021 C 
ATOM     19  C   UNL     1       6.532 -37.125  13.799  1.00  0.00     0.011 C 
ATOM     20  C   UNL     1       6.943 -36.938  16.275  1.00  0.00     0.011 C 
ENDBRANCH  17  18
ENDBRANCH  16  17
ENDBRANCH  14  16
ENDBRANCH   6  14
TORSDOF 8
ENDMDL
MODEL 5
REMARK VINA RESULT:    -3.249      1.304      4.051
REMARK INTER + INTRA:          -5.158
REMARK INTER:                  -5.470
REMARK INTRA:                   0.312
REMARK UNBOUND:                -0.389
REMARK SMILES CC(C)COC(=O)c1ccccc1C(=O)OCC(C)C
REMARK SMILES IDX 8 1 9 2 10 3 11 4 12 5 13 6 6 7 7 8 5 9 4 10 2 11 1 12 3 13
REMARK SMILES IDX 14 14 15 15 16 16 17 17 18 18 19 19 20 20
REMARK H PARENT
REMARK Flexibility Score: inf
ROOT
ATOM      1  C   UNL     1       8.481 -32.496  16.328  1.00  0.00     0.074 A 
ATOM      2  C   UNL     1       8.235 -32.346  17.705  1.00  0.00     0.016 A 
ATOM      3  C   UNL     1       9.021 -31.492  18.479  1.00  0.00     0.001 A 
ATOM      4  C   UNL     1      10.063 -30.777  17.893  1.00  0.00     0.001 A 
ATOM      5  C   UNL     1      10.339 -30.930  16.534  1.00  0.00     0.016 A 
ATOM      6  C   UNL     1       9.574 -31.804  15.739  1.00  0.00     0.074 A 
ENDROOT
BRANCH   1   7
ATOM      7  C   UNL     1       7.543 -33.328  15.543  1.00  0.00     0.339 C 
ATOM      8  O   UNL     1       6.468 -32.833  15.105  1.00  0.00    -0.246 OA
BRANCH   7   9
ATOM      9  O   UNL     1       7.831 -34.682  15.335  1.00  0.00    -0.462 OA
BRANCH   9  10
ATOM     10  C   UNL     1       6.849 -35.647  14.955  1.00  0.00     0.236 C 
BRANCH  10  11
ATOM     11  C   UNL     1       7.362 -36.542  13.812  1.00  0.00     0.021 C 
ATOM     12  C   UNL     1       8.462 -35.821  13.025  1.00  0.00     0.011 C 
ATOM     13  C   UNL     1       6.217 -36.951  12.875  1.00  0.00     0.011 C 
ENDBRANCH  10  11
ENDBRANCH   9  10
ENDBRANCH   7   9
ENDBRANCH   1   7
BRANCH   6  14
ATOM     14  C   UNL     1       9.987 -32.005  14.333  1.00  0.00     0.339 C 
ATOM     15  O   UNL     1       9.127 -32.276  13.451  1.00  0.00    -0.246 OA
BRANCH  14  16
ATOM     16  O   UNL     1      11.346 -31.949  14.000  1.00  0.00    -0.462 OA
BRANCH  16  17
ATOM     17  C   UNL     1      12.153 -30.786  14.187  1.00  0.00     0.236 C 
BRANCH  17  18
ATOM     18  C   UNL     1      13.651 -31.147  14.204  1.00  0.00     0.021 C 
ATOM     19  C   UNL     1      13.917 -32.437  13.419  1.00  0.00     0.011 C 
ATOM     20  C   UNL     1      14.482 -29.993  13.632  1.00  0.00     0.011 C 
ENDBRANCH  17  18
ENDBRANCH  16  17
ENDBRANCH  14  16
ENDBRANCH   6  14
TORSDOF 8
ENDMDL
MODEL 6
REMARK VINA RESULT:    -3.232      1.700      4.737
REMARK INTER + INTRA:          -5.133
REMARK INTER:                  -4.846
REMARK INTRA:                  -0.287
REMARK UNBOUND:                -0.389
REMARK SMILES CC(C)COC(=O)c1ccccc1C(=O)OCC(C)C
REMARK SMILES IDX 8 1 9 2 10 3 11 4 12 5 13 6 6 7 7 8 5 9 4 10 2 11 1 12 3 13
REMARK SMILES IDX 14 14 15 15 16 16 17 17 18 18 19 19 20 20
REMARK H PARENT
REMARK Flexibility Score: inf
ROOT
ATOM      1  C   UNL     1      10.259 -32.445  13.857  1.00  0.00     0.074 A 
ATOM      2  C   UNL     1      11.088 -31.350  14.160  1.00  0.00     0.016 A 
ATOM      3  C   UNL     1      12.471 -31.436  13.991  1.00  0.00     0.001 A 
ATOM      4  C   UNL     1      13.045 -32.614  13.518  1.00  0.00     0.001 A 
ATOM      5  C   UNL     1      12.243 -33.720  13.234  1.00  0.00     0.016 A 
ATOM      6  C   UNL     1      10.849 -33.662  13.420  1.00  0.00     0.074 A 
ENDROOT
BRANCH   1   7
ATOM      7  C   UNL     1       8.795 -32.253  13.950  1.00  0.00     0.339 C 
ATOM      8  O   UNL     1       8.135 -31.897  12.935  1.00  0.00    -0.246 OA
BRANCH   7   9
ATOM      9  O   UNL     1       8.156 -32.416  15.185  1.00  0.00    -0.462 OA
BRANCH   9  10
ATOM     10  C   UNL     1       8.839 -32.801  16.379  1.00  0.00     0.236 C 
BRANCH  10  11
ATOM     11  C   UNL     1       8.859 -31.651  17.403  1.00  0.00     0.021 C 
ATOM     12  C   UNL     1      10.208 -30.925  17.361  1.00  0.00     0.011 C 
ATOM     13  C   UNL     1       8.574 -32.167  18.819  1.00  0.00     0.011 C 
ENDBRANCH  10  11
ENDBRANCH   9  10
ENDBRANCH   7   9
ENDBRANCH   1   7
BRANCH   6  14
ATOM     14  C   UNL     1      10.069 -34.901  13.207  1.00  0.00     0.339 C 
ATOM     15  O   UNL     1      10.658 -36.011  13.096  1.00  0.00    -0.246 OA
BRANCH  14  16
ATOM     16  O   UNL     1       8.678 -34.824  13.076  1.00  0.00    -0.462 OA
BRANCH  16  17
ATOM     17  C   UNL     1       7.843 -35.965  12.875  1.00  0.00     0.236 C 
BRANCH  17  18
ATOM     18  C   UNL     1       6.596 -35.907  13.777  1.00  0.00     0.021 C 
ATOM     19  C   UNL     1       6.968 -36.127  15.249  1.00  0.00     0.011 C 
ATOM     20  C   UNL     1       5.877 -34.564  13.605  1.00  0.00     0.011 C 
ENDBRANCH  17  18
ENDBRANCH  16  17
ENDBRANCH  14  16
ENDBRANCH   6  14
TORSDOF 8
ENDMDL
MODEL 7
REMARK VINA RESULT:    -3.187      1.238      6.009
REMARK INTER + INTRA:          -5.067
REMARK INTER:                  -5.032
REMARK INTRA:                  -0.035
REMARK UNBOUND:                -0.389
REMARK SMILES CC(C)COC(=O)c1ccccc1C(=O)OCC(C)C
REMARK SMILES IDX 8 1 9 2 10 3 11 4 12 5 13 6 6 7 7 8 5 9 4 10 2 11 1 12 3 13
REMARK SMILES IDX 14 14 15 15 16 16 17 17 18 18 19 19 20 20
REMARK H PARENT
REMARK Flexibility Score: inf
ROOT
ATOM      1  C   UNL     1       9.516 -31.854  15.885  1.00  0.00     0.074 A 
ATOM      2  C   UNL     1      10.211 -31.110  16.855  1.00  0.00     0.016 A 
ATOM      3  C   UNL     1       9.802 -31.122  18.189  1.00  0.00     0.001 A 
ATOM      4  C   UNL     1       8.695 -31.875  18.574  1.00  0.00     0.001 A 
ATOM      5  C   UNL     1       7.977 -32.602  17.624  1.00  0.00     0.016 A 
ATOM      6  C   UNL     1       8.358 -32.584  16.269  1.00  0.00     0.074 A 
ENDROOT
BRANCH   1   7
ATOM      7  C   UNL     1      10.066 -31.889  14.512  1.00  0.00     0.339 C 
ATOM      8  O   UNL     1       9.291 -31.951  13.518  1.00  0.00    -0.246 OA
BRANCH   7   9
ATOM      9  O   UNL     1      11.454 -31.906  14.326  1.00  0.00    -0.462 OA
BRANCH   9  10
ATOM     10  C   UNL     1      12.254 -30.726  14.264  1.00  0.00     0.236 C 
BRANCH  10  11
ATOM     11  C   UNL     1      13.752 -31.074  14.188  1.00  0.00     0.021 C 
ATOM     12  C   UNL     1      14.552 -29.875  13.666  1.00  0.00     0.011 C 
ATOM     13  C   UNL     1      13.990 -32.301  13.299  1.00  0.00     0.011 C 
ENDBRANCH  10  11
ENDBRANCH   9  10
ENDBRANCH   7   9
ENDBRANCH   1   7
BRANCH   6  14
ATOM     14  C   UNL     1       7.491 -33.283  15.295  1.00  0.00     0.339 C 
ATOM     15  O   UNL     1       6.394 -32.772  14.940  1.00  0.00    -0.246 OA
BRANCH  14  16
ATOM     16  O   UNL     1       7.872 -34.541  14.814  1.00  0.00    -0.462 OA
BRANCH  16  17
ATOM     17  C   UNL     1       7.601 -34.990  13.486  1.00  0.00     0.236 C 
BRANCH  17  18
ATOM     18  C   UNL     1       7.531 -36.527  13.422  1.00  0.00     0.021 C 
ATOM     19  C   UNL     1       8.880 -37.125  13.004  1.00  0.00     0.011 C 
ATOM     20  C   UNL     1       7.092 -37.097  14.775  1.00  0.00     0.011 C 
ENDBRANCH  17  18
ENDBRANCH  16  17
ENDBRANCH  14  16
ENDBRANCH   6  14
TORSDOF 8
ENDMDL
MODEL 8
REMARK VINA RESULT:    -3.055      2.185      4.472
REMARK INTER + INTRA:          -4.872
REMARK INTER:                  -3.875
REMARK INTRA:                  -0.997
REMARK UNBOUND:                -0.389
REMARK SMILES CC(C)COC(=O)c1ccccc1C(=O)OCC(C)C
REMARK SMILES IDX 8 1 9 2 10 3 11 4 12 5 13 6 6 7 7 8 5 9 4 10 2 11 1 12 3 13
REMARK SMILES IDX 14 14 15 15 16 16 17 17 18 18 19 19 20 20
REMARK H PARENT
REMARK Flexibility Score: inf
ROOT
ATOM      1  C   UNL     1       8.102 -32.404  16.022  1.00  0.00     0.074 A 
ATOM      2  C   UNL     1       8.136 -32.091  17.392  1.00  0.00     0.016 A 
ATOM      3  C   UNL     1       9.253 -31.470  17.954  1.00  0.00     0.001 A 
ATOM      4  C   UNL     1      10.351 -31.154  17.157  1.00  0.00     0.001 A 
ATOM      5  C   UNL     1      10.348 -31.477  15.799  1.00  0.00     0.016 A 
ATOM      6  C   UNL     1       9.242 -32.124  15.218  1.00  0.00     0.074 A 
ENDROOT
BRANCH   1   7
ATOM      7  C   UNL     1       6.848 -32.958  15.467  1.00  0.00     0.339 C 
ATOM      8  O   UNL     1       5.926 -32.185  15.085  1.00  0.00    -0.246 OA
BRANCH   7   9
ATOM      9  O   UNL     1       6.669 -34.345  15.420  1.00  0.00    -0.462 OA
BRANCH   9  10
ATOM     10  C   UNL     1       7.562 -35.275  16.034  1.00  0.00     0.236 C 
BRANCH  10  11
ATOM     11  C   UNL     1       7.030 -36.716  15.918  1.00  0.00     0.021 C 
ATOM     12  C   UNL     1       6.138 -36.855  14.680  1.00  0.00     0.011 C 
ATOM     13  C   UNL     1       6.259 -37.123  17.180  1.00  0.00     0.011 C 
ENDBRANCH  10  11
ENDBRANCH   9  10
ENDBRANCH   7   9
ENDBRANCH   1   7
BRANCH   6  14
ATOM     14  C   UNL     1       9.346 -32.540  13.802  1.00  0.00     0.339 C 
ATOM     15  O   UNL     1       9.206 -31.691  12.879  1.00  0.00    -0.246 OA
BRANCH  14  16
ATOM     16  O   UNL     1       9.545 -33.891  13.494  1.00  0.00    -0.462 OA
BRANCH  16  17
ATOM     17  C   UNL     1      10.788 -34.565  13.684  1.00  0.00     0.236 C 
BRANCH  17  18
ATOM     18  C   UNL     1      10.840 -35.875  12.875  1.00  0.00     0.021 C 
ATOM     19  C   UNL     1      11.916 -36.821  13.423  1.00  0.00     0.011 C 
ATOM     20  C   UNL     1       9.470 -36.563  12.889  1.00  0.00     0.011 C 
ENDBRANCH  17  18
ENDBRANCH  16  17
ENDBRANCH  14  16
ENDBRANCH   6  14
TORSDOF 8
ENDMDL
