MODEL 1
REMARK VINA RESULT:    -5.685      0.000      0.000
REMARK INTER + INTRA:          -5.685
REMARK INTER:                  -5.685
REMARK INTRA:                   0.000
REMARK UNBOUND:                 0.000
REMARK SMILES C=C1CCC[C@]2(C)CC(=O)C(=C(C)C)C[C@H]12
REMARK SMILES IDX 13 1 12 2 11 3 15 4 16 5 2 6 1 7 3 8 4 9 5 10 6 11 8 12 9 13
REMARK SMILES IDX 10 14 7 15 14 16
REMARK H PARENT
REMARK Flexibility Score: inf
ROOT
ATOM      1  C   UNL     1     -12.182   8.281 -15.375  1.00  0.00     0.039 C 
ATOM      2  C   UNL     1     -12.712   6.957 -15.878  1.00  0.00    -0.070 C 
ATOM      3  C   UNL     1     -12.247   5.776 -15.374  1.00  0.00    -0.006 C 
ATOM      4  C   UNL     1     -11.135   5.723 -14.339  1.00  0.00     0.047 C 
ATOM      5  C   UNL     1     -11.322   4.532 -13.365  1.00  0.00     0.025 C 
ATOM      6  C   UNL     1     -10.190   4.554 -12.343  1.00  0.00    -0.073 C 
ATOM      7  C   UNL     1     -10.312   5.279 -11.220  1.00  0.00     0.008 C 
ATOM      8  C   UNL     1      -8.885   3.841 -12.610  1.00  0.00     0.031 C 
ATOM      9  C   UNL     1      -8.947   2.977 -13.870  1.00  0.00     0.005 C 
ATOM     10  C   UNL     1     -10.257   2.191 -13.898  1.00  0.00     0.008 C 
ATOM     11  C   UNL     1     -11.499   3.121 -14.083  1.00  0.00    -0.018 C 
ATOM     12  C   UNL     1     -11.767   3.280 -15.611  1.00  0.00     0.088 C 
ATOM     13  C   UNL     1     -12.665   4.445 -15.887  1.00  0.00     0.159 C 
ATOM     14  O   UNL     1     -13.753   4.263 -16.495  1.00  0.00    -0.295 OA
ATOM     15  C   UNL     1     -12.719   2.396 -13.462  1.00  0.00     0.012 C 
ATOM     16  C   UNL     1     -13.742   7.002 -16.983  1.00  0.00     0.039 C 
ENDROOT
TORSDOF 0
ENDMDL
MODEL 2
REMARK VINA RESULT:    -5.241      2.067      3.910
REMARK INTER + INTRA:          -5.241
REMARK INTER:                  -5.241
REMARK INTRA:                   0.000
REMARK UNBOUND:                 0.000
REMARK SMILES C=C1CCC[C@]2(C)CC(=O)C(=C(C)C)C[C@H]12
REMARK SMILES IDX 13 1 12 2 11 3 15 4 16 5 2 6 1 7 3 8 4 9 5 10 6 11 8 12 9 13
REMARK SMILES IDX 10 14 7 15 14 16
REMARK H PARENT
REMARK Flexibility Score: inf
ROOT
ATOM      1  C   UNL     1     -12.024   8.793 -15.000  1.00  0.00     0.039 C 
ATOM      2  C   UNL     1     -11.125   8.024 -14.059  1.00  0.00    -0.070 C 
ATOM      3  C   UNL     1     -11.087   6.659 -14.081  1.00  0.00    -0.006 C 
ATOM      4  C   UNL     1     -11.986   5.842 -14.995  1.00  0.00     0.047 C 
ATOM      5  C   UNL     1     -11.285   4.542 -15.467  1.00  0.00     0.025 C 
ATOM      6  C   UNL     1     -12.230   3.788 -16.397  1.00  0.00    -0.073 C 
ATOM      7  C   UNL     1     -12.243   4.064 -17.711  1.00  0.00     0.008 C 
ATOM      8  C   UNL     1     -13.224   2.788 -15.853  1.00  0.00     0.031 C 
ATOM      9  C   UNL     1     -13.007   2.509 -14.365  1.00  0.00     0.005 C 
ATOM     10  C   UNL     1     -11.517   2.322 -14.084  1.00  0.00     0.008 C 
ATOM     11  C   UNL     1     -10.708   3.644 -14.285  1.00  0.00    -0.018 C 
ATOM     12  C   UNL     1     -10.687   4.416 -12.930  1.00  0.00     0.088 C 
ATOM     13  C   UNL     1     -10.291   5.845 -13.125  1.00  0.00     0.159 C 
ATOM     14  O   UNL     1      -9.284   6.301 -12.521  1.00  0.00    -0.295 OA
ATOM     15  C   UNL     1      -9.250   3.249 -14.627  1.00  0.00     0.012 C 
ATOM     16  C   UNL     1     -10.307   8.828 -13.075  1.00  0.00     0.039 C 
ENDROOT
TORSDOF 0
ENDMDL
MODEL 3
REMARK VINA RESULT:    -5.107      2.642      4.765
REMARK INTER + INTRA:          -5.107
REMARK INTER:                  -5.107
REMARK INTRA:                   0.000
REMARK UNBOUND:                 0.000
REMARK SMILES C=C1CCC[C@]2(C)CC(=O)C(=C(C)C)C[C@H]12
REMARK SMILES IDX 13 1 12 2 11 3 15 4 16 5 2 6 1 7 3 8 4 9 5 10 6 11 8 12 9 13
REMARK SMILES IDX 10 14 7 15 14 16
REMARK H PARENT
REMARK Flexibility Score: inf
ROOT
ATOM      1  C   UNL     1     -15.608   2.141 -13.439  1.00  0.00     0.039 C 
ATOM      2  C   UNL     1     -14.875   2.134 -12.117  1.00  0.00    -0.070 C 
ATOM      3  C   UNL     1     -13.526   2.340 -12.059  1.00  0.00    -0.006 C 
ATOM      4  C   UNL     1     -12.683   2.517 -13.311  1.00  0.00     0.047 C 
ATOM      5  C   UNL     1     -11.499   3.487 -13.066  1.00  0.00     0.025 C 
ATOM      6  C   UNL     1     -10.715   3.638 -14.365  1.00  0.00    -0.073 C 
ATOM      7  C   UNL     1     -11.075   4.567 -15.265  1.00  0.00     0.008 C 
ATOM      8  C   UNL     1      -9.582   2.697 -14.704  1.00  0.00     0.031 C 
ATOM      9  C   UNL     1      -9.227   1.775 -13.537  1.00  0.00     0.005 C 
ATOM     10  C   UNL     1      -9.179   2.578 -12.237  1.00  0.00     0.008 C 
ATOM     11  C   UNL     1     -10.588   3.105 -11.816  1.00  0.00    -0.018 C 
ATOM     12  C   UNL     1     -11.265   2.025 -10.917  1.00  0.00     0.088 C 
ATOM     13  C   UNL     1     -12.738   2.260 -10.801  1.00  0.00     0.159 C 
ATOM     14  O   UNL     1     -13.255   2.426  -9.665  1.00  0.00    -0.295 OA
ATOM     15  C   UNL     1     -10.372   4.372 -10.952  1.00  0.00     0.012 C 
ATOM     16  C   UNL     1     -15.693   1.853 -10.877  1.00  0.00     0.039 C 
ENDROOT
TORSDOF 0
ENDMDL
MODEL 4
REMARK VINA RESULT:    -4.977      2.083      3.914
REMARK INTER + INTRA:          -4.977
REMARK INTER:                  -4.977
REMARK INTRA:                   0.000
REMARK UNBOUND:                 0.000
REMARK SMILES C=C1CCC[C@]2(C)CC(=O)C(=C(C)C)C[C@H]12
REMARK SMILES IDX 13 1 12 2 11 3 15 4 16 5 2 6 1 7 3 8 4 9 5 10 6 11 8 12 9 13
REMARK SMILES IDX 10 14 7 15 14 16
REMARK H PARENT
REMARK Flexibility Score: inf
ROOT
ATOM      1  C   UNL     1     -13.455   1.743 -15.748  1.00  0.00     0.039 C 
ATOM      2  C   UNL     1     -12.547   2.951 -15.735  1.00  0.00    -0.070 C 
ATOM      3  C   UNL     1     -12.048   3.444 -14.563  1.00  0.00    -0.006 C 
ATOM      4  C   UNL     1     -12.427   2.854 -13.214  1.00  0.00     0.047 C 
ATOM      5  C   UNL     1     -11.254   2.942 -12.205  1.00  0.00     0.025 C 
ATOM      6  C   UNL     1     -11.694   2.312 -10.888  1.00  0.00    -0.073 C 
ATOM      7  C   UNL     1     -11.548   0.992 -10.692  1.00  0.00     0.008 C 
ATOM      8  C   UNL     1     -12.378   3.135  -9.821  1.00  0.00     0.031 C 
ATOM      9  C   UNL     1     -12.367   4.629 -10.149  1.00  0.00     0.005 C 
ATOM     10  C   UNL     1     -10.984   5.041 -10.650  1.00  0.00     0.008 C 
ATOM     11  C   UNL     1     -10.645   4.404 -12.036  1.00  0.00    -0.018 C 
ATOM     12  C   UNL     1     -11.144   5.371 -13.154  1.00  0.00     0.088 C 
ATOM     13  C   UNL     1     -11.222   4.676 -14.477  1.00  0.00     0.159 C 
ATOM     14  O   UNL     1     -10.563   5.121 -15.454  1.00  0.00    -0.295 OA
ATOM     15  C   UNL     1      -9.102   4.316 -12.142  1.00  0.00     0.012 C 
ATOM     16  C   UNL     1     -12.251   3.606 -17.065  1.00  0.00     0.039 C 
ENDROOT
TORSDOF 0
ENDMDL
MODEL 5
REMARK VINA RESULT:    -4.760     15.784     18.439
REMARK INTER + INTRA:          -4.760
REMARK INTER:                  -4.760
REMARK INTRA:                   0.000
REMARK UNBOUND:                 0.000
REMARK SMILES C=C1CCC[C@]2(C)CC(=O)C(=C(C)C)C[C@H]12
REMARK SMILES IDX 13 1 12 2 11 3 15 4 16 5 2 6 1 7 3 8 4 9 5 10 6 11 8 12 9 13
REMARK SMILES IDX 10 14 7 15 14 16
REMARK H PARENT
REMARK Flexibility Score: inf
ROOT
ATOM      1  C   UNL     1     -28.801   8.715 -26.232  1.00  0.00     0.039 C 
ATOM      2  C   UNL     1     -27.970   9.357 -25.144  1.00  0.00    -0.070 C 
ATOM      3  C   UNL     1     -27.584   8.648 -24.042  1.00  0.00    -0.006 C 
ATOM      4  C   UNL     1     -28.019   7.210 -23.816  1.00  0.00     0.047 C 
ATOM      5  C   UNL     1     -26.925   6.395 -23.079  1.00  0.00     0.025 C 
ATOM      6  C   UNL     1     -27.416   4.961 -22.909  1.00  0.00    -0.073 C 
ATOM      7  C   UNL     1     -27.204   4.058 -23.880  1.00  0.00     0.008 C 
ATOM      8  C   UNL     1     -28.221   4.552 -21.697  1.00  0.00     0.031 C 
ATOM      9  C   UNL     1     -28.278   5.657 -20.642  1.00  0.00     0.005 C 
ATOM     10  C   UNL     1     -26.891   6.271 -20.456  1.00  0.00     0.008 C 
ATOM     11  C   UNL     1     -26.419   7.057 -21.722  1.00  0.00    -0.018 C 
ATOM     12  C   UNL     1     -26.898   8.535 -21.586  1.00  0.00     0.088 C 
ATOM     13  C   UNL     1     -26.842   9.246 -22.901  1.00  0.00     0.159 C 
ATOM     14  O   UNL     1     -26.145  10.289 -23.017  1.00  0.00    -0.295 OA
ATOM     15  C   UNL     1     -24.870   7.058 -21.717  1.00  0.00     0.012 C 
ATOM     16  C   UNL     1     -27.624  10.819 -25.313  1.00  0.00     0.039 C 
ENDROOT
TORSDOF 0
ENDMDL
MODEL 6
REMARK VINA RESULT:    -4.708     16.331     19.101
REMARK INTER + INTRA:          -4.708
REMARK INTER:                  -4.708
REMARK INTRA:                   0.000
REMARK UNBOUND:                 0.000
REMARK SMILES C=C1CCC[C@]2(C)CC(=O)C(=C(C)C)C[C@H]12
REMARK SMILES IDX 13 1 12 2 11 3 15 4 16 5 2 6 1 7 3 8 4 9 5 10 6 11 8 12 9 13
REMARK SMILES IDX 10 14 7 15 14 16
REMARK H PARENT
REMARK Flexibility Score: inf
ROOT
ATOM      1  C   UNL     1     -25.360  13.000 -25.100  1.00  0.00     0.039 C 
ATOM      2  C   UNL     1     -26.693  12.984 -24.388  1.00  0.00    -0.070 C 
ATOM      3  C   UNL     1     -27.176  11.838 -23.823  1.00  0.00    -0.006 C 
ATOM      4  C   UNL     1     -26.440  10.513 -23.935  1.00  0.00     0.047 C 
ATOM      5  C   UNL     1     -26.642   9.642 -22.669  1.00  0.00     0.025 C 
ATOM      6  C   UNL     1     -25.860   8.344 -22.839  1.00  0.00    -0.073 C 
ATOM      7  C   UNL     1     -24.569   8.284 -22.474  1.00  0.00     0.008 C 
ATOM      8  C   UNL     1     -26.487   7.137 -23.496  1.00  0.00     0.031 C 
ATOM      9  C   UNL     1     -27.983   7.329 -23.750  1.00  0.00     0.005 C 
ATOM     10  C   UNL     1     -28.644   7.948 -22.519  1.00  0.00     0.008 C 
ATOM     11  C   UNL     1     -28.167   9.415 -22.268  1.00  0.00    -0.018 C 
ATOM     12  C   UNL     1     -29.118  10.377 -23.044  1.00  0.00     0.088 C 
ATOM     13  C   UNL     1     -28.514  11.739 -23.186  1.00  0.00     0.159 C 
ATOM     14  O   UNL     1     -29.125  12.742 -22.730  1.00  0.00    -0.295 OA
ATOM     15  C   UNL     1     -28.332   9.705 -20.755  1.00  0.00     0.012 C 
ATOM     16  C   UNL     1     -27.478  14.276 -24.365  1.00  0.00     0.039 C 
ENDROOT
TORSDOF 0
ENDMDL
MODEL 7
REMARK VINA RESULT:    -4.707      2.564      4.082
REMARK INTER + INTRA:          -4.707
REMARK INTER:                  -4.707
REMARK INTRA:                   0.000
REMARK UNBOUND:                 0.000
REMARK SMILES C=C1CCC[C@]2(C)CC(=O)C(=C(C)C)C[C@H]12
REMARK SMILES IDX 13 1 12 2 11 3 15 4 16 5 2 6 1 7 3 8 4 9 5 10 6 11 8 12 9 13
REMARK SMILES IDX 10 14 7 15 14 16
REMARK H PARENT
REMARK Flexibility Score: inf
ROOT
ATOM      1  C   UNL     1     -14.205   2.478 -15.064  1.00  0.00     0.039 C 
ATOM      2  C   UNL     1     -12.759   2.902 -15.181  1.00  0.00    -0.070 C 
ATOM      3  C   UNL     1     -11.962   2.999 -14.075  1.00  0.00    -0.006 C 
ATOM      4  C   UNL     1     -12.496   2.754 -12.673  1.00  0.00     0.047 C 
ATOM      5  C   UNL     1     -11.416   2.122 -11.757  1.00  0.00     0.025 C 
ATOM      6  C   UNL     1     -12.025   1.882 -10.380  1.00  0.00    -0.073 C 
ATOM      7  C   UNL     1     -12.678   0.737 -10.124  1.00  0.00     0.008 C 
ATOM      8  C   UNL     1     -11.985   2.951  -9.313  1.00  0.00     0.031 C 
ATOM      9  C   UNL     1     -11.115   4.141  -9.720  1.00  0.00     0.005 C 
ATOM     10  C   UNL     1      -9.810   3.643 -10.341  1.00  0.00     0.008 C 
ATOM     11  C   UNL     1     -10.044   2.929 -11.711  1.00  0.00    -0.018 C 
ATOM     12  C   UNL     1      -9.966   4.002 -12.841  1.00  0.00     0.088 C 
ATOM     13  C   UNL     1     -10.561   3.492 -14.116  1.00  0.00     0.159 C 
ATOM     14  O   UNL     1      -9.857   3.452 -15.160  1.00  0.00    -0.295 OA
ATOM     15  C   UNL     1      -8.875   1.935 -11.922  1.00  0.00     0.012 C 
ATOM     16  C   UNL     1     -12.252   3.249 -16.562  1.00  0.00     0.039 C 
ENDROOT
TORSDOF 0
ENDMDL
MODEL 8
REMARK VINA RESULT:    -4.609     16.584     18.841
REMARK INTER + INTRA:          -4.609
REMARK INTER:                  -4.609
REMARK INTRA:                   0.000
REMARK UNBOUND:                 0.000
REMARK SMILES C=C1CCC[C@]2(C)CC(=O)C(=C(C)C)C[C@H]12
REMARK SMILES IDX 13 1 12 2 11 3 15 4 16 5 2 6 1 7 3 8 4 9 5 10 6 11 8 12 9 13
REMARK SMILES IDX 10 14 7 15 14 16
REMARK H PARENT
REMARK Flexibility Score: inf
ROOT
ATOM      1  C   UNL     1     -28.173  12.167 -23.621  1.00  0.00     0.039 C 
ATOM      2  C   UNL     1     -27.992  11.007 -24.573  1.00  0.00    -0.070 C 
ATOM      3  C   UNL     1     -27.797   9.738 -24.107  1.00  0.00    -0.006 C 
ATOM      4  C   UNL     1     -27.685   9.433 -22.622  1.00  0.00     0.047 C 
ATOM      5  C   UNL     1     -28.274   8.040 -22.281  1.00  0.00     0.025 C 
ATOM      6  C   UNL     1     -28.152   7.812 -20.779  1.00  0.00    -0.073 C 
ATOM      7  C   UNL     1     -29.119   8.242 -19.952  1.00  0.00     0.008 C 
ATOM      8  C   UNL     1     -26.912   7.185 -20.185  1.00  0.00     0.031 C 
ATOM      9  C   UNL     1     -25.962   6.654 -21.259  1.00  0.00     0.005 C 
ATOM     10  C   UNL     1     -26.754   5.900 -22.326  1.00  0.00     0.008 C 
ATOM     11  C   UNL     1     -27.680   6.847 -23.154  1.00  0.00    -0.018 C 
ATOM     12  C   UNL     1     -26.871   7.375 -24.378  1.00  0.00     0.088 C 
ATOM     13  C   UNL     1     -27.529   8.573 -24.989  1.00  0.00     0.159 C 
ATOM     14  O   UNL     1     -27.871   8.545 -26.201  1.00  0.00    -0.295 OA
ATOM     15  C   UNL     1     -28.854   5.994 -23.695  1.00  0.00     0.012 C 
ATOM     16  C   UNL     1     -27.998  11.321 -26.051  1.00  0.00     0.039 C 
ENDROOT
TORSDOF 0
ENDMDL
MODEL 9
REMARK VINA RESULT:    -4.535      1.845      2.641
REMARK INTER + INTRA:          -4.535
REMARK INTER:                  -4.535
REMARK INTRA:                   0.000
REMARK UNBOUND:                 0.000
REMARK SMILES C=C1CCC[C@]2(C)CC(=O)C(=C(C)C)C[C@H]12
REMARK SMILES IDX 13 1 12 2 11 3 15 4 16 5 2 6 1 7 3 8 4 9 5 10 6 11 8 12 9 13
REMARK SMILES IDX 10 14 7 15 14 16
REMARK H PARENT
REMARK Flexibility Score: inf
ROOT
ATOM      1  C   UNL     1      -9.692   8.005 -11.514  1.00  0.00     0.039 C 
ATOM      2  C   UNL     1     -10.387   7.623 -12.801  1.00  0.00    -0.070 C 
ATOM      3  C   UNL     1     -10.490   6.315 -13.184  1.00  0.00    -0.006 C 
ATOM      4  C   UNL     1      -9.862   5.188 -12.381  1.00  0.00     0.047 C 
ATOM      5  C   UNL     1     -10.709   3.893 -12.460  1.00  0.00     0.025 C 
ATOM      6  C   UNL     1     -10.037   2.817 -11.615  1.00  0.00    -0.073 C 
ATOM      7  C   UNL     1     -10.311   2.721 -10.304  1.00  0.00     0.008 C 
ATOM      8  C   UNL     1      -8.991   1.901 -12.208  1.00  0.00     0.031 C 
ATOM      9  C   UNL     1      -8.875   2.063 -13.724  1.00  0.00     0.005 C 
ATOM     10  C   UNL     1     -10.269   2.122 -14.348  1.00  0.00     0.008 C 
ATOM     11  C   UNL     1     -11.042   3.419 -13.944  1.00  0.00    -0.018 C 
ATOM     12  C   UNL     1     -10.718   4.528 -14.991  1.00  0.00     0.088 C 
ATOM     13  C   UNL     1     -11.084   5.884 -14.476  1.00  0.00     0.159 C 
ATOM     14  O   UNL     1     -11.904   6.594 -15.116  1.00  0.00    -0.295 OA
ATOM     15  C   UNL     1     -12.556   3.106 -14.038  1.00  0.00     0.012 C 
ATOM     16  C   UNL     1     -10.921   8.748 -13.657  1.00  0.00     0.039 C 
ENDROOT
TORSDOF 0
ENDMDL
