MODEL 1
REMARK VINA RESULT:    -4.786      0.000      0.000
REMARK INTER + INTRA:          -8.191
REMARK INTER:                  -6.744
REMARK INTRA:                  -1.447
REMARK UNBOUND:                -1.447
REMARK SMILES OCC1=C[C@@H](O)[C@@H]2C=CO[C@@H](O[C@H]3O[C@@H](CO)[C@@H](O)[C@@H](O)[C@@H]3O)[C@@H]12
REMARK SMILES IDX 12 1 11 2 8 3 9 4 7 5 10 6 24 7 5 8 3 9 4 10 6 11 2 13 1 14
REMARK SMILES IDX 13 16 22 17 14 18 20 19 15 20 18 21 23 22 21 24 16 26 17 27
REMARK SMILES IDX 19 29
REMARK H PARENT 6 12 1 15 23 23 21 25 17 28 19 30
REMARK Flexibility Score: inf
ROOT
ATOM      1  O   UNL     1      71.150  53.522  21.782  1.00  0.00    -0.310 OA
ENDROOT
BRANCH   1   2
ATOM      2  C   UNL     1      70.539  54.538  21.010  1.00  0.00     0.316 C 
ATOM      3  C   UNL     1      68.160  53.375  19.782  1.00  0.00     0.018 C 
ATOM      4  C   UNL     1      68.037  54.206  20.831  1.00  0.00     0.186 C 
ATOM      5  C   UNL     1      69.539  52.924  19.430  1.00  0.00     0.061 C 
ATOM      6  O   UNL     1      69.181  54.757  21.462  1.00  0.00    -0.472 OA
ATOM      7  C   UNL     1      70.484  54.111  19.538  1.00  0.00     0.096 C 
ATOM      8  C   UNL     1      69.840  52.366  18.042  1.00  0.00     0.145 C 
ATOM      9  C   UNL     1      71.688  53.601  18.822  1.00  0.00    -0.036 C 
ATOM     10  C   UNL     1      71.313  52.671  17.935  1.00  0.00     0.007 C 
BRANCH   8  11
ATOM     11  O   UNL     1      69.607  50.984  17.999  1.00  0.00    -0.388 OA
ATOM     12  H   UNL     1      69.992  50.663  17.143  1.00  0.00     0.211 HD
ENDBRANCH   8  11
BRANCH   9  13
ATOM     13  C   UNL     1      73.067  54.193  18.897  1.00  0.00     0.187 C 
BRANCH  13  14
ATOM     14  O   UNL     1      73.677  53.853  20.112  1.00  0.00    -0.392 OA
ATOM     15  H   UNL     1      74.360  53.163  19.907  1.00  0.00     0.211 HD
ENDBRANCH  13  14
ENDBRANCH   9  13
ENDBRANCH   1   2
BRANCH   1  16
ATOM     16  C   UNL     1      71.224  53.871  23.155  1.00  0.00     0.286 C 
ATOM     17  C   UNL     1      72.694  53.881  23.634  1.00  0.00     0.202 C 
ATOM     18  O   UNL     1      70.412  52.998  23.930  1.00  0.00    -0.341 OA
ATOM     19  C   UNL     1      73.282  52.464  23.694  1.00  0.00     0.179 C 
ATOM     20  C   UNL     1      70.861  51.647  23.954  1.00  0.00     0.178 C 
ATOM     21  C   UNL     1      72.327  51.513  24.441  1.00  0.00     0.177 C 
BRANCH  17  22
ATOM     22  O   UNL     1      72.821  54.531  24.877  1.00  0.00    -0.385 OA
ATOM     23  H   UNL     1      72.187  55.295  24.894  1.00  0.00     0.211 HD
ENDBRANCH  17  22
BRANCH  19  24
ATOM     24  O   UNL     1      73.529  52.003  22.389  1.00  0.00    -0.387 OA
ATOM     25  H   UNL     1      73.314  52.748  21.770  1.00  0.00     0.211 HD
ENDBRANCH  19  24
BRANCH  20  26
ATOM     26  C   UNL     1      70.526  50.892  22.646  1.00  0.00     0.191 C 
BRANCH  26  27
ATOM     27  O   UNL     1      70.470  49.507  22.879  1.00  0.00    -0.394 OA
ATOM     28  H   UNL     1      71.022  49.067  22.182  1.00  0.00     0.210 HD
ENDBRANCH  26  27
ENDBRANCH  20  26
BRANCH  21  29
ATOM     29  O   UNL     1      72.763  50.182  24.334  1.00  0.00    -0.387 OA
ATOM     30  H   UNL     1      71.973  49.640  24.076  1.00  0.00     0.211 HD
ENDBRANCH  21  29
ENDBRANCH   1  16
TORSDOF 10
ENDMDL
MODEL 2
REMARK VINA RESULT:    -4.742      1.974      5.272
REMARK INTER + INTRA:          -8.130
REMARK INTER:                  -6.692
REMARK INTRA:                  -1.438
REMARK UNBOUND:                -1.447
REMARK SMILES OCC1=C[C@@H](O)[C@@H]2C=CO[C@@H](O[C@H]3O[C@@H](CO)[C@@H](O)[C@@H](O)[C@@H]3O)[C@@H]12
REMARK SMILES IDX 12 1 11 2 8 3 9 4 7 5 10 6 24 7 5 8 3 9 4 10 6 11 2 13 1 14
REMARK SMILES IDX 13 16 22 17 14 18 20 19 15 20 18 21 23 22 21 24 16 26 17 27
REMARK SMILES IDX 19 29
REMARK H PARENT 6 12 1 15 23 23 21 25 17 28 19 30
REMARK Flexibility Score: inf
ROOT
ATOM      1  O   UNL     1      70.741  53.888  19.605  1.00  0.00    -0.310 OA
ENDROOT
BRANCH   1   2
ATOM      2  C   UNL     1      69.555  54.001  20.367  1.00  0.00     0.316 C 
ATOM      3  C   UNL     1      70.326  53.915  23.181  1.00  0.00     0.018 C 
ATOM      4  C   UNL     1      69.979  55.083  22.614  1.00  0.00     0.186 C 
ATOM      5  C   UNL     1      70.498  52.743  22.272  1.00  0.00     0.061 C 
ATOM      6  O   UNL     1      69.632  55.152  21.241  1.00  0.00    -0.472 OA
ATOM      7  C   UNL     1      69.378  52.754  21.242  1.00  0.00     0.096 C 
ATOM      8  C   UNL     1      70.448  51.321  22.823  1.00  0.00     0.145 C 
ATOM      9  C   UNL     1      69.477  51.377  20.678  1.00  0.00    -0.036 C 
ATOM     10  C   UNL     1      70.014  50.563  21.594  1.00  0.00     0.007 C 
BRANCH   8  11
ATOM     11  O   UNL     1      71.718  50.907  23.249  1.00  0.00    -0.388 OA
ATOM     12  H   UNL     1      72.159  51.710  23.630  1.00  0.00     0.211 HD
ENDBRANCH   8  11
BRANCH   9  13
ATOM     13  C   UNL     1      68.857  50.913  19.390  1.00  0.00     0.187 C 
BRANCH  13  14
ATOM     14  O   UNL     1      69.739  51.126  18.322  1.00  0.00    -0.392 OA
ATOM     15  H   UNL     1      70.401  51.801  18.626  1.00  0.00     0.211 HD
ENDBRANCH  13  14
ENDBRANCH   9  13
ENDBRANCH   1   2
BRANCH   1  16
ATOM     16  C   UNL     1      70.971  55.041  18.809  1.00  0.00     0.286 C 
ATOM     17  C   UNL     1      71.036  54.662  17.312  1.00  0.00     0.202 C 
ATOM     18  O   UNL     1      72.146  55.713  19.245  1.00  0.00    -0.341 OA
ATOM     19  C   UNL     1      72.304  53.860  16.982  1.00  0.00     0.179 C 
ATOM     20  C   UNL     1      73.351  54.981  19.043  1.00  0.00     0.178 C 
ATOM     21  C   UNL     1      73.550  54.555  17.565  1.00  0.00     0.177 C 
BRANCH  17  22
ATOM     22  O   UNL     1      70.936  55.802  16.492  1.00  0.00    -0.385 OA
ATOM     23  H   UNL     1      70.822  56.596  17.077  1.00  0.00     0.211 HD
ENDBRANCH  17  22
BRANCH  19  24
ATOM     24  O   UNL     1      72.177  52.554  17.486  1.00  0.00    -0.387 OA
ATOM     25  H   UNL     1      71.254  52.250  17.282  1.00  0.00     0.211 HD
ENDBRANCH  19  24
BRANCH  20  26
ATOM     26  C   UNL     1      73.537  53.855  20.088  1.00  0.00     0.191 C 
BRANCH  26  27
ATOM     27  O   UNL     1      74.901  53.669  20.370  1.00  0.00    -0.394 OA
ATOM     28  H   UNL     1      75.330  54.564  20.364  1.00  0.00     0.210 HD
ENDBRANCH  26  27
ENDBRANCH  20  26
BRANCH  21  29
ATOM     29  O   UNL     1      74.684  53.736  17.437  1.00  0.00    -0.387 OA
ATOM     30  H   UNL     1      75.447  54.238  17.825  1.00  0.00     0.211 HD
ENDBRANCH  21  29
ENDBRANCH   1  16
TORSDOF 10
ENDMDL
MODEL 3
REMARK VINA RESULT:    -4.606      2.480      4.452
REMARK INTER + INTRA:          -7.939
REMARK INTER:                  -6.633
REMARK INTRA:                  -1.306
REMARK UNBOUND:                -1.447
REMARK SMILES OCC1=C[C@@H](O)[C@@H]2C=CO[C@@H](O[C@H]3O[C@@H](CO)[C@@H](O)[C@@H](O)[C@@H]3O)[C@@H]12
REMARK SMILES IDX 12 1 11 2 8 3 9 4 7 5 10 6 24 7 5 8 3 9 4 10 6 11 2 13 1 14
REMARK SMILES IDX 13 16 22 17 14 18 20 19 15 20 18 21 23 22 21 24 16 26 17 27
REMARK SMILES IDX 19 29
REMARK H PARENT 6 12 1 15 23 23 21 25 17 28 19 30
REMARK Flexibility Score: inf
ROOT
ATOM      1  O   UNL     1      70.258  53.656  20.493  1.00  0.00    -0.310 OA
ENDROOT
BRANCH   1   2
ATOM      2  C   UNL     1      70.900  52.762  19.603  1.00  0.00     0.316 C 
ATOM      3  C   UNL     1      69.430  52.853  17.082  1.00  0.00     0.018 C 
ATOM      4  C   UNL     1      70.618  53.474  17.191  1.00  0.00     0.186 C 
ATOM      5  C   UNL     1      68.824  52.319  18.338  1.00  0.00     0.061 C 
ATOM      6  O   UNL     1      71.333  53.469  18.415  1.00  0.00    -0.472 OA
ATOM      7  C   UNL     1      69.919  51.666  19.169  1.00  0.00     0.096 C 
ATOM      8  C   UNL     1      67.744  51.243  18.280  1.00  0.00     0.145 C 
ATOM      9  C   UNL     1      69.119  50.890  20.160  1.00  0.00    -0.036 C 
ATOM     10  C   UNL     1      67.926  50.596  19.630  1.00  0.00     0.007 C 
BRANCH   8  11
ATOM     11  O   UNL     1      66.472  51.820  18.165  1.00  0.00    -0.388 OA
ATOM     12  H   UNL     1      65.839  51.071  18.015  1.00  0.00     0.211 HD
ENDBRANCH   8  11
BRANCH   9  13
ATOM     13  C   UNL     1      69.640  50.316  21.447  1.00  0.00     0.187 C 
BRANCH  13  14
ATOM     14  O   UNL     1      69.835  51.334  22.390  1.00  0.00    -0.392 OA
ATOM     15  H   UNL     1      70.494  51.965  21.999  1.00  0.00     0.211 HD
ENDBRANCH  13  14
ENDBRANCH   9  13
ENDBRANCH   1   2
BRANCH   1  16
ATOM     16  C   UNL     1      70.724  54.987  20.334  1.00  0.00     0.286 C 
ATOM     17  C   UNL     1      71.416  55.477  21.627  1.00  0.00     0.202 C 
ATOM     18  O   UNL     1      69.655  55.838  19.941  1.00  0.00    -0.341 OA
ATOM     19  C   UNL     1      70.409  55.687  22.767  1.00  0.00     0.179 C 
ATOM     20  C   UNL     1      68.643  56.005  20.928  1.00  0.00     0.178 C 
ATOM     21  C   UNL     1      69.206  56.518  22.280  1.00  0.00     0.177 C 
BRANCH  17  22
ATOM     22  O   UNL     1      72.162  56.648  21.394  1.00  0.00    -0.385 OA
ATOM     23  H   UNL     1      72.491  56.986  22.267  1.00  0.00     0.211 HD
ENDBRANCH  17  22
BRANCH  19  24
ATOM     24  O   UNL     1      69.989  54.438  23.258  1.00  0.00    -0.387 OA
ATOM     25  H   UNL     1      69.000  54.472  23.336  1.00  0.00     0.211 HD
ENDBRANCH  19  24
BRANCH  20  26
ATOM     26  C   UNL     1      67.707  54.777  21.024  1.00  0.00     0.191 C 
BRANCH  26  27
ATOM     27  O   UNL     1      67.164  54.474  19.764  1.00  0.00    -0.394 OA
ATOM     28  H   UNL     1      67.896  54.554  19.099  1.00  0.00     0.210 HD
ENDBRANCH  26  27
ENDBRANCH  20  26
BRANCH  21  29
ATOM     29  O   UNL     1      68.195  56.551  23.254  1.00  0.00    -0.387 OA
ATOM     30  H   UNL     1      67.393  56.947  22.824  1.00  0.00     0.211 HD
ENDBRANCH  21  29
ENDBRANCH   1  16
TORSDOF 10
ENDMDL
MODEL 4
REMARK VINA RESULT:    -4.592      2.123      4.555
REMARK INTER + INTRA:          -7.918
REMARK INTER:                  -7.062
REMARK INTRA:                  -0.856
REMARK UNBOUND:                -1.447
REMARK SMILES OCC1=C[C@@H](O)[C@@H]2C=CO[C@@H](O[C@H]3O[C@@H](CO)[C@@H](O)[C@@H](O)[C@@H]3O)[C@@H]12
REMARK SMILES IDX 12 1 11 2 8 3 9 4 7 5 10 6 24 7 5 8 3 9 4 10 6 11 2 13 1 14
REMARK SMILES IDX 13 16 22 17 14 18 20 19 15 20 18 21 23 22 21 24 16 26 17 27
REMARK SMILES IDX 19 29
REMARK H PARENT 6 12 1 15 23 23 21 25 17 28 19 30
REMARK Flexibility Score: inf
ROOT
ATOM      1  O   UNL     1      70.660  53.356  19.485  1.00  0.00    -0.310 OA
ENDROOT
BRANCH   1   2
ATOM      2  C   UNL     1      70.996  54.726  19.371  1.00  0.00     0.316 C 
ATOM      3  C   UNL     1      72.518  55.036  16.899  1.00  0.00     0.018 C 
ATOM      4  C   UNL     1      71.236  55.436  16.954  1.00  0.00     0.186 C 
ATOM      5  C   UNL     1      73.037  54.254  18.060  1.00  0.00     0.061 C 
ATOM      6  O   UNL     1      70.470  55.266  18.134  1.00  0.00    -0.472 OA
ATOM      7  C   UNL     1      72.522  54.886  19.344  1.00  0.00     0.096 C 
ATOM      8  C   UNL     1      74.538  54.139  18.308  1.00  0.00     0.145 C 
ATOM      9  C   UNL     1      73.397  54.244  20.366  1.00  0.00    -0.036 C 
ATOM     10  C   UNL     1      74.554  53.890  19.795  1.00  0.00     0.007 C 
BRANCH   8  11
ATOM     11  O   UNL     1      75.077  53.051  17.608  1.00  0.00    -0.388 OA
ATOM     12  H   UNL     1      74.381  52.763  16.962  1.00  0.00     0.211 HD
ENDBRANCH   8  11
BRANCH   9  13
ATOM     13  C   UNL     1      73.137  54.214  21.846  1.00  0.00     0.187 C 
BRANCH  13  14
ATOM     14  O   UNL     1      73.415  52.941  22.363  1.00  0.00    -0.392 OA
ATOM     15  H   UNL     1      73.670  53.067  23.314  1.00  0.00     0.211 HD
ENDBRANCH  13  14
ENDBRANCH   9  13
ENDBRANCH   1   2
BRANCH   1  16
ATOM     16  C   UNL     1      70.108  53.051  20.756  1.00  0.00     0.286 C 
ATOM     17  C   UNL     1      70.424  51.588  21.146  1.00  0.00     0.202 C 
ATOM     18  O   UNL     1      68.712  53.320  20.764  1.00  0.00    -0.341 OA
ATOM     19  C   UNL     1      69.647  50.587  20.278  1.00  0.00     0.179 C 
ATOM     20  C   UNL     1      67.946  52.477  19.910  1.00  0.00     0.178 C 
ATOM     21  C   UNL     1      68.156  50.971  20.213  1.00  0.00     0.177 C 
BRANCH  17  22
ATOM     22  O   UNL     1      70.180  51.361  22.514  1.00  0.00    -0.385 OA
ATOM     23  H   UNL     1      71.020  51.035  22.929  1.00  0.00     0.211 HD
ENDBRANCH  17  22
BRANCH  19  24
ATOM     24  O   UNL     1      70.211  50.548  18.990  1.00  0.00    -0.387 OA
ATOM     25  H   UNL     1      69.744  49.829  18.489  1.00  0.00     0.211 HD
ENDBRANCH  19  24
BRANCH  20  26
ATOM     26  C   UNL     1      68.073  52.877  18.421  1.00  0.00     0.191 C 
BRANCH  26  27
ATOM     27  O   UNL     1      66.930  52.480  17.707  1.00  0.00    -0.394 OA
ATOM     28  H   UNL     1      66.913  51.488  17.703  1.00  0.00     0.210 HD
ENDBRANCH  26  27
ENDBRANCH  20  26
BRANCH  21  29
ATOM     29  O   UNL     1      67.478  50.179  19.272  1.00  0.00    -0.387 OA
ATOM     30  H   UNL     1      66.531  50.478  19.272  1.00  0.00     0.211 HD
ENDBRANCH  21  29
ENDBRANCH   1  16
TORSDOF 10
ENDMDL
MODEL 5
REMARK VINA RESULT:    -4.570      2.426      4.794
REMARK INTER + INTRA:          -7.887
REMARK INTER:                  -6.586
REMARK INTRA:                  -1.301
REMARK UNBOUND:                -1.447
REMARK SMILES OCC1=C[C@@H](O)[C@@H]2C=CO[C@@H](O[C@H]3O[C@@H](CO)[C@@H](O)[C@@H](O)[C@@H]3O)[C@@H]12
REMARK SMILES IDX 12 1 11 2 8 3 9 4 7 5 10 6 24 7 5 8 3 9 4 10 6 11 2 13 1 14
REMARK SMILES IDX 13 16 22 17 14 18 20 19 15 20 18 21 23 22 21 24 16 26 17 27
REMARK SMILES IDX 19 29
REMARK H PARENT 6 12 1 15 23 23 21 25 17 28 19 30
REMARK Flexibility Score: inf
ROOT
ATOM      1  O   UNL     1      70.537  53.818  24.007  1.00  0.00    -0.310 OA
ENDROOT
BRANCH   1   2
ATOM      2  C   UNL     1      71.205  53.441  22.818  1.00  0.00     0.316 C 
ATOM      3  C   UNL     1      69.290  51.962  21.186  1.00  0.00     0.018 C 
ATOM      4  C   UNL     1      69.606  53.229  20.869  1.00  0.00     0.186 C 
ATOM      5  C   UNL     1      69.787  51.444  22.495  1.00  0.00     0.061 C 
ATOM      6  O   UNL     1      70.509  53.976  21.666  1.00  0.00    -0.472 OA
ATOM      7  C   UNL     1      71.221  51.913  22.692  1.00  0.00     0.096 C 
ATOM      8  C   UNL     1      69.875  49.942  22.751  1.00  0.00     0.145 C 
ATOM      9  C   UNL     1      71.671  51.037  23.813  1.00  0.00    -0.036 C 
ATOM     10  C   UNL     1      70.959  49.903  23.798  1.00  0.00     0.007 C 
BRANCH   8  11
ATOM     11  O   UNL     1      68.664  49.452  23.260  1.00  0.00    -0.388 OA
ATOM     12  H   UNL     1      68.163  50.241  23.594  1.00  0.00     0.211 HD
ENDBRANCH   8  11
BRANCH   9  13
ATOM     13  C   UNL     1      72.883  51.266  24.670  1.00  0.00     0.187 C 
BRANCH  13  14
ATOM     14  O   UNL     1      73.992  50.599  24.133  1.00  0.00    -0.392 OA
ATOM     15  H   UNL     1      74.023  50.828  23.167  1.00  0.00     0.211 HD
ENDBRANCH  13  14
ENDBRANCH   9  13
ENDBRANCH   1   2
BRANCH   1  16
ATOM     16  C   UNL     1      71.365  54.599  24.855  1.00  0.00     0.286 C 
ATOM     17  C   UNL     1      71.144  54.213  26.335  1.00  0.00     0.202 C 
ATOM     18  O   UNL     1      71.140  55.984  24.621  1.00  0.00    -0.341 OA
ATOM     19  C   UNL     1      69.762  54.656  26.839  1.00  0.00     0.179 C 
ATOM     20  C   UNL     1      69.842  56.438  24.990  1.00  0.00     0.178 C 
ATOM     21  C   UNL     1      69.500  56.130  26.471  1.00  0.00     0.177 C 
BRANCH  17  22
ATOM     22  O   UNL     1      72.166  54.728  27.155  1.00  0.00    -0.385 OA
ATOM     23  H   UNL     1      72.743  53.973  27.443  1.00  0.00     0.211 HD
ENDBRANCH  17  22
BRANCH  19  24
ATOM     24  O   UNL     1      68.773  53.820  26.292  1.00  0.00    -0.387 OA
ATOM     25  H   UNL     1      68.086  53.682  26.994  1.00  0.00     0.211 HD
ENDBRANCH  19  24
BRANCH  20  26
ATOM     26  C   UNL     1      68.761  56.030  23.962  1.00  0.00     0.191 C 
BRANCH  26  27
ATOM     27  O   UNL     1      69.187  56.332  22.657  1.00  0.00    -0.394 OA
ATOM     28  H   UNL     1      70.012  56.878  22.732  1.00  0.00     0.210 HD
ENDBRANCH  26  27
ENDBRANCH  20  26
BRANCH  21  29
ATOM     29  O   UNL     1      68.171  56.486  26.755  1.00  0.00    -0.387 OA
ATOM     30  H   UNL     1      67.994  57.339  26.280  1.00  0.00     0.211 HD
ENDBRANCH  21  29
ENDBRANCH   1  16
TORSDOF 10
ENDMDL
MODEL 6
REMARK VINA RESULT:    -4.470      2.812      5.820
REMARK INTER + INTRA:          -7.746
REMARK INTER:                  -6.304
REMARK INTRA:                  -1.442
REMARK UNBOUND:                -1.447
REMARK SMILES OCC1=C[C@@H](O)[C@@H]2C=CO[C@@H](O[C@H]3O[C@@H](CO)[C@@H](O)[C@@H](O)[C@@H]3O)[C@@H]12
REMARK SMILES IDX 12 1 11 2 8 3 9 4 7 5 10 6 24 7 5 8 3 9 4 10 6 11 2 13 1 14
REMARK SMILES IDX 13 16 22 17 14 18 20 19 15 20 18 21 23 22 21 24 16 26 17 27
REMARK SMILES IDX 19 29
REMARK H PARENT 6 12 1 15 23 23 21 25 17 28 19 30
REMARK Flexibility Score: inf
ROOT
ATOM      1  O   UNL     1      71.356  53.864  18.856  1.00  0.00    -0.310 OA
ENDROOT
BRANCH   1   2
ATOM      2  C   UNL     1      70.753  52.781  19.539  1.00  0.00     0.316 C 
ATOM      3  C   UNL     1      68.000  52.588  18.588  1.00  0.00     0.018 C 
ATOM      4  C   UNL     1      68.921  51.706  18.164  1.00  0.00     0.186 C 
ATOM      5  C   UNL     1      68.491  53.760  19.372  1.00  0.00     0.061 C 
ATOM      6  O   UNL     1      70.270  51.801  18.589  1.00  0.00    -0.472 OA
ATOM      7  C   UNL     1      69.552  53.282  20.352  1.00  0.00     0.096 C 
ATOM      8  C   UNL     1      67.535  54.555  20.257  1.00  0.00     0.145 C 
ATOM      9  C   UNL     1      69.659  54.451  21.271  1.00  0.00    -0.036 C 
ATOM     10  C   UNL     1      68.500  55.122  21.267  1.00  0.00     0.007 C 
BRANCH   8  11
ATOM     11  O   UNL     1      66.912  55.576  19.526  1.00  0.00    -0.388 OA
ATOM     12  H   UNL     1      66.211  55.138  18.976  1.00  0.00     0.211 HD
ENDBRANCH   8  11
BRANCH   9  13
ATOM     13  C   UNL     1      70.783  54.708  22.234  1.00  0.00     0.187 C 
BRANCH  13  14
ATOM     14  O   UNL     1      71.861  55.312  21.573  1.00  0.00    -0.392 OA
ATOM     15  H   UNL     1      72.284  55.933  22.223  1.00  0.00     0.211 HD
ENDBRANCH  13  14
ENDBRANCH   9  13
ENDBRANCH   1   2
BRANCH   1  16
ATOM     16  C   UNL     1      72.325  53.424  17.919  1.00  0.00     0.286 C 
ATOM     17  C   UNL     1      73.739  53.884  18.344  1.00  0.00     0.202 C 
ATOM     18  O   UNL     1      71.985  53.871  16.612  1.00  0.00    -0.341 OA
ATOM     19  C   UNL     1      73.909  55.404  18.202  1.00  0.00     0.179 C 
ATOM     20  C   UNL     1      72.042  55.284  16.442  1.00  0.00     0.178 C 
ATOM     21  C   UNL     1      73.426  55.875  16.817  1.00  0.00     0.177 C 
BRANCH  17  22
ATOM     22  O   UNL     1      74.737  53.198  17.626  1.00  0.00    -0.385 OA
ATOM     23  H   UNL     1      74.938  53.715  16.803  1.00  0.00     0.211 HD
ENDBRANCH  17  22
BRANCH  19  24
ATOM     24  O   UNL     1      73.200  56.053  19.228  1.00  0.00    -0.387 OA
ATOM     25  H   UNL     1      73.572  55.731  20.090  1.00  0.00     0.211 HD
ENDBRANCH  19  24
BRANCH  20  26
ATOM     26  C   UNL     1      70.823  56.002  17.069  1.00  0.00     0.191 C 
BRANCH  26  27
ATOM     27  O   UNL     1      70.593  57.229  16.425  1.00  0.00    -0.394 OA
ATOM     28  H   UNL     1      70.785  57.099  15.461  1.00  0.00     0.210 HD
ENDBRANCH  26  27
ENDBRANCH  20  26
BRANCH  21  29
ATOM     29  O   UNL     1      73.398  57.278  16.749  1.00  0.00    -0.387 OA
ATOM     30  H   UNL     1      74.341  57.586  16.765  1.00  0.00     0.211 HD
ENDBRANCH  21  29
ENDBRANCH   1  16
TORSDOF 10
ENDMDL
MODEL 7
REMARK VINA RESULT:    -4.433      1.895      3.576
REMARK INTER + INTRA:          -7.694
REMARK INTER:                  -6.434
REMARK INTRA:                  -1.259
REMARK UNBOUND:                -1.447
REMARK SMILES OCC1=C[C@@H](O)[C@@H]2C=CO[C@@H](O[C@H]3O[C@@H](CO)[C@@H](O)[C@@H](O)[C@@H]3O)[C@@H]12
REMARK SMILES IDX 12 1 11 2 8 3 9 4 7 5 10 6 24 7 5 8 3 9 4 10 6 11 2 13 1 14
REMARK SMILES IDX 13 16 22 17 14 18 20 19 15 20 18 21 23 22 21 24 16 26 17 27
REMARK SMILES IDX 19 29
REMARK H PARENT 6 12 1 15 23 23 21 25 17 28 19 30
REMARK Flexibility Score: inf
ROOT
ATOM      1  O   UNL     1      71.669  54.257  20.402  1.00  0.00    -0.310 OA
ENDROOT
BRANCH   1   2
ATOM      2  C   UNL     1      71.742  55.347  19.504  1.00  0.00     0.316 C 
ATOM      3  C   UNL     1      72.411  54.257  16.879  1.00  0.00     0.018 C 
ATOM      4  C   UNL     1      71.155  54.658  17.141  1.00  0.00     0.186 C 
ATOM      5  C   UNL     1      73.360  54.199  18.031  1.00  0.00     0.061 C 
ATOM      6  O   UNL     1      70.802  55.161  18.418  1.00  0.00    -0.472 OA
ATOM      7  C   UNL     1      73.150  55.430  18.900  1.00  0.00     0.096 C 
ATOM      8  C   UNL     1      74.867  54.195  17.793  1.00  0.00     0.145 C 
ATOM      9  C   UNL     1      74.373  55.407  19.753  1.00  0.00    -0.036 C 
ATOM     10  C   UNL     1      75.354  54.774  19.098  1.00  0.00     0.007 C 
BRANCH   8  11
ATOM     11  O   UNL     1      75.340  52.888  17.614  1.00  0.00    -0.388 OA
ATOM     12  H   UNL     1      74.539  52.319  17.474  1.00  0.00     0.211 HD
ENDBRANCH   8  11
BRANCH   9  13
ATOM     13  C   UNL     1      74.563  56.174  21.030  1.00  0.00     0.187 C 
BRANCH  13  14
ATOM     14  O   UNL     1      74.077  55.436  22.118  1.00  0.00    -0.392 OA
ATOM     15  H   UNL     1      73.402  54.804  21.757  1.00  0.00     0.211 HD
ENDBRANCH  13  14
ENDBRANCH   9  13
ENDBRANCH   1   2
BRANCH   1  16
ATOM     16  C   UNL     1      70.592  54.395  21.316  1.00  0.00     0.286 C 
ATOM     17  C   UNL     1      71.016  53.930  22.729  1.00  0.00     0.202 C 
ATOM     18  O   UNL     1      69.450  53.695  20.840  1.00  0.00    -0.341 OA
ATOM     19  C   UNL     1      71.217  52.408  22.790  1.00  0.00     0.179 C 
ATOM     20  C   UNL     1      69.605  52.281  20.793  1.00  0.00     0.178 C 
ATOM     21  C   UNL     1      70.013  51.679  22.163  1.00  0.00     0.177 C 
BRANCH  17  22
ATOM     22  O   UNL     1      70.094  54.355  23.704  1.00  0.00    -0.385 OA
ATOM     23  H   UNL     1      70.600  54.783  24.443  1.00  0.00     0.211 HD
ENDBRANCH  17  22
BRANCH  19  24
ATOM     24  O   UNL     1      72.409  52.065  22.129  1.00  0.00    -0.387 OA
ATOM     25  H   UNL     1      72.280  52.271  21.167  1.00  0.00     0.211 HD
ENDBRANCH  19  24
BRANCH  20  26
ATOM     26  C   UNL     1      70.460  51.822  19.588  1.00  0.00     0.191 C 
BRANCH  26  27
ATOM     27  O   UNL     1      70.045  50.555  19.146  1.00  0.00    -0.394 OA
ATOM     28  H   UNL     1      69.119  50.649  18.802  1.00  0.00     0.210 HD
ENDBRANCH  26  27
ENDBRANCH  20  26
BRANCH  21  29
ATOM     29  O   UNL     1      70.271  50.304  22.041  1.00  0.00    -0.387 OA
ATOM     30  H   UNL     1      70.473  49.966  22.952  1.00  0.00     0.211 HD
ENDBRANCH  21  29
ENDBRANCH   1  16
TORSDOF 10
ENDMDL
MODEL 8
REMARK VINA RESULT:    -4.365      2.677      5.384
REMARK INTER + INTRA:          -7.599
REMARK INTER:                  -6.186
REMARK INTRA:                  -1.413
REMARK UNBOUND:                -1.447
REMARK SMILES OCC1=C[C@@H](O)[C@@H]2C=CO[C@@H](O[C@H]3O[C@@H](CO)[C@@H](O)[C@@H](O)[C@@H]3O)[C@@H]12
REMARK SMILES IDX 12 1 11 2 8 3 9 4 7 5 10 6 24 7 5 8 3 9 4 10 6 11 2 13 1 14
REMARK SMILES IDX 13 16 22 17 14 18 20 19 15 20 18 21 23 22 21 24 16 26 17 27
REMARK SMILES IDX 19 29
REMARK H PARENT 6 12 1 15 23 23 21 25 17 28 19 30
REMARK Flexibility Score: inf
ROOT
ATOM      1  O   UNL     1      70.961  53.744  19.196  1.00  0.00    -0.310 OA
ENDROOT
BRANCH   1   2
ATOM      2  C   UNL     1      72.372  53.837  19.141  1.00  0.00     0.316 C 
ATOM      3  C   UNL     1      73.135  56.243  20.607  1.00  0.00     0.018 C 
ATOM      4  C   UNL     1      73.315  55.032  21.162  1.00  0.00     0.186 C 
ATOM      5  C   UNL     1      72.353  56.299  19.337  1.00  0.00     0.061 C 
ATOM      6  O   UNL     1      72.921  53.852  20.481  1.00  0.00    -0.472 OA
ATOM      7  C   UNL     1      72.781  55.142  18.447  1.00  0.00     0.096 C 
ATOM      8  C   UNL     1      72.464  57.508  18.411  1.00  0.00     0.145 C 
ATOM      9  C   UNL     1      72.206  55.546  17.132  1.00  0.00    -0.036 C 
ATOM     10  C   UNL     1      72.095  56.880  17.091  1.00  0.00     0.007 C 
BRANCH   8  11
ATOM     11  O   UNL     1      71.542  58.499  18.774  1.00  0.00    -0.388 OA
ATOM     12  H   UNL     1      70.642  58.124  18.589  1.00  0.00     0.211 HD
ENDBRANCH   8  11
BRANCH   9  13
ATOM     13  C   UNL     1      72.008  54.642  15.948  1.00  0.00     0.187 C 
BRANCH  13  14
ATOM     14  O   UNL     1      70.821  53.911  16.088  1.00  0.00    -0.392 OA
ATOM     15  H   UNL     1      70.077  54.568  16.088  1.00  0.00     0.211 HD
ENDBRANCH  13  14
ENDBRANCH   9  13
ENDBRANCH   1   2
BRANCH   1  16
ATOM     16  C   UNL     1      70.530  52.791  20.155  1.00  0.00     0.286 C 
ATOM     17  C   UNL     1      70.080  51.486  19.458  1.00  0.00     0.202 C 
ATOM     18  O   UNL     1      69.506  53.345  20.972  1.00  0.00    -0.341 OA
ATOM     19  C   UNL     1      68.772  51.680  18.677  1.00  0.00     0.179 C 
ATOM     20  C   UNL     1      68.292  53.627  20.283  1.00  0.00     0.178 C 
ATOM     21  C   UNL     1      67.718  52.385  19.552  1.00  0.00     0.177 C 
BRANCH  17  22
ATOM     22  O   UNL     1      69.961  50.430  20.382  1.00  0.00    -0.385 OA
ATOM     23  H   UNL     1      69.288  49.789  20.035  1.00  0.00     0.211 HD
ENDBRANCH  17  22
BRANCH  19  24
ATOM     24  O   UNL     1      69.029  52.420  17.509  1.00  0.00    -0.387 OA
ATOM     25  H   UNL     1      69.924  52.144  17.179  1.00  0.00     0.211 HD
ENDBRANCH  19  24
BRANCH  20  26
ATOM     26  C   UNL     1      68.386  54.913  19.429  1.00  0.00     0.191 C 
BRANCH  26  27
ATOM     27  O   UNL     1      67.155  55.590  19.425  1.00  0.00    -0.394 OA
ATOM     28  H   UNL     1      67.283  56.440  19.920  1.00  0.00     0.210 HD
ENDBRANCH  26  27
ENDBRANCH  20  26
BRANCH  21  29
ATOM     29  O   UNL     1      66.592  52.738  18.791  1.00  0.00    -0.387 OA
ATOM     30  H   UNL     1      65.798  52.606  19.372  1.00  0.00     0.211 HD
ENDBRANCH  21  29
ENDBRANCH   1  16
TORSDOF 10
ENDMDL
MODEL 9
REMARK VINA RESULT:    -4.331      2.219      4.732
REMARK INTER + INTRA:          -7.550
REMARK INTER:                  -6.253
REMARK INTRA:                  -1.298
REMARK UNBOUND:                -1.447
REMARK SMILES OCC1=C[C@@H](O)[C@@H]2C=CO[C@@H](O[C@H]3O[C@@H](CO)[C@@H](O)[C@@H](O)[C@@H]3O)[C@@H]12
REMARK SMILES IDX 12 1 11 2 8 3 9 4 7 5 10 6 24 7 5 8 3 9 4 10 6 11 2 13 1 14
REMARK SMILES IDX 13 16 22 17 14 18 20 19 15 20 18 21 23 22 21 24 16 26 17 27
REMARK SMILES IDX 19 29
REMARK H PARENT 6 12 1 15 23 23 21 25 17 28 19 30
REMARK Flexibility Score: inf
ROOT
ATOM      1  O   UNL     1      70.255  53.901  20.503  1.00  0.00    -0.310 OA
ENDROOT
BRANCH   1   2
ATOM      2  C   UNL     1      70.929  52.938  19.716  1.00  0.00     0.316 C 
ATOM      3  C   UNL     1      69.233  52.369  17.409  1.00  0.00     0.018 C 
ATOM      4  C   UNL     1      70.326  53.138  17.266  1.00  0.00     0.186 C 
ATOM      5  C   UNL     1      68.828  52.015  18.802  1.00  0.00     0.061 C 
ATOM      6  O   UNL     1      71.146  53.453  18.379  1.00  0.00    -0.472 OA
ATOM      7  C   UNL     1      70.076  51.669  19.601  1.00  0.00     0.096 C 
ATOM      8  C   UNL     1      67.909  50.825  19.063  1.00  0.00     0.145 C 
ATOM      9  C   UNL     1      69.490  51.006  20.801  1.00  0.00    -0.036 C 
ATOM     10  C   UNL     1      68.305  50.473  20.475  1.00  0.00     0.007 C 
BRANCH   8  11
ATOM     11  O   UNL     1      66.563  51.211  18.998  1.00  0.00    -0.388 OA
ATOM     12  H   UNL     1      66.540  52.050  18.470  1.00  0.00     0.211 HD
ENDBRANCH   8  11
BRANCH   9  13
ATOM     13  C   UNL     1      70.204  50.754  22.098  1.00  0.00     0.187 C 
BRANCH  13  14
ATOM     14  O   UNL     1      70.244  49.380  22.372  1.00  0.00    -0.392 OA
ATOM     15  H   UNL     1      70.650  48.941  21.580  1.00  0.00     0.211 HD
ENDBRANCH  13  14
ENDBRANCH   9  13
ENDBRANCH   1   2
BRANCH   1  16
ATOM     16  C   UNL     1      71.054  54.356  21.583  1.00  0.00     0.286 C 
ATOM     17  C   UNL     1      70.192  54.550  22.852  1.00  0.00     0.202 C 
ATOM     18  O   UNL     1      71.746  55.544  21.217  1.00  0.00    -0.341 OA
ATOM     19  C   UNL     1      69.236  55.744  22.714  1.00  0.00     0.179 C 
ATOM     20  C   UNL     1      70.902  56.668  20.991  1.00  0.00     0.178 C 
ATOM     21  C   UNL     1      69.993  56.987  22.206  1.00  0.00     0.177 C 
BRANCH  17  22
ATOM     22  O   UNL     1      70.997  54.681  24.000  1.00  0.00    -0.385 OA
ATOM     23  H   UNL     1      71.464  55.555  23.953  1.00  0.00     0.211 HD
ENDBRANCH  17  22
BRANCH  19  24
ATOM     24  O   UNL     1      68.186  55.405  21.841  1.00  0.00    -0.387 OA
ATOM     25  H   UNL     1      67.808  56.255  21.495  1.00  0.00     0.211 HD
ENDBRANCH  19  24
BRANCH  20  26
ATOM     26  C   UNL     1      70.181  56.598  19.624  1.00  0.00     0.191 C 
BRANCH  26  27
ATOM     27  O   UNL     1      71.098  56.304  18.600  1.00  0.00    -0.394 OA
ATOM     28  H   UNL     1      71.190  55.317  18.559  1.00  0.00     0.210 HD
ENDBRANCH  26  27
ENDBRANCH  20  26
BRANCH  21  29
ATOM     29  O   UNL     1      69.097  58.023  21.894  1.00  0.00    -0.387 OA
ATOM     30  H   UNL     1      68.436  58.065  22.633  1.00  0.00     0.211 HD
ENDBRANCH  21  29
ENDBRANCH   1  16
TORSDOF 10
ENDMDL
