MODEL 1
REMARK VINA RESULT:    -4.020      0.000      0.000
REMARK INTER + INTRA:          -4.569
REMARK INTER:                  -4.373
REMARK INTRA:                  -0.196
REMARK UNBOUND:                -0.196
REMARK SMILES Cc1ccc(C(C)C)c(O)c1
REMARK SMILES IDX 1 1 2 2 11 3 9 4 5 5 4 6 3 7 10 8 6 10 7 11 8 12
REMARK H PARENT 10 9
REMARK Flexibility Score: inf
ROOT
ATOM      1  C   UNL     1      -9.437   9.111  -3.742  1.00  0.00     0.044 C 
ATOM      2  C   UNL     1      -8.174   8.334  -3.521  1.00  0.00    -0.047 A 
ATOM      3  C   UNL     1      -7.806   7.937  -2.228  1.00  0.00     0.049 A 
ATOM      4  C   UNL     1      -6.645   7.178  -2.015  1.00  0.00     0.119 A 
ATOM      5  C   UNL     1      -5.840   6.794  -3.114  1.00  0.00    -0.004 A 
ATOM      6  C   UNL     1      -6.232   7.182  -4.409  1.00  0.00     0.008 A 
ATOM      7  C   UNL     1      -7.389   7.938  -4.610  1.00  0.00     0.004 A 
ENDROOT
BRANCH   4   8
ATOM      8  O   UNL     1      -6.301   6.808  -0.716  1.00  0.00    -0.508 OA
ATOM      9  H   UNL     1      -6.966   6.859   0.047  1.00  0.00     0.293 HD
ENDBRANCH   4   8
BRANCH   5  10
ATOM     10  C   UNL     1      -4.569   5.971  -2.947  1.00  0.00     0.017 C 
ATOM     11  C   UNL     1      -4.487   4.834  -3.973  1.00  0.00     0.012 C 
ATOM     12  C   UNL     1      -3.313   6.849  -2.977  1.00  0.00     0.012 C 
ENDBRANCH   5  10
TORSDOF 2
ENDMDL
MODEL 2
REMARK VINA RESULT:    -4.020      1.684      2.171
REMARK INTER + INTRA:          -4.569
REMARK INTER:                  -4.374
REMARK INTRA:                  -0.195
REMARK UNBOUND:                -0.196
REMARK SMILES Cc1ccc(C(C)C)c(O)c1
REMARK SMILES IDX 1 1 2 2 11 3 9 4 5 5 4 6 3 7 10 8 6 10 7 11 8 12
REMARK H PARENT 10 9
REMARK Flexibility Score: inf
ROOT
ATOM      1  C   UNL     1      -9.988   8.736  -3.848  1.00  0.00     0.044 C 
ATOM      2  C   UNL     1      -8.623   8.136  -3.680  1.00  0.00    -0.047 A 
ATOM      3  C   UNL     1      -8.311   6.911  -4.283  1.00  0.00     0.049 A 
ATOM      4  C   UNL     1      -7.026   6.360  -4.163  1.00  0.00     0.119 A 
ATOM      5  C   UNL     1      -6.026   7.049  -3.437  1.00  0.00    -0.004 A 
ATOM      6  C   UNL     1      -6.348   8.289  -2.852  1.00  0.00     0.008 A 
ATOM      7  C   UNL     1      -7.630   8.828  -2.978  1.00  0.00     0.004 A 
ENDROOT
BRANCH   4   8
ATOM      8  O   UNL     1      -6.751   5.134  -4.766  1.00  0.00    -0.508 OA
ATOM      9  H   UNL     1      -6.089   5.051  -5.529  1.00  0.00     0.293 HD
ENDBRANCH   4   8
BRANCH   5  10
ATOM     10  C   UNL     1      -4.614   6.502  -3.271  1.00  0.00     0.017 C 
ATOM     11  C   UNL     1      -3.568   7.623  -3.246  1.00  0.00     0.012 C 
ATOM     12  C   UNL     1      -4.496   5.593  -2.041  1.00  0.00     0.012 C 
ENDBRANCH   5  10
TORSDOF 2
ENDMDL
MODEL 3
REMARK VINA RESULT:    -3.987      2.304      4.207
REMARK INTER + INTRA:          -4.533
REMARK INTER:                  -4.341
REMARK INTRA:                  -0.191
REMARK UNBOUND:                -0.196
REMARK SMILES Cc1ccc(C(C)C)c(O)c1
REMARK SMILES IDX 1 1 2 2 11 3 9 4 5 5 4 6 3 7 10 8 6 10 7 11 8 12
REMARK H PARENT 10 9
REMARK Flexibility Score: inf
ROOT
ATOM      1  C   UNL     1      -3.414   6.821  -2.995  1.00  0.00     0.044 C 
ATOM      2  C   UNL     1      -4.824   6.578  -3.449  1.00  0.00    -0.047 A 
ATOM      3  C   UNL     1      -5.751   7.629  -3.467  1.00  0.00     0.049 A 
ATOM      4  C   UNL     1      -7.061   7.420  -3.924  1.00  0.00     0.119 A 
ATOM      5  C   UNL     1      -7.454   6.141  -4.385  1.00  0.00    -0.004 A 
ATOM      6  C   UNL     1      -6.506   5.099  -4.380  1.00  0.00     0.008 A 
ATOM      7  C   UNL     1      -5.205   5.318  -3.923  1.00  0.00     0.004 A 
ENDROOT
BRANCH   4   8
ATOM      8  O   UNL     1      -7.962   8.483  -3.920  1.00  0.00    -0.508 OA
ATOM      9  H   UNL     1      -8.964   8.333  -3.897  1.00  0.00     0.293 HD
ENDBRANCH   4   8
BRANCH   5  10
ATOM     10  C   UNL     1      -8.860   5.852  -4.892  1.00  0.00     0.017 C 
ATOM     11  C   UNL     1      -8.850   5.323  -6.332  1.00  0.00     0.012 C 
ATOM     12  C   UNL     1      -9.624   4.912  -3.951  1.00  0.00     0.012 C 
ENDBRANCH   5  10
TORSDOF 2
ENDMDL
MODEL 4
REMARK VINA RESULT:    -3.955      1.740      4.375
REMARK INTER + INTRA:          -4.498
REMARK INTER:                  -4.316
REMARK INTRA:                  -0.182
REMARK UNBOUND:                -0.196
REMARK SMILES Cc1ccc(C(C)C)c(O)c1
REMARK SMILES IDX 1 1 2 2 11 3 9 4 5 5 4 6 3 7 10 8 6 10 7 11 8 12
REMARK H PARENT 10 9
REMARK Flexibility Score: inf
ROOT
ATOM      1  C   UNL     1      -3.985   4.735  -4.156  1.00  0.00     0.044 C 
ATOM      2  C   UNL     1      -5.131   5.645  -3.823  1.00  0.00    -0.047 A 
ATOM      3  C   UNL     1      -6.449   5.240  -4.073  1.00  0.00     0.049 A 
ATOM      4  C   UNL     1      -7.529   6.068  -3.732  1.00  0.00     0.119 A 
ATOM      5  C   UNL     1      -7.294   7.321  -3.117  1.00  0.00    -0.004 A 
ATOM      6  C   UNL     1      -5.965   7.706  -2.853  1.00  0.00     0.008 A 
ATOM      7  C   UNL     1      -4.897   6.875  -3.197  1.00  0.00     0.004 A 
ENDROOT
BRANCH   4   8
ATOM      8  O   UNL     1      -8.828   5.642  -4.004  1.00  0.00    -0.508 OA
ATOM      9  H   UNL     1      -9.177   4.749  -3.674  1.00  0.00     0.293 HD
ENDBRANCH   4   8
BRANCH   5  10
ATOM     10  C   UNL     1      -8.424   8.263  -2.724  1.00  0.00     0.017 C 
ATOM     11  C   UNL     1      -8.052   9.124  -1.511  1.00  0.00     0.012 C 
ATOM     12  C   UNL     1      -8.885   9.124  -3.907  1.00  0.00     0.012 C 
ENDBRANCH   5  10
TORSDOF 2
ENDMDL
MODEL 5
REMARK VINA RESULT:    -3.932      1.704      2.568
REMARK INTER + INTRA:          -4.473
REMARK INTER:                  -4.280
REMARK INTRA:                  -0.192
REMARK UNBOUND:                -0.196
REMARK SMILES Cc1ccc(C(C)C)c(O)c1
REMARK SMILES IDX 1 1 2 2 11 3 9 4 5 5 4 6 3 7 10 8 6 10 7 11 8 12
REMARK H PARENT 10 9
REMARK Flexibility Score: inf
ROOT
ATOM      1  C   UNL     1      -7.747   8.373  -3.908  1.00  0.00     0.044 C 
ATOM      2  C   UNL     1      -6.765   7.239  -3.944  1.00  0.00    -0.047 A 
ATOM      3  C   UNL     1      -5.485   7.395  -3.395  1.00  0.00     0.049 A 
ATOM      4  C   UNL     1      -4.574   6.329  -3.391  1.00  0.00     0.119 A 
ATOM      5  C   UNL     1      -4.948   5.076  -3.932  1.00  0.00    -0.004 A 
ATOM      6  C   UNL     1      -6.244   4.926  -4.461  1.00  0.00     0.008 A 
ATOM      7  C   UNL     1      -7.144   5.994  -4.461  1.00  0.00     0.004 A 
ENDROOT
BRANCH   4   8
ATOM      8  O   UNL     1      -3.304   6.519  -2.847  1.00  0.00    -0.508 OA
ATOM      9  H   UNL     1      -3.076   7.341  -2.300  1.00  0.00     0.293 HD
ENDBRANCH   4   8
BRANCH   5  10
ATOM     10  C   UNL     1      -4.003   3.881  -3.955  1.00  0.00     0.017 C 
ATOM     11  C   UNL     1      -4.756   2.555  -3.799  1.00  0.00     0.012 C 
ATOM     12  C   UNL     1      -3.115   3.882  -5.206  1.00  0.00     0.012 C 
ENDBRANCH   5  10
TORSDOF 2
ENDMDL
MODEL 6
REMARK VINA RESULT:    -3.863      1.632      4.591
REMARK INTER + INTRA:          -4.397
REMARK INTER:                  -4.202
REMARK INTRA:                  -0.195
REMARK UNBOUND:                -0.196
REMARK SMILES Cc1ccc(C(C)C)c(O)c1
REMARK SMILES IDX 1 1 2 2 11 3 9 4 5 5 4 6 3 7 10 8 6 10 7 11 8 12
REMARK H PARENT 10 9
REMARK Flexibility Score: inf
ROOT
ATOM      1  C   UNL     1      -2.994   3.000  -4.503  1.00  0.00     0.044 C 
ATOM      2  C   UNL     1      -3.858   4.184  -4.183  1.00  0.00    -0.047 A 
ATOM      3  C   UNL     1      -3.280   5.383  -3.745  1.00  0.00     0.049 A 
ATOM      4  C   UNL     1      -4.077   6.507  -3.478  1.00  0.00     0.119 A 
ATOM      5  C   UNL     1      -5.479   6.440  -3.664  1.00  0.00    -0.004 A 
ATOM      6  C   UNL     1      -6.044   5.235  -4.124  1.00  0.00     0.008 A 
ATOM      7  C   UNL     1      -5.242   4.123  -4.385  1.00  0.00     0.004 A 
ENDROOT
BRANCH   4   8
ATOM      8  O   UNL     1      -3.473   7.681  -3.034  1.00  0.00    -0.508 OA
ATOM      9  H   UNL     1      -3.290   8.457  -3.659  1.00  0.00     0.293 HD
ENDBRANCH   4   8
BRANCH   5  10
ATOM     10  C   UNL     1      -6.396   7.625  -3.391  1.00  0.00     0.017 C 
ATOM     11  C   UNL     1      -7.394   7.848  -4.534  1.00  0.00     0.012 C 
ATOM     12  C   UNL     1      -7.106   7.496  -2.038  1.00  0.00     0.012 C 
ENDBRANCH   5  10
TORSDOF 2
ENDMDL
MODEL 7
REMARK VINA RESULT:    -3.666      2.143      4.905
REMARK INTER + INTRA:          -4.184
REMARK INTER:                  -3.988
REMARK INTRA:                  -0.196
REMARK UNBOUND:                -0.196
REMARK SMILES Cc1ccc(C(C)C)c(O)c1
REMARK SMILES IDX 1 1 2 2 11 3 9 4 5 5 4 6 3 7 10 8 6 10 7 11 8 12
REMARK H PARENT 10 9
REMARK Flexibility Score: inf
ROOT
ATOM      1  C   UNL     1      -4.461   0.758  -4.155  1.00  0.00     0.044 C 
ATOM      2  C   UNL     1      -4.805   2.204  -3.952  1.00  0.00    -0.047 A 
ATOM      3  C   UNL     1      -5.718   2.581  -2.959  1.00  0.00     0.049 A 
ATOM      4  C   UNL     1      -6.018   3.933  -2.736  1.00  0.00     0.119 A 
ATOM      5  C   UNL     1      -5.386   4.934  -3.511  1.00  0.00    -0.004 A 
ATOM      6  C   UNL     1      -4.455   4.544  -4.493  1.00  0.00     0.008 A 
ATOM      7  C   UNL     1      -4.164   3.195  -4.706  1.00  0.00     0.004 A 
ENDROOT
BRANCH   4   8
ATOM      8  O   UNL     1      -6.940   4.274  -1.748  1.00  0.00    -0.508 OA
ATOM      9  H   UNL     1      -7.057   5.230  -1.434  1.00  0.00     0.293 HD
ENDBRANCH   4   8
BRANCH   5  10
ATOM     10  C   UNL     1      -5.670   6.418  -3.318  1.00  0.00     0.017 C 
ATOM     11  C   UNL     1      -4.384   7.253  -3.344  1.00  0.00     0.012 C 
ATOM     12  C   UNL     1      -6.700   6.937  -4.328  1.00  0.00     0.012 C 
ENDBRANCH   5  10
TORSDOF 2
ENDMDL
MODEL 8
REMARK VINA RESULT:    -3.645      2.085      4.683
REMARK INTER + INTRA:          -4.161
REMARK INTER:                  -3.969
REMARK INTRA:                  -0.192
REMARK UNBOUND:                -0.196
REMARK SMILES Cc1ccc(C(C)C)c(O)c1
REMARK SMILES IDX 1 1 2 2 11 3 9 4 5 5 4 6 3 7 10 8 6 10 7 11 8 12
REMARK H PARENT 10 9
REMARK Flexibility Score: inf
ROOT
ATOM      1  C   UNL     1      -4.396   7.259  -3.381  1.00  0.00     0.044 C 
ATOM      2  C   UNL     1      -5.895   7.322  -3.423  1.00  0.00    -0.047 A 
ATOM      3  C   UNL     1      -6.620   6.388  -4.173  1.00  0.00     0.049 A 
ATOM      4  C   UNL     1      -8.023   6.416  -4.189  1.00  0.00     0.119 A 
ATOM      5  C   UNL     1      -8.720   7.388  -3.431  1.00  0.00    -0.004 A 
ATOM      6  C   UNL     1      -7.978   8.308  -2.665  1.00  0.00     0.008 A 
ATOM      7  C   UNL     1      -6.583   8.271  -2.657  1.00  0.00     0.004 A 
ENDROOT
BRANCH   4   8
ATOM      8  O   UNL     1      -8.716   5.480  -4.955  1.00  0.00    -0.508 OA
ATOM      9  H   UNL     1      -9.633   5.144  -4.685  1.00  0.00     0.293 HD
ENDBRANCH   4   8
BRANCH   5  10
ATOM     10  C   UNL     1     -10.240   7.469  -3.408  1.00  0.00     0.017 C 
ATOM     11  C   UNL     1     -10.796   7.363  -1.983  1.00  0.00     0.012 C 
ATOM     12  C   UNL     1     -10.754   8.726  -4.121  1.00  0.00     0.012 C 
ENDBRANCH   5  10
TORSDOF 2
ENDMDL
MODEL 9
REMARK VINA RESULT:    -3.544      1.480      4.197
REMARK INTER + INTRA:          -4.051
REMARK INTER:                  -3.858
REMARK INTRA:                  -0.193
REMARK UNBOUND:                -0.196
REMARK SMILES Cc1ccc(C(C)C)c(O)c1
REMARK SMILES IDX 1 1 2 2 11 3 9 4 5 5 4 6 3 7 10 8 6 10 7 11 8 12
REMARK H PARENT 10 9
REMARK Flexibility Score: inf
ROOT
ATOM      1  C   UNL     1      -4.072   7.134  -3.187  1.00  0.00     0.044 C 
ATOM      2  C   UNL     1      -5.571   7.119  -3.230  1.00  0.00    -0.047 A 
ATOM      3  C   UNL     1      -6.312   7.142  -2.042  1.00  0.00     0.049 A 
ATOM      4  C   UNL     1      -7.715   7.166  -2.072  1.00  0.00     0.119 A 
ATOM      5  C   UNL     1      -8.395   7.179  -3.313  1.00  0.00    -0.004 A 
ATOM      6  C   UNL     1      -7.638   7.176  -4.500  1.00  0.00     0.008 A 
ATOM      7  C   UNL     1      -6.242   7.152  -4.458  1.00  0.00     0.004 A 
ENDROOT
BRANCH   4   8
ATOM      8  O   UNL     1      -8.423   7.178  -0.872  1.00  0.00    -0.508 OA
ATOM      9  H   UNL     1      -9.184   6.532  -0.695  1.00  0.00     0.293 HD
ENDBRANCH   4   8
BRANCH   5  10
ATOM     10  C   UNL     1      -9.915   7.204  -3.411  1.00  0.00     0.017 C 
ATOM     11  C   UNL     1     -10.436   8.583  -3.832  1.00  0.00     0.012 C 
ATOM     12  C   UNL     1     -10.444   6.097  -4.331  1.00  0.00     0.012 C 
ENDBRANCH   5  10
TORSDOF 2
ENDMDL
