MODEL 1
REMARK VINA RESULT:    -3.778      0.000      0.000
REMARK INTER + INTRA:          -5.125
REMARK INTER:                  -4.882
REMARK INTRA:                  -0.243
REMARK UNBOUND:                -0.243
REMARK SMILES CCCCCCC(=O)[O-]
REMARK SMILES IDX 5 1 6 2 7 3 8 4 9 5 4 6 3 7 2 8 1 9
REMARK H PARENT
REMARK Flexibility Score: inf
ROOT
ATOM      1  C   UNL     1       0.892  47.973  21.827  1.00  0.00     0.006 C 
ENDROOT
BRANCH   1   2
ATOM      2  C   UNL     1       0.005  48.005  23.082  1.00  0.00     0.053 C 
BRANCH   2   3
ATOM      3  C   UNL     1      -0.443  46.635  23.489  1.00  0.00     0.041 C 
ATOM      4  O   UNL     1      -0.953  45.857  22.641  1.00  0.00    -0.550 OA
ATOM      5  O   UNL     1      -0.329  46.231  24.813  1.00  0.00    -0.550 OA
ENDBRANCH   2   3
ENDBRANCH   1   2
BRANCH   1   6
ATOM      6  C   UNL     1       2.053  48.985  21.848  1.00  0.00     0.000 C 
BRANCH   6   7
ATOM      7  C   UNL     1       1.636  50.377  21.343  1.00  0.00    -0.000 C 
BRANCH   7   8
ATOM      8  C   UNL     1       2.039  51.499  22.311  1.00  0.00    -0.003 C 
ATOM      9  C   UNL     1       2.157  51.017  23.757  1.00  0.00     0.004 C 
ENDBRANCH   7   8
ENDBRANCH   6   7
ENDBRANCH   1   6
TORSDOF 5
ENDMDL
MODEL 2
REMARK VINA RESULT:    -3.651      3.303      4.958
REMARK INTER + INTRA:          -4.961
REMARK INTER:                  -4.798
REMARK INTRA:                  -0.163
REMARK UNBOUND:                -0.243
REMARK SMILES CCCCCCC(=O)[O-]
REMARK SMILES IDX 5 1 6 2 7 3 8 4 9 5 4 6 3 7 2 8 1 9
REMARK H PARENT
REMARK Flexibility Score: inf
ROOT
ATOM      1  C   UNL     1       2.019  49.161  21.652  1.00  0.00     0.006 C 
ENDROOT
BRANCH   1   2
ATOM      2  C   UNL     1       1.932  50.097  22.868  1.00  0.00     0.053 C 
BRANCH   2   3
ATOM      3  C   UNL     1       2.085  51.537  22.482  1.00  0.00     0.041 C 
ATOM      4  O   UNL     1       2.810  52.304  23.167  1.00  0.00    -0.550 OA
ATOM      5  O   UNL     1       1.398  52.038  21.384  1.00  0.00    -0.550 OA
ENDBRANCH   2   3
ENDBRANCH   1   2
BRANCH   1   6
ATOM      6  C   UNL     1       1.011  47.997  21.679  1.00  0.00     0.000 C 
BRANCH   6   7
ATOM      7  C   UNL     1       0.123  48.010  22.935  1.00  0.00    -0.000 C 
BRANCH   7   8
ATOM      8  C   UNL     1      -0.585  46.666  23.169  1.00  0.00    -0.003 C 
ATOM      9  C   UNL     1      -0.514  46.208  24.626  1.00  0.00     0.004 C 
ENDBRANCH   7   8
ENDBRANCH   6   7
ENDBRANCH   1   6
TORSDOF 5
ENDMDL
MODEL 3
REMARK VINA RESULT:    -3.620      1.575      2.437
REMARK INTER + INTRA:          -4.920
REMARK INTER:                  -4.833
REMARK INTRA:                  -0.088
REMARK UNBOUND:                -0.243
REMARK SMILES CCCCCCC(=O)[O-]
REMARK SMILES IDX 5 1 6 2 7 3 8 4 9 5 4 6 3 7 2 8 1 9
REMARK H PARENT
REMARK Flexibility Score: inf
ROOT
ATOM      1  C   UNL     1      -0.509  46.634  23.073  1.00  0.00     0.006 C 
ENDROOT
BRANCH   1   2
ATOM      2  C   UNL     1      -0.733  46.237  24.541  1.00  0.00     0.053 C 
BRANCH   2   3
ATOM      3  C   UNL     1      -2.163  45.886  24.816  1.00  0.00     0.041 C 
ATOM      4  O   UNL     1      -2.739  44.996  24.139  1.00  0.00    -0.550 OA
ATOM      5  O   UNL     1      -2.869  46.570  25.798  1.00  0.00    -0.550 OA
ENDBRANCH   2   3
ENDBRANCH   1   2
BRANCH   1   6
ATOM      6  C   UNL     1       0.135  48.020  22.885  1.00  0.00     0.000 C 
BRANCH   6   7
ATOM      7  C   UNL     1       1.049  48.087  21.649  1.00  0.00    -0.000 C 
BRANCH   7   8
ATOM      8  C   UNL     1       2.128  49.173  21.773  1.00  0.00    -0.003 C 
ATOM      9  C   UNL     1       1.625  50.555  21.355  1.00  0.00     0.004 C 
ENDBRANCH   7   8
ENDBRANCH   6   7
ENDBRANCH   1   6
TORSDOF 5
ENDMDL
MODEL 4
REMARK VINA RESULT:    -3.570      1.253      1.906
REMARK INTER + INTRA:          -4.856
REMARK INTER:                  -4.561
REMARK INTRA:                  -0.295
REMARK UNBOUND:                -0.243
REMARK SMILES CCCCCCC(=O)[O-]
REMARK SMILES IDX 5 1 6 2 7 3 8 4 9 5 4 6 3 7 2 8 1 9
REMARK H PARENT
REMARK Flexibility Score: inf
ROOT
ATOM      1  C   UNL     1       2.122  49.163  21.952  1.00  0.00     0.006 C 
ENDROOT
BRANCH   1   2
ATOM      2  C   UNL     1       1.104  48.034  21.725  1.00  0.00     0.053 C 
BRANCH   2   3
ATOM      3  C   UNL     1       0.194  47.853  22.901  1.00  0.00     0.041 C 
ATOM      4  O   UNL     1       0.134  48.734  23.798  1.00  0.00    -0.550 OA
ATOM      5  O   UNL     1      -0.561  46.694  23.023  1.00  0.00    -0.550 OA
ENDBRANCH   2   3
ENDBRANCH   1   2
BRANCH   1   6
ATOM      6  C   UNL     1       1.867  50.423  21.104  1.00  0.00     0.000 C 
BRANCH   6   7
ATOM      7  C   UNL     1       1.495  51.647  21.958  1.00  0.00    -0.000 C 
BRANCH   7   8
ATOM      8  C   UNL     1       2.241  51.676  23.301  1.00  0.00    -0.003 C 
ATOM      9  C   UNL     1       3.414  52.657  23.303  1.00  0.00     0.004 C 
ENDBRANCH   7   8
ENDBRANCH   6   7
ENDBRANCH   1   6
TORSDOF 5
ENDMDL
MODEL 5
REMARK VINA RESULT:    -3.445      4.015      5.415
REMARK INTER + INTRA:          -4.694
REMARK INTER:                  -4.559
REMARK INTRA:                  -0.135
REMARK UNBOUND:                -0.243
REMARK SMILES CCCCCCC(=O)[O-]
REMARK SMILES IDX 5 1 6 2 7 3 8 4 9 5 4 6 3 7 2 8 1 9
REMARK H PARENT
REMARK Flexibility Score: inf
ROOT
ATOM      1  C   UNL     1       1.543  50.690  21.650  1.00  0.00     0.006 C 
ENDROOT
BRANCH   1   2
ATOM      2  C   UNL     1       2.162  51.766  22.556  1.00  0.00     0.053 C 
BRANCH   2   3
ATOM      3  C   UNL     1       1.987  53.144  21.993  1.00  0.00     0.041 C 
ATOM      4  O   UNL     1       1.154  53.351  21.073  1.00  0.00    -0.550 OA
ATOM      5  O   UNL     1       2.771  54.190  22.462  1.00  0.00    -0.550 OA
ENDBRANCH   2   3
ENDBRANCH   1   2
BRANCH   1   6
ATOM      6  C   UNL     1       2.167  49.291  21.814  1.00  0.00     0.000 C 
BRANCH   6   7
ATOM      7  C   UNL     1       1.119  48.165  21.766  1.00  0.00    -0.000 C 
BRANCH   7   8
ATOM      8  C   UNL     1       0.165  48.199  22.969  1.00  0.00    -0.003 C 
ATOM      9  C   UNL     1      -0.492  46.845  23.240  1.00  0.00     0.004 C 
ENDBRANCH   7   8
ENDBRANCH   6   7
ENDBRANCH   1   6
TORSDOF 5
ENDMDL
MODEL 6
REMARK VINA RESULT:    -3.395      4.713      6.198
REMARK INTER + INTRA:          -4.629
REMARK INTER:                  -4.428
REMARK INTRA:                  -0.201
REMARK UNBOUND:                -0.243
REMARK SMILES CCCCCCC(=O)[O-]
REMARK SMILES IDX 5 1 6 2 7 3 8 4 9 5 4 6 3 7 2 8 1 9
REMARK H PARENT
REMARK Flexibility Score: inf
ROOT
ATOM      1  C   UNL     1       2.141  51.960  23.197  1.00  0.00     0.006 C 
ENDROOT
BRANCH   1   2
ATOM      2  C   UNL     1       3.451  52.765  23.179  1.00  0.00     0.053 C 
BRANCH   2   3
ATOM      3  C   UNL     1       3.216  54.215  22.887  1.00  0.00     0.041 C 
ATOM      4  O   UNL     1       2.227  54.811  23.388  1.00  0.00    -0.550 OA
ATOM      5  O   UNL     1       4.069  54.898  22.030  1.00  0.00    -0.550 OA
ENDBRANCH   2   3
ENDBRANCH   1   2
BRANCH   1   6
ATOM      6  C   UNL     1       1.478  51.803  21.816  1.00  0.00     0.000 C 
BRANCH   6   7
ATOM      7  C   UNL     1       1.861  50.485  21.121  1.00  0.00    -0.000 C 
BRANCH   7   8
ATOM      8  C   UNL     1       1.937  49.304  22.101  1.00  0.00    -0.003 C 
ATOM      9  C   UNL     1       1.200  48.065  21.589  1.00  0.00     0.004 C 
ENDBRANCH   7   8
ENDBRANCH   6   7
ENDBRANCH   1   6
TORSDOF 5
ENDMDL
MODEL 7
REMARK VINA RESULT:    -3.280     17.808     19.183
REMARK INTER + INTRA:          -4.482
REMARK INTER:                  -4.367
REMARK INTRA:                  -0.115
REMARK UNBOUND:                -0.243
REMARK SMILES CCCCCCC(=O)[O-]
REMARK SMILES IDX 5 1 6 2 7 3 8 4 9 5 4 6 3 7 2 8 1 9
REMARK H PARENT
REMARK Flexibility Score: inf
ROOT
ATOM      1  C   UNL     1      -8.025  47.764  39.781  1.00  0.00     0.006 C 
ENDROOT
BRANCH   1   2
ATOM      2  C   UNL     1      -7.159  47.392  38.566  1.00  0.00     0.053 C 
BRANCH   2   3
ATOM      3  C   UNL     1      -6.304  46.191  38.832  1.00  0.00     0.041 C 
ATOM      4  O   UNL     1      -6.830  45.056  38.968  1.00  0.00    -0.550 OA
ATOM      5  O   UNL     1      -4.929  46.333  38.965  1.00  0.00    -0.550 OA
ENDBRANCH   2   3
ENDBRANCH   1   2
BRANCH   1   6
ATOM      6  C   UNL     1      -8.517  49.223  39.782  1.00  0.00     0.000 C 
BRANCH   6   7
ATOM      7  C   UNL     1      -9.145  49.635  41.125  1.00  0.00    -0.000 C 
BRANCH   7   8
ATOM      8  C   UNL     1      -9.741  51.050  41.085  1.00  0.00    -0.003 C 
ATOM      9  C   UNL     1      -9.514  51.749  39.744  1.00  0.00     0.004 C 
ENDBRANCH   7   8
ENDBRANCH   6   7
ENDBRANCH   1   6
TORSDOF 5
ENDMDL
MODEL 8
REMARK VINA RESULT:    -3.196      3.912      5.224
REMARK INTER + INTRA:          -4.373
REMARK INTER:                  -4.118
REMARK INTRA:                  -0.255
REMARK UNBOUND:                -0.243
REMARK SMILES CCCCCCC(=O)[O-]
REMARK SMILES IDX 5 1 6 2 7 3 8 4 9 5 4 6 3 7 2 8 1 9
REMARK H PARENT
REMARK Flexibility Score: inf
ROOT
ATOM      1  C   UNL     1       1.911  51.961  22.876  1.00  0.00     0.006 C 
ENDROOT
BRANCH   1   2
ATOM      2  C   UNL     1       1.339  52.576  21.588  1.00  0.00     0.053 C 
BRANCH   2   3
ATOM      3  C   UNL     1       0.043  53.286  21.832  1.00  0.00     0.041 C 
ATOM      4  O   UNL     1      -0.868  52.732  22.502  1.00  0.00    -0.550 OA
ATOM      5  O   UNL     1      -0.172  54.546  21.289  1.00  0.00    -0.550 OA
ENDBRANCH   2   3
ENDBRANCH   1   2
BRANCH   1   6
ATOM      6  C   UNL     1       2.066  50.429  22.829  1.00  0.00     0.000 C 
BRANCH   6   7
ATOM      7  C   UNL     1       1.858  49.855  21.417  1.00  0.00    -0.000 C 
BRANCH   7   8
ATOM      8  C   UNL     1       1.279  48.432  21.440  1.00  0.00    -0.003 C 
ATOM      9  C   UNL     1       0.368  48.186  22.643  1.00  0.00     0.004 C 
ENDBRANCH   7   8
ENDBRANCH   6   7
ENDBRANCH   1   6
TORSDOF 5
ENDMDL
MODEL 9
REMARK VINA RESULT:    -3.150      2.575      4.675
REMARK INTER + INTRA:          -4.313
REMARK INTER:                  -4.099
REMARK INTRA:                  -0.214
REMARK UNBOUND:                -0.243
REMARK SMILES CCCCCCC(=O)[O-]
REMARK SMILES IDX 5 1 6 2 7 3 8 4 9 5 4 6 3 7 2 8 1 9
REMARK H PARENT
REMARK Flexibility Score: inf
ROOT
ATOM      1  C   UNL     1       0.159  49.873  23.816  1.00  0.00     0.006 C 
ENDROOT
BRANCH   1   2
ATOM      2  C   UNL     1       1.539  49.479  23.266  1.00  0.00     0.053 C 
BRANCH   2   3
ATOM      3  C   UNL     1       1.534  49.354  21.773  1.00  0.00     0.041 C 
ATOM      4  O   UNL     1       1.740  50.365  21.052  1.00  0.00    -0.550 OA
ATOM      5  O   UNL     1       1.267  48.128  21.180  1.00  0.00    -0.550 OA
ENDBRANCH   2   3
ENDBRANCH   1   2
BRANCH   1   6
ATOM      6  C   UNL     1      -0.797  48.686  24.033  1.00  0.00     0.000 C 
BRANCH   6   7
ATOM      7  C   UNL     1      -0.251  47.663  25.046  1.00  0.00    -0.000 C 
BRANCH   7   8
ATOM      8  C   UNL     1      -0.428  46.213  24.570  1.00  0.00    -0.003 C 
ATOM      9  C   UNL     1      -1.894  45.839  24.351  1.00  0.00     0.004 C 
ENDBRANCH   7   8
ENDBRANCH   6   7
ENDBRANCH   1   6
TORSDOF 5
ENDMDL
