MODEL 1
REMARK VINA RESULT:    -3.084      0.000      0.000
REMARK INTER + INTRA:         -11.093
REMARK INTER:                  -7.050
REMARK INTRA:                  -4.043
REMARK UNBOUND:                -4.043
REMARK SMILES CCCCCCCCCCCCCCCCCCCCCCCC(=O)[O-]
REMARK SMILES IDX 13 1 14 2 15 3 16 4 17 5 18 6 19 7 20 8 21 9 22 10 23 11
REMARK SMILES IDX 24 12 25 13 26 14 12 15 11 16 10 17 9 18 8 19 7 20 6 21 5 22
REMARK SMILES IDX 4 23 3 24 2 25 1 26
REMARK H PARENT
REMARK Flexibility Score: inf
ROOT
ATOM      1  C   UNL     1     171.979 164.063 144.051  1.00  0.00     0.000 C 
ENDROOT
BRANCH   1   2
ATOM      2  C   UNL     1     172.735 163.181 145.058  1.00  0.00     0.000 C 
BRANCH   2   3
ATOM      3  C   UNL     1     172.854 161.719 144.593  1.00  0.00     0.000 C 
BRANCH   3   4
ATOM      4  C   UNL     1     172.457 160.719 145.692  1.00  0.00     0.000 C 
BRANCH   4   5
ATOM      5  C   UNL     1     171.651 159.527 145.147  1.00  0.00     0.000 C 
BRANCH   5   6
ATOM      6  C   UNL     1     170.427 159.966 144.326  1.00  0.00     0.000 C 
BRANCH   6   7
ATOM      7  C   UNL     1     169.098 159.563 144.988  1.00  0.00     0.000 C 
BRANCH   7   8
ATOM      8  C   UNL     1     168.191 160.771 145.276  1.00  0.00     0.000 C 
BRANCH   8   9
ATOM      9  C   UNL     1     168.955 162.105 145.242  1.00  0.00     0.000 C 
BRANCH   9  10
ATOM     10  C   UNL     1     168.825 162.893 146.557  1.00  0.00     0.006 C 
BRANCH  10  11
ATOM     11  C   UNL     1     170.024 162.685 147.493  1.00  0.00     0.053 C 
BRANCH  11  12
ATOM     12  C   UNL     1     169.725 161.614 148.494  1.00  0.00     0.041 C 
ATOM     13  O   UNL     1     170.630 160.823 148.865  1.00  0.00    -0.550 OA
ATOM     14  O   UNL     1     168.433 161.458 148.981  1.00  0.00    -0.550 OA
ENDBRANCH  11  12
ENDBRANCH  10  11
ENDBRANCH   9  10
ENDBRANCH   8   9
ENDBRANCH   7   8
ENDBRANCH   6   7
ENDBRANCH   5   6
ENDBRANCH   4   5
ENDBRANCH   3   4
ENDBRANCH   2   3
ENDBRANCH   1   2
BRANCH   1  15
ATOM     15  C   UNL     1     172.814 165.257 143.561  1.00  0.00     0.000 C 
BRANCH  15  16
ATOM     16  C   UNL     1     172.865 165.299 142.026  1.00  0.00     0.000 C 
BRANCH  16  17
ATOM     17  C   UNL     1     171.470 165.252 141.380  1.00  0.00     0.000 C 
BRANCH  17  18
ATOM     18  C   UNL     1     171.154 166.517 140.564  1.00  0.00    -0.000 C 
BRANCH  18  19
ATOM     19  C   UNL     1     170.612 167.669 141.430  1.00  0.00    -0.000 C 
BRANCH  19  20
ATOM     20  C   UNL     1     169.075 167.729 141.557  1.00  0.00    -0.000 C 
BRANCH  20  21
ATOM     21  C   UNL     1     168.521 167.408 142.957  1.00  0.00    -0.000 C 
BRANCH  21  22
ATOM     22  C   UNL     1     169.586 167.244 144.059  1.00  0.00    -0.000 C 
BRANCH  22  23
ATOM     23  C   UNL     1     169.211 166.206 145.140  1.00  0.00    -0.000 C 
BRANCH  23  24
ATOM     24  C   UNL     1     169.841 166.523 146.508  1.00  0.00    -0.000 C 
BRANCH  24  25
ATOM     25  C   UNL     1     171.102 167.393 146.390  1.00  0.00    -0.003 C 
ATOM     26  C   UNL     1     172.351 166.697 146.926  1.00  0.00     0.004 C 
ENDBRANCH  24  25
ENDBRANCH  23  24
ENDBRANCH  22  23
ENDBRANCH  21  22
ENDBRANCH  20  21
ENDBRANCH  19  20
ENDBRANCH  18  19
ENDBRANCH  17  18
ENDBRANCH  16  17
ENDBRANCH  15  16
ENDBRANCH   1  15
TORSDOF 22
ENDMDL
MODEL 2
REMARK VINA RESULT:    -3.083      3.278      5.664
REMARK INTER + INTRA:         -11.091
REMARK INTER:                  -6.943
REMARK INTRA:                  -4.148
REMARK UNBOUND:                -4.043
REMARK SMILES CCCCCCCCCCCCCCCCCCCCCCCC(=O)[O-]
REMARK SMILES IDX 13 1 14 2 15 3 16 4 17 5 18 6 19 7 20 8 21 9 22 10 23 11
REMARK SMILES IDX 24 12 25 13 26 14 12 15 11 16 10 17 9 18 8 19 7 20 6 21 5 22
REMARK SMILES IDX 4 23 3 24 2 25 1 26
REMARK H PARENT
REMARK Flexibility Score: inf
ROOT
ATOM      1  C   UNL     1     172.882 166.865 142.218  1.00  0.00     0.000 C 
ENDROOT
BRANCH   1   2
ATOM      2  C   UNL     1     172.289 168.052 142.994  1.00  0.00     0.000 C 
BRANCH   2   3
ATOM      3  C   UNL     1     170.751 168.080 142.951  1.00  0.00     0.000 C 
BRANCH   3   4
ATOM      4  C   UNL     1     170.190 167.508 141.639  1.00  0.00     0.000 C 
BRANCH   4   5
ATOM      5  C   UNL     1     168.702 167.844 141.433  1.00  0.00     0.000 C 
BRANCH   5   6
ATOM      6  C   UNL     1     167.815 166.590 141.375  1.00  0.00     0.000 C 
BRANCH   6   7
ATOM      7  C   UNL     1     166.761 166.561 142.496  1.00  0.00     0.000 C 
BRANCH   7   8
ATOM      8  C   UNL     1     167.354 166.903 143.874  1.00  0.00     0.000 C 
BRANCH   8   9
ATOM      9  C   UNL     1     166.334 166.742 145.014  1.00  0.00     0.000 C 
BRANCH   9  10
ATOM     10  C   UNL     1     167.006 166.552 146.384  1.00  0.00     0.006 C 
BRANCH  10  11
ATOM     11  C   UNL     1     168.096 167.596 146.659  1.00  0.00     0.053 C 
BRANCH  11  12
ATOM     12  C   UNL     1     167.565 168.687 147.534  1.00  0.00     0.041 C 
ATOM     13  O   UNL     1     168.100 169.826 147.523  1.00  0.00    -0.550 OA
ATOM     14  O   UNL     1     166.508 168.432 148.400  1.00  0.00    -0.550 OA
ENDBRANCH  11  12
ENDBRANCH  10  11
ENDBRANCH   9  10
ENDBRANCH   8   9
ENDBRANCH   7   8
ENDBRANCH   6   7
ENDBRANCH   5   6
ENDBRANCH   4   5
ENDBRANCH   3   4
ENDBRANCH   2   3
ENDBRANCH   1   2
BRANCH   1  15
ATOM     15  C   UNL     1     173.124 165.635 143.107  1.00  0.00     0.000 C 
BRANCH  15  16
ATOM     16  C   UNL     1     172.662 164.349 142.404  1.00  0.00     0.000 C 
BRANCH  16  17
ATOM     17  C   UNL     1     171.609 163.572 143.212  1.00  0.00     0.000 C 
BRANCH  17  18
ATOM     18  C   UNL     1     170.265 164.316 143.302  1.00  0.00    -0.000 C 
BRANCH  18  19
ATOM     19  C   UNL     1     169.583 164.156 144.673  1.00  0.00    -0.000 C 
BRANCH  19  20
ATOM     20  C   UNL     1     170.522 164.265 145.893  1.00  0.00    -0.000 C 
BRANCH  20  21
ATOM     21  C   UNL     1     171.014 165.687 146.215  1.00  0.00    -0.000 C 
BRANCH  21  22
ATOM     22  C   UNL     1     172.501 165.791 146.609  1.00  0.00    -0.000 C 
BRANCH  22  23
ATOM     23  C   UNL     1     172.927 167.203 147.068  1.00  0.00    -0.000 C 
BRANCH  23  24
ATOM     24  C   UNL     1     171.756 168.202 147.074  1.00  0.00    -0.000 C 
BRANCH  24  25
ATOM     25  C   UNL     1     171.289 168.556 148.493  1.00  0.00    -0.003 C 
ATOM     26  C   UNL     1     172.406 168.436 149.529  1.00  0.00     0.004 C 
ENDBRANCH  24  25
ENDBRANCH  23  24
ENDBRANCH  22  23
ENDBRANCH  21  22
ENDBRANCH  20  21
ENDBRANCH  19  20
ENDBRANCH  18  19
ENDBRANCH  17  18
ENDBRANCH  16  17
ENDBRANCH  15  16
ENDBRANCH   1  15
TORSDOF 22
ENDMDL
MODEL 3
REMARK VINA RESULT:    -3.030      9.736     13.239
REMARK INTER + INTRA:         -10.969
REMARK INTER:                  -6.870
REMARK INTRA:                  -4.099
REMARK UNBOUND:                -4.043
REMARK SMILES CCCCCCCCCCCCCCCCCCCCCCCC(=O)[O-]
REMARK SMILES IDX 13 1 14 2 15 3 16 4 17 5 18 6 19 7 20 8 21 9 22 10 23 11
REMARK SMILES IDX 24 12 25 13 26 14 12 15 11 16 10 17 9 18 8 19 7 20 6 21 5 22
REMARK SMILES IDX 4 23 3 24 2 25 1 26
REMARK H PARENT
REMARK Flexibility Score: inf
ROOT
ATOM      1  C   UNL     1     169.462 154.700 150.759  1.00  0.00     0.000 C 
ENDROOT
BRANCH   1   2
ATOM      2  C   UNL     1     170.246 153.688 149.909  1.00  0.00     0.000 C 
BRANCH   2   3
ATOM      3  C   UNL     1     169.976 152.230 150.324  1.00  0.00     0.000 C 
BRANCH   3   4
ATOM      4  C   UNL     1     171.178 151.591 151.038  1.00  0.00     0.000 C 
BRANCH   4   5
ATOM      5  C   UNL     1     172.467 152.419 150.888  1.00  0.00     0.000 C 
BRANCH   5   6
ATOM      6  C   UNL     1     173.118 152.749 152.242  1.00  0.00     0.000 C 
BRANCH   6   7
ATOM      7  C   UNL     1     172.210 152.400 153.433  1.00  0.00     0.000 C 
BRANCH   7   8
ATOM      8  C   UNL     1     172.887 152.662 154.789  1.00  0.00     0.000 C 
BRANCH   8   9
ATOM      9  C   UNL     1     172.273 151.829 155.928  1.00  0.00     0.000 C 
BRANCH   9  10
ATOM     10  C   UNL     1     170.778 152.124 156.134  1.00  0.00     0.006 C 
BRANCH  10  11
ATOM     11  C   UNL     1     169.900 150.875 155.973  1.00  0.00     0.053 C 
BRANCH  11  12
ATOM     12  C   UNL     1     168.730 151.170 155.088  1.00  0.00     0.041 C 
ATOM     13  O   UNL     1     168.909 151.448 153.874  1.00  0.00    -0.550 OA
ATOM     14  O   UNL     1     167.445 151.187 155.616  1.00  0.00    -0.550 OA
ENDBRANCH  11  12
ENDBRANCH  10  11
ENDBRANCH   9  10
ENDBRANCH   8   9
ENDBRANCH   7   8
ENDBRANCH   6   7
ENDBRANCH   5   6
ENDBRANCH   4   5
ENDBRANCH   3   4
ENDBRANCH   2   3
ENDBRANCH   1   2
BRANCH   1  15
ATOM     15  C   UNL     1     170.263 155.208 151.969  1.00  0.00     0.000 C 
BRANCH  15  16
ATOM     16  C   UNL     1     171.438 156.090 151.519  1.00  0.00     0.000 C 
BRANCH  16  17
ATOM     17  C   UNL     1     172.001 156.961 152.654  1.00  0.00     0.000 C 
BRANCH  17  18
ATOM     18  C   UNL     1     172.607 156.125 153.795  1.00  0.00    -0.000 C 
BRANCH  18  19
ATOM     19  C   UNL     1     172.167 156.607 155.190  1.00  0.00    -0.000 C 
BRANCH  19  20
ATOM     20  C   UNL     1     170.899 155.928 155.750  1.00  0.00    -0.000 C 
BRANCH  20  21
ATOM     21  C   UNL     1     169.615 156.773 155.670  1.00  0.00    -0.000 C 
BRANCH  21  22
ATOM     22  C   UNL     1     169.807 158.203 155.130  1.00  0.00    -0.000 C 
BRANCH  22  23
ATOM     23  C   UNL     1     168.609 158.725 154.305  1.00  0.00    -0.000 C 
BRANCH  23  24
ATOM     24  C   UNL     1     168.035 157.657 153.356  1.00  0.00    -0.000 C 
BRANCH  24  25
ATOM     25  C   UNL     1     168.123 158.071 151.879  1.00  0.00    -0.003 C 
ATOM     26  C   UNL     1     167.869 159.563 151.670  1.00  0.00     0.004 C 
ENDBRANCH  24  25
ENDBRANCH  23  24
ENDBRANCH  22  23
ENDBRANCH  21  22
ENDBRANCH  20  21
ENDBRANCH  19  20
ENDBRANCH  18  19
ENDBRANCH  17  18
ENDBRANCH  16  17
ENDBRANCH  15  16
ENDBRANCH   1  15
TORSDOF 22
ENDMDL
MODEL 4
REMARK VINA RESULT:    -3.008      2.816      6.395
REMARK INTER + INTRA:         -10.920
REMARK INTER:                  -6.701
REMARK INTRA:                  -4.219
REMARK UNBOUND:                -4.043
REMARK SMILES CCCCCCCCCCCCCCCCCCCCCCCC(=O)[O-]
REMARK SMILES IDX 13 1 14 2 15 3 16 4 17 5 18 6 19 7 20 8 21 9 22 10 23 11
REMARK SMILES IDX 24 12 25 13 26 14 12 15 11 16 10 17 9 18 8 19 7 20 6 21 5 22
REMARK SMILES IDX 4 23 3 24 2 25 1 26
REMARK H PARENT
REMARK Flexibility Score: inf
ROOT
ATOM      1  C   UNL     1     170.549 166.770 145.637  1.00  0.00     0.000 C 
ENDROOT
BRANCH   1   2
ATOM      2  C   UNL     1     170.062 167.685 144.502  1.00  0.00     0.000 C 
BRANCH   2   3
ATOM      3  C   UNL     1     171.136 167.914 143.423  1.00  0.00     0.000 C 
BRANCH   3   4
ATOM      4  C   UNL     1     170.544 167.949 142.004  1.00  0.00     0.000 C 
BRANCH   4   5
ATOM      5  C   UNL     1     171.290 167.023 141.027  1.00  0.00     0.000 C 
BRANCH   5   6
ATOM      6  C   UNL     1     172.224 166.034 141.745  1.00  0.00     0.000 C 
BRANCH   6   7
ATOM      7  C   UNL     1     171.924 164.570 141.380  1.00  0.00     0.000 C 
BRANCH   7   8
ATOM      8  C   UNL     1     170.434 164.326 141.089  1.00  0.00     0.000 C 
BRANCH   8   9
ATOM      9  C   UNL     1     169.705 163.651 142.263  1.00  0.00     0.000 C 
BRANCH   9  10
ATOM     10  C   UNL     1     168.894 164.649 143.106  1.00  0.00     0.006 C 
BRANCH  10  11
ATOM     11  C   UNL     1     167.410 164.687 142.715  1.00  0.00     0.053 C 
BRANCH  11  12
ATOM     12  C   UNL     1     166.988 166.088 142.402  1.00  0.00     0.041 C 
ATOM     13  O   UNL     1     166.202 166.699 143.171  1.00  0.00    -0.550 OA
ATOM     14  O   UNL     1     167.425 166.702 141.235  1.00  0.00    -0.550 OA
ENDBRANCH  11  12
ENDBRANCH  10  11
ENDBRANCH   9  10
ENDBRANCH   8   9
ENDBRANCH   7   8
ENDBRANCH   6   7
ENDBRANCH   5   6
ENDBRANCH   4   5
ENDBRANCH   3   4
ENDBRANCH   2   3
ENDBRANCH   1   2
BRANCH   1  15
ATOM     15  C   UNL     1     171.921 167.187 146.190  1.00  0.00     0.000 C 
BRANCH  15  16
ATOM     16  C   UNL     1     172.894 165.998 146.198  1.00  0.00     0.000 C 
BRANCH  16  17
ATOM     17  C   UNL     1     172.192 164.649 145.972  1.00  0.00     0.000 C 
BRANCH  17  18
ATOM     18  C   UNL     1     173.017 163.694 145.092  1.00  0.00    -0.000 C 
BRANCH  18  19
ATOM     19  C   UNL     1     172.169 162.570 144.469  1.00  0.00    -0.000 C 
BRANCH  19  20
ATOM     20  C   UNL     1     172.704 161.140 144.692  1.00  0.00    -0.000 C 
BRANCH  20  21
ATOM     21  C   UNL     1     172.070 160.380 145.871  1.00  0.00    -0.000 C 
BRANCH  21  22
ATOM     22  C   UNL     1     170.586 160.701 146.132  1.00  0.00    -0.000 C 
BRANCH  22  23
ATOM     23  C   UNL     1     170.265 161.009 147.612  1.00  0.00    -0.000 C 
BRANCH  23  24
ATOM     24  C   UNL     1     169.192 162.101 147.770  1.00  0.00    -0.000 C 
BRANCH  24  25
ATOM     25  C   UNL     1     168.950 162.884 146.471  1.00  0.00    -0.003 C 
ATOM     26  C   UNL     1     168.224 164.208 146.707  1.00  0.00     0.004 C 
ENDBRANCH  24  25
ENDBRANCH  23  24
ENDBRANCH  22  23
ENDBRANCH  21  22
ENDBRANCH  20  21
ENDBRANCH  19  20
ENDBRANCH  18  19
ENDBRANCH  17  18
ENDBRANCH  16  17
ENDBRANCH  15  16
ENDBRANCH   1  15
TORSDOF 22
ENDMDL
MODEL 5
REMARK VINA RESULT:    -3.006      1.716      3.341
REMARK INTER + INTRA:         -10.916
REMARK INTER:                  -6.205
REMARK INTRA:                  -4.712
REMARK UNBOUND:                -4.043
REMARK SMILES CCCCCCCCCCCCCCCCCCCCCCCC(=O)[O-]
REMARK SMILES IDX 13 1 14 2 15 3 16 4 17 5 18 6 19 7 20 8 21 9 22 10 23 11
REMARK SMILES IDX 24 12 25 13 26 14 12 15 11 16 10 17 9 18 8 19 7 20 6 21 5 22
REMARK SMILES IDX 4 23 3 24 2 25 1 26
REMARK H PARENT
REMARK Flexibility Score: inf
ROOT
ATOM      1  C   UNL     1     168.518 164.147 142.318  1.00  0.00     0.000 C 
ENDROOT
BRANCH   1   2
ATOM      2  C   UNL     1     169.984 164.151 142.780  1.00  0.00     0.000 C 
BRANCH   2   3
ATOM      3  C   UNL     1     170.872 163.213 141.943  1.00  0.00     0.000 C 
BRANCH   3   4
ATOM      4  C   UNL     1     171.372 162.003 142.749  1.00  0.00     0.000 C 
BRANCH   4   5
ATOM      5  C   UNL     1     172.702 162.281 143.473  1.00  0.00     0.000 C 
BRANCH   5   6
ATOM      6  C   UNL     1     172.565 162.218 145.004  1.00  0.00     0.000 C 
BRANCH   6   7
ATOM      7  C   UNL     1     172.221 160.804 145.506  1.00  0.00     0.000 C 
BRANCH   7   8
ATOM      8  C   UNL     1     170.922 160.770 146.330  1.00  0.00     0.000 C 
BRANCH   8   9
ATOM      9  C   UNL     1     169.735 160.197 145.539  1.00  0.00     0.000 C 
BRANCH   9  10
ATOM     10  C   UNL     1     168.611 161.226 145.334  1.00  0.00     0.006 C 
BRANCH  10  11
ATOM     11  C   UNL     1     168.957 162.605 145.911  1.00  0.00     0.053 C 
BRANCH  11  12
ATOM     12  C   UNL     1     167.991 162.977 146.991  1.00  0.00     0.041 C 
ATOM     13  O   UNL     1     167.633 162.123 147.843  1.00  0.00    -0.550 OA
ATOM     14  O   UNL     1     167.447 164.255 147.028  1.00  0.00    -0.550 OA
ENDBRANCH  11  12
ENDBRANCH  10  11
ENDBRANCH   9  10
ENDBRANCH   8   9
ENDBRANCH   7   8
ENDBRANCH   6   7
ENDBRANCH   5   6
ENDBRANCH   4   5
ENDBRANCH   3   4
ENDBRANCH   2   3
ENDBRANCH   1   2
BRANCH   1  15
ATOM     15  C   UNL     1     167.573 164.814 143.330  1.00  0.00     0.000 C 
BRANCH  15  16
ATOM     16  C   UNL     1     167.577 166.341 143.163  1.00  0.00     0.000 C 
BRANCH  16  17
ATOM     17  C   UNL     1     167.546 166.781 141.689  1.00  0.00     0.000 C 
BRANCH  17  18
ATOM     18  C   UNL     1     168.656 167.791 141.351  1.00  0.00    -0.000 C 
BRANCH  18  19
ATOM     19  C   UNL     1     169.786 167.812 142.398  1.00  0.00    -0.000 C 
BRANCH  19  20
ATOM     20  C   UNL     1     171.198 167.522 141.847  1.00  0.00    -0.000 C 
BRANCH  20  21
ATOM     21  C   UNL     1     172.338 167.637 142.876  1.00  0.00    -0.000 C 
BRANCH  21  22
ATOM     22  C   UNL     1     173.125 166.336 143.127  1.00  0.00    -0.000 C 
BRANCH  22  23
ATOM     23  C   UNL     1     173.032 165.822 144.580  1.00  0.00    -0.000 C 
BRANCH  23  24
ATOM     24  C   UNL     1     172.076 166.662 145.446  1.00  0.00    -0.000 C 
BRANCH  24  25
ATOM     25  C   UNL     1     170.800 165.897 145.830  1.00  0.00    -0.003 C 
ATOM     26  C   UNL     1     169.627 166.825 146.143  1.00  0.00     0.004 C 
ENDBRANCH  24  25
ENDBRANCH  23  24
ENDBRANCH  22  23
ENDBRANCH  21  22
ENDBRANCH  20  21
ENDBRANCH  19  20
ENDBRANCH  18  19
ENDBRANCH  17  18
ENDBRANCH  16  17
ENDBRANCH  15  16
ENDBRANCH   1  15
TORSDOF 22
ENDMDL
MODEL 6
REMARK VINA RESULT:    -3.004      2.571      5.110
REMARK INTER + INTRA:         -10.910
REMARK INTER:                  -5.635
REMARK INTRA:                  -5.275
REMARK UNBOUND:                -4.043
REMARK SMILES CCCCCCCCCCCCCCCCCCCCCCCC(=O)[O-]
REMARK SMILES IDX 13 1 14 2 15 3 16 4 17 5 18 6 19 7 20 8 21 9 22 10 23 11
REMARK SMILES IDX 24 12 25 13 26 14 12 15 11 16 10 17 9 18 8 19 7 20 6 21 5 22
REMARK SMILES IDX 4 23 3 24 2 25 1 26
REMARK H PARENT
REMARK Flexibility Score: inf
ROOT
ATOM      1  C   UNL     1     169.302 165.512 145.842  1.00  0.00     0.000 C 
ENDROOT
BRANCH   1   2
ATOM      2  C   UNL     1     168.261 165.187 144.759  1.00  0.00     0.000 C 
BRANCH   2   3
ATOM      3  C   UNL     1     167.464 163.907 145.067  1.00  0.00     0.000 C 
BRANCH   3   4
ATOM      4  C   UNL     1     167.181 163.074 143.807  1.00  0.00     0.000 C 
BRANCH   4   5
ATOM      5  C   UNL     1     167.509 161.582 143.995  1.00  0.00     0.000 C 
BRANCH   5   6
ATOM      6  C   UNL     1     168.098 161.276 145.382  1.00  0.00     0.000 C 
BRANCH   6   7
ATOM      7  C   UNL     1     169.252 160.260 145.320  1.00  0.00     0.000 C 
BRANCH   7   8
ATOM      8  C   UNL     1     170.431 160.649 146.229  1.00  0.00     0.000 C 
BRANCH   8   9
ATOM      9  C   UNL     1     171.782 160.149 145.692  1.00  0.00     0.000 C 
BRANCH   9  10
ATOM     10  C   UNL     1     171.623 159.062 144.615  1.00  0.00     0.006 C 
BRANCH  10  11
ATOM     11  C   UNL     1     172.235 159.468 143.268  1.00  0.00     0.053 C 
BRANCH  11  12
ATOM     12  C   UNL     1     171.206 159.395 142.184  1.00  0.00     0.041 C 
ATOM     13  O   UNL     1     170.320 158.502 142.211  1.00  0.00    -0.550 OA
ATOM     14  O   UNL     1     171.256 160.283 141.117  1.00  0.00    -0.550 OA
ENDBRANCH  11  12
ENDBRANCH  10  11
ENDBRANCH   9  10
ENDBRANCH   8   9
ENDBRANCH   7   8
ENDBRANCH   6   7
ENDBRANCH   5   6
ENDBRANCH   4   5
ENDBRANCH   3   4
ENDBRANCH   2   3
ENDBRANCH   1   2
BRANCH   1  15
ATOM     15  C   UNL     1     169.733 164.274 146.643  1.00  0.00     0.000 C 
BRANCH  15  16
ATOM     16  C   UNL     1     171.253 164.267 146.868  1.00  0.00     0.000 C 
BRANCH  16  17
ATOM     17  C   UNL     1     171.962 165.458 146.202  1.00  0.00     0.000 C 
BRANCH  17  18
ATOM     18  C   UNL     1     173.125 165.022 145.294  1.00  0.00    -0.000 C 
BRANCH  18  19
ATOM     19  C   UNL     1     173.068 163.528 144.925  1.00  0.00    -0.000 C 
BRANCH  19  20
ATOM     20  C   UNL     1     172.523 163.219 143.514  1.00  0.00    -0.000 C 
BRANCH  20  21
ATOM     21  C   UNL     1     170.997 163.033 143.429  1.00  0.00    -0.000 C 
BRANCH  21  22
ATOM     22  C   UNL     1     170.352 163.521 142.117  1.00  0.00    -0.000 C 
BRANCH  22  23
ATOM     23  C   UNL     1     170.854 164.907 141.654  1.00  0.00    -0.000 C 
BRANCH  23  24
ATOM     24  C   UNL     1     169.703 165.898 141.401  1.00  0.00    -0.000 C 
BRANCH  24  25
ATOM     25  C   UNL     1     169.964 167.277 142.026  1.00  0.00    -0.003 C 
ATOM     26  C   UNL     1     171.103 167.257 143.044  1.00  0.00     0.004 C 
ENDBRANCH  24  25
ENDBRANCH  23  24
ENDBRANCH  22  23
ENDBRANCH  21  22
ENDBRANCH  20  21
ENDBRANCH  19  20
ENDBRANCH  18  19
ENDBRANCH  17  18
ENDBRANCH  16  17
ENDBRANCH  15  16
ENDBRANCH   1  15
TORSDOF 22
ENDMDL
MODEL 7
REMARK VINA RESULT:    -2.990      2.362      5.051
REMARK INTER + INTRA:         -10.878
REMARK INTER:                  -6.261
REMARK INTRA:                  -4.617
REMARK UNBOUND:                -4.043
REMARK SMILES CCCCCCCCCCCCCCCCCCCCCCCC(=O)[O-]
REMARK SMILES IDX 13 1 14 2 15 3 16 4 17 5 18 6 19 7 20 8 21 9 22 10 23 11
REMARK SMILES IDX 24 12 25 13 26 14 12 15 11 16 10 17 9 18 8 19 7 20 6 21 5 22
REMARK SMILES IDX 4 23 3 24 2 25 1 26
REMARK H PARENT
REMARK Flexibility Score: inf
ROOT
ATOM      1  C   UNL     1     167.424 165.500 145.014  1.00  0.00     0.000 C 
ENDROOT
BRANCH   1   2
ATOM      2  C   UNL     1     168.019 164.689 143.853  1.00  0.00     0.000 C 
BRANCH   2   3
ATOM      3  C   UNL     1     169.419 164.135 144.173  1.00  0.00     0.000 C 
BRANCH   3   4
ATOM      4  C   UNL     1     169.616 163.868 145.674  1.00  0.00     0.000 C 
BRANCH   4   5
ATOM      5  C   UNL     1     170.999 163.274 145.995  1.00  0.00     0.000 C 
BRANCH   5   6
ATOM      6  C   UNL     1     171.842 163.020 144.734  1.00  0.00     0.000 C 
BRANCH   6   7
ATOM      7  C   UNL     1     172.788 161.817 144.890  1.00  0.00     0.000 C 
BRANCH   7   8
ATOM      8  C   UNL     1     172.217 160.733 145.820  1.00  0.00     0.000 C 
BRANCH   8   9
ATOM      9  C   UNL     1     171.537 159.589 145.048  1.00  0.00     0.000 C 
BRANCH   9  10
ATOM     10  C   UNL     1     170.012 159.573 145.240  1.00  0.00     0.006 C 
BRANCH  10  11
ATOM     11  C   UNL     1     169.273 160.414 144.191  1.00  0.00     0.053 C 
BRANCH  11  12
ATOM     12  C   UNL     1     169.762 160.081 142.816  1.00  0.00     0.041 C 
ATOM     13  O   UNL     1     169.533 158.948 142.319  1.00  0.00    -0.550 OA
ATOM     14  O   UNL     1     170.514 161.006 142.103  1.00  0.00    -0.550 OA
ENDBRANCH  11  12
ENDBRANCH  10  11
ENDBRANCH   9  10
ENDBRANCH   8   9
ENDBRANCH   7   8
ENDBRANCH   6   7
ENDBRANCH   5   6
ENDBRANCH   4   5
ENDBRANCH   3   4
ENDBRANCH   2   3
ENDBRANCH   1   2
BRANCH   1  15
ATOM     15  C   UNL     1     167.309 166.999 144.695  1.00  0.00     0.000 C 
BRANCH  15  16
ATOM     16  C   UNL     1     168.576 167.753 145.126  1.00  0.00     0.000 C 
BRANCH  16  17
ATOM     17  C   UNL     1     169.033 167.389 146.549  1.00  0.00     0.000 C 
BRANCH  17  18
ATOM     18  C   UNL     1     170.565 167.354 146.687  1.00  0.00    -0.000 C 
BRANCH  18  19
ATOM     19  C   UNL     1     171.292 167.832 145.417  1.00  0.00    -0.000 C 
BRANCH  19  20
ATOM     20  C   UNL     1     172.062 166.737 144.648  1.00  0.00    -0.000 C 
BRANCH  20  21
ATOM     21  C   UNL     1     172.278 167.018 143.150  1.00  0.00    -0.000 C 
BRANCH  21  22
ATOM     22  C   UNL     1     171.787 165.908 142.200  1.00  0.00    -0.000 C 
BRANCH  22  23
ATOM     23  C   UNL     1     170.876 166.420 141.062  1.00  0.00    -0.000 C 
BRANCH  23  24
ATOM     24  C   UNL     1     170.302 167.819 141.348  1.00  0.00    -0.000 C 
BRANCH  24  25
ATOM     25  C   UNL     1     168.767 167.831 141.388  1.00  0.00    -0.003 C 
ATOM     26  C   UNL     1     168.153 166.548 140.827  1.00  0.00     0.004 C 
ENDBRANCH  24  25
ENDBRANCH  23  24
ENDBRANCH  22  23
ENDBRANCH  21  22
ENDBRANCH  20  21
ENDBRANCH  19  20
ENDBRANCH  18  19
ENDBRANCH  17  18
ENDBRANCH  16  17
ENDBRANCH  15  16
ENDBRANCH   1  15
TORSDOF 22
ENDMDL
MODEL 8
REMARK VINA RESULT:    -2.955      2.373      5.694
REMARK INTER + INTRA:         -10.798
REMARK INTER:                  -6.828
REMARK INTRA:                  -3.971
REMARK UNBOUND:                -4.043
REMARK SMILES CCCCCCCCCCCCCCCCCCCCCCCC(=O)[O-]
REMARK SMILES IDX 13 1 14 2 15 3 16 4 17 5 18 6 19 7 20 8 21 9 22 10 23 11
REMARK SMILES IDX 24 12 25 13 26 14 12 15 11 16 10 17 9 18 8 19 7 20 6 21 5 22
REMARK SMILES IDX 4 23 3 24 2 25 1 26
REMARK H PARENT
REMARK Flexibility Score: inf
ROOT
ATOM      1  C   UNL     1     169.399 165.743 143.170  1.00  0.00     0.000 C 
ENDROOT
BRANCH   1   2
ATOM      2  C   UNL     1     169.028 167.209 142.898  1.00  0.00     0.000 C 
BRANCH   2   3
ATOM      3  C   UNL     1     170.191 168.011 142.286  1.00  0.00     0.000 C 
BRANCH   3   4
ATOM      4  C   UNL     1     171.314 168.283 143.300  1.00  0.00     0.000 C 
BRANCH   4   5
ATOM      5  C   UNL     1     172.699 167.861 142.779  1.00  0.00     0.000 C 
BRANCH   5   6
ATOM      6  C   UNL     1     173.125 166.474 143.288  1.00  0.00     0.000 C 
BRANCH   6   7
ATOM      7  C   UNL     1     172.935 165.374 142.229  1.00  0.00     0.000 C 
BRANCH   7   8
ATOM      8  C   UNL     1     172.778 163.976 142.851  1.00  0.00     0.000 C 
BRANCH   8   9
ATOM      9  C   UNL     1     173.122 163.953 144.350  1.00  0.00     0.000 C 
BRANCH   9  10
ATOM     10  C   UNL     1     172.808 162.599 145.007  1.00  0.00     0.006 C 
BRANCH  10  11
ATOM     11  C   UNL     1     171.389 162.537 145.589  1.00  0.00     0.053 C 
BRANCH  11  12
ATOM     12  C   UNL     1     170.933 161.117 145.704  1.00  0.00     0.041 C 
ATOM     13  O   UNL     1     170.783 160.414 144.671  1.00  0.00    -0.550 OA
ATOM     14  O   UNL     1     170.627 160.583 146.950  1.00  0.00    -0.550 OA
ENDBRANCH  11  12
ENDBRANCH  10  11
ENDBRANCH   9  10
ENDBRANCH   8   9
ENDBRANCH   7   8
ENDBRANCH   6   7
ENDBRANCH   5   6
ENDBRANCH   4   5
ENDBRANCH   3   4
ENDBRANCH   2   3
ENDBRANCH   1   2
BRANCH   1  15
ATOM     15  C   UNL     1     169.239 165.354 144.649  1.00  0.00     0.000 C 
BRANCH  15  16
ATOM     16  C   UNL     1     168.841 166.570 145.498  1.00  0.00     0.000 C 
BRANCH  16  17
ATOM     17  C   UNL     1     169.977 167.059 146.412  1.00  0.00     0.000 C 
BRANCH  17  18
ATOM     18  C   UNL     1     171.179 166.098 146.426  1.00  0.00    -0.000 C 
BRANCH  18  19
ATOM     19  C   UNL     1     172.456 166.744 146.993  1.00  0.00    -0.000 C 
BRANCH  19  20
ATOM     20  C   UNL     1     172.556 168.274 146.812  1.00  0.00    -0.000 C 
BRANCH  20  21
ATOM     21  C   UNL     1     172.730 169.078 148.113  1.00  0.00    -0.000 C 
BRANCH  21  22
ATOM     22  C   UNL     1     171.702 168.764 149.217  1.00  0.00    -0.000 C 
BRANCH  22  23
ATOM     23  C   UNL     1     170.558 169.798 149.316  1.00  0.00    -0.000 C 
BRANCH  23  24
ATOM     24  C   UNL     1     169.165 169.145 149.277  1.00  0.00    -0.000 C 
BRANCH  24  25
ATOM     25  C   UNL     1     168.074 170.110 148.788  1.00  0.00    -0.003 C 
ATOM     26  C   UNL     1     166.663 169.566 149.010  1.00  0.00     0.004 C 
ENDBRANCH  24  25
ENDBRANCH  23  24
ENDBRANCH  22  23
ENDBRANCH  21  22
ENDBRANCH  20  21
ENDBRANCH  19  20
ENDBRANCH  18  19
ENDBRANCH  17  18
ENDBRANCH  16  17
ENDBRANCH  15  16
ENDBRANCH   1  15
TORSDOF 22
ENDMDL
MODEL 9
REMARK VINA RESULT:    -2.948      2.630      6.840
REMARK INTER + INTRA:         -10.782
REMARK INTER:                  -6.387
REMARK INTRA:                  -4.395
REMARK UNBOUND:                -4.043
REMARK SMILES CCCCCCCCCCCCCCCCCCCCCCCC(=O)[O-]
REMARK SMILES IDX 13 1 14 2 15 3 16 4 17 5 18 6 19 7 20 8 21 9 22 10 23 11
REMARK SMILES IDX 24 12 25 13 26 14 12 15 11 16 10 17 9 18 8 19 7 20 6 21 5 22
REMARK SMILES IDX 4 23 3 24 2 25 1 26
REMARK H PARENT
REMARK Flexibility Score: inf
ROOT
ATOM      1  C   UNL     1     169.147 164.079 146.156  1.00  0.00     0.000 C 
ENDROOT
BRANCH   1   2
ATOM      2  C   UNL     1     169.270 163.820 144.646  1.00  0.00     0.000 C 
BRANCH   2   3
ATOM      3  C   UNL     1     170.645 164.224 144.086  1.00  0.00     0.000 C 
BRANCH   3   4
ATOM      4  C   UNL     1     171.660 164.545 145.195  1.00  0.00     0.000 C 
BRANCH   4   5
ATOM      5  C   UNL     1     172.806 165.449 144.708  1.00  0.00     0.000 C 
BRANCH   5   6
ATOM      6  C   UNL     1     173.049 165.333 143.194  1.00  0.00     0.000 C 
BRANCH   6   7
ATOM      7  C   UNL     1     173.125 166.706 142.503  1.00  0.00     0.000 C 
BRANCH   7   8
ATOM      8  C   UNL     1     171.867 167.022 141.676  1.00  0.00     0.000 C 
BRANCH   8   9
ATOM      9  C   UNL     1     170.972 168.081 142.343  1.00  0.00     0.000 C 
BRANCH   9  10
ATOM     10  C   UNL     1     169.631 167.501 142.824  1.00  0.00     0.006 C 
BRANCH  10  11
ATOM     11  C   UNL     1     169.354 167.798 144.304  1.00  0.00     0.053 C 
BRANCH  11  12
ATOM     12  C   UNL     1     167.967 167.375 144.670  1.00  0.00     0.041 C 
ATOM     13  O   UNL     1     167.234 166.803 143.822  1.00  0.00    -0.550 OA
ATOM     14  O   UNL     1     167.465 167.656 145.935  1.00  0.00    -0.550 OA
ENDBRANCH  11  12
ENDBRANCH  10  11
ENDBRANCH   9  10
ENDBRANCH   8   9
ENDBRANCH   7   8
ENDBRANCH   6   7
ENDBRANCH   5   6
ENDBRANCH   4   5
ENDBRANCH   3   4
ENDBRANCH   2   3
ENDBRANCH   1   2
BRANCH   1  15
ATOM     15  C   UNL     1     168.745 162.822 146.944  1.00  0.00     0.000 C 
BRANCH  15  16
ATOM     16  C   UNL     1     169.985 162.083 147.470  1.00  0.00     0.000 C 
BRANCH  16  17
ATOM     17  C   UNL     1     170.259 160.767 146.723  1.00  0.00     0.000 C 
BRANCH  17  18
ATOM     18  C   UNL     1     171.525 160.835 145.852  1.00  0.00    -0.000 C 
BRANCH  18  19
ATOM     19  C   UNL     1     171.850 159.497 145.162  1.00  0.00    -0.000 C 
BRANCH  19  20
ATOM     20  C   UNL     1     172.064 159.578 143.636  1.00  0.00    -0.000 C 
BRANCH  20  21
ATOM     21  C   UNL     1     171.716 160.935 142.997  1.00  0.00    -0.000 C 
BRANCH  21  22
ATOM     22  C   UNL     1     172.922 161.737 142.471  1.00  0.00    -0.000 C 
BRANCH  22  23
ATOM     23  C   UNL     1     172.721 162.302 141.047  1.00  0.00    -0.000 C 
BRANCH  23  24
ATOM     24  C   UNL     1     171.235 162.455 140.675  1.00  0.00    -0.000 C 
BRANCH  24  25
ATOM     25  C   UNL     1     170.965 163.707 139.827  1.00  0.00    -0.003 C 
ATOM     26  C   UNL     1     169.788 164.530 140.348  1.00  0.00     0.004 C 
ENDBRANCH  24  25
ENDBRANCH  23  24
ENDBRANCH  22  23
ENDBRANCH  21  22
ENDBRANCH  20  21
ENDBRANCH  19  20
ENDBRANCH  18  19
ENDBRANCH  17  18
ENDBRANCH  16  17
ENDBRANCH  15  16
ENDBRANCH   1  15
TORSDOF 22
ENDMDL
