MODEL 1
REMARK VINA RESULT:    -3.875      0.000      0.000
REMARK INTER + INTRA:          -3.875
REMARK INTER:                  -3.875
REMARK INTRA:                   0.000
REMARK UNBOUND:                 0.000
REMARK SMILES CC1=CC(=O)[C@H]2C[C@@H]1C2(C)C
REMARK SMILES IDX 1 1 2 2 3 3 4 4 5 5 6 6 7 7 8 8 9 9 10 10 11 11
REMARK H PARENT
REMARK Flexibility Score: inf
ROOT
ATOM      1  C   UNL     1      -9.155  27.987  44.299  1.00  0.00     0.040 C 
ATOM      2  C   UNL     1      -7.868  28.024  45.062  1.00  0.00    -0.066 C 
ATOM      3  C   UNL     1      -7.577  29.047  45.913  1.00  0.00     0.047 C 
ATOM      4  C   UNL     1      -6.244  28.983  46.595  1.00  0.00     0.159 C 
ATOM      5  O   UNL     1      -5.844  29.887  47.373  1.00  0.00    -0.295 OA
ATOM      6  C   UNL     1      -5.404  27.746  46.275  1.00  0.00     0.067 C 
ATOM      7  C   UNL     1      -6.401  26.573  46.387  1.00  0.00     0.021 C 
ATOM      8  C   UNL     1      -6.817  26.900  44.935  1.00  0.00     0.022 C 
ATOM      9  C   UNL     1      -5.407  27.530  44.735  1.00  0.00    -0.019 C 
ATOM     10  C   UNL     1      -5.284  28.776  43.813  1.00  0.00     0.012 C 
ATOM     11  C   UNL     1      -4.354  26.486  44.284  1.00  0.00     0.012 C 
ENDROOT
TORSDOF 0
ENDMDL
MODEL 2
REMARK VINA RESULT:    -3.832     15.232     16.883
REMARK INTER + INTRA:          -3.832
REMARK INTER:                  -3.832
REMARK INTRA:                   0.000
REMARK UNBOUND:                 0.000
REMARK SMILES CC1=CC(=O)[C@H]2C[C@@H]1C2(C)C
REMARK SMILES IDX 1 1 2 2 3 3 4 4 5 5 6 6 7 7 8 8 9 9 10 10 11 11
REMARK H PARENT
REMARK Flexibility Score: inf
ROOT
ATOM      1  C   UNL     1     -22.644  24.593  42.668  1.00  0.00     0.040 C 
ATOM      2  C   UNL     1     -22.160  23.697  41.572  1.00  0.00    -0.066 C 
ATOM      3  C   UNL     1     -23.031  23.030  40.765  1.00  0.00     0.047 C 
ATOM      4  C   UNL     1     -22.422  22.141  39.723  1.00  0.00     0.159 C 
ATOM      5  O   UNL     1     -23.120  21.443  38.944  1.00  0.00    -0.295 OA
ATOM      6  C   UNL     1     -20.893  22.139  39.678  1.00  0.00     0.067 C 
ATOM      7  C   UNL     1     -20.511  23.633  39.758  1.00  0.00     0.021 C 
ATOM      8  C   UNL     1     -20.655  23.498  41.291  1.00  0.00     0.022 C 
ATOM      9  C   UNL     1     -20.355  21.980  41.128  1.00  0.00    -0.019 C 
ATOM     10  C   UNL     1     -21.075  20.982  42.079  1.00  0.00     0.012 C 
ATOM     11  C   UNL     1     -18.836  21.672  41.163  1.00  0.00     0.012 C 
ENDROOT
TORSDOF 0
ENDMDL
MODEL 3
REMARK VINA RESULT:    -3.804     14.770     16.349
REMARK INTER + INTRA:          -3.804
REMARK INTER:                  -3.804
REMARK INTRA:                   0.000
REMARK UNBOUND:                 0.000
REMARK SMILES CC1=CC(=O)[C@H]2C[C@@H]1C2(C)C
REMARK SMILES IDX 1 1 2 2 3 3 4 4 5 5 6 6 7 7 8 8 9 9 10 10 11 11
REMARK H PARENT
REMARK Flexibility Score: inf
ROOT
ATOM      1  C   UNL     1     -21.737  25.341  42.048  1.00  0.00     0.040 C 
ATOM      2  C   UNL     1     -21.221  24.025  41.557  1.00  0.00    -0.066 C 
ATOM      3  C   UNL     1     -19.892  23.732  41.577  1.00  0.00     0.047 C 
ATOM      4  C   UNL     1     -19.499  22.393  41.030  1.00  0.00     0.159 C 
ATOM      5  O   UNL     1     -18.299  22.022  40.959  1.00  0.00    -0.295 OA
ATOM      6  C   UNL     1     -20.658  21.512  40.562  1.00  0.00     0.067 C 
ATOM      7  C   UNL     1     -21.700  21.624  41.697  1.00  0.00     0.021 C 
ATOM      8  C   UNL     1     -22.170  22.931  41.020  1.00  0.00     0.022 C 
ATOM      9  C   UNL     1     -21.608  22.371  39.680  1.00  0.00    -0.019 C 
ATOM     10  C   UNL     1     -20.976  23.373  38.672  1.00  0.00     0.012 C 
ATOM     11  C   UNL     1     -22.647  21.509  38.920  1.00  0.00     0.012 C 
ENDROOT
TORSDOF 0
ENDMDL
MODEL 4
REMARK VINA RESULT:    -3.800      2.577      4.312
REMARK INTER + INTRA:          -3.800
REMARK INTER:                  -3.800
REMARK INTRA:                   0.000
REMARK UNBOUND:                 0.000
REMARK SMILES CC1=CC(=O)[C@H]2C[C@@H]1C2(C)C
REMARK SMILES IDX 1 1 2 2 3 3 4 4 5 5 6 6 7 7 8 8 9 9 10 10 11 11
REMARK H PARENT
REMARK Flexibility Score: inf
ROOT
ATOM      1  C   UNL     1      -5.230  27.977  46.574  1.00  0.00     0.040 C 
ATOM      2  C   UNL     1      -5.974  29.234  46.248  1.00  0.00    -0.066 C 
ATOM      3  C   UNL     1      -6.289  29.558  44.964  1.00  0.00     0.047 C 
ATOM      4  C   UNL     1      -7.009  30.858  44.766  1.00  0.00     0.159 C 
ATOM      5  O   UNL     1      -7.320  31.287  43.624  1.00  0.00    -0.295 OA
ATOM      6  C   UNL     1      -7.336  31.626  46.047  1.00  0.00     0.067 C 
ATOM      7  C   UNL     1      -7.902  30.550  46.999  1.00  0.00     0.021 C 
ATOM      8  C   UNL     1      -6.435  30.212  47.349  1.00  0.00     0.022 C 
ATOM      9  C   UNL     1      -6.063  31.667  46.939  1.00  0.00    -0.019 C 
ATOM     10  C   UNL     1      -4.688  31.908  46.253  1.00  0.00     0.012 C 
ATOM     11  C   UNL     1      -6.200  32.665  48.116  1.00  0.00     0.012 C 
ENDROOT
TORSDOF 0
ENDMDL
MODEL 5
REMARK VINA RESULT:    -3.766      1.745      2.856
REMARK INTER + INTRA:          -3.766
REMARK INTER:                  -3.766
REMARK INTRA:                   0.000
REMARK UNBOUND:                 0.000
REMARK SMILES CC1=CC(=O)[C@H]2C[C@@H]1C2(C)C
REMARK SMILES IDX 1 1 2 2 3 3 4 4 5 5 6 6 7 7 8 8 9 9 10 10 11 11
REMARK H PARENT
REMARK Flexibility Score: inf
ROOT
ATOM      1  C   UNL     1      -7.656  30.932  47.023  1.00  0.00     0.040 C 
ATOM      2  C   UNL     1      -6.796  30.006  46.221  1.00  0.00    -0.066 C 
ATOM      3  C   UNL     1      -6.435  30.302  44.942  1.00  0.00     0.047 C 
ATOM      4  C   UNL     1      -5.597  29.280  44.236  1.00  0.00     0.159 C 
ATOM      5  O   UNL     1      -5.233  29.420  43.040  1.00  0.00    -0.295 OA
ATOM      6  C   UNL     1      -5.220  28.054  45.069  1.00  0.00     0.067 C 
ATOM      7  C   UNL     1      -4.768  28.643  46.424  1.00  0.00     0.021 C 
ATOM      8  C   UNL     1      -6.264  28.681  46.809  1.00  0.00     0.022 C 
ATOM      9  C   UNL     1      -6.497  27.531  45.786  1.00  0.00    -0.019 C 
ATOM     10  C   UNL     1      -7.835  27.513  44.993  1.00  0.00     0.012 C 
ATOM     11  C   UNL     1      -6.287  26.131  46.416  1.00  0.00     0.012 C 
ENDROOT
TORSDOF 0
ENDMDL
MODEL 6
REMARK VINA RESULT:    -3.731     15.351     16.508
REMARK INTER + INTRA:          -3.731
REMARK INTER:                  -3.731
REMARK INTRA:                   0.000
REMARK UNBOUND:                 0.000
REMARK SMILES CC1=CC(=O)[C@H]2C[C@@H]1C2(C)C
REMARK SMILES IDX 1 1 2 2 3 3 4 4 5 5 6 6 7 7 8 8 9 9 10 10 11 11
REMARK H PARENT
REMARK Flexibility Score: inf
ROOT
ATOM      1  C   UNL     1     -19.853  20.510  41.580  1.00  0.00     0.040 C 
ATOM      2  C   UNL     1     -20.525  21.791  41.200  1.00  0.00    -0.066 C 
ATOM      3  C   UNL     1     -21.829  22.029  41.515  1.00  0.00     0.047 C 
ATOM      4  C   UNL     1     -22.395  23.337  41.053  1.00  0.00     0.159 C 
ATOM      5  O   UNL     1     -23.597  23.656  41.247  1.00  0.00    -0.295 OA
ATOM      6  C   UNL     1     -21.411  24.255  40.326  1.00  0.00     0.067 C 
ATOM      7  C   UNL     1     -20.139  24.213  41.200  1.00  0.00     0.021 C 
ATOM      8  C   UNL     1     -19.772  22.912  40.451  1.00  0.00     0.022 C 
ATOM      9  C   UNL     1     -20.643  23.418  39.264  1.00  0.00    -0.019 C 
ATOM     10  C   UNL     1     -21.437  22.367  38.436  1.00  0.00     0.012 C 
ATOM     11  C   UNL     1     -19.841  24.306  38.280  1.00  0.00     0.012 C 
ENDROOT
TORSDOF 0
ENDMDL
MODEL 7
REMARK VINA RESULT:    -3.727      1.672      2.783
REMARK INTER + INTRA:          -3.727
REMARK INTER:                  -3.727
REMARK INTRA:                   0.000
REMARK UNBOUND:                 0.000
REMARK SMILES CC1=CC(=O)[C@H]2C[C@@H]1C2(C)C
REMARK SMILES IDX 1 1 2 2 3 3 4 4 5 5 6 6 7 7 8 8 9 9 10 10 11 11
REMARK H PARENT
REMARK Flexibility Score: inf
ROOT
ATOM      1  C   UNL     1      -6.132  25.768  46.514  1.00  0.00     0.040 C 
ATOM      2  C   UNL     1      -6.398  27.189  46.129  1.00  0.00    -0.066 C 
ATOM      3  C   UNL     1      -7.548  27.548  45.495  1.00  0.00     0.047 C 
ATOM      4  C   UNL     1      -7.682  28.997  45.135  1.00  0.00     0.159 C 
ATOM      5  O   UNL     1      -8.680  29.445  44.513  1.00  0.00    -0.295 OA
ATOM      6  C   UNL     1      -6.521  29.890  45.574  1.00  0.00     0.067 C 
ATOM      7  C   UNL     1      -6.247  29.463  47.033  1.00  0.00     0.021 C 
ATOM      8  C   UNL     1      -5.393  28.317  46.446  1.00  0.00     0.022 C 
ATOM      9  C   UNL     1      -5.186  29.197  45.179  1.00  0.00    -0.019 C 
ATOM     10  C   UNL     1      -5.102  28.488  43.797  1.00  0.00     0.012 C 
ATOM     11  C   UNL     1      -3.968  30.146  45.312  1.00  0.00     0.012 C 
ENDROOT
TORSDOF 0
ENDMDL
MODEL 8
REMARK VINA RESULT:    -3.714     14.122     15.293
REMARK INTER + INTRA:          -3.714
REMARK INTER:                  -3.714
REMARK INTRA:                   0.000
REMARK UNBOUND:                 0.000
REMARK SMILES CC1=CC(=O)[C@H]2C[C@@H]1C2(C)C
REMARK SMILES IDX 1 1 2 2 3 3 4 4 5 5 6 6 7 7 8 8 9 9 10 10 11 11
REMARK H PARENT
REMARK Flexibility Score: inf
ROOT
ATOM      1  C   UNL     1     -10.297  19.670  36.107  1.00  0.00     0.040 C 
ATOM      2  C   UNL     1     -10.117  19.732  34.623  1.00  0.00    -0.066 C 
ATOM      3  C   UNL     1      -8.983  19.271  34.026  1.00  0.00     0.047 C 
ATOM      4  C   UNL     1      -8.910  19.417  32.536  1.00  0.00     0.159 C 
ATOM      5  O   UNL     1      -7.899  19.065  31.875  1.00  0.00    -0.295 OA
ATOM      6  C   UNL     1     -10.149  20.026  31.878  1.00  0.00     0.067 C 
ATOM      7  C   UNL     1     -11.332  19.286  32.540  1.00  0.00     0.021 C 
ATOM      8  C   UNL     1     -11.210  20.305  33.696  1.00  0.00     0.022 C 
ATOM      9  C   UNL     1     -10.564  21.292  32.680  1.00  0.00    -0.019 C 
ATOM     10  C   UNL     1      -9.444  22.243  33.192  1.00  0.00     0.012 C 
ATOM     11  C   UNL     1     -11.620  22.144  31.932  1.00  0.00     0.012 C 
ENDROOT
TORSDOF 0
ENDMDL
