MODEL 1
REMARK VINA RESULT:    -5.616      0.000      0.000
REMARK INTER + INTRA:          -6.108
REMARK INTER:                  -6.108
REMARK INTRA:                   0.000
REMARK UNBOUND:                 0.000
REMARK SMILES Cc1cc(O)c2c(c1)C(=O)c1cc(O)cc(O)c1C2=O
REMARK SMILES IDX 1 1 2 2 8 3 7 4 6 5 4 6 3 7 19 8 20 9 18 10 11 11 9 12 10 13
REMARK SMILES IDX 12 14 13 15 15 16 16 17 5 18 17 20 14 22
REMARK H PARENT 5 19 17 21 14 23
REMARK Flexibility Score: inf
ROOT
ATOM      1  C   UNL     1      19.808   6.665  24.872  1.00  0.00     0.044 C 
ATOM      2  C   UNL     1      20.752   5.602  25.352  1.00  0.00    -0.047 A 
ATOM      3  C   UNL     1      20.577   5.023  26.613  1.00  0.00     0.016 A 
ATOM      4  C   UNL     1      21.439   4.006  27.060  1.00  0.00     0.038 A 
ATOM      5  C   UNL     1      22.493   3.563  26.230  1.00  0.00     0.076 A 
ATOM      6  C   UNL     1      22.613   4.094  24.921  1.00  0.00     0.127 A 
ATOM      7  C   UNL     1      21.756   5.119  24.506  1.00  0.00     0.050 A 
ATOM      8  C   UNL     1      23.470   2.596  26.793  1.00  0.00     0.201 C 
ATOM      9  O   UNL     1      24.663   2.601  26.385  1.00  0.00    -0.288 OA
ATOM     10  C   UNL     1      23.091   1.758  27.960  1.00  0.00     0.076 A 
ATOM     11  C   UNL     1      22.034   2.203  28.786  1.00  0.00     0.041 A 
ATOM     12  C   UNL     1      21.242   3.392  28.395  1.00  0.00     0.194 C 
ATOM     13  O   UNL     1      20.383   3.868  29.189  1.00  0.00    -0.289 OA
ATOM     14  C   UNL     1      21.737   1.512  29.973  1.00  0.00     0.059 A 
ATOM     15  C   UNL     1      22.469   0.378  30.336  1.00  0.00     0.120 A 
ATOM     16  C   UNL     1      23.485  -0.087  29.503  1.00  0.00     0.093 A 
ATOM     17  C   UNL     1      23.787   0.570  28.306  1.00  0.00     0.131 A 
ENDROOT
BRANCH   6  18
ATOM     18  O   UNL     1      23.538   3.613  23.992  1.00  0.00    -0.507 OA
ATOM     19  H   UNL     1      24.393   3.139  24.250  1.00  0.00     0.293 HD
ENDBRANCH   6  18
BRANCH  17  20
ATOM     20  O   UNL     1      24.755  -0.007  27.482  1.00  0.00    -0.507 OA
ATOM     21  H   UNL     1      24.975   0.334  26.555  1.00  0.00     0.293 HD
ENDBRANCH  17  20
BRANCH  15  22
ATOM     22  O   UNL     1      22.185  -0.302  31.519  1.00  0.00    -0.508 OA
ATOM     23  H   UNL     1      21.802  -1.240  31.513  1.00  0.00     0.293 HD
ENDBRANCH  15  22
TORSDOF 3
ENDMDL
MODEL 2
REMARK VINA RESULT:    -5.120      3.261      5.420
REMARK INTER + INTRA:          -5.569
REMARK INTER:                  -5.569
REMARK INTRA:                   0.000
REMARK UNBOUND:                 0.000
REMARK SMILES Cc1cc(O)c2c(c1)C(=O)c1cc(O)cc(O)c1C2=O
REMARK SMILES IDX 1 1 2 2 8 3 7 4 6 5 4 6 3 7 19 8 20 9 18 10 11 11 9 12 10 13
REMARK SMILES IDX 12 14 13 15 15 16 16 17 5 18 17 20 14 22
REMARK H PARENT 5 19 17 21 14 23
REMARK Flexibility Score: inf
ROOT
ATOM      1  C   UNL     1      27.619   6.421  30.605  1.00  0.00     0.044 C 
ATOM      2  C   UNL     1      26.728   5.609  29.712  1.00  0.00    -0.047 A 
ATOM      3  C   UNL     1      25.447   6.069  29.389  1.00  0.00     0.016 A 
ATOM      4  C   UNL     1      24.615   5.329  28.530  1.00  0.00     0.038 A 
ATOM      5  C   UNL     1      25.074   4.109  27.986  1.00  0.00     0.076 A 
ATOM      6  C   UNL     1      26.403   3.690  28.249  1.00  0.00     0.127 A 
ATOM      7  C   UNL     1      27.205   4.432  29.123  1.00  0.00     0.050 A 
ATOM      8  C   UNL     1      24.117   3.285  27.205  1.00  0.00     0.201 C 
ATOM      9  O   UNL     1      24.236   2.030  27.192  1.00  0.00    -0.288 OA
ATOM     10  C   UNL     1      22.918   3.920  26.599  1.00  0.00     0.076 A 
ATOM     11  C   UNL     1      22.464   5.143  27.144  1.00  0.00     0.041 A 
ATOM     12  C   UNL     1      23.262   5.828  28.187  1.00  0.00     0.194 C 
ATOM     13  O   UNL     1      22.800   6.851  28.766  1.00  0.00    -0.289 OA
ATOM     14  C   UNL     1      21.258   5.704  26.691  1.00  0.00     0.059 A 
ATOM     15  C   UNL     1      20.511   5.072  25.693  1.00  0.00     0.120 A 
ATOM     16  C   UNL     1      20.978   3.887  25.125  1.00  0.00     0.093 A 
ATOM     17  C   UNL     1      22.185   3.318  25.544  1.00  0.00     0.131 A 
ENDROOT
BRANCH   6  18
ATOM     18  O   UNL     1      26.978   2.572  27.642  1.00  0.00    -0.507 OA
ATOM     19  H   UNL     1      26.859   1.628  27.985  1.00  0.00     0.293 HD
ENDBRANCH   6  18
BRANCH  17  20
ATOM     20  O   UNL     1      22.630   2.182  24.865  1.00  0.00    -0.507 OA
ATOM     21  H   UNL     1      23.486   2.152  24.326  1.00  0.00     0.293 HD
ENDBRANCH  17  20
BRANCH  15  22
ATOM     22  O   UNL     1      19.309   5.619  25.250  1.00  0.00    -0.508 OA
ATOM     23  H   UNL     1      18.460   5.069  25.208  1.00  0.00     0.293 HD
ENDBRANCH  15  22
TORSDOF 3
ENDMDL
MODEL 3
REMARK VINA RESULT:    -4.995      3.281      3.835
REMARK INTER + INTRA:          -5.433
REMARK INTER:                  -5.433
REMARK INTRA:                   0.000
REMARK UNBOUND:                 0.000
REMARK SMILES Cc1cc(O)c2c(c1)C(=O)c1cc(O)cc(O)c1C2=O
REMARK SMILES IDX 1 1 2 2 8 3 7 4 6 5 4 6 3 7 19 8 20 9 18 10 11 11 9 12 10 13
REMARK SMILES IDX 12 14 13 15 15 16 16 17 5 18 17 20 14 22
REMARK H PARENT 5 19 17 21 14 23
REMARK Flexibility Score: inf
ROOT
ATOM      1  C   UNL     1      19.375   6.000  25.726  1.00  0.00     0.044 C 
ATOM      2  C   UNL     1      20.732   5.388  25.907  1.00  0.00    -0.047 A 
ATOM      3  C   UNL     1      21.653   5.966  26.787  1.00  0.00     0.016 A 
ATOM      4  C   UNL     1      22.917   5.383  26.986  1.00  0.00     0.038 A 
ATOM      5  C   UNL     1      23.264   4.203  26.292  1.00  0.00     0.076 A 
ATOM      6  C   UNL     1      22.296   3.576  25.466  1.00  0.00     0.127 A 
ATOM      7  C   UNL     1      21.053   4.185  25.268  1.00  0.00     0.050 A 
ATOM      8  C   UNL     1      24.657   3.701  26.413  1.00  0.00     0.201 C 
ATOM      9  O   UNL     1      25.181   3.068  25.456  1.00  0.00    -0.288 OA
ATOM     10  C   UNL     1      25.489   4.106  27.575  1.00  0.00     0.076 A 
ATOM     11  C   UNL     1      25.137   5.285  28.270  1.00  0.00     0.041 A 
ATOM     12  C   UNL     1      23.884   5.998  27.926  1.00  0.00     0.194 C 
ATOM     13  O   UNL     1      23.629   7.117  28.453  1.00  0.00    -0.289 OA
ATOM     14  C   UNL     1      25.976   5.775  29.285  1.00  0.00     0.059 A 
ATOM     15  C   UNL     1      27.149   5.096  29.626  1.00  0.00     0.120 A 
ATOM     16  C   UNL     1      27.478   3.910  28.971  1.00  0.00     0.093 A 
ATOM     17  C   UNL     1      26.650   3.391  27.970  1.00  0.00     0.131 A 
ENDROOT
BRANCH   6  18
ATOM     18  O   UNL     1      22.511   2.339  24.856  1.00  0.00    -0.507 OA
ATOM     19  H   UNL     1      21.912   1.536  24.996  1.00  0.00     0.293 HD
ENDBRANCH   6  18
BRANCH  17  20
ATOM     20  O   UNL     1      26.998   2.153  27.424  1.00  0.00    -0.507 OA
ATOM     21  H   UNL     1      26.977   1.287  27.945  1.00  0.00     0.293 HD
ENDBRANCH  17  20
BRANCH  15  22
ATOM     22  O   UNL     1      27.989   5.585  30.623  1.00  0.00    -0.508 OA
ATOM     23  H   UNL     1      27.726   5.554  31.601  1.00  0.00     0.293 HD
ENDBRANCH  15  22
TORSDOF 3
ENDMDL
MODEL 4
REMARK VINA RESULT:    -4.717      2.814      4.365
REMARK INTER + INTRA:          -5.131
REMARK INTER:                  -5.131
REMARK INTRA:                   0.000
REMARK UNBOUND:                 0.000
REMARK SMILES Cc1cc(O)c2c(c1)C(=O)c1cc(O)cc(O)c1C2=O
REMARK SMILES IDX 1 1 2 2 8 3 7 4 6 5 4 6 3 7 19 8 20 9 18 10 11 11 9 12 10 13
REMARK SMILES IDX 12 14 13 15 15 16 16 17 5 18 17 20 14 22
REMARK H PARENT 5 19 17 21 14 23
REMARK Flexibility Score: inf
ROOT
ATOM      1  C   UNL     1      17.793   6.763  29.224  1.00  0.00     0.044 C 
ATOM      2  C   UNL     1      18.815   6.418  28.181  1.00  0.00    -0.047 A 
ATOM      3  C   UNL     1      20.063   5.913  28.558  1.00  0.00     0.016 A 
ATOM      4  C   UNL     1      21.016   5.559  27.587  1.00  0.00     0.038 A 
ATOM      5  C   UNL     1      20.714   5.715  26.216  1.00  0.00     0.076 A 
ATOM      6  C   UNL     1      19.418   6.147  25.838  1.00  0.00     0.127 A 
ATOM      7  C   UNL     1      18.493   6.513  26.822  1.00  0.00     0.050 A 
ATOM      8  C   UNL     1      21.796   5.472  25.227  1.00  0.00     0.201 C 
ATOM      9  O   UNL     1      21.800   6.104  24.136  1.00  0.00    -0.288 OA
ATOM     10  C   UNL     1      22.964   4.634  25.601  1.00  0.00     0.076 A 
ATOM     11  C   UNL     1      23.261   4.477  26.973  1.00  0.00     0.041 A 
ATOM     12  C   UNL     1      22.334   5.017  27.996  1.00  0.00     0.194 C 
ATOM     13  O   UNL     1      22.656   4.993  29.216  1.00  0.00    -0.289 OA
ATOM     14  C   UNL     1      24.434   3.808  27.363  1.00  0.00     0.059 A 
ATOM     15  C   UNL     1      25.302   3.280  26.402  1.00  0.00     0.120 A 
ATOM     16  C   UNL     1      24.990   3.396  25.048  1.00  0.00     0.093 A 
ATOM     17  C   UNL     1      23.819   4.041  24.636  1.00  0.00     0.131 A 
ENDROOT
BRANCH   6  18
ATOM     18  O   UNL     1      18.994   6.195  24.508  1.00  0.00    -0.507 OA
ATOM     19  H   UNL     1      18.172   6.698  24.203  1.00  0.00     0.293 HD
ENDBRANCH   6  18
BRANCH  17  20
ATOM     20  O   UNL     1      23.531   4.038  23.269  1.00  0.00    -0.507 OA
ATOM     21  H   UNL     1      22.841   3.432  22.845  1.00  0.00     0.293 HD
ENDBRANCH  17  20
BRANCH  15  22
ATOM     22  O   UNL     1      26.471   2.626  26.784  1.00  0.00    -0.508 OA
ATOM     23  H   UNL     1      27.359   2.826  26.340  1.00  0.00     0.293 HD
ENDBRANCH  15  22
TORSDOF 3
ENDMDL
MODEL 5
REMARK VINA RESULT:    -4.585     10.671     12.717
REMARK INTER + INTRA:          -4.988
REMARK INTER:                  -4.988
REMARK INTRA:                   0.000
REMARK UNBOUND:                 0.000
REMARK SMILES Cc1cc(O)c2c(c1)C(=O)c1cc(O)cc(O)c1C2=O
REMARK SMILES IDX 1 1 2 2 8 3 7 4 6 5 4 6 3 7 19 8 20 9 18 10 11 11 9 12 10 13
REMARK SMILES IDX 12 14 13 15 15 16 16 17 5 18 17 20 14 22
REMARK H PARENT 5 19 17 21 14 23
REMARK Flexibility Score: inf
ROOT
ATOM      1  C   UNL     1      17.009 -11.819  23.872  1.00  0.00     0.044 C 
ATOM      2  C   UNL     1      16.820 -10.567  24.677  1.00  0.00    -0.047 A 
ATOM      3  C   UNL     1      17.295 -10.496  25.990  1.00  0.00     0.016 A 
ATOM      4  C   UNL     1      17.148  -9.318  26.743  1.00  0.00     0.038 A 
ATOM      5  C   UNL     1      16.515  -8.192  26.170  1.00  0.00     0.076 A 
ATOM      6  C   UNL     1      16.111  -8.242  24.812  1.00  0.00     0.127 A 
ATOM      7  C   UNL     1      16.249  -9.432  24.089  1.00  0.00     0.050 A 
ATOM      8  C   UNL     1      16.246  -7.020  27.041  1.00  0.00     0.201 C 
ATOM      9  O   UNL     1      15.250  -6.283  26.810  1.00  0.00    -0.288 OA
ATOM     10  C   UNL     1      17.034  -6.827  28.286  1.00  0.00     0.076 A 
ATOM     11  C   UNL     1      17.670  -7.955  28.854  1.00  0.00     0.041 A 
ATOM     12  C   UNL     1      17.662  -9.249  28.132  1.00  0.00     0.194 C 
ATOM     13  O   UNL     1      18.116 -10.287  28.690  1.00  0.00    -0.289 OA
ATOM     14  C   UNL     1      18.309  -7.843  30.101  1.00  0.00     0.059 A 
ATOM     15  C   UNL     1      18.336  -6.619  30.777  1.00  0.00     0.120 A 
ATOM     16  C   UNL     1      17.745  -5.496  30.199  1.00  0.00     0.093 A 
ATOM     17  C   UNL     1      17.121  -5.577  28.951  1.00  0.00     0.131 A 
ENDROOT
BRANCH   6  18
ATOM     18  O   UNL     1      15.605  -7.132  24.132  1.00  0.00    -0.507 OA
ATOM     19  H   UNL     1      16.028  -6.215  24.170  1.00  0.00     0.293 HD
ENDBRANCH   6  18
BRANCH  17  20
ATOM     20  O   UNL     1      16.633  -4.391  28.398  1.00  0.00    -0.507 OA
ATOM     21  H   UNL     1      16.190  -4.338  27.490  1.00  0.00     0.293 HD
ENDBRANCH  17  20
BRANCH  15  22
ATOM     22  O   UNL     1      18.957  -6.508  32.018  1.00  0.00    -0.508 OA
ATOM     23  H   UNL     1      18.625  -5.858  32.721  1.00  0.00     0.293 HD
ENDBRANCH  15  22
TORSDOF 3
ENDMDL
MODEL 6
REMARK VINA RESULT:    -4.571      1.467      6.213
REMARK INTER + INTRA:          -4.972
REMARK INTER:                  -4.972
REMARK INTRA:                   0.000
REMARK UNBOUND:                 0.000
REMARK SMILES Cc1cc(O)c2c(c1)C(=O)c1cc(O)cc(O)c1C2=O
REMARK SMILES IDX 1 1 2 2 8 3 7 4 6 5 4 6 3 7 19 8 20 9 18 10 11 11 9 12 10 13
REMARK SMILES IDX 12 14 13 15 15 16 16 17 5 18 17 20 14 22
REMARK H PARENT 5 19 17 21 14 23
REMARK Flexibility Score: inf
ROOT
ATOM      1  C   UNL     1      22.738  -1.391  31.938  1.00  0.00     0.044 C 
ATOM      2  C   UNL     1      22.384  -0.218  31.073  1.00  0.00    -0.047 A 
ATOM      3  C   UNL     1      23.140   0.069  29.931  1.00  0.00     0.016 A 
ATOM      4  C   UNL     1      22.798   1.149  29.099  1.00  0.00     0.038 A 
ATOM      5  C   UNL     1      21.682   1.954  29.415  1.00  0.00     0.076 A 
ATOM      6  C   UNL     1      20.871   1.608  30.525  1.00  0.00     0.127 A 
ATOM      7  C   UNL     1      21.242   0.542  31.351  1.00  0.00     0.050 A 
ATOM      8  C   UNL     1      21.441   3.171  28.598  1.00  0.00     0.201 C 
ATOM      9  O   UNL     1      20.888   4.177  29.119  1.00  0.00    -0.288 OA
ATOM     10  C   UNL     1      22.018   3.270  27.232  1.00  0.00     0.076 A 
ATOM     11  C   UNL     1      23.133   2.460  26.918  1.00  0.00     0.041 A 
ATOM     12  C   UNL     1      23.600   1.441  27.887  1.00  0.00     0.194 C 
ATOM     13  O   UNL     1      24.668   0.804  27.667  1.00  0.00    -0.289 OA
ATOM     14  C   UNL     1      23.790   2.623  25.687  1.00  0.00     0.059 A 
ATOM     15  C   UNL     1      23.341   3.570  24.762  1.00  0.00     0.120 A 
ATOM     16  C   UNL     1      22.217   4.342  25.052  1.00  0.00     0.093 A 
ATOM     17  C   UNL     1      21.532   4.185  26.261  1.00  0.00     0.131 A 
ENDROOT
BRANCH   6  18
ATOM     18  O   UNL     1      19.677   2.267  30.824  1.00  0.00    -0.507 OA
ATOM     19  H   UNL     1      19.632   3.126  31.355  1.00  0.00     0.293 HD
ENDBRANCH   6  18
BRANCH  17  20
ATOM     20  O   UNL     1      20.364   4.929  26.441  1.00  0.00    -0.507 OA
ATOM     21  H   UNL     1      20.355   5.930  26.584  1.00  0.00     0.293 HD
ENDBRANCH  17  20
BRANCH  15  22
ATOM     22  O   UNL     1      23.998   3.742  23.546  1.00  0.00    -0.508 OA
ATOM     23  H   UNL     1      24.972   4.019  23.504  1.00  0.00     0.293 HD
ENDBRANCH  15  22
TORSDOF 3
ENDMDL
MODEL 7
REMARK VINA RESULT:    -4.496     12.526     14.413
REMARK INTER + INTRA:          -4.890
REMARK INTER:                  -4.890
REMARK INTRA:                   0.000
REMARK UNBOUND:                 0.000
REMARK SMILES Cc1cc(O)c2c(c1)C(=O)c1cc(O)cc(O)c1C2=O
REMARK SMILES IDX 1 1 2 2 8 3 7 4 6 5 4 6 3 7 19 8 20 9 18 10 11 11 9 12 10 13
REMARK SMILES IDX 12 14 13 15 15 16 16 17 5 18 17 20 14 22
REMARK H PARENT 5 19 17 21 14 23
REMARK Flexibility Score: inf
ROOT
ATOM      1  C   UNL     1      15.630  -5.257  27.554  1.00  0.00     0.044 C 
ATOM      2  C   UNL     1      16.158  -6.656  27.436  1.00  0.00    -0.047 A 
ATOM      3  C   UNL     1      16.049  -7.350  26.226  1.00  0.00     0.016 A 
ATOM      4  C   UNL     1      16.566  -8.651  26.097  1.00  0.00     0.038 A 
ATOM      5  C   UNL     1      17.202  -9.267  27.198  1.00  0.00     0.076 A 
ATOM      6  C   UNL     1      17.384  -8.528  28.394  1.00  0.00     0.127 A 
ATOM      7  C   UNL     1      16.843  -7.243  28.506  1.00  0.00     0.050 A 
ATOM      8  C   UNL     1      17.603 -10.692  27.070  1.00  0.00     0.201 C 
ATOM      9  O   UNL     1      17.624 -11.431  28.091  1.00  0.00    -0.288 OA
ATOM     10  C   UNL     1      17.792 -11.287  25.722  1.00  0.00     0.076 A 
ATOM     11  C   UNL     1      17.157 -10.667  24.622  1.00  0.00     0.041 A 
ATOM     12  C   UNL     1      16.454  -9.376  24.809  1.00  0.00     0.194 C 
ATOM     13  O   UNL     1      15.779  -8.882  23.863  1.00  0.00    -0.289 OA
ATOM     14  C   UNL     1      17.198 -11.275  23.357  1.00  0.00     0.059 A 
ATOM     15  C   UNL     1      17.877 -12.483  23.172  1.00  0.00     0.120 A 
ATOM     16  C   UNL     1      18.539 -13.077  24.246  1.00  0.00     0.093 A 
ATOM     17  C   UNL     1      18.530 -12.481  25.511  1.00  0.00     0.131 A 
ENDROOT
BRANCH   6  18
ATOM     18  O   UNL     1      18.121  -9.012  29.477  1.00  0.00    -0.507 OA
ATOM     19  H   UNL     1      18.962  -8.569  29.822  1.00  0.00     0.293 HD
ENDBRANCH   6  18
BRANCH  17  20
ATOM     20  O   UNL     1      19.291 -13.088  26.513  1.00  0.00    -0.507 OA
ATOM     21  H   UNL     1      20.293 -13.209  26.457  1.00  0.00     0.293 HD
ENDBRANCH  17  20
BRANCH  15  22
ATOM     22  O   UNL     1      17.910 -13.095  21.921  1.00  0.00    -0.508 OA
ATOM     23  H   UNL     1      18.261 -14.038  21.801  1.00  0.00     0.293 HD
ENDBRANCH  15  22
TORSDOF 3
ENDMDL
MODEL 8
REMARK VINA RESULT:    -4.466     14.175     15.286
REMARK INTER + INTRA:          -4.858
REMARK INTER:                  -4.858
REMARK INTRA:                   0.000
REMARK UNBOUND:                 0.000
REMARK SMILES Cc1cc(O)c2c(c1)C(=O)c1cc(O)cc(O)c1C2=O
REMARK SMILES IDX 1 1 2 2 8 3 7 4 6 5 4 6 3 7 19 8 20 9 18 10 11 11 9 12 10 13
REMARK SMILES IDX 12 14 13 15 15 16 16 17 5 18 17 20 14 22
REMARK H PARENT 5 19 17 21 14 23
REMARK Flexibility Score: inf
ROOT
ATOM      1  C   UNL     1      13.039  -9.407  20.243  1.00  0.00     0.044 C 
ATOM      2  C   UNL     1      14.120 -10.002  21.097  1.00  0.00    -0.047 A 
ATOM      3  C   UNL     1      14.500  -9.376  22.288  1.00  0.00     0.016 A 
ATOM      4  C   UNL     1      15.492  -9.940  23.110  1.00  0.00     0.038 A 
ATOM      5  C   UNL     1      16.112 -11.152  22.732  1.00  0.00     0.076 A 
ATOM      6  C   UNL     1      15.663 -11.825  21.567  1.00  0.00     0.127 A 
ATOM      7  C   UNL     1      14.689 -11.234  20.754  1.00  0.00     0.050 A 
ATOM      8  C   UNL     1      17.255 -11.639  23.545  1.00  0.00     0.201 C 
ATOM      9  O   UNL     1      18.168 -12.317  23.001  1.00  0.00    -0.288 OA
ATOM     10  C   UNL     1      17.416 -11.172  24.946  1.00  0.00     0.076 A 
ATOM     11  C   UNL     1      16.791  -9.961  25.323  1.00  0.00     0.041 A 
ATOM     12  C   UNL     1      15.883  -9.274  24.375  1.00  0.00     0.194 C 
ATOM     13  O   UNL     1      15.424  -8.131  24.655  1.00  0.00    -0.289 OA
ATOM     14  C   UNL     1      17.032  -9.416  26.595  1.00  0.00     0.059 A 
ATOM     15  C   UNL     1      17.872 -10.072  27.500  1.00  0.00     0.120 A 
ATOM     16  C   UNL     1      18.457 -11.287  27.147  1.00  0.00     0.093 A 
ATOM     17  C   UNL     1      18.218 -11.860  25.894  1.00  0.00     0.131 A 
ENDROOT
BRANCH   6  18
ATOM     18  O   UNL     1      16.125 -13.090  21.199  1.00  0.00    -0.507 OA
ATOM     19  H   UNL     1      17.087 -13.283  20.956  1.00  0.00     0.293 HD
ENDBRANCH   6  18
BRANCH  17  20
ATOM     20  O   UNL     1      18.765 -13.121  25.649  1.00  0.00    -0.507 OA
ATOM     21  H   UNL     1      18.749 -13.878  26.320  1.00  0.00     0.293 HD
ENDBRANCH  17  20
BRANCH  15  22
ATOM     22  O   UNL     1      18.123  -9.528  28.758  1.00  0.00    -0.508 OA
ATOM     23  H   UNL     1      17.381  -9.396  29.436  1.00  0.00     0.293 HD
ENDBRANCH  15  22
TORSDOF 3
ENDMDL
MODEL 9
REMARK VINA RESULT:    -4.386      2.572      4.964
REMARK INTER + INTRA:          -4.771
REMARK INTER:                  -4.771
REMARK INTRA:                   0.000
REMARK UNBOUND:                 0.000
REMARK SMILES Cc1cc(O)c2c(c1)C(=O)c1cc(O)cc(O)c1C2=O
REMARK SMILES IDX 1 1 2 2 8 3 7 4 6 5 4 6 3 7 19 8 20 9 18 10 11 11 9 12 10 13
REMARK SMILES IDX 12 14 13 15 15 16 16 17 5 18 17 20 14 22
REMARK H PARENT 5 19 17 21 14 23
REMARK Flexibility Score: inf
ROOT
ATOM      1  C   UNL     1      25.365   4.177  22.136  1.00  0.00     0.044 C 
ATOM      2  C   UNL     1      24.660   4.116  23.459  1.00  0.00    -0.047 A 
ATOM      3  C   UNL     1      23.633   5.019  23.752  1.00  0.00     0.016 A 
ATOM      4  C   UNL     1      22.946   4.951  24.976  1.00  0.00     0.038 A 
ATOM      5  C   UNL     1      23.294   3.962  25.923  1.00  0.00     0.076 A 
ATOM      6  C   UNL     1      24.278   2.997  25.586  1.00  0.00     0.127 A 
ATOM      7  C   UNL     1      24.962   3.097  24.370  1.00  0.00     0.050 A 
ATOM      8  C   UNL     1      22.651   4.014  27.261  1.00  0.00     0.201 C 
ATOM      9  O   UNL     1      23.273   3.590  28.273  1.00  0.00    -0.288 OA
ATOM     10  C   UNL     1      21.362   4.732  27.434  1.00  0.00     0.076 A 
ATOM     11  C   UNL     1      21.015   5.719  26.483  1.00  0.00     0.041 A 
ATOM     12  C   UNL     1      21.854   5.907  25.276  1.00  0.00     0.194 C 
ATOM     13  O   UNL     1      21.623   6.868  24.489  1.00  0.00    -0.289 OA
ATOM     14  C   UNL     1      19.875   6.514  26.685  1.00  0.00     0.059 A 
ATOM     15  C   UNL     1      19.069   6.326  27.812  1.00  0.00     0.120 A 
ATOM     16  C   UNL     1      19.386   5.326  28.730  1.00  0.00     0.093 A 
ATOM     17  C   UNL     1      20.505   4.508  28.542  1.00  0.00     0.131 A 
ENDROOT
BRANCH   6  18
ATOM     18  O   UNL     1      24.581   1.909  26.407  1.00  0.00    -0.507 OA
ATOM     19  H   UNL     1      23.879   1.312  26.825  1.00  0.00     0.293 HD
ENDBRANCH   6  18
BRANCH  17  20
ATOM     20  O   UNL     1      20.705   3.471  29.456  1.00  0.00    -0.507 OA
ATOM     21  H   UNL     1      21.606   3.047  29.631  1.00  0.00     0.293 HD
ENDBRANCH  17  20
BRANCH  15  22
ATOM     22  O   UNL     1      17.945   7.121  28.022  1.00  0.00    -0.508 OA
ATOM     23  H   UNL     1      17.428   7.522  27.248  1.00  0.00     0.293 HD
ENDBRANCH  15  22
TORSDOF 3
ENDMDL
