MODEL 1
REMARK VINA RESULT:    -5.225      0.000      0.000
REMARK INTER + INTRA:          -5.902
REMARK INTER:                  -5.683
REMARK INTRA:                  -0.219
REMARK UNBOUND:                -0.219
REMARK SMILES O=C([O-])c1ccccc1O
REMARK SMILES IDX 4 1 9 2 5 3 8 4 6 5 7 6 2 7 1 8 3 9 10 10
REMARK H PARENT 10 11
REMARK Flexibility Score: inf
ROOT
ATOM      1  C   UNL     1     -17.388  63.325  60.479  1.00  0.00     0.039 A 
ATOM      2  C   UNL     1     -17.176  61.923  60.477  1.00  0.00     0.124 A 
ATOM      3  C   UNL     1     -17.899  63.935  61.640  1.00  0.00     0.014 A 
ATOM      4  C   UNL     1     -17.537  61.167  61.599  1.00  0.00     0.047 A 
ATOM      5  C   UNL     1     -18.235  63.168  62.758  1.00  0.00     0.001 A 
ATOM      6  C   UNL     1     -18.064  61.786  62.735  1.00  0.00     0.004 A 
ENDROOT
BRANCH   1   7
ATOM      7  C   UNL     1     -17.125  64.169  59.292  1.00  0.00     0.075 C 
ATOM      8  O   UNL     1     -17.707  63.925  58.202  1.00  0.00    -0.545 OA
ATOM      9  O   UNL     1     -16.187  65.192  59.341  1.00  0.00    -0.545 OA
ENDBRANCH   1   7
BRANCH   2  10
ATOM     10  O   UNL     1     -16.582  61.253  59.406  1.00  0.00    -0.507 OA
ATOM     11  H   UNL     1     -16.237  61.722  58.579  1.00  0.00     0.293 HD
ENDBRANCH   2  10
TORSDOF 2
ENDMDL
MODEL 2
REMARK VINA RESULT:    -5.064      3.036      3.798
REMARK INTER + INTRA:          -5.727
REMARK INTER:                  -5.516
REMARK INTRA:                  -0.211
REMARK UNBOUND:                -0.219
REMARK SMILES O=C([O-])c1ccccc1O
REMARK SMILES IDX 4 1 9 2 5 3 8 4 6 5 7 6 2 7 1 8 3 9 10 10
REMARK H PARENT 10 11
REMARK Flexibility Score: inf
ROOT
ATOM      1  C   UNL     1     -18.237  63.100  62.415  1.00  0.00     0.039 A 
ATOM      2  C   UNL     1     -17.757  61.782  62.202  1.00  0.00     0.124 A 
ATOM      3  C   UNL     1     -18.123  64.042  61.375  1.00  0.00     0.014 A 
ATOM      4  C   UNL     1     -17.125  61.462  60.994  1.00  0.00     0.047 A 
ATOM      5  C   UNL     1     -17.509  63.701  60.168  1.00  0.00     0.001 A 
ATOM      6  C   UNL     1     -17.002  62.416  59.981  1.00  0.00     0.004 A 
ENDROOT
BRANCH   1   7
ATOM      7  C   UNL     1     -18.821  63.533  63.703  1.00  0.00     0.075 C 
ATOM      8  O   UNL     1     -18.137  63.474  64.759  1.00  0.00    -0.545 OA
ATOM      9  O   UNL     1     -20.146  63.943  63.781  1.00  0.00    -0.545 OA
ENDBRANCH   1   7
BRANCH   2  10
ATOM     10  O   UNL     1     -17.919  60.762  63.141  1.00  0.00    -0.507 OA
ATOM     11  H   UNL     1     -18.271  59.843  62.909  1.00  0.00     0.293 HD
ENDBRANCH   2  10
TORSDOF 2
ENDMDL
MODEL 3
REMARK VINA RESULT:    -4.936      1.905      3.415
REMARK INTER + INTRA:          -5.588
REMARK INTER:                  -5.380
REMARK INTRA:                  -0.208
REMARK UNBOUND:                -0.219
REMARK SMILES O=C([O-])c1ccccc1O
REMARK SMILES IDX 4 1 9 2 5 3 8 4 6 5 7 6 2 7 1 8 3 9 10 10
REMARK H PARENT 10 11
REMARK Flexibility Score: inf
ROOT
ATOM      1  C   UNL     1     -17.643  63.097  61.246  1.00  0.00     0.039 A 
ATOM      2  C   UNL     1     -17.128  62.790  59.960  1.00  0.00     0.124 A 
ATOM      3  C   UNL     1     -17.997  64.428  61.537  1.00  0.00     0.014 A 
ATOM      4  C   UNL     1     -16.924  63.818  59.032  1.00  0.00     0.047 A 
ATOM      5  C   UNL     1     -17.806  65.438  60.593  1.00  0.00     0.001 A 
ATOM      6  C   UNL     1     -17.261  65.136  59.346  1.00  0.00     0.004 A 
ENDROOT
BRANCH   1   7
ATOM      7  C   UNL     1     -17.787  62.076  62.307  1.00  0.00     0.075 C 
ATOM      8  O   UNL     1     -17.774  60.852  62.013  1.00  0.00    -0.545 OA
ATOM      9  O   UNL     1     -18.007  62.449  63.627  1.00  0.00    -0.545 OA
ENDBRANCH   1   7
BRANCH   2  10
ATOM     10  O   UNL     1     -16.845  61.484  59.556  1.00  0.00    -0.507 OA
ATOM     11  H   UNL     1     -17.488  60.914  59.024  1.00  0.00     0.293 HD
ENDBRANCH   2  10
TORSDOF 2
ENDMDL
MODEL 4
REMARK VINA RESULT:    -4.928      1.745      2.812
REMARK INTER + INTRA:          -5.579
REMARK INTER:                  -5.380
REMARK INTRA:                  -0.199
REMARK UNBOUND:                -0.219
REMARK SMILES O=C([O-])c1ccccc1O
REMARK SMILES IDX 4 1 9 2 5 3 8 4 6 5 7 6 2 7 1 8 3 9 10 10
REMARK H PARENT 10 11
REMARK Flexibility Score: inf
ROOT
ATOM      1  C   UNL     1     -17.858  63.055  61.655  1.00  0.00     0.039 A 
ATOM      2  C   UNL     1     -18.079  62.474  62.930  1.00  0.00     0.124 A 
ATOM      3  C   UNL     1     -18.142  64.422  61.472  1.00  0.00     0.014 A 
ATOM      4  C   UNL     1     -18.632  63.249  63.958  1.00  0.00     0.047 A 
ATOM      5  C   UNL     1     -18.673  65.185  62.513  1.00  0.00     0.001 A 
ATOM      6  C   UNL     1     -18.927  64.598  63.752  1.00  0.00     0.004 A 
ENDROOT
BRANCH   1   7
ATOM      7  C   UNL     1     -17.374  62.270  60.499  1.00  0.00     0.075 C 
ATOM      8  O   UNL     1     -17.218  62.825  59.379  1.00  0.00    -0.545 OA
ATOM      9  O   UNL     1     -17.151  60.903  60.611  1.00  0.00    -0.545 OA
ENDBRANCH   1   7
BRANCH   2  10
ATOM     10  O   UNL     1     -17.732  61.154  63.225  1.00  0.00    -0.507 OA
ATOM     11  H   UNL     1     -17.165  60.892  64.020  1.00  0.00     0.293 HD
ENDBRANCH   2  10
TORSDOF 2
ENDMDL
MODEL 5
REMARK VINA RESULT:    -4.850      2.485      3.142
REMARK INTER + INTRA:          -5.495
REMARK INTER:                  -5.284
REMARK INTRA:                  -0.211
REMARK UNBOUND:                -0.219
REMARK SMILES O=C([O-])c1ccccc1O
REMARK SMILES IDX 4 1 9 2 5 3 8 4 6 5 7 6 2 7 1 8 3 9 10 10
REMARK H PARENT 10 11
REMARK Flexibility Score: inf
ROOT
ATOM      1  C   UNL     1     -17.989  63.592  61.869  1.00  0.00     0.039 A 
ATOM      2  C   UNL     1     -18.222  62.600  62.856  1.00  0.00     0.124 A 
ATOM      3  C   UNL     1     -17.462  63.201  60.623  1.00  0.00     0.014 A 
ATOM      4  C   UNL     1     -17.868  61.270  62.599  1.00  0.00     0.047 A 
ATOM      5  C   UNL     1     -17.133  61.866  60.376  1.00  0.00     0.001 A 
ATOM      6  C   UNL     1     -17.326  60.904  61.366  1.00  0.00     0.004 A 
ENDROOT
BRANCH   1   7
ATOM      7  C   UNL     1     -18.244  65.029  62.111  1.00  0.00     0.075 C 
ATOM      8  O   UNL     1     -18.077  65.865  61.185  1.00  0.00    -0.545 OA
ATOM      9  O   UNL     1     -18.601  65.484  63.374  1.00  0.00    -0.545 OA
ENDBRANCH   1   7
BRANCH   2  10
ATOM     10  O   UNL     1     -18.832  62.886  64.079  1.00  0.00    -0.507 OA
ATOM     11  H   UNL     1     -18.431  63.506  64.770  1.00  0.00     0.293 HD
ENDBRANCH   2  10
TORSDOF 2
ENDMDL
MODEL 6
REMARK VINA RESULT:    -4.829      1.138      2.407
REMARK INTER + INTRA:          -5.472
REMARK INTER:                  -5.265
REMARK INTRA:                  -0.207
REMARK UNBOUND:                -0.219
REMARK SMILES O=C([O-])c1ccccc1O
REMARK SMILES IDX 4 1 9 2 5 3 8 4 6 5 7 6 2 7 1 8 3 9 10 10
REMARK H PARENT 10 11
REMARK Flexibility Score: inf
ROOT
ATOM      1  C   UNL     1     -17.272  63.234  60.510  1.00  0.00     0.039 A 
ATOM      2  C   UNL     1     -17.833  63.616  61.755  1.00  0.00     0.124 A 
ATOM      3  C   UNL     1     -17.056  61.867  60.252  1.00  0.00     0.014 A 
ATOM      4  C   UNL     1     -18.101  62.640  62.723  1.00  0.00     0.047 A 
ATOM      5  C   UNL     1     -17.347  60.904  61.220  1.00  0.00     0.001 A 
ATOM      6  C   UNL     1     -17.860  61.291  62.458  1.00  0.00     0.004 A 
ENDROOT
BRANCH   1   7
ATOM      7  C   UNL     1     -16.870  64.221  59.484  1.00  0.00     0.075 C 
ATOM      8  O   UNL     1     -15.995  65.088  59.749  1.00  0.00    -0.545 OA
ATOM      9  O   UNL     1     -17.497  64.254  58.244  1.00  0.00    -0.545 OA
ENDBRANCH   1   7
BRANCH   2  10
ATOM     10  O   UNL     1     -18.171  64.938  62.053  1.00  0.00    -0.507 OA
ATOM     11  H   UNL     1     -17.653  65.511  62.705  1.00  0.00     0.293 HD
ENDBRANCH   2  10
TORSDOF 2
ENDMDL
MODEL 7
REMARK VINA RESULT:    -4.812      1.479      2.065
REMARK INTER + INTRA:          -5.453
REMARK INTER:                  -5.201
REMARK INTRA:                  -0.252
REMARK UNBOUND:                -0.219
REMARK SMILES O=C([O-])c1ccccc1O
REMARK SMILES IDX 4 1 9 2 5 3 8 4 6 5 7 6 2 7 1 8 3 9 10 10
REMARK H PARENT 10 11
REMARK Flexibility Score: inf
ROOT
ATOM      1  C   UNL     1     -17.719  63.644  61.312  1.00  0.00     0.039 A 
ATOM      2  C   UNL     1     -17.163  62.946  60.210  1.00  0.00     0.124 A 
ATOM      3  C   UNL     1     -18.060  62.924  62.473  1.00  0.00     0.014 A 
ATOM      4  C   UNL     1     -17.023  61.553  60.272  1.00  0.00     0.047 A 
ATOM      5  C   UNL     1     -17.894  61.538  62.526  1.00  0.00     0.001 A 
ATOM      6  C   UNL     1     -17.386  60.853  61.424  1.00  0.00     0.004 A 
ENDROOT
BRANCH   1   7
ATOM      7  C   UNL     1     -17.989  65.098  61.275  1.00  0.00     0.075 C 
ATOM      8  O   UNL     1     -19.124  65.538  61.598  1.00  0.00    -0.545 OA
ATOM      9  O   UNL     1     -17.025  65.989  60.821  1.00  0.00    -0.545 OA
ENDBRANCH   1   7
BRANCH   2  10
ATOM     10  O   UNL     1     -16.707  63.595  59.061  1.00  0.00    -0.507 OA
ATOM     11  H   UNL     1     -15.778  63.471  58.684  1.00  0.00     0.293 HD
ENDBRANCH   2  10
TORSDOF 2
ENDMDL
MODEL 8
REMARK VINA RESULT:    -4.774      2.668      3.733
REMARK INTER + INTRA:          -5.412
REMARK INTER:                  -5.162
REMARK INTRA:                  -0.250
REMARK UNBOUND:                -0.219
REMARK SMILES O=C([O-])c1ccccc1O
REMARK SMILES IDX 4 1 9 2 5 3 8 4 6 5 7 6 2 7 1 8 3 9 10 10
REMARK H PARENT 10 11
REMARK Flexibility Score: inf
ROOT
ATOM      1  C   UNL     1     -18.141  63.146  62.206  1.00  0.00     0.039 A 
ATOM      2  C   UNL     1     -17.688  63.856  61.065  1.00  0.00     0.124 A 
ATOM      3  C   UNL     1     -17.915  61.758  62.278  1.00  0.00     0.014 A 
ATOM      4  C   UNL     1     -17.087  63.159  60.009  1.00  0.00     0.047 A 
ATOM      5  C   UNL     1     -17.295  61.082  61.225  1.00  0.00     0.001 A 
ATOM      6  C   UNL     1     -16.890  61.780  60.088  1.00  0.00     0.004 A 
ENDROOT
BRANCH   1   7
ATOM      7  C   UNL     1     -18.875  63.802  63.310  1.00  0.00     0.075 C 
ATOM      8  O   UNL     1     -19.787  64.633  63.056  1.00  0.00    -0.545 OA
ATOM      9  O   UNL     1     -18.526  63.569  64.634  1.00  0.00    -0.545 OA
ENDBRANCH   1   7
BRANCH   2  10
ATOM     10  O   UNL     1     -17.783  65.245  60.957  1.00  0.00    -0.507 OA
ATOM     11  H   UNL     1     -17.438  65.882  61.662  1.00  0.00     0.293 HD
ENDBRANCH   2  10
TORSDOF 2
ENDMDL
MODEL 9
REMARK VINA RESULT:    -4.624      1.194      2.661
REMARK INTER + INTRA:          -5.249
REMARK INTER:                  -5.043
REMARK INTRA:                  -0.206
REMARK UNBOUND:                -0.219
REMARK SMILES O=C([O-])c1ccccc1O
REMARK SMILES IDX 4 1 9 2 5 3 8 4 6 5 7 6 2 7 1 8 3 9 10 10
REMARK H PARENT 10 11
REMARK Flexibility Score: inf
ROOT
ATOM      1  C   UNL     1     -17.739  63.019  61.227  1.00  0.00     0.039 A 
ATOM      2  C   UNL     1     -18.244  64.315  61.506  1.00  0.00     0.124 A 
ATOM      3  C   UNL     1     -17.750  62.050  62.248  1.00  0.00     0.014 A 
ATOM      4  C   UNL     1     -18.681  64.624  62.800  1.00  0.00     0.047 A 
ATOM      5  C   UNL     1     -18.209  62.369  63.527  1.00  0.00     0.001 A 
ATOM      6  C   UNL     1     -18.665  63.656  63.806  1.00  0.00     0.004 A 
ENDROOT
BRANCH   1   7
ATOM      7  C   UNL     1     -17.167  62.657  59.912  1.00  0.00     0.075 C 
ATOM      8  O   UNL     1     -16.493  61.601  59.785  1.00  0.00    -0.545 OA
ATOM      9  O   UNL     1     -17.303  63.505  58.820  1.00  0.00    -0.545 OA
ENDBRANCH   1   7
BRANCH   2  10
ATOM     10  O   UNL     1     -18.361  65.304  60.527  1.00  0.00    -0.507 OA
ATOM     11  H   UNL     1     -17.915  66.209  60.594  1.00  0.00     0.293 HD
ENDBRANCH   2  10
TORSDOF 2
ENDMDL
