MODEL 1
REMARK VINA RESULT:    -4.567      0.000      0.000
REMARK INTER + INTRA:          -7.887
REMARK INTER:                  -6.970
REMARK INTRA:                  -0.917
REMARK UNBOUND:                -0.917
REMARK SMILES O=C([O-])CCCCCCCCC(=O)[O-]
REMARK SMILES IDX 7 1 6 2 5 3 4 4 2 5 1 6 3 7 8 8 9 9 10 10 11 11 12 12 13 13
REMARK SMILES IDX 14 14
REMARK H PARENT
REMARK Flexibility Score: inf
ROOT
ATOM      1  C   UNL     1      15.247 -12.975  38.807  1.00  0.00     0.000 C 
ENDROOT
BRANCH   1   2
ATOM      2  C   UNL     1      14.798 -13.351  37.383  1.00  0.00     0.000 C 
BRANCH   2   3
ATOM      3  C   UNL     1      15.699 -12.825  36.250  1.00  0.00     0.006 C 
BRANCH   3   4
ATOM      4  C   UNL     1      16.432 -13.943  35.498  1.00  0.00     0.053 C 
BRANCH   4   5
ATOM      5  C   UNL     1      17.909 -13.829  35.702  1.00  0.00     0.041 C 
ATOM      6  O   UNL     1      18.633 -13.304  34.815  1.00  0.00    -0.550 OA
ATOM      7  O   UNL     1      18.482 -14.257  36.893  1.00  0.00    -0.550 OA
ENDBRANCH   4   5
ENDBRANCH   3   4
ENDBRANCH   2   3
ENDBRANCH   1   2
BRANCH   1   8
ATOM      8  C   UNL     1      15.878 -14.153  39.568  1.00  0.00     0.000 C 
BRANCH   8   9
ATOM      9  C   UNL     1      14.841 -15.196  40.028  1.00  0.00     0.000 C 
BRANCH   9  10
ATOM     10  C   UNL     1      15.119 -16.644  39.576  1.00  0.00     0.006 C 
BRANCH  10  11
ATOM     11  C   UNL     1      14.436 -17.045  38.259  1.00  0.00     0.053 C 
BRANCH  11  12
ATOM     12  C   UNL     1      15.403 -17.089  37.117  1.00  0.00     0.041 C 
ATOM     13  O   UNL     1      14.983 -17.134  35.932  1.00  0.00    -0.550 OA
ATOM     14  O   UNL     1      16.770 -17.047  37.362  1.00  0.00    -0.550 OA
ENDBRANCH  11  12
ENDBRANCH  10  11
ENDBRANCH   9  10
ENDBRANCH   8   9
ENDBRANCH   1   8
TORSDOF 9
ENDMDL
MODEL 2
REMARK VINA RESULT:    -4.464      1.049      4.036
REMARK INTER + INTRA:          -7.730
REMARK INTER:                  -6.635
REMARK INTRA:                  -1.094
REMARK UNBOUND:                -0.917
REMARK SMILES O=C([O-])CCCCCCCCC(=O)[O-]
REMARK SMILES IDX 7 1 6 2 5 3 4 4 2 5 1 6 3 7 8 8 9 9 10 10 11 11 12 12 13 13
REMARK SMILES IDX 14 14
REMARK H PARENT
REMARK Flexibility Score: inf
ROOT
ATOM      1  C   UNL     1      15.313 -15.037  40.385  1.00  0.00     0.000 C 
ENDROOT
BRANCH   1   2
ATOM      2  C   UNL     1      13.902 -15.354  39.854  1.00  0.00     0.000 C 
BRANCH   2   3
ATOM      3  C   UNL     1      13.775 -16.679  39.079  1.00  0.00     0.006 C 
BRANCH   3   4
ATOM      4  C   UNL     1      13.589 -16.475  37.571  1.00  0.00     0.053 C 
BRANCH   4   5
ATOM      5  C   UNL     1      14.808 -16.926  36.830  1.00  0.00     0.041 C 
ATOM      6  O   UNL     1      15.911 -17.032  37.429  1.00  0.00    -0.550 OA
ATOM      7  O   UNL     1      14.718 -17.275  35.489  1.00  0.00    -0.550 OA
ENDBRANCH   4   5
ENDBRANCH   3   4
ENDBRANCH   2   3
ENDBRANCH   1   2
BRANCH   1   8
ATOM      8  C   UNL     1      15.981 -13.864  39.650  1.00  0.00     0.000 C 
BRANCH   8   9
ATOM      9  C   UNL     1      15.053 -13.191  38.621  1.00  0.00     0.000 C 
BRANCH   9  10
ATOM     10  C   UNL     1      15.586 -13.160  37.174  1.00  0.00     0.006 C 
BRANCH  10  11
ATOM     11  C   UNL     1      17.007 -13.722  37.004  1.00  0.00     0.053 C 
BRANCH  11  12
ATOM     12  C   UNL     1      17.347 -13.956  35.564  1.00  0.00     0.041 C 
ATOM     13  O   UNL     1      16.566 -14.612  34.826  1.00  0.00    -0.550 OA
ATOM     14  O   UNL     1      18.512 -13.421  35.030  1.00  0.00    -0.550 OA
ENDBRANCH  11  12
ENDBRANCH  10  11
ENDBRANCH   9  10
ENDBRANCH   8   9
ENDBRANCH   1   8
TORSDOF 9
ENDMDL
MODEL 3
REMARK VINA RESULT:    -4.426      1.680      4.225
REMARK INTER + INTRA:          -7.672
REMARK INTER:                  -6.666
REMARK INTRA:                  -1.005
REMARK UNBOUND:                -0.917
REMARK SMILES O=C([O-])CCCCCCCCC(=O)[O-]
REMARK SMILES IDX 7 1 6 2 5 3 4 4 2 5 1 6 3 7 8 8 9 9 10 10 11 11 12 12 13 13
REMARK SMILES IDX 14 14
REMARK H PARENT
REMARK Flexibility Score: inf
ROOT
ATOM      1  C   UNL     1      15.264 -12.957  38.759  1.00  0.00     0.000 C 
ENDROOT
BRANCH   1   2
ATOM      2  C   UNL     1      15.832 -14.153  39.546  1.00  0.00     0.000 C 
BRANCH   2   3
ATOM      3  C   UNL     1      14.783 -15.148  40.076  1.00  0.00     0.006 C 
BRANCH   3   4
ATOM      4  C   UNL     1      15.049 -16.592  39.632  1.00  0.00     0.053 C 
BRANCH   4   5
ATOM      5  C   UNL     1      13.982 -17.053  38.690  1.00  0.00     0.041 C 
ATOM      6  O   UNL     1      13.148 -16.231  38.225  1.00  0.00    -0.550 OA
ATOM      7  O   UNL     1      13.937 -18.381  38.286  1.00  0.00    -0.550 OA
ENDBRANCH   4   5
ENDBRANCH   3   4
ENDBRANCH   2   3
ENDBRANCH   1   2
BRANCH   1   8
ATOM      8  C   UNL     1      14.867 -13.319  37.319  1.00  0.00     0.000 C 
BRANCH   8   9
ATOM      9  C   UNL     1      15.931 -12.914  36.282  1.00  0.00     0.000 C 
BRANCH   9  10
ATOM     10  C   UNL     1      16.576 -14.082  35.509  1.00  0.00     0.006 C 
BRANCH  10  11
ATOM     11  C   UNL     1      17.309 -15.106  36.391  1.00  0.00     0.053 C 
BRANCH  11  12
ATOM     12  C   UNL     1      16.676 -16.461  36.320  1.00  0.00     0.041 C 
ATOM     13  O   UNL     1      15.627 -16.637  35.647  1.00  0.00    -0.550 OA
ATOM     14  O   UNL     1      17.264 -17.538  36.972  1.00  0.00    -0.550 OA
ENDBRANCH  11  12
ENDBRANCH  10  11
ENDBRANCH   9  10
ENDBRANCH   8   9
ENDBRANCH   1   8
TORSDOF 9
ENDMDL
MODEL 4
REMARK VINA RESULT:    -4.394      1.680      2.609
REMARK INTER + INTRA:          -7.623
REMARK INTER:                  -6.585
REMARK INTRA:                  -1.037
REMARK UNBOUND:                -0.917
REMARK SMILES O=C([O-])CCCCCCCCC(=O)[O-]
REMARK SMILES IDX 7 1 6 2 5 3 4 4 2 5 1 6 3 7 8 8 9 9 10 10 11 11 12 12 13 13
REMARK SMILES IDX 14 14
REMARK H PARENT
REMARK Flexibility Score: inf
ROOT
ATOM      1  C   UNL     1      14.764 -13.246  37.354  1.00  0.00     0.000 C 
ENDROOT
BRANCH   1   2
ATOM      2  C   UNL     1      15.887 -12.850  36.377  1.00  0.00     0.000 C 
BRANCH   2   3
ATOM      3  C   UNL     1      16.397 -13.984  35.469  1.00  0.00     0.006 C 
BRANCH   3   4
ATOM      4  C   UNL     1      17.273 -14.999  36.212  1.00  0.00     0.053 C 
BRANCH   4   5
ATOM      5  C   UNL     1      16.607 -16.337  36.249  1.00  0.00     0.041 C 
ATOM      6  O   UNL     1      15.539 -16.532  35.609  1.00  0.00    -0.550 OA
ATOM      7  O   UNL     1      17.189 -17.386  36.949  1.00  0.00    -0.550 OA
ENDBRANCH   4   5
ENDBRANCH   3   4
ENDBRANCH   2   3
ENDBRANCH   1   2
BRANCH   1   8
ATOM      8  C   UNL     1      15.080 -12.877  38.812  1.00  0.00     0.000 C 
BRANCH   8   9
ATOM      9  C   UNL     1      15.882 -13.966  39.548  1.00  0.00     0.000 C 
BRANCH   9  10
ATOM     10  C   UNL     1      15.035 -15.027  40.280  1.00  0.00     0.006 C 
BRANCH  10  11
ATOM     11  C   UNL     1      14.984 -16.397  39.584  1.00  0.00     0.053 C 
BRANCH  11  12
ATOM     12  C   UNL     1      13.710 -16.590  38.821  1.00  0.00     0.041 C 
ATOM     13  O   UNL     1      13.575 -17.578  38.053  1.00  0.00    -0.550 OA
ATOM     14  O   UNL     1      12.660 -15.696  38.985  1.00  0.00    -0.550 OA
ENDBRANCH  11  12
ENDBRANCH  10  11
ENDBRANCH   9  10
ENDBRANCH   8   9
ENDBRANCH   1   8
TORSDOF 9
ENDMDL
MODEL 5
REMARK VINA RESULT:    -4.377     10.608     12.205
REMARK INTER + INTRA:          -7.597
REMARK INTER:                  -6.995
REMARK INTRA:                  -0.602
REMARK UNBOUND:                -0.917
REMARK SMILES O=C([O-])CCCCCCCCC(=O)[O-]
REMARK SMILES IDX 7 1 6 2 5 3 4 4 2 5 1 6 3 7 8 8 9 9 10 10 11 11 12 12 13 13
REMARK SMILES IDX 14 14
REMARK H PARENT
REMARK Flexibility Score: inf
ROOT
ATOM      1  C   UNL     1      21.625 -24.760  33.115  1.00  0.00     0.000 C 
ENDROOT
BRANCH   1   2
ATOM      2  C   UNL     1      20.133 -24.405  33.256  1.00  0.00     0.000 C 
BRANCH   2   3
ATOM      3  C   UNL     1      19.759 -22.967  32.853  1.00  0.00     0.006 C 
BRANCH   3   4
ATOM      4  C   UNL     1      20.784 -21.927  33.322  1.00  0.00     0.053 C 
BRANCH   4   5
ATOM      5  C   UNL     1      21.114 -20.982  32.210  1.00  0.00     0.041 C 
ATOM      6  O   UNL     1      20.194 -20.387  31.590  1.00  0.00    -0.550 OA
ATOM      7  O   UNL     1      22.440 -20.719  31.891  1.00  0.00    -0.550 OA
ENDBRANCH   4   5
ENDBRANCH   3   4
ENDBRANCH   2   3
ENDBRANCH   1   2
BRANCH   1   8
ATOM      8  C   UNL     1      22.056 -25.918  34.029  1.00  0.00     0.000 C 
BRANCH   8   9
ATOM      9  C   UNL     1      23.473 -26.435  33.718  1.00  0.00     0.000 C 
BRANCH   9  10
ATOM     10  C   UNL     1      24.624 -25.503  34.149  1.00  0.00     0.006 C 
BRANCH  10  11
ATOM     11  C   UNL     1      25.376 -24.835  32.987  1.00  0.00     0.053 C 
BRANCH  11  12
ATOM     12  C   UNL     1      25.000 -23.394  32.831  1.00  0.00     0.041 C 
ATOM     13  O   UNL     1      24.518 -22.756  33.803  1.00  0.00    -0.550 OA
ATOM     14  O   UNL     1      25.213 -22.747  31.621  1.00  0.00    -0.550 OA
ENDBRANCH  11  12
ENDBRANCH  10  11
ENDBRANCH   9  10
ENDBRANCH   8   9
ENDBRANCH   1   8
TORSDOF 9
ENDMDL
MODEL 6
REMARK VINA RESULT:    -4.367     10.486     12.150
REMARK INTER + INTRA:          -7.582
REMARK INTER:                  -6.861
REMARK INTRA:                  -0.721
REMARK UNBOUND:                -0.917
REMARK SMILES O=C([O-])CCCCCCCCC(=O)[O-]
REMARK SMILES IDX 7 1 6 2 5 3 4 4 2 5 1 6 3 7 8 8 9 9 10 10 11 11 12 12 13 13
REMARK SMILES IDX 14 14
REMARK H PARENT
REMARK Flexibility Score: inf
ROOT
ATOM      1  C   UNL     1      22.329 -25.773  33.968  1.00  0.00     0.000 C 
ENDROOT
BRANCH   1   2
ATOM      2  C   UNL     1      23.864 -25.890  33.934  1.00  0.00     0.000 C 
BRANCH   2   3
ATOM      3  C   UNL     1      24.526 -25.451  32.614  1.00  0.00     0.006 C 
BRANCH   3   4
ATOM      4  C   UNL     1      25.497 -24.278  32.792  1.00  0.00     0.053 C 
BRANCH   4   5
ATOM      5  C   UNL     1      24.747 -22.985  32.855  1.00  0.00     0.041 C 
ATOM      6  O   UNL     1      24.532 -22.431  33.966  1.00  0.00    -0.550 OA
ATOM      7  O   UNL     1      24.328 -22.365  31.685  1.00  0.00    -0.550 OA
ENDBRANCH   4   5
ENDBRANCH   3   4
ENDBRANCH   2   3
ENDBRANCH   1   2
BRANCH   1   8
ATOM      8  C   UNL     1      21.764 -24.938  32.808  1.00  0.00     0.000 C 
BRANCH   8   9
ATOM      9  C   UNL     1      20.256 -24.655  32.948  1.00  0.00     0.000 C 
BRANCH   9  10
ATOM     10  C   UNL     1      19.889 -23.199  33.302  1.00  0.00     0.006 C 
BRANCH  10  11
ATOM     11  C   UNL     1      21.057 -22.205  33.212  1.00  0.00     0.053 C 
BRANCH  11  12
ATOM     12  C   UNL     1      20.717 -21.017  32.366  1.00  0.00     0.041 C 
ATOM     13  O   UNL     1      19.541 -20.569  32.344  1.00  0.00    -0.550 OA
ATOM     14  O   UNL     1      21.708 -20.384  31.626  1.00  0.00    -0.550 OA
ENDBRANCH  11  12
ENDBRANCH  10  11
ENDBRANCH   9  10
ENDBRANCH   8   9
ENDBRANCH   1   8
TORSDOF 9
ENDMDL
MODEL 7
REMARK VINA RESULT:    -4.344      1.755      3.166
REMARK INTER + INTRA:          -7.547
REMARK INTER:                  -6.521
REMARK INTRA:                  -1.026
REMARK UNBOUND:                -0.917
REMARK SMILES O=C([O-])CCCCCCCCC(=O)[O-]
REMARK SMILES IDX 7 1 6 2 5 3 4 4 2 5 1 6 3 7 8 8 9 9 10 10 11 11 12 12 13 13
REMARK SMILES IDX 14 14
REMARK H PARENT
REMARK Flexibility Score: inf
ROOT
ATOM      1  C   UNL     1      14.469 -17.431  37.231  1.00  0.00     0.000 C 
ENDROOT
BRANCH   1   2
ATOM      2  C   UNL     1      14.975 -16.879  35.885  1.00  0.00     0.000 C 
BRANCH   2   3
ATOM      3  C   UNL     1      16.392 -16.277  35.913  1.00  0.00     0.006 C 
BRANCH   3   4
ATOM      4  C   UNL     1      16.420 -14.791  35.535  1.00  0.00     0.053 C 
BRANCH   4   5
ATOM      5  C   UNL     1      17.699 -14.161  35.989  1.00  0.00     0.041 C 
ATOM      6  O   UNL     1      18.363 -13.437  35.201  1.00  0.00    -0.550 OA
ATOM      7  O   UNL     1      18.133 -14.332  37.297  1.00  0.00    -0.550 OA
ENDBRANCH   4   5
ENDBRANCH   3   4
ENDBRANCH   2   3
ENDBRANCH   1   2
BRANCH   1   8
ATOM      8  C   UNL     1      15.581 -17.554  38.285  1.00  0.00     0.000 C 
BRANCH   8   9
ATOM      9  C   UNL     1      15.092 -17.246  39.713  1.00  0.00     0.000 C 
BRANCH   9  10
ATOM     10  C   UNL     1      14.456 -15.854  39.907  1.00  0.00     0.006 C 
BRANCH  10  11
ATOM     11  C   UNL     1      15.383 -14.675  39.570  1.00  0.00     0.053 C 
BRANCH  11  12
ATOM     12  C   UNL     1      14.724 -13.688  38.657  1.00  0.00     0.041 C 
ATOM     13  O   UNL     1      15.100 -12.487  38.645  1.00  0.00    -0.550 OA
ATOM     14  O   UNL     1      13.716 -14.103  37.796  1.00  0.00    -0.550 OA
ENDBRANCH  11  12
ENDBRANCH  10  11
ENDBRANCH   9  10
ENDBRANCH   8   9
ENDBRANCH   1   8
TORSDOF 9
ENDMDL
MODEL 8
REMARK VINA RESULT:    -4.319      1.972      2.697
REMARK INTER + INTRA:          -7.509
REMARK INTER:                  -6.712
REMARK INTRA:                  -0.796
REMARK UNBOUND:                -0.917
REMARK SMILES O=C([O-])CCCCCCCCC(=O)[O-]
REMARK SMILES IDX 7 1 6 2 5 3 4 4 2 5 1 6 3 7 8 8 9 9 10 10 11 11 12 12 13 13
REMARK SMILES IDX 14 14
REMARK H PARENT
REMARK Flexibility Score: inf
ROOT
ATOM      1  C   UNL     1      15.063 -13.244  38.484  1.00  0.00     0.000 C 
ENDROOT
BRANCH   1   2
ATOM      2  C   UNL     1      15.796 -13.096  37.138  1.00  0.00     0.000 C 
BRANCH   2   3
ATOM      3  C   UNL     1      17.029 -14.001  36.958  1.00  0.00     0.006 C 
BRANCH   3   4
ATOM      4  C   UNL     1      16.957 -14.867  35.694  1.00  0.00     0.053 C 
BRANCH   4   5
ATOM      5  C   UNL     1      16.341 -16.194  36.005  1.00  0.00     0.041 C 
ATOM      6  O   UNL     1      15.133 -16.413  35.724  1.00  0.00    -0.550 OA
ATOM      7  O   UNL     1      17.113 -17.207  36.559  1.00  0.00    -0.550 OA
ENDBRANCH   4   5
ENDBRANCH   3   4
ENDBRANCH   2   3
ENDBRANCH   1   2
BRANCH   1   8
ATOM      8  C   UNL     1      15.933 -13.893  39.573  1.00  0.00     0.000 C 
BRANCH   8   9
ATOM      9  C   UNL     1      15.211 -15.028  40.323  1.00  0.00     0.000 C 
BRANCH   9  10
ATOM     10  C   UNL     1      14.610 -16.131  39.427  1.00  0.00     0.006 C 
BRANCH  10  11
ATOM     11  C   UNL     1      15.366 -17.469  39.465  1.00  0.00     0.053 C 
BRANCH  11  12
ATOM     12  C   UNL     1      14.474 -18.605  39.860  1.00  0.00     0.041 C 
ATOM     13  O   UNL     1      13.270 -18.392  40.157  1.00  0.00    -0.550 OA
ATOM     14  O   UNL     1      14.965 -19.905  39.867  1.00  0.00    -0.550 OA
ENDBRANCH  11  12
ENDBRANCH  10  11
ENDBRANCH   9  10
ENDBRANCH   8   9
ENDBRANCH   1   8
TORSDOF 9
ENDMDL
MODEL 9
REMARK VINA RESULT:    -4.317      1.987      4.590
REMARK INTER + INTRA:          -7.506
REMARK INTER:                  -6.394
REMARK INTRA:                  -1.112
REMARK UNBOUND:                -0.917
REMARK SMILES O=C([O-])CCCCCCCCC(=O)[O-]
REMARK SMILES IDX 7 1 6 2 5 3 4 4 2 5 1 6 3 7 8 8 9 9 10 10 11 11 12 12 13 13
REMARK SMILES IDX 14 14
REMARK H PARENT
REMARK Flexibility Score: inf
ROOT
ATOM      1  C   UNL     1      15.894 -17.842  38.307  1.00  0.00     0.000 C 
ENDROOT
BRANCH   1   2
ATOM      2  C   UNL     1      15.175 -17.490  39.623  1.00  0.00     0.000 C 
BRANCH   2   3
ATOM      3  C   UNL     1      14.103 -16.390  39.512  1.00  0.00     0.006 C 
BRANCH   3   4
ATOM      4  C   UNL     1      14.602 -15.018  39.980  1.00  0.00     0.053 C 
BRANCH   4   5
ATOM      5  C   UNL     1      14.424 -14.000  38.899  1.00  0.00     0.041 C 
ATOM      6  O   UNL     1      13.630 -14.220  37.946  1.00  0.00    -0.550 OA
ATOM      7  O   UNL     1      15.097 -12.787  38.967  1.00  0.00    -0.550 OA
ENDBRANCH   4   5
ENDBRANCH   3   4
ENDBRANCH   2   3
ENDBRANCH   1   2
BRANCH   1   8
ATOM      8  C   UNL     1      15.221 -17.222  37.071  1.00  0.00     0.000 C 
BRANCH   8   9
ATOM      9  C   UNL     1      16.123 -16.212  36.338  1.00  0.00     0.000 C 
BRANCH   9  10
ATOM     10  C   UNL     1      17.435 -15.852  37.064  1.00  0.00     0.006 C 
BRANCH  10  11
ATOM     11  C   UNL     1      17.677 -14.344  37.236  1.00  0.00     0.053 C 
BRANCH  11  12
ATOM     12  C   UNL     1      17.428 -13.588  35.967  1.00  0.00     0.041 C 
ATOM     13  O   UNL     1      16.502 -12.739  35.907  1.00  0.00    -0.550 OA
ATOM     14  O   UNL     1      18.242 -13.799  34.861  1.00  0.00    -0.550 OA
ENDBRANCH  11  12
ENDBRANCH  10  11
ENDBRANCH   9  10
ENDBRANCH   8   9
ENDBRANCH   1   8
TORSDOF 9
ENDMDL
