MODEL 1
REMARK VINA RESULT:     5.784      0.000      0.000
REMARK INTER + INTRA:          10.305
REMARK INTER:                  10.180
REMARK INTRA:                   0.125
REMARK UNBOUND:                 0.125
REMARK SMILES CCCCCCCCCCCCCCC(=O)[O-]
REMARK SMILES IDX 9 1 10 2 11 3 12 4 13 5 14 6 15 7 16 8 17 9 8 10 7 11 6 12
REMARK SMILES IDX 5 13 4 14 3 15 2 16 1 17
REMARK H PARENT
REMARK Flexibility Score: inf
ROOT
ATOM      1  C   UNL     1      -7.762  28.913 -16.414  1.00  0.00     0.000 C 
ENDROOT
BRANCH   1   2
ATOM      2  C   UNL     1      -7.927  29.053 -14.893  1.00  0.00     0.000 C 
BRANCH   2   3
ATOM      3  C   UNL     1      -9.032  30.048 -14.502  1.00  0.00     0.000 C 
BRANCH   3   4
ATOM      4  C   UNL     1      -9.793  30.593 -15.723  1.00  0.00     0.000 C 
BRANCH   4   5
ATOM      5  C   UNL     1      -8.884  31.371 -16.696  1.00  0.00     0.006 C 
BRANCH   5   6
ATOM      6  C   UNL     1      -9.051  32.898 -16.619  1.00  0.00     0.053 C 
BRANCH   6   7
ATOM      7  C   UNL     1      -8.310  33.501 -15.468  1.00  0.00     0.041 C 
ATOM      8  O   UNL     1      -7.230  34.118 -15.662  1.00  0.00    -0.550 OA
ATOM      9  O   UNL     1      -8.818  33.395 -14.179  1.00  0.00    -0.550 OA
ENDBRANCH   6   7
ENDBRANCH   5   6
ENDBRANCH   4   5
ENDBRANCH   3   4
ENDBRANCH   2   3
ENDBRANCH   1   2
BRANCH   1  10
ATOM     10  C   UNL     1      -6.336  28.468 -16.771  1.00  0.00     0.000 C 
BRANCH  10  11
ATOM     11  C   UNL     1      -5.940  28.818 -18.217  1.00  0.00    -0.000 C 
BRANCH  11  12
ATOM     12  C   UNL     1      -6.674  28.018 -19.309  1.00  0.00    -0.000 C 
BRANCH  12  13
ATOM     13  C   UNL     1      -7.467  28.914 -20.277  1.00  0.00    -0.000 C 
BRANCH  13  14
ATOM     14  C   UNL     1      -6.656  29.292 -21.528  1.00  0.00    -0.000 C 
BRANCH  14  15
ATOM     15  C   UNL     1      -5.428  28.388 -21.735  1.00  0.00    -0.000 C 
BRANCH  15  16
ATOM     16  C   UNL     1      -5.410  27.732 -23.124  1.00  0.00    -0.003 C 
ATOM     17  C   UNL     1      -4.875  26.300 -23.092  1.00  0.00     0.004 C 
ENDBRANCH  15  16
ENDBRANCH  14  15
ENDBRANCH  13  14
ENDBRANCH  12  13
ENDBRANCH  11  12
ENDBRANCH  10  11
ENDBRANCH   1  10
TORSDOF 13
ENDMDL
MODEL 2
REMARK VINA RESULT:     6.648      3.744      7.361
REMARK INTER + INTRA:          11.826
REMARK INTER:                  11.648
REMARK INTRA:                   0.177
REMARK UNBOUND:                 0.125
REMARK SMILES CCCCCCCCCCCCCCC(=O)[O-]
REMARK SMILES IDX 9 1 10 2 11 3 12 4 13 5 14 6 15 7 16 8 17 9 8 10 7 11 6 12
REMARK SMILES IDX 5 13 4 14 3 15 2 16 1 17
REMARK H PARENT
REMARK Flexibility Score: inf
ROOT
ATOM      1  C   UNL     1      -7.436  28.738 -17.288  1.00  0.00     0.000 C 
ENDROOT
BRANCH   1   2
ATOM      2  C   UNL     1      -6.144  28.172 -17.897  1.00  0.00     0.000 C 
BRANCH   2   3
ATOM      3  C   UNL     1      -6.164  28.163 -19.434  1.00  0.00     0.000 C 
BRANCH   3   4
ATOM      4  C   UNL     1      -6.954  29.347 -20.021  1.00  0.00     0.000 C 
BRANCH   4   5
ATOM      5  C   UNL     1      -6.922  29.381 -21.562  1.00  0.00     0.006 C 
BRANCH   5   6
ATOM      6  C   UNL     1      -5.641  28.791 -22.172  1.00  0.00     0.053 C 
BRANCH   6   7
ATOM      7  C   UNL     1      -5.857  27.435 -22.768  1.00  0.00     0.041 C 
ATOM      8  O   UNL     1      -4.878  26.675 -22.986  1.00  0.00    -0.550 OA
ATOM      9  O   UNL     1      -7.142  27.005 -23.072  1.00  0.00    -0.550 OA
ENDBRANCH   6   7
ENDBRANCH   5   6
ENDBRANCH   4   5
ENDBRANCH   3   4
ENDBRANCH   2   3
ENDBRANCH   1   2
BRANCH   1  10
ATOM     10  C   UNL     1      -7.482  28.488 -15.774  1.00  0.00     0.000 C 
BRANCH  10  11
ATOM     11  C   UNL     1      -8.102  29.658 -14.988  1.00  0.00    -0.000 C 
BRANCH  11  12
ATOM     12  C   UNL     1      -9.468  30.144 -15.507  1.00  0.00    -0.000 C 
BRANCH  12  13
ATOM     13  C   UNL     1      -9.363  30.921 -16.832  1.00  0.00    -0.000 C 
BRANCH  13  14
ATOM     14  C   UNL     1      -8.964  32.391 -16.623  1.00  0.00    -0.000 C 
BRANCH  14  15
ATOM     15  C   UNL     1      -8.579  32.700 -15.166  1.00  0.00    -0.000 C 
BRANCH  15  16
ATOM     16  C   UNL     1      -8.216  34.178 -14.956  1.00  0.00    -0.003 C 
ATOM     17  C   UNL     1      -6.927  34.576 -15.675  1.00  0.00     0.004 C 
ENDBRANCH  15  16
ENDBRANCH  14  15
ENDBRANCH  13  14
ENDBRANCH  12  13
ENDBRANCH  11  12
ENDBRANCH  10  11
ENDBRANCH   1  10
TORSDOF 13
ENDMDL
MODEL 3
REMARK VINA RESULT:     7.103      3.856      7.131
REMARK INTER + INTRA:          12.626
REMARK INTER:                  12.341
REMARK INTRA:                   0.286
REMARK UNBOUND:                 0.125
REMARK SMILES CCCCCCCCCCCCCCC(=O)[O-]
REMARK SMILES IDX 9 1 10 2 11 3 12 4 13 5 14 6 15 7 16 8 17 9 8 10 7 11 6 12
REMARK SMILES IDX 5 13 4 14 3 15 2 16 1 17
REMARK H PARENT
REMARK Flexibility Score: inf
ROOT
ATOM      1  C   UNL     1      -9.460  29.677 -19.258  1.00  0.00     0.000 C 
ENDROOT
BRANCH   1   2
ATOM      2  C   UNL     1      -8.312  29.374 -20.234  1.00  0.00     0.000 C 
BRANCH   2   3
ATOM      3  C   UNL     1      -7.169  28.581 -19.581  1.00  0.00     0.000 C 
BRANCH   3   4
ATOM      4  C   UNL     1      -5.787  28.975 -20.132  1.00  0.00     0.000 C 
BRANCH   4   5
ATOM      5  C   UNL     1      -5.801  29.228 -21.653  1.00  0.00     0.006 C 
BRANCH   5   6
ATOM      6  C   UNL     1      -4.918  28.257 -22.454  1.00  0.00     0.053 C 
BRANCH   6   7
ATOM      7  C   UNL     1      -5.662  27.040 -22.906  1.00  0.00     0.041 C 
ATOM      8  O   UNL     1      -5.046  25.965 -23.124  1.00  0.00    -0.550 OA
ATOM      9  O   UNL     1      -7.040  27.089 -23.075  1.00  0.00    -0.550 OA
ENDBRANCH   6   7
ENDBRANCH   5   6
ENDBRANCH   4   5
ENDBRANCH   3   4
ENDBRANCH   2   3
ENDBRANCH   1   2
BRANCH   1  10
ATOM     10  C   UNL     1      -8.915  30.023 -17.864  1.00  0.00     0.000 C 
BRANCH  10  11
ATOM     11  C   UNL     1      -9.372  31.406 -17.365  1.00  0.00    -0.000 C 
BRANCH  11  12
ATOM     12  C   UNL     1      -9.014  31.723 -15.901  1.00  0.00    -0.000 C 
BRANCH  12  13
ATOM     13  C   UNL     1      -9.503  30.645 -14.918  1.00  0.00    -0.000 C 
BRANCH  13  14
ATOM     14  C   UNL     1      -8.394  29.652 -14.533  1.00  0.00    -0.000 C 
BRANCH  14  15
ATOM     15  C   UNL     1      -7.491  29.281 -15.722  1.00  0.00    -0.000 C 
BRANCH  15  16
ATOM     16  C   UNL     1      -7.001  27.827 -15.657  1.00  0.00    -0.003 C 
ATOM     17  C   UNL     1      -6.032  27.479 -16.786  1.00  0.00     0.004 C 
ENDBRANCH  15  16
ENDBRANCH  14  15
ENDBRANCH  13  14
ENDBRANCH  12  13
ENDBRANCH  11  12
ENDBRANCH  10  11
ENDBRANCH   1  10
TORSDOF 13
ENDMDL
MODEL 4
REMARK VINA RESULT:     7.166      3.715      6.500
REMARK INTER + INTRA:          12.737
REMARK INTER:                  11.731
REMARK INTRA:                   1.006
REMARK UNBOUND:                 0.125
REMARK SMILES CCCCCCCCCCCCCCC(=O)[O-]
REMARK SMILES IDX 9 1 10 2 11 3 12 4 13 5 14 6 15 7 16 8 17 9 8 10 7 11 6 12
REMARK SMILES IDX 5 13 4 14 3 15 2 16 1 17
REMARK H PARENT
REMARK Flexibility Score: inf
ROOT
ATOM      1  C   UNL     1      -6.753  27.733 -16.040  1.00  0.00     0.000 C 
ENDROOT
BRANCH   1   2
ATOM      2  C   UNL     1      -5.803  27.875 -17.239  1.00  0.00     0.000 C 
BRANCH   2   3
ATOM      3  C   UNL     1      -6.343  28.830 -18.316  1.00  0.00     0.000 C 
BRANCH   3   4
ATOM      4  C   UNL     1      -6.247  28.238 -19.733  1.00  0.00     0.000 C 
BRANCH   4   5
ATOM      5  C   UNL     1      -6.387  29.305 -20.837  1.00  0.00     0.006 C 
BRANCH   5   6
ATOM      6  C   UNL     1      -5.601  28.984 -22.119  1.00  0.00     0.053 C 
BRANCH   6   7
ATOM      7  C   UNL     1      -5.842  27.591 -22.610  1.00  0.00     0.041 C 
ATOM      8  O   UNL     1      -4.876  26.801 -22.772  1.00  0.00    -0.550 OA
ATOM      9  O   UNL     1      -7.135  27.160 -22.875  1.00  0.00    -0.550 OA
ENDBRANCH   6   7
ENDBRANCH   5   6
ENDBRANCH   4   5
ENDBRANCH   3   4
ENDBRANCH   2   3
ENDBRANCH   1   2
BRANCH   1  10
ATOM     10  C   UNL     1      -7.870  28.785 -16.099  1.00  0.00     0.000 C 
BRANCH  10  11
ATOM     11  C   UNL     1      -7.968  29.634 -14.818  1.00  0.00    -0.000 C 
BRANCH  11  12
ATOM     12  C   UNL     1      -9.246  30.482 -14.691  1.00  0.00    -0.000 C 
BRANCH  12  13
ATOM     13  C   UNL     1      -9.210  31.754 -15.557  1.00  0.00    -0.000 C 
BRANCH  13  14
ATOM     14  C   UNL     1      -8.970  31.448 -17.045  1.00  0.00    -0.000 C 
BRANCH  14  15
ATOM     15  C   UNL     1      -9.668  30.156 -17.504  1.00  0.00    -0.000 C 
BRANCH  15  16
ATOM     16  C   UNL     1      -9.291  29.764 -18.940  1.00  0.00    -0.003 C 
ATOM     17  C   UNL     1     -10.442  29.096 -19.691  1.00  0.00     0.004 C 
ENDBRANCH  15  16
ENDBRANCH  14  15
ENDBRANCH  13  14
ENDBRANCH  12  13
ENDBRANCH  11  12
ENDBRANCH  10  11
ENDBRANCH   1  10
TORSDOF 13
ENDMDL
MODEL 5
REMARK VINA RESULT:     7.321      1.952      2.891
REMARK INTER + INTRA:          13.009
REMARK INTER:                  11.733
REMARK INTRA:                   1.276
REMARK UNBOUND:                 0.125
REMARK SMILES CCCCCCCCCCCCCCC(=O)[O-]
REMARK SMILES IDX 9 1 10 2 11 3 12 4 13 5 14 6 15 7 16 8 17 9 8 10 7 11 6 12
REMARK SMILES IDX 5 13 4 14 3 15 2 16 1 17
REMARK H PARENT
REMARK Flexibility Score: inf
ROOT
ATOM      1  C   UNL     1      -9.359  30.083 -18.176  1.00  0.00     0.000 C 
ENDROOT
BRANCH   1   2
ATOM      2  C   UNL     1      -9.062  31.580 -18.353  1.00  0.00     0.000 C 
BRANCH   2   3
ATOM      3  C   UNL     1      -9.708  32.448 -17.261  1.00  0.00     0.000 C 
BRANCH   3   4
ATOM      4  C   UNL     1      -8.753  32.728 -16.088  1.00  0.00     0.000 C 
BRANCH   4   5
ATOM      5  C   UNL     1      -8.917  31.722 -14.931  1.00  0.00     0.006 C 
BRANCH   5   6
ATOM      6  C   UNL     1      -9.080  30.264 -15.390  1.00  0.00     0.053 C 
BRANCH   6   7
ATOM      7  C   UNL     1      -8.061  29.351 -14.785  1.00  0.00     0.041 C 
ATOM      8  O   UNL     1      -7.492  28.480 -15.492  1.00  0.00    -0.550 OA
ATOM      9  O   UNL     1      -7.729  29.470 -13.442  1.00  0.00    -0.550 OA
ENDBRANCH   6   7
ENDBRANCH   5   6
ENDBRANCH   4   5
ENDBRANCH   3   4
ENDBRANCH   2   3
ENDBRANCH   1   2
BRANCH   1  10
ATOM     10  C   UNL     1      -8.415  29.232 -19.038  1.00  0.00     0.000 C 
BRANCH  10  11
ATOM     11  C   UNL     1      -7.147  28.787 -18.286  1.00  0.00    -0.000 C 
BRANCH  11  12
ATOM     12  C   UNL     1      -5.962  28.383 -19.182  1.00  0.00    -0.000 C 
BRANCH  12  13
ATOM     13  C   UNL     1      -6.404  27.866 -20.563  1.00  0.00    -0.000 C 
BRANCH  13  14
ATOM     14  C   UNL     1      -6.472  28.984 -21.617  1.00  0.00    -0.000 C 
BRANCH  14  15
ATOM     15  C   UNL     1      -6.187  28.475 -23.041  1.00  0.00    -0.000 C 
BRANCH  15  16
ATOM     16  C   UNL     1      -4.885  27.665 -23.125  1.00  0.00    -0.003 C 
ATOM     17  C   UNL     1      -5.063  26.214 -22.678  1.00  0.00     0.004 C 
ENDBRANCH  15  16
ENDBRANCH  14  15
ENDBRANCH  13  14
ENDBRANCH  12  13
ENDBRANCH  11  12
ENDBRANCH  10  11
ENDBRANCH   1  10
TORSDOF 13
ENDMDL
MODEL 6
REMARK VINA RESULT:     7.381      4.094      6.206
REMARK INTER + INTRA:          13.116
REMARK INTER:                  13.857
REMARK INTRA:                  -0.740
REMARK UNBOUND:                 0.125
REMARK SMILES CCCCCCCCCCCCCCC(=O)[O-]
REMARK SMILES IDX 9 1 10 2 11 3 12 4 13 5 14 6 15 7 16 8 17 9 8 10 7 11 6 12
REMARK SMILES IDX 5 13 4 14 3 15 2 16 1 17
REMARK H PARENT
REMARK Flexibility Score: inf
ROOT
ATOM      1  C   UNL     1      -9.274  30.219 -16.691  1.00  0.00     0.000 C 
ENDROOT
BRANCH   1   2
ATOM      2  C   UNL     1      -8.293  29.359 -15.880  1.00  0.00     0.000 C 
BRANCH   2   3
ATOM      3  C   UNL     1      -7.107  28.856 -16.720  1.00  0.00     0.000 C 
BRANCH   3   4
ATOM      4  C   UNL     1      -7.479  28.643 -18.198  1.00  0.00     0.000 C 
BRANCH   4   5
ATOM      5  C   UNL     1      -6.257  28.702 -19.136  1.00  0.00     0.006 C 
BRANCH   5   6
ATOM      6  C   UNL     1      -6.289  27.662 -20.268  1.00  0.00     0.053 C 
BRANCH   6   7
ATOM      7  C   UNL     1      -6.004  28.261 -21.609  1.00  0.00     0.041 C 
ATOM      8  O   UNL     1      -6.407  29.421 -21.884  1.00  0.00    -0.550 OA
ATOM      9  O   UNL     1      -5.283  27.543 -22.554  1.00  0.00    -0.550 OA
ENDBRANCH   6   7
ENDBRANCH   5   6
ENDBRANCH   4   5
ENDBRANCH   3   4
ENDBRANCH   2   3
ENDBRANCH   1   2
BRANCH   1  10
ATOM     10  C   UNL     1      -9.255  31.676 -16.206  1.00  0.00     0.000 C 
BRANCH  10  11
ATOM     11  C   UNL     1      -8.791  32.666 -17.290  1.00  0.00    -0.000 C 
BRANCH  11  12
ATOM     12  C   UNL     1      -9.777  32.872 -18.454  1.00  0.00    -0.000 C 
BRANCH  12  13
ATOM     13  C   UNL     1      -9.212  33.774 -19.566  1.00  0.00    -0.000 C 
BRANCH  13  14
ATOM     14  C   UNL     1     -10.101  33.790 -20.821  1.00  0.00    -0.000 C 
BRANCH  14  15
ATOM     15  C   UNL     1      -9.778  32.640 -21.791  1.00  0.00    -0.000 C 
BRANCH  15  16
ATOM     16  C   UNL     1     -10.529  32.769 -23.125  1.00  0.00    -0.003 C 
ATOM     17  C   UNL     1     -11.868  32.034 -23.121  1.00  0.00     0.004 C 
ENDBRANCH  15  16
ENDBRANCH  14  15
ENDBRANCH  13  14
ENDBRANCH  12  13
ENDBRANCH  11  12
ENDBRANCH  10  11
ENDBRANCH   1  10
TORSDOF 13
ENDMDL
