MODEL 1
REMARK VINA RESULT:    -3.132      0.000      0.000
REMARK INTER + INTRA:          -3.782
REMARK INTER:                  -3.682
REMARK INTRA:                  -0.100
REMARK UNBOUND:                -0.100
REMARK SMILES CCCCC(=O)[O-]
REMARK SMILES IDX 4 1 5 2 6 3 7 4 3 5 2 6 1 7
REMARK H PARENT
REMARK Flexibility Score: inf
ROOT
ATOM      1  C   UNL     1     -29.363 -20.727 -31.630  1.00  0.00     0.053 C 
ENDROOT
BRANCH   1   2
ATOM      2  C   UNL     1     -30.267 -21.348 -30.611  1.00  0.00     0.041 C 
ATOM      3  O   UNL     1     -30.944 -20.620 -29.838  1.00  0.00    -0.550 OA
ATOM      4  O   UNL     1     -30.338 -22.730 -30.493  1.00  0.00    -0.550 OA
ENDBRANCH   1   2
BRANCH   1   5
ATOM      5  C   UNL     1     -29.629 -21.272 -33.042  1.00  0.00     0.006 C 
BRANCH   5   6
ATOM      6  C   UNL     1     -31.111 -21.240 -33.460  1.00  0.00    -0.003 C 
ATOM      7  C   UNL     1     -31.567 -22.537 -34.129  1.00  0.00     0.004 C 
ENDBRANCH   5   6
ENDBRANCH   1   5
TORSDOF 3
ENDMDL
MODEL 2
REMARK VINA RESULT:    -2.991      2.033      3.225
REMARK INTER + INTRA:          -3.615
REMARK INTER:                  -3.503
REMARK INTRA:                  -0.113
REMARK UNBOUND:                -0.100
REMARK SMILES CCCCC(=O)[O-]
REMARK SMILES IDX 4 1 5 2 6 3 7 4 3 5 2 6 1 7
REMARK H PARENT
REMARK Flexibility Score: inf
ROOT
ATOM      1  C   UNL     1     -29.508 -21.385 -32.738  1.00  0.00     0.053 C 
ENDROOT
BRANCH   1   2
ATOM      2  C   UNL     1     -30.891 -21.421 -33.311  1.00  0.00     0.041 C 
ATOM      3  O   UNL     1     -31.544 -20.354 -33.457  1.00  0.00    -0.550 OA
ATOM      4  O   UNL     1     -31.471 -22.635 -33.655  1.00  0.00    -0.550 OA
ENDBRANCH   1   2
BRANCH   1   5
ATOM      5  C   UNL     1     -29.430 -20.504 -31.482  1.00  0.00     0.006 C 
BRANCH   5   6
ATOM      6  C   UNL     1     -30.294 -21.002 -30.309  1.00  0.00    -0.003 C 
ATOM      7  C   UNL     1     -31.328 -19.972 -29.854  1.00  0.00     0.004 C 
ENDBRANCH   5   6
ENDBRANCH   1   5
TORSDOF 3
ENDMDL
MODEL 3
REMARK VINA RESULT:    -2.988     21.794     22.437
REMARK INTER + INTRA:          -3.613
REMARK INTER:                  -3.570
REMARK INTRA:                  -0.043
REMARK UNBOUND:                -0.100
REMARK SMILES CCCCC(=O)[O-]
REMARK SMILES IDX 4 1 5 2 6 3 7 4 3 5 2 6 1 7
REMARK H PARENT
REMARK Flexibility Score: inf
ROOT
ATOM      1  C   UNL     1     -18.108 -37.850 -38.297  1.00  0.00     0.053 C 
ENDROOT
BRANCH   1   2
ATOM      2  C   UNL     1     -16.623 -37.940 -38.468  1.00  0.00     0.041 C 
ATOM      3  O   UNL     1     -16.030 -39.036 -38.285  1.00  0.00    -0.550 OA
ATOM      4  O   UNL     1     -15.890 -36.807 -38.797  1.00  0.00    -0.550 OA
ENDBRANCH   1   2
BRANCH   1   5
ATOM      5  C   UNL     1     -18.708 -39.168 -37.785  1.00  0.00     0.006 C 
BRANCH   5   6
ATOM      6  C   UNL     1     -19.355 -40.033 -38.882  1.00  0.00    -0.003 C 
ATOM      7  C   UNL     1     -20.875 -40.125 -38.746  1.00  0.00     0.004 C 
ENDBRANCH   5   6
ENDBRANCH   1   5
TORSDOF 3
ENDMDL
MODEL 4
REMARK VINA RESULT:    -2.977      1.569      2.265
REMARK INTER + INTRA:          -3.600
REMARK INTER:                  -3.584
REMARK INTRA:                  -0.016
REMARK UNBOUND:                -0.100
REMARK SMILES CCCCC(=O)[O-]
REMARK SMILES IDX 4 1 5 2 6 3 7 4 3 5 2 6 1 7
REMARK H PARENT
REMARK Flexibility Score: inf
ROOT
ATOM      1  C   UNL     1     -31.102 -21.236 -33.195  1.00  0.00     0.053 C 
ENDROOT
BRANCH   1   2
ATOM      2  C   UNL     1     -30.078 -21.387 -32.113  1.00  0.00     0.041 C 
ATOM      3  O   UNL     1     -28.895 -20.999 -32.301  1.00  0.00    -0.550 OA
ATOM      4  O   UNL     1     -30.423 -21.986 -30.908  1.00  0.00    -0.550 OA
ENDBRANCH   1   2
BRANCH   1   5
ATOM      5  C   UNL     1     -31.444 -22.581 -33.854  1.00  0.00     0.006 C 
BRANCH   5   6
ATOM      6  C   UNL     1     -32.435 -22.472 -35.027  1.00  0.00    -0.003 C 
ATOM      7  C   UNL     1     -32.420 -23.704 -35.933  1.00  0.00     0.004 C 
ENDBRANCH   5   6
ENDBRANCH   1   5
TORSDOF 3
ENDMDL
MODEL 5
REMARK VINA RESULT:    -2.942      1.638      2.213
REMARK INTER + INTRA:          -3.558
REMARK INTER:                  -3.523
REMARK INTRA:                  -0.036
REMARK UNBOUND:                -0.100
REMARK SMILES CCCCC(=O)[O-]
REMARK SMILES IDX 4 1 5 2 6 3 7 4 3 5 2 6 1 7
REMARK H PARENT
REMARK Flexibility Score: inf
ROOT
ATOM      1  C   UNL     1     -30.709 -21.750 -31.057  1.00  0.00     0.053 C 
ENDROOT
BRANCH   1   2
ATOM      2  C   UNL     1     -30.559 -20.589 -30.123  1.00  0.00     0.041 C 
ATOM      3  O   UNL     1     -31.524 -20.231 -29.397  1.00  0.00    -0.550 OA
ATOM      4  O   UNL     1     -29.364 -19.882 -30.078  1.00  0.00    -0.550 OA
ENDBRANCH   1   2
BRANCH   1   5
ATOM      5  C   UNL     1     -30.665 -21.313 -32.529  1.00  0.00     0.006 C 
BRANCH   5   6
ATOM      6  C   UNL     1     -29.251 -21.289 -33.137  1.00  0.00    -0.003 C 
ATOM      7  C   UNL     1     -28.768 -19.875 -33.460  1.00  0.00     0.004 C 
ENDBRANCH   5   6
ENDBRANCH   1   5
TORSDOF 3
ENDMDL
MODEL 6
REMARK VINA RESULT:    -2.939      4.158      5.572
REMARK INTER + INTRA:          -3.554
REMARK INTER:                  -3.537
REMARK INTRA:                  -0.017
REMARK UNBOUND:                -0.100
REMARK SMILES CCCCC(=O)[O-]
REMARK SMILES IDX 4 1 5 2 6 3 7 4 3 5 2 6 1 7
REMARK H PARENT
REMARK Flexibility Score: inf
ROOT
ATOM      1  C   UNL     1     -32.480 -23.938 -36.115  1.00  0.00     0.053 C 
ENDROOT
BRANCH   1   2
ATOM      2  C   UNL     1     -32.424 -22.764 -35.188  1.00  0.00     0.041 C 
ATOM      3  O   UNL     1     -31.743 -22.824 -34.130  1.00  0.00    -0.550 OA
ATOM      4  O   UNL     1     -33.149 -21.614 -35.475  1.00  0.00    -0.550 OA
ENDBRANCH   1   2
BRANCH   1   5
ATOM      5  C   UNL     1     -31.206 -24.059 -36.966  1.00  0.00     0.006 C 
BRANCH   5   6
ATOM      6  C   UNL     1     -31.437 -24.669 -38.361  1.00  0.00    -0.003 C 
ATOM      7  C   UNL     1     -32.000 -26.089 -38.302  1.00  0.00     0.004 C 
ENDBRANCH   5   6
ENDBRANCH   1   5
TORSDOF 3
ENDMDL
MODEL 7
REMARK VINA RESULT:    -2.899      7.338      8.586
REMARK INTER + INTRA:          -3.507
REMARK INTER:                  -3.472
REMARK INTRA:                  -0.035
REMARK UNBOUND:                -0.100
REMARK SMILES CCCCC(=O)[O-]
REMARK SMILES IDX 4 1 5 2 6 3 7 4 3 5 2 6 1 7
REMARK H PARENT
REMARK Flexibility Score: inf
ROOT
ATOM      1  C   UNL     1     -32.687 -26.288 -37.916  1.00  0.00     0.053 C 
ENDROOT
BRANCH   1   2
ATOM      2  C   UNL     1     -32.650 -27.682 -38.461  1.00  0.00     0.041 C 
ATOM      3  O   UNL     1     -31.550 -28.211 -38.774  1.00  0.00    -0.550 OA
ATOM      4  O   UNL     1     -33.831 -28.387 -38.652  1.00  0.00    -0.550 OA
ENDBRANCH   1   2
BRANCH   1   5
ATOM      5  C   UNL     1     -31.344 -25.565 -38.098  1.00  0.00     0.006 C 
BRANCH   5   6
ATOM      6  C   UNL     1     -31.201 -24.283 -37.257  1.00  0.00    -0.003 C 
ATOM      7  C   UNL     1     -32.402 -24.033 -36.346  1.00  0.00     0.004 C 
ENDBRANCH   5   6
ENDBRANCH   1   5
TORSDOF 3
ENDMDL
MODEL 8
REMARK VINA RESULT:    -2.817      3.144      4.189
REMARK INTER + INTRA:          -3.411
REMARK INTER:                  -3.387
REMARK INTRA:                  -0.025
REMARK UNBOUND:                -0.100
REMARK SMILES CCCCC(=O)[O-]
REMARK SMILES IDX 4 1 5 2 6 3 7 4 3 5 2 6 1 7
REMARK H PARENT
REMARK Flexibility Score: inf
ROOT
ATOM      1  C   UNL     1     -31.454 -22.632 -33.852  1.00  0.00     0.053 C 
ENDROOT
BRANCH   1   2
ATOM      2  C   UNL     1     -32.409 -22.598 -35.005  1.00  0.00     0.041 C 
ATOM      3  O   UNL     1     -33.052 -21.546 -35.264  1.00  0.00    -0.550 OA
ATOM      4  O   UNL     1     -32.613 -23.736 -35.775  1.00  0.00    -0.550 OA
ENDBRANCH   1   2
BRANCH   1   5
ATOM      5  C   UNL     1     -31.088 -21.221 -33.368  1.00  0.00     0.006 C 
BRANCH   5   6
ATOM      6  C   UNL     1     -30.051 -21.195 -32.230  1.00  0.00    -0.003 C 
ATOM      7  C   UNL     1     -30.395 -22.157 -31.092  1.00  0.00     0.004 C 
ENDBRANCH   5   6
ENDBRANCH   1   5
TORSDOF 3
ENDMDL
MODEL 9
REMARK VINA RESULT:    -2.797      6.181      7.719
REMARK INTER + INTRA:          -3.387
REMARK INTER:                  -3.371
REMARK INTRA:                  -0.017
REMARK UNBOUND:                -0.100
REMARK SMILES CCCCC(=O)[O-]
REMARK SMILES IDX 4 1 5 2 6 3 7 4 3 5 2 6 1 7
REMARK H PARENT
REMARK Flexibility Score: inf
ROOT
ATOM      1  C   UNL     1     -31.150 -25.348 -38.020  1.00  0.00     0.053 C 
ENDROOT
BRANCH   1   2
ATOM      2  C   UNL     1     -31.423 -24.025 -37.374  1.00  0.00     0.041 C 
ATOM      3  O   UNL     1     -31.750 -23.968 -36.159  1.00  0.00    -0.550 OA
ATOM      4  O   UNL     1     -31.347 -22.856 -38.121  1.00  0.00    -0.550 OA
ENDBRANCH   1   2
BRANCH   1   5
ATOM      5  C   UNL     1     -32.403 -26.235 -38.063  1.00  0.00     0.006 C 
BRANCH   5   6
ATOM      6  C   UNL     1     -32.174 -27.618 -38.699  1.00  0.00    -0.003 C 
ATOM      7  C   UNL     1     -33.422 -28.500 -38.671  1.00  0.00     0.004 C 
ENDBRANCH   5   6
ENDBRANCH   1   5
TORSDOF 3
ENDMDL
