MODEL 1
REMARK VINA RESULT:    -5.874      0.000      0.000
REMARK INTER + INTRA:          -6.548
REMARK INTER:                  -6.217
REMARK INTRA:                  -0.330
REMARK UNBOUND:                -0.330
REMARK SMILES CC1=CC[C@@]23[C@@H]([C@@H]12)[C@H](C(C)C)CC[C@@H]3C
REMARK SMILES IDX 15 1 14 2 13 3 12 4 8 5 6 6 5 7 7 8 2 9 3 10 4 11 1 12 9 13
REMARK SMILES IDX 10 14 11 15
REMARK H PARENT
REMARK Flexibility Score: inf
ROOT
ATOM      1  C   UNL     1       8.437   7.416  31.076  1.00  0.00     0.008 C 
ATOM      2  C   UNL     1       9.024   7.535  29.666  1.00  0.00    -0.007 C 
ATOM      3  C   UNL     1       9.919   8.783  29.551  1.00  0.00     0.004 C 
ATOM      4  C   UNL     1      10.529   8.979  28.139  1.00  0.00     0.004 C 
ATOM      5  C   UNL     1      10.299   7.791  27.165  1.00  0.00    -0.004 C 
ATOM      6  C   UNL     1      10.589   6.464  27.905  1.00  0.00     0.007 C 
ATOM      7  C   UNL     1       9.848   6.290  29.236  1.00  0.00    -0.013 C 
ATOM      8  C   UNL     1       9.403   5.500  28.007  1.00  0.00     0.025 C 
ATOM      9  C   UNL     1       9.759   4.093  28.347  1.00  0.00    -0.073 C 
ATOM     10  C   UNL     1      10.333   3.975  29.541  1.00  0.00    -0.027 C 
ATOM     11  C   UNL     1      10.472   5.291  30.228  1.00  0.00     0.035 C 
ATOM     12  C   UNL     1       9.520   2.935  27.429  1.00  0.00     0.039 C 
ENDROOT
BRANCH   5  13
ATOM     13  C   UNL     1      11.172   7.897  25.880  1.00  0.00    -0.014 C 
ATOM     14  C   UNL     1      11.696   9.331  25.684  1.00  0.00     0.007 C 
ATOM     15  C   UNL     1      12.365   6.926  25.909  1.00  0.00     0.007 C 
ENDBRANCH   5  13
TORSDOF 1
ENDMDL
MODEL 2
REMARK VINA RESULT:    -5.859      1.042      4.275
REMARK INTER + INTRA:          -6.532
REMARK INTER:                  -6.207
REMARK INTRA:                  -0.325
REMARK UNBOUND:                -0.330
REMARK SMILES CC1=CC[C@@]23[C@@H]([C@@H]12)[C@H](C(C)C)CC[C@@H]3C
REMARK SMILES IDX 15 1 14 2 13 3 12 4 8 5 6 6 5 7 7 8 2 9 3 10 4 11 1 12 9 13
REMARK SMILES IDX 10 14 11 15
REMARK H PARENT
REMARK Flexibility Score: inf
ROOT
ATOM      1  C   UNL     1       9.956   3.100  27.050  1.00  0.00     0.008 C 
ATOM      2  C   UNL     1       9.617   4.460  27.672  1.00  0.00    -0.007 C 
ATOM      3  C   UNL     1       9.539   4.353  29.206  1.00  0.00     0.004 C 
ATOM      4  C   UNL     1       9.174   5.690  29.901  1.00  0.00     0.004 C 
ATOM      5  C   UNL     1       9.155   6.924  28.959  1.00  0.00    -0.004 C 
ATOM      6  C   UNL     1      10.410   6.893  28.055  1.00  0.00     0.007 C 
ATOM      7  C   UNL     1      10.631   5.576  27.301  1.00  0.00    -0.013 C 
ATOM      8  C   UNL     1      10.131   6.808  26.552  1.00  0.00     0.025 C 
ATOM      9  C   UNL     1      11.278   7.174  25.673  1.00  0.00    -0.073 C 
ATOM     10  C   UNL     1      12.325   6.368  25.820  1.00  0.00    -0.027 C 
ATOM     11  C   UNL     1      12.073   5.303  26.833  1.00  0.00     0.035 C 
ATOM     12  C   UNL     1      11.265   8.346  24.741  1.00  0.00     0.039 C 
ENDROOT
BRANCH   5  13
ATOM     13  C   UNL     1       9.083   8.269  29.740  1.00  0.00    -0.014 C 
ATOM     14  C   UNL     1       9.744   8.141  31.124  1.00  0.00     0.007 C 
ATOM     15  C   UNL     1       9.751   9.422  28.970  1.00  0.00     0.007 C 
ENDBRANCH   5  13
TORSDOF 1
ENDMDL
MODEL 3
REMARK VINA RESULT:    -5.827      3.331      5.907
REMARK INTER + INTRA:          -6.498
REMARK INTER:                  -6.150
REMARK INTRA:                  -0.348
REMARK UNBOUND:                -0.330
REMARK SMILES CC1=CC[C@@]23[C@@H]([C@@H]12)[C@H](C(C)C)CC[C@@H]3C
REMARK SMILES IDX 15 1 14 2 13 3 12 4 8 5 6 6 5 7 7 8 2 9 3 10 4 11 1 12 9 13
REMARK SMILES IDX 10 14 11 15
REMARK H PARENT
REMARK Flexibility Score: inf
ROOT
ATOM      1  C   UNL     1      11.097   7.295  22.823  1.00  0.00     0.008 C 
ATOM      2  C   UNL     1      12.558   7.521  23.225  1.00  0.00    -0.007 C 
ATOM      3  C   UNL     1      13.122   8.781  22.542  1.00  0.00     0.004 C 
ATOM      4  C   UNL     1      14.609   9.057  22.886  1.00  0.00     0.004 C 
ATOM      5  C   UNL     1      15.195   8.146  23.999  1.00  0.00    -0.004 C 
ATOM      6  C   UNL     1      14.184   8.055  25.166  1.00  0.00     0.007 C 
ATOM      7  C   UNL     1      12.761   7.651  24.759  1.00  0.00    -0.013 C 
ATOM      8  C   UNL     1      13.664   6.647  25.471  1.00  0.00     0.025 C 
ATOM      9  C   UNL     1      13.022   6.485  26.807  1.00  0.00    -0.073 C 
ATOM     10  C   UNL     1      11.935   7.235  26.957  1.00  0.00    -0.027 C 
ATOM     11  C   UNL     1      11.642   8.047  25.740  1.00  0.00     0.035 C 
ATOM     12  C   UNL     1      13.562   5.592  27.881  1.00  0.00     0.039 C 
ENDROOT
BRANCH   5  13
ATOM     13  C   UNL     1      16.575   8.650  24.516  1.00  0.00    -0.014 C 
ATOM     14  C   UNL     1      16.494   9.063  25.997  1.00  0.00     0.007 C 
ATOM     15  C   UNL     1      17.677   7.590  24.351  1.00  0.00     0.007 C 
ENDBRANCH   5  13
TORSDOF 1
ENDMDL
MODEL 4
REMARK VINA RESULT:    -5.787      3.837      7.455
REMARK INTER + INTRA:          -6.456
REMARK INTER:                  -6.117
REMARK INTRA:                  -0.339
REMARK UNBOUND:                -0.330
REMARK SMILES CC1=CC[C@@]23[C@@H]([C@@H]12)[C@H](C(C)C)CC[C@@H]3C
REMARK SMILES IDX 15 1 14 2 13 3 12 4 8 5 6 6 5 7 7 8 2 9 3 10 4 11 1 12 9 13
REMARK SMILES IDX 10 14 11 15
REMARK H PARENT
REMARK Flexibility Score: inf
ROOT
ATOM      1  C   UNL     1      18.278   8.769  24.569  1.00  0.00     0.008 C 
ATOM      2  C   UNL     1      16.981   8.129  25.077  1.00  0.00    -0.007 C 
ATOM      3  C   UNL     1      16.871   8.264  26.607  1.00  0.00     0.004 C 
ATOM      4  C   UNL     1      15.590   7.614  27.194  1.00  0.00     0.004 C 
ATOM      5  C   UNL     1      14.566   7.133  26.131  1.00  0.00    -0.004 C 
ATOM      6  C   UNL     1      14.396   8.230  25.054  1.00  0.00     0.007 C 
ATOM      7  C   UNL     1      15.704   8.730  24.430  1.00  0.00    -0.013 C 
ATOM      8  C   UNL     1      14.781   7.813  23.631  1.00  0.00     0.025 C 
ATOM      9  C   UNL     1      14.259   8.697  22.550  1.00  0.00    -0.073 C 
ATOM     10  C   UNL     1      14.723   9.941  22.624  1.00  0.00    -0.027 C 
ATOM     11  C   UNL     1      15.649  10.125  23.778  1.00  0.00     0.035 C 
ATOM     12  C   UNL     1      13.289   8.240  21.504  1.00  0.00     0.039 C 
ENDROOT
BRANCH   5  13
ATOM     13  C   UNL     1      13.186   6.770  26.756  1.00  0.00    -0.014 C 
ATOM     14  C   UNL     1      12.052   7.582  26.105  1.00  0.00     0.007 C 
ATOM     15  C   UNL     1      12.868   5.270  26.625  1.00  0.00     0.007 C 
ENDBRANCH   5  13
TORSDOF 1
ENDMDL
MODEL 5
REMARK VINA RESULT:    -5.543      2.876      5.489
REMARK INTER + INTRA:          -6.197
REMARK INTER:                  -5.845
REMARK INTRA:                  -0.353
REMARK UNBOUND:                -0.330
REMARK SMILES CC1=CC[C@@]23[C@@H]([C@@H]12)[C@H](C(C)C)CC[C@@H]3C
REMARK SMILES IDX 15 1 14 2 13 3 12 4 8 5 6 6 5 7 7 8 2 9 3 10 4 11 1 12 9 13
REMARK SMILES IDX 10 14 11 15
REMARK H PARENT
REMARK Flexibility Score: inf
ROOT
ATOM      1  C   UNL     1      16.130   8.142  26.570  1.00  0.00     0.008 C 
ATOM      2  C   UNL     1      15.035   8.257  25.503  1.00  0.00    -0.007 C 
ATOM      3  C   UNL     1      15.600   7.935  24.107  1.00  0.00     0.004 C 
ATOM      4  C   UNL     1      14.550   8.056  22.972  1.00  0.00     0.004 C 
ATOM      5  C   UNL     1      13.093   8.275  23.461  1.00  0.00    -0.004 C 
ATOM      6  C   UNL     1      12.795   7.303  24.627  1.00  0.00     0.007 C 
ATOM      7  C   UNL     1      13.815   7.335  25.772  1.00  0.00    -0.013 C 
ATOM      8  C   UNL     1      12.439   7.969  25.959  1.00  0.00     0.025 C 
ATOM      9  C   UNL     1      11.775   7.079  26.954  1.00  0.00    -0.073 C 
ATOM     10  C   UNL     1      12.541   6.061  27.334  1.00  0.00    -0.027 C 
ATOM     11  C   UNL     1      13.871   6.077  26.659  1.00  0.00     0.035 C 
ATOM     12  C   UNL     1      10.380   7.293  27.453  1.00  0.00     0.039 C 
ENDROOT
BRANCH   5  13
ATOM     13  C   UNL     1      12.048   8.091  22.322  1.00  0.00    -0.014 C 
ATOM     14  C   UNL     1      12.720   7.590  21.030  1.00  0.00     0.007 C 
ATOM     15  C   UNL     1      10.928   7.113  22.716  1.00  0.00     0.007 C 
ENDBRANCH   5  13
TORSDOF 1
ENDMDL
MODEL 6
REMARK VINA RESULT:    -5.505      3.138      6.827
REMARK INTER + INTRA:          -6.157
REMARK INTER:                  -5.934
REMARK INTRA:                  -0.223
REMARK UNBOUND:                -0.330
REMARK SMILES CC1=CC[C@@]23[C@@H]([C@@H]12)[C@H](C(C)C)CC[C@@H]3C
REMARK SMILES IDX 15 1 14 2 13 3 12 4 8 5 6 6 5 7 7 8 2 9 3 10 4 11 1 12 9 13
REMARK SMILES IDX 10 14 11 15
REMARK H PARENT
REMARK Flexibility Score: inf
ROOT
ATOM      1  C   UNL     1      13.559   8.355  21.598  1.00  0.00     0.008 C 
ATOM      2  C   UNL     1      13.106   8.239  23.058  1.00  0.00    -0.007 C 
ATOM      3  C   UNL     1      12.018   7.160  23.207  1.00  0.00     0.004 C 
ATOM      4  C   UNL     1      11.494   7.006  24.659  1.00  0.00     0.004 C 
ATOM      5  C   UNL     1      12.292   7.808  25.722  1.00  0.00    -0.004 C 
ATOM      6  C   UNL     1      13.807   7.620  25.471  1.00  0.00     0.007 C 
ATOM      7  C   UNL     1      14.267   7.915  24.038  1.00  0.00    -0.013 C 
ATOM      8  C   UNL     1      14.583   8.903  25.159  1.00  0.00     0.025 C 
ATOM      9  C   UNL     1      16.062   8.800  25.310  1.00  0.00    -0.073 C 
ATOM     10  C   UNL     1      16.610   7.919  24.479  1.00  0.00    -0.027 C 
ATOM     11  C   UNL     1      15.594   7.261  23.609  1.00  0.00     0.035 C 
ATOM     12  C   UNL     1      16.847   9.586  26.314  1.00  0.00     0.039 C 
ENDROOT
BRANCH   5  13
ATOM     13  C   UNL     1      11.928   7.394  27.178  1.00  0.00    -0.014 C 
ATOM     14  C   UNL     1      10.526   7.899  27.563  1.00  0.00     0.007 C 
ATOM     15  C   UNL     1      11.984   5.870  27.377  1.00  0.00     0.007 C 
ENDBRANCH   5  13
TORSDOF 1
ENDMDL
MODEL 7
REMARK VINA RESULT:    -5.436     11.437     13.271
REMARK INTER + INTRA:          -6.085
REMARK INTER:                  -5.745
REMARK INTRA:                  -0.339
REMARK UNBOUND:                -0.330
REMARK SMILES CC1=CC[C@@]23[C@@H]([C@@H]12)[C@H](C(C)C)CC[C@@H]3C
REMARK SMILES IDX 15 1 14 2 13 3 12 4 8 5 6 6 5 7 7 8 2 9 3 10 4 11 1 12 9 13
REMARK SMILES IDX 10 14 11 15
REMARK H PARENT
REMARK Flexibility Score: inf
ROOT
ATOM      1  C   UNL     1       1.114   9.371  15.748  1.00  0.00     0.008 C 
ATOM      2  C   UNL     1       2.157   9.261  16.866  1.00  0.00    -0.007 C 
ATOM      3  C   UNL     1       1.518   8.707  18.154  1.00  0.00     0.004 C 
ATOM      4  C   UNL     1       2.514   8.593  19.337  1.00  0.00     0.004 C 
ATOM      5  C   UNL     1       3.997   8.859  18.962  1.00  0.00    -0.004 C 
ATOM      6  C   UNL     1       4.334   8.105  17.654  1.00  0.00     0.007 C 
ATOM      7  C   UNL     1       3.372   8.371  16.489  1.00  0.00    -0.013 C 
ATOM      8  C   UNL     1       4.767   8.992  16.483  1.00  0.00     0.025 C 
ATOM      9  C   UNL     1       5.463   8.280  15.373  1.00  0.00    -0.073 C 
ATOM     10  C   UNL     1       4.698   7.367  14.780  1.00  0.00    -0.027 C 
ATOM     11  C   UNL     1       3.338   7.297  15.386  1.00  0.00     0.035 C 
ATOM     12  C   UNL     1       6.885   8.543  14.985  1.00  0.00     0.039 C 
ENDROOT
BRANCH   5  13
ATOM     13  C   UNL     1       4.981   8.443  20.095  1.00  0.00    -0.014 C 
ATOM     14  C   UNL     1       4.231   8.190  21.415  1.00  0.00     0.007 C 
ATOM     15  C   UNL     1       5.789   7.187  19.728  1.00  0.00     0.007 C 
ENDBRANCH   5  13
TORSDOF 1
ENDMDL
MODEL 8
REMARK VINA RESULT:    -5.418     11.811     13.820
REMARK INTER + INTRA:          -6.066
REMARK INTER:                  -5.734
REMARK INTRA:                  -0.332
REMARK UNBOUND:                -0.330
REMARK SMILES CC1=CC[C@@]23[C@@H]([C@@H]12)[C@H](C(C)C)CC[C@@H]3C
REMARK SMILES IDX 15 1 14 2 13 3 12 4 8 5 6 6 5 7 7 8 2 9 3 10 4 11 1 12 9 13
REMARK SMILES IDX 10 14 11 15
REMARK H PARENT
REMARK Flexibility Score: inf
ROOT
ATOM      1  C   UNL     1       2.278   8.429  16.205  1.00  0.00     0.008 C 
ATOM      2  C   UNL     1       3.557   7.689  15.796  1.00  0.00    -0.007 C 
ATOM      3  C   UNL     1       3.598   7.474  14.272  1.00  0.00     0.004 C 
ATOM      4  C   UNL     1       4.857   6.707  13.789  1.00  0.00     0.004 C 
ATOM      5  C   UNL     1       5.933   6.478  14.885  1.00  0.00    -0.004 C 
ATOM      6  C   UNL     1       6.140   7.790  15.678  1.00  0.00     0.007 C 
ATOM      7  C   UNL     1       4.856   8.419  16.232  1.00  0.00    -0.013 C 
ATOM      8  C   UNL     1       5.823   7.706  17.174  1.00  0.00     0.025 C 
ATOM      9  C   UNL     1       6.385   8.811  18.003  1.00  0.00    -0.073 C 
ATOM     10  C   UNL     1       5.906  10.006  17.670  1.00  0.00    -0.027 C 
ATOM     11  C   UNL     1       4.927   9.925  16.548  1.00  0.00     0.035 C 
ATOM     12  C   UNL     1       7.404   8.601  19.079  1.00  0.00     0.039 C 
ENDROOT
BRANCH   5  13
ATOM     13  C   UNL     1       7.286   5.981  14.296  1.00  0.00    -0.014 C 
ATOM     14  C   UNL     1       7.103   5.445  12.865  1.00  0.00     0.007 C 
ATOM     15  C   UNL     1       8.353   7.089  14.284  1.00  0.00     0.007 C 
ENDBRANCH   5  13
TORSDOF 1
ENDMDL
MODEL 9
REMARK VINA RESULT:    -5.412     11.626     13.287
REMARK INTER + INTRA:          -6.058
REMARK INTER:                  -5.729
REMARK INTRA:                  -0.329
REMARK UNBOUND:                -0.330
REMARK SMILES CC1=CC[C@@]23[C@@H]([C@@H]12)[C@H](C(C)C)CC[C@@H]3C
REMARK SMILES IDX 15 1 14 2 13 3 12 4 8 5 6 6 5 7 7 8 2 9 3 10 4 11 1 12 9 13
REMARK SMILES IDX 10 14 11 15
REMARK H PARENT
REMARK Flexibility Score: inf
ROOT
ATOM      1  C   UNL     1       6.252   7.498  19.437  1.00  0.00     0.008 C 
ATOM      2  C   UNL     1       4.784   7.821  19.134  1.00  0.00    -0.007 C 
ATOM      3  C   UNL     1       4.239   8.862  20.129  1.00  0.00     0.004 C 
ATOM      4  C   UNL     1       2.748   9.218  19.896  1.00  0.00     0.004 C 
ATOM      5  C   UNL     1       2.137   8.625  18.598  1.00  0.00    -0.004 C 
ATOM      6  C   UNL     1       3.127   8.838  17.427  1.00  0.00     0.007 C 
ATOM      7  C   UNL     1       4.554   8.342  17.690  1.00  0.00    -0.013 C 
ATOM      8  C   UNL     1       3.633   7.556  16.760  1.00  0.00     0.025 C 
ATOM      9  C   UNL     1       4.250   7.744  15.415  1.00  0.00    -0.073 C 
ATOM     10  C   UNL     1       5.338   8.507  15.444  1.00  0.00    -0.027 C 
ATOM     11  C   UNL     1       5.657   8.977  16.822  1.00  0.00     0.035 C 
ATOM     12  C   UNL     1       3.686   7.158  14.158  1.00  0.00     0.039 C 
ENDROOT
BRANCH   5  13
ATOM     13  C   UNL     1       0.751   9.245  18.254  1.00  0.00    -0.014 C 
ATOM     14  C   UNL     1       0.717   9.755  16.802  1.00  0.00     0.007 C 
ATOM     15  C   UNL     1      -0.398   8.244  18.461  1.00  0.00     0.007 C 
ENDBRANCH   5  13
TORSDOF 1
ENDMDL
