MODEL 1
REMARK VINA RESULT:    -4.241      0.000      0.000
REMARK INTER + INTRA:          -6.259
REMARK INTER:                  -5.977
REMARK INTRA:                  -0.282
REMARK UNBOUND:                -0.282
REMARK SMILES CCCCCCCCC(=O)[O-]
REMARK SMILES IDX 6 1 7 2 8 3 9 4 10 5 11 6 5 7 4 8 3 9 2 10 1 11
REMARK H PARENT
REMARK Flexibility Score: inf
ROOT
ATOM      1  C   UNL     1     -30.978 -21.192 -33.510  1.00  0.00     0.000 C 
ENDROOT
BRANCH   1   2
ATOM      2  C   UNL     1     -29.515 -21.230 -33.048  1.00  0.00     0.006 C 
BRANCH   2   3
ATOM      3  C   UNL     1     -29.326 -20.597 -31.663  1.00  0.00     0.053 C 
BRANCH   3   4
ATOM      4  C   UNL     1     -30.267 -21.179 -30.653  1.00  0.00     0.041 C 
ATOM      5  O   UNL     1     -31.042 -20.432 -30.002  1.00  0.00    -0.550 OA
ATOM      6  O   UNL     1     -30.311 -22.554 -30.457  1.00  0.00    -0.550 OA
ENDBRANCH   3   4
ENDBRANCH   2   3
ENDBRANCH   1   2
BRANCH   1   7
ATOM      7  C   UNL     1     -31.472 -22.597 -33.885  1.00  0.00     0.000 C 
BRANCH   7   8
ATOM      8  C   UNL     1     -32.466 -22.589 -35.060  1.00  0.00    -0.000 C 
BRANCH   8   9
ATOM      9  C   UNL     1     -32.361 -23.798 -36.012  1.00  0.00    -0.000 C 
BRANCH   9  10
ATOM     10  C   UNL     1     -31.244 -23.700 -37.066  1.00  0.00    -0.003 C 
ATOM     11  C   UNL     1     -31.108 -24.968 -37.909  1.00  0.00     0.004 C 
ENDBRANCH   9  10
ENDBRANCH   8   9
ENDBRANCH   7   8
ENDBRANCH   1   7
TORSDOF 7
ENDMDL
MODEL 2
REMARK VINA RESULT:    -4.022      0.538      1.648
REMARK INTER + INTRA:          -5.949
REMARK INTER:                  -5.694
REMARK INTRA:                  -0.255
REMARK UNBOUND:                -0.282
REMARK SMILES CCCCCCCCC(=O)[O-]
REMARK SMILES IDX 6 1 7 2 8 3 9 4 10 5 11 6 5 7 4 8 3 9 2 10 1 11
REMARK H PARENT
REMARK Flexibility Score: inf
ROOT
ATOM      1  C   UNL     1     -31.546 -22.673 -33.988  1.00  0.00     0.000 C 
ENDROOT
BRANCH   1   2
ATOM      2  C   UNL     1     -31.162 -21.275 -33.483  1.00  0.00     0.006 C 
BRANCH   2   3
ATOM      3  C   UNL     1     -29.984 -21.315 -32.501  1.00  0.00     0.053 C 
BRANCH   3   4
ATOM      4  C   UNL     1     -30.434 -21.623 -31.105  1.00  0.00     0.041 C 
ATOM      5  O   UNL     1     -30.341 -22.794 -30.652  1.00  0.00    -0.550 OA
ATOM      6  O   UNL     1     -30.926 -20.608 -30.294  1.00  0.00    -0.550 OA
ENDBRANCH   3   4
ENDBRANCH   2   3
ENDBRANCH   1   2
BRANCH   1   7
ATOM      7  C   UNL     1     -32.588 -22.583 -35.113  1.00  0.00     0.000 C 
BRANCH   7   8
ATOM      8  C   UNL     1     -32.443 -23.707 -36.155  1.00  0.00    -0.000 C 
BRANCH   8   9
ATOM      9  C   UNL     1     -31.146 -23.662 -36.987  1.00  0.00    -0.000 C 
BRANCH   9  10
ATOM     10  C   UNL     1     -31.110 -24.626 -38.186  1.00  0.00    -0.003 C 
ATOM     11  C   UNL     1     -32.106 -25.779 -38.053  1.00  0.00     0.004 C 
ENDBRANCH   9  10
ENDBRANCH   8   9
ENDBRANCH   7   8
ENDBRANCH   1   7
TORSDOF 7
ENDMDL
MODEL 3
REMARK VINA RESULT:    -3.783      4.698      7.233
REMARK INTER + INTRA:          -5.612
REMARK INTER:                  -5.390
REMARK INTRA:                  -0.222
REMARK UNBOUND:                -0.282
REMARK SMILES CCCCCCCCC(=O)[O-]
REMARK SMILES IDX 6 1 7 2 8 3 9 4 10 5 11 6 5 7 4 8 3 9 2 10 1 11
REMARK H PARENT
REMARK Flexibility Score: inf
ROOT
ATOM      1  C   UNL     1     -31.214 -24.109 -37.225  1.00  0.00     0.000 C 
ENDROOT
BRANCH   1   2
ATOM      2  C   UNL     1     -31.331 -25.421 -38.014  1.00  0.00     0.006 C 
BRANCH   2   3
ATOM      3  C   UNL     1     -32.694 -26.098 -37.818  1.00  0.00     0.053 C 
BRANCH   3   4
ATOM      4  C   UNL     1     -32.725 -27.469 -38.419  1.00  0.00     0.041 C 
ATOM      5  O   UNL     1     -31.651 -28.066 -38.696  1.00  0.00    -0.550 OA
ATOM      6  O   UNL     1     -33.941 -28.102 -38.644  1.00  0.00    -0.550 OA
ENDBRANCH   3   4
ENDBRANCH   2   3
ENDBRANCH   1   2
BRANCH   1   7
ATOM      7  C   UNL     1     -32.425 -23.914 -36.301  1.00  0.00     0.000 C 
BRANCH   7   8
ATOM      8  C   UNL     1     -32.319 -22.646 -35.435  1.00  0.00    -0.000 C 
BRANCH   8   9
ATOM      9  C   UNL     1     -31.555 -22.823 -34.108  1.00  0.00    -0.000 C 
BRANCH   9  10
ATOM     10  C   UNL     1     -31.025 -21.520 -33.485  1.00  0.00    -0.003 C 
ATOM     11  C   UNL     1     -30.566 -21.695 -32.037  1.00  0.00     0.004 C 
ENDBRANCH   9  10
ENDBRANCH   8   9
ENDBRANCH   7   8
ENDBRANCH   1   7
TORSDOF 7
ENDMDL
MODEL 4
REMARK VINA RESULT:    -3.740      3.415      6.339
REMARK INTER + INTRA:          -5.553
REMARK INTER:                  -5.326
REMARK INTRA:                  -0.226
REMARK UNBOUND:                -0.282
REMARK SMILES CCCCCCCCC(=O)[O-]
REMARK SMILES IDX 6 1 7 2 8 3 9 4 10 5 11 6 5 7 4 8 3 9 2 10 1 11
REMARK H PARENT
REMARK Flexibility Score: inf
ROOT
ATOM      1  C   UNL     1     -31.603 -22.798 -34.185  1.00  0.00     0.000 C 
ENDROOT
BRANCH   1   2
ATOM      2  C   UNL     1     -32.507 -22.677 -35.421  1.00  0.00     0.006 C 
BRANCH   2   3
ATOM      3  C   UNL     1     -32.607 -23.996 -36.199  1.00  0.00     0.053 C 
BRANCH   3   4
ATOM      4  C   UNL     1     -31.658 -24.030 -37.358  1.00  0.00     0.041 C 
ATOM      5  O   UNL     1     -31.369 -25.123 -37.911  1.00  0.00    -0.550 OA
ATOM      6  O   UNL     1     -31.117 -22.847 -37.847  1.00  0.00    -0.550 OA
ENDBRANCH   3   4
ENDBRANCH   2   3
ENDBRANCH   1   2
BRANCH   1   7
ATOM      7  C   UNL     1     -31.276 -21.414 -33.606  1.00  0.00     0.000 C 
BRANCH   7   8
ATOM      8  C   UNL     1     -30.082 -21.438 -32.635  1.00  0.00    -0.000 C 
BRANCH   8   9
ATOM      9  C   UNL     1     -30.376 -22.055 -31.253  1.00  0.00    -0.000 C 
BRANCH   9  10
ATOM     10  C   UNL     1     -30.398 -21.053 -30.086  1.00  0.00    -0.003 C 
ATOM     11  C   UNL     1     -31.342 -19.875 -30.330  1.00  0.00     0.004 C 
ENDBRANCH   9  10
ENDBRANCH   8   9
ENDBRANCH   7   8
ENDBRANCH   1   7
TORSDOF 7
ENDMDL
MODEL 5
REMARK VINA RESULT:    -3.740      3.435      6.161
REMARK INTER + INTRA:          -5.552
REMARK INTER:                  -5.282
REMARK INTRA:                  -0.270
REMARK UNBOUND:                -0.282
REMARK SMILES CCCCCCCCC(=O)[O-]
REMARK SMILES IDX 6 1 7 2 8 3 9 4 10 5 11 6 5 7 4 8 3 9 2 10 1 11
REMARK H PARENT
REMARK Flexibility Score: inf
ROOT
ATOM      1  C   UNL     1     -31.538 -22.750 -34.088  1.00  0.00     0.000 C 
ENDROOT
BRANCH   1   2
ATOM      2  C   UNL     1     -32.484 -22.576 -35.284  1.00  0.00     0.006 C 
BRANCH   2   3
ATOM      3  C   UNL     1     -32.592 -23.851 -36.130  1.00  0.00     0.053 C 
BRANCH   3   4
ATOM      4  C   UNL     1     -31.650 -23.827 -37.295  1.00  0.00     0.041 C 
ATOM      5  O   UNL     1     -31.498 -22.774 -37.967  1.00  0.00    -0.550 OA
ATOM      6  O   UNL     1     -30.916 -24.962 -37.617  1.00  0.00    -0.550 OA
ENDBRANCH   3   4
ENDBRANCH   2   3
ENDBRANCH   1   2
BRANCH   1   7
ATOM      7  C   UNL     1     -31.095 -21.387 -33.535  1.00  0.00     0.000 C 
BRANCH   7   8
ATOM      8  C   UNL     1     -29.616 -21.366 -33.110  1.00  0.00    -0.000 C 
BRANCH   8   9
ATOM      9  C   UNL     1     -29.281 -20.394 -31.961  1.00  0.00    -0.000 C 
BRANCH   9  10
ATOM     10  C   UNL     1     -30.317 -20.350 -30.824  1.00  0.00    -0.003 C 
ATOM     11  C   UNL     1     -30.346 -21.633 -29.994  1.00  0.00     0.004 C 
ENDBRANCH   9  10
ENDBRANCH   8   9
ENDBRANCH   7   8
ENDBRANCH   1   7
TORSDOF 7
ENDMDL
MODEL 6
REMARK VINA RESULT:    -3.597      5.339      7.343
REMARK INTER + INTRA:          -5.350
REMARK INTER:                  -4.869
REMARK INTRA:                  -0.481
REMARK UNBOUND:                -0.282
REMARK SMILES CCCCCCCCC(=O)[O-]
REMARK SMILES IDX 6 1 7 2 8 3 9 4 10 5 11 6 5 7 4 8 3 9 2 10 1 11
REMARK H PARENT
REMARK Flexibility Score: inf
ROOT
ATOM      1  C   UNL     1     -31.106 -24.454 -37.598  1.00  0.00     0.000 C 
ENDROOT
BRANCH   1   2
ATOM      2  C   UNL     1     -31.176 -25.898 -38.118  1.00  0.00     0.006 C 
BRANCH   2   3
ATOM      3  C   UNL     1     -32.621 -26.392 -38.267  1.00  0.00     0.053 C 
BRANCH   3   4
ATOM      4  C   UNL     1     -32.677 -27.853 -38.592  1.00  0.00     0.041 C 
ATOM      5  O   UNL     1     -33.769 -28.476 -38.532  1.00  0.00    -0.550 OA
ATOM      6  O   UNL     1     -31.526 -28.520 -38.993  1.00  0.00    -0.550 OA
ENDBRANCH   3   4
ENDBRANCH   2   3
ENDBRANCH   1   2
BRANCH   1   7
ATOM      7  C   UNL     1     -31.694 -23.473 -38.623  1.00  0.00     0.000 C 
BRANCH   7   8
ATOM      8  C   UNL     1     -32.718 -22.504 -38.004  1.00  0.00    -0.000 C 
BRANCH   8   9
ATOM      9  C   UNL     1     -33.322 -22.962 -36.662  1.00  0.00    -0.000 C 
BRANCH   9  10
ATOM     10  C   UNL     1     -32.960 -22.082 -35.453  1.00  0.00    -0.003 C 
ATOM     11  C   UNL     1     -31.910 -22.721 -34.544  1.00  0.00     0.004 C 
ENDBRANCH   9  10
ENDBRANCH   8   9
ENDBRANCH   7   8
ENDBRANCH   1   7
TORSDOF 7
ENDMDL
MODEL 7
REMARK VINA RESULT:    -3.479      1.704      3.102
REMARK INTER + INTRA:          -5.185
REMARK INTER:                  -4.863
REMARK INTRA:                  -0.322
REMARK UNBOUND:                -0.282
REMARK SMILES CCCCCCCCC(=O)[O-]
REMARK SMILES IDX 6 1 7 2 8 3 9 4 10 5 11 6 5 7 4 8 3 9 2 10 1 11
REMARK H PARENT
REMARK Flexibility Score: inf
ROOT
ATOM      1  C   UNL     1     -32.223 -23.605 -35.417  1.00  0.00     0.000 C 
ENDROOT
BRANCH   1   2
ATOM      2  C   UNL     1     -32.103 -22.292 -34.631  1.00  0.00     0.006 C 
BRANCH   2   3
ATOM      3  C   UNL     1     -31.190 -22.430 -33.405  1.00  0.00     0.053 C 
BRANCH   3   4
ATOM      4  C   UNL     1     -30.577 -21.119 -33.018  1.00  0.00     0.041 C 
ATOM      5  O   UNL     1     -29.330 -21.019 -32.872  1.00  0.00    -0.550 OA
ATOM      6  O   UNL     1     -31.381 -19.999 -32.852  1.00  0.00    -0.550 OA
ENDBRANCH   3   4
ENDBRANCH   2   3
ENDBRANCH   1   2
BRANCH   1   7
ATOM      7  C   UNL     1     -32.911 -23.374 -36.770  1.00  0.00     0.000 C 
BRANCH   7   8
ATOM      8  C   UNL     1     -32.024 -23.761 -37.967  1.00  0.00    -0.000 C 
BRANCH   8   9
ATOM      9  C   UNL     1     -31.260 -25.091 -37.810  1.00  0.00    -0.000 C 
BRANCH   9  10
ATOM     10  C   UNL     1     -31.838 -26.271 -38.611  1.00  0.00    -0.003 C 
ATOM     11  C   UNL     1     -33.027 -26.936 -37.918  1.00  0.00     0.004 C 
ENDBRANCH   9  10
ENDBRANCH   8   9
ENDBRANCH   7   8
ENDBRANCH   1   7
TORSDOF 7
ENDMDL
MODEL 8
REMARK VINA RESULT:    -3.272      1.935      2.919
REMARK INTER + INTRA:          -4.892
REMARK INTER:                  -4.485
REMARK INTRA:                  -0.407
REMARK UNBOUND:                -0.282
REMARK SMILES CCCCCCCCC(=O)[O-]
REMARK SMILES IDX 6 1 7 2 8 3 9 4 10 5 11 6 5 7 4 8 3 9 2 10 1 11
REMARK H PARENT
REMARK Flexibility Score: inf
ROOT
ATOM      1  C   UNL     1     -32.278 -22.781 -34.690  1.00  0.00     0.000 C 
ENDROOT
BRANCH   1   2
ATOM      2  C   UNL     1     -31.394 -22.642 -33.443  1.00  0.00     0.006 C 
BRANCH   2   3
ATOM      3  C   UNL     1     -30.477 -21.413 -33.514  1.00  0.00     0.053 C 
BRANCH   3   4
ATOM      4  C   UNL     1     -29.747 -21.190 -32.226  1.00  0.00     0.041 C 
ATOM      5  O   UNL     1     -30.146 -21.738 -31.166  1.00  0.00    -0.550 OA
ATOM      6  O   UNL     1     -28.604 -20.400 -32.204  1.00  0.00    -0.550 OA
ENDBRANCH   3   4
ENDBRANCH   2   3
ENDBRANCH   1   2
BRANCH   1   7
ATOM      7  C   UNL     1     -31.480 -23.358 -35.869  1.00  0.00     0.000 C 
BRANCH   7   8
ATOM      8  C   UNL     1     -32.150 -23.098 -37.230  1.00  0.00    -0.000 C 
BRANCH   8   9
ATOM      9  C   UNL     1     -33.648 -22.738 -37.162  1.00  0.00    -0.000 C 
BRANCH   9  10
ATOM     10  C   UNL     1     -34.010 -21.356 -37.732  1.00  0.00    -0.003 C 
ATOM     11  C   UNL     1     -34.095 -20.272 -36.658  1.00  0.00     0.004 C 
ENDBRANCH   9  10
ENDBRANCH   8   9
ENDBRANCH   7   8
ENDBRANCH   1   7
TORSDOF 7
ENDMDL
MODEL 9
REMARK VINA RESULT:    -2.920      3.963      6.263
REMARK INTER + INTRA:          -4.397
REMARK INTER:                  -4.051
REMARK INTRA:                  -0.346
REMARK UNBOUND:                -0.282
REMARK SMILES CCCCCCCCC(=O)[O-]
REMARK SMILES IDX 6 1 7 2 8 3 9 4 10 5 11 6 5 7 4 8 3 9 2 10 1 11
REMARK H PARENT
REMARK Flexibility Score: inf
ROOT
ATOM      1  C   UNL     1     -31.009 -23.002 -35.333  1.00  0.00     0.000 C 
ENDROOT
BRANCH   1   2
ATOM      2  C   UNL     1     -31.784 -23.507 -36.559  1.00  0.00     0.006 C 
BRANCH   2   3
ATOM      3  C   UNL     1     -33.100 -22.745 -36.768  1.00  0.00     0.053 C 
BRANCH   3   4
ATOM      4  C   UNL     1     -33.204 -22.186 -38.154  1.00  0.00     0.041 C 
ATOM      5  O   UNL     1     -34.125 -21.380 -38.446  1.00  0.00    -0.550 OA
ATOM      6  O   UNL     1     -32.261 -22.532 -39.114  1.00  0.00    -0.550 OA
ENDBRANCH   3   4
ENDBRANCH   2   3
ENDBRANCH   1   2
BRANCH   1   7
ATOM      7  C   UNL     1     -31.969 -22.497 -34.245  1.00  0.00     0.000 C 
BRANCH   7   8
ATOM      8  C   UNL     1     -31.324 -21.455 -33.314  1.00  0.00    -0.000 C 
BRANCH   8   9
ATOM      9  C   UNL     1     -29.786 -21.381 -33.383  1.00  0.00    -0.000 C 
BRANCH   9  10
ATOM     10  C   UNL     1     -29.093 -21.017 -32.058  1.00  0.00    -0.003 C 
ATOM     11  C   UNL     1     -30.072 -20.540 -30.985  1.00  0.00     0.004 C 
ENDBRANCH   9  10
ENDBRANCH   8   9
ENDBRANCH   7   8
ENDBRANCH   1   7
TORSDOF 7
ENDMDL
