MODEL 1
REMARK VINA RESULT:    -9.542      0.000      0.000
REMARK INTER + INTRA:         -14.816
REMARK INTER:                 -13.168
REMARK INTRA:                  -1.648
REMARK UNBOUND:                -1.648
REMARK SMILES O=C([O-])[C@H]1O[C@@H](Oc2cc3oc(-c4ccccc4)cc(=O)c3c(O)c2O)[C@H](O)[C@@H](O)[C@H]1O
REMARK SMILES IDX 7 1 6 2 4 3 31 4 5 5 29 6 27 7 2 8 1 9 3 10 32 11 30 13
REMARK SMILES IDX 28 15 8 17 25 18 9 19 23 20 10 21 22 22 11 23 20 24 12 25
REMARK SMILES IDX 19 26 21 27 26 28 24 30 13 32 14 33 18 34 15 35 17 36 16 37
REMARK H PARENT 32 12 30 14 28 16 26 29 24 31
REMARK Flexibility Score: inf
ROOT
ATOM      1  O   UNL     1      20.454 -55.409   3.122  1.00  0.00    -0.458 OA
ENDROOT
BRANCH   1   2
ATOM      2  C   UNL     1      19.478 -54.457   2.691  1.00  0.00     0.339 C 
ATOM      3  C   UNL     1      20.847 -53.448   1.022  1.00  0.00     0.199 C 
ATOM      4  C   UNL     1      21.044 -52.169   1.883  1.00  0.00     0.180 C 
ATOM      5  O   UNL     1      19.631 -54.128   1.315  1.00  0.00    -0.328 OA
ATOM      6  C   UNL     1      20.823 -52.428   3.383  1.00  0.00     0.181 C 
ATOM      7  C   UNL     1      19.519 -53.207   3.592  1.00  0.00     0.214 C 
BRANCH   3   8
ATOM      8  C   UNL     1      22.020 -54.401   0.965  1.00  0.00     0.073 C 
ATOM      9  O   UNL     1      21.956 -55.413   0.218  1.00  0.00    -0.547 OA
ATOM     10  O   UNL     1      23.176 -54.183   1.706  1.00  0.00    -0.547 OA
ENDBRANCH   3   8
BRANCH   4  11
ATOM     11  O   UNL     1      22.307 -51.593   1.668  1.00  0.00    -0.387 OA
ATOM     12  H   UNL     1      22.895 -52.312   1.317  1.00  0.00     0.211 HD
ENDBRANCH   4  11
BRANCH   6  13
ATOM     13  O   UNL     1      21.895 -53.143   3.943  1.00  0.00    -0.387 OA
ATOM     14  H   UNL     1      22.621 -53.154   3.267  1.00  0.00     0.211 HD
ENDBRANCH   6  13
BRANCH   7  15
ATOM     15  O   UNL     1      18.427 -52.373   3.302  1.00  0.00    -0.384 OA
ATOM     16  H   UNL     1      17.666 -52.965   3.066  1.00  0.00     0.211 HD
ENDBRANCH   7  15
ENDBRANCH   1   2
BRANCH   1  17
ATOM     17  C   UNL     1      20.254 -56.767   3.439  1.00  0.00     0.172 A 
ATOM     18  C   UNL     1      21.056 -57.833   2.956  1.00  0.00     0.201 A 
ATOM     19  C   UNL     1      19.192 -57.043   4.300  1.00  0.00     0.098 A 
ATOM     20  C   UNL     1      20.751 -59.169   3.333  1.00  0.00     0.176 A 
ATOM     21  C   UNL     1      18.903 -58.344   4.699  1.00  0.00     0.146 A 
ATOM     22  C   UNL     1      19.679 -59.421   4.224  1.00  0.00     0.111 A 
ATOM     23  O   UNL     1      17.887 -58.552   5.530  1.00  0.00    -0.456 OA
ATOM     24  C   UNL     1      19.333 -60.717   4.670  1.00  0.00     0.197 A 
ATOM     25  C   UNL     1      17.529 -59.759   5.963  1.00  0.00     0.138 A 
ATOM     26  C   UNL     1      18.256 -60.882   5.543  1.00  0.00     0.100 A 
ATOM     27  O   UNL     1      19.980 -61.735   4.305  1.00  0.00    -0.289 OA
BRANCH  18  28
ATOM     28  O   UNL     1      22.144 -57.550   2.130  1.00  0.00    -0.502 OA
ATOM     29  H   UNL     1      22.936 -58.159   1.987  1.00  0.00     0.293 HD
ENDBRANCH  18  28
BRANCH  20  30
ATOM     30  O   UNL     1      21.482 -60.252   2.833  1.00  0.00    -0.504 OA
ATOM     31  H   UNL     1      21.693 -60.405   1.857  1.00  0.00     0.293 HD
ENDBRANCH  20  30
BRANCH  25  32
ATOM     32  C   UNL     1      16.376 -59.871   6.891  1.00  0.00     0.017 A 
ATOM     33  C   UNL     1      16.522 -59.680   8.281  1.00  0.00     0.012 A 
ATOM     34  C   UNL     1      15.108 -60.209   6.383  1.00  0.00     0.012 A 
ATOM     35  C   UNL     1      15.418 -59.803   9.131  1.00  0.00     0.001 A 
ATOM     36  C   UNL     1      14.008 -60.329   7.238  1.00  0.00     0.001 A 
ATOM     37  C   UNL     1      14.163 -60.124   8.610  1.00  0.00     0.000 A 
ENDBRANCH  25  32
ENDBRANCH   1  17
TORSDOF 9
ENDMDL
MODEL 2
REMARK VINA RESULT:    -7.896      0.860      2.243
REMARK INTER + INTRA:         -12.544
REMARK INTER:                 -11.618
REMARK INTRA:                  -0.926
REMARK UNBOUND:                -1.648
REMARK SMILES O=C([O-])[C@H]1O[C@@H](Oc2cc3oc(-c4ccccc4)cc(=O)c3c(O)c2O)[C@H](O)[C@@H](O)[C@H]1O
REMARK SMILES IDX 7 1 6 2 4 3 31 4 5 5 29 6 27 7 2 8 1 9 3 10 32 11 30 13
REMARK SMILES IDX 28 15 8 17 25 18 9 19 23 20 10 21 22 22 11 23 20 24 12 25
REMARK SMILES IDX 19 26 21 27 26 28 24 30 13 32 14 33 18 34 15 35 17 36 16 37
REMARK H PARENT 32 12 30 14 28 16 26 29 24 31
REMARK Flexibility Score: inf
ROOT
ATOM      1  O   UNL     1      20.388 -55.789   3.239  1.00  0.00    -0.458 OA
ENDROOT
BRANCH   1   2
ATOM      2  C   UNL     1      21.600 -55.058   3.448  1.00  0.00     0.339 C 
ATOM      3  C   UNL     1      20.689 -52.922   2.914  1.00  0.00     0.199 C 
ATOM      4  C   UNL     1      21.439 -52.884   1.554  1.00  0.00     0.180 C 
ATOM      5  O   UNL     1      21.348 -53.728   3.885  1.00  0.00    -0.328 OA
ATOM      6  C   UNL     1      21.813 -54.288   1.047  1.00  0.00     0.181 C 
ATOM      7  C   UNL     1      22.468 -55.093   2.175  1.00  0.00     0.214 C 
BRANCH   3   8
ATOM      8  C   UNL     1      19.208 -53.225   2.850  1.00  0.00     0.073 C 
ATOM      9  O   UNL     1      18.687 -53.525   1.743  1.00  0.00    -0.547 OA
ATOM     10  O   UNL     1      18.406 -53.194   3.985  1.00  0.00    -0.547 OA
ENDBRANCH   3   8
BRANCH   4  11
ATOM     11  O   UNL     1      20.702 -52.193   0.578  1.00  0.00    -0.387 OA
ATOM     12  H   UNL     1      19.753 -52.210   0.869  1.00  0.00     0.211 HD
ENDBRANCH   4  11
BRANCH   6  13
ATOM     13  O   UNL     1      20.687 -54.977   0.568  1.00  0.00    -0.387 OA
ATOM     14  H   UNL     1      19.913 -54.361   0.650  1.00  0.00     0.211 HD
ENDBRANCH   6  13
BRANCH   7  15
ATOM     15  O   UNL     1      23.740 -54.561   2.449  1.00  0.00    -0.384 OA
ATOM     16  H   UNL     1      23.638 -53.960   3.232  1.00  0.00     0.211 HD
ENDBRANCH   7  15
ENDBRANCH   1   2
BRANCH   1  17
ATOM     17  C   UNL     1      20.110 -57.121   3.604  1.00  0.00     0.172 A 
ATOM     18  C   UNL     1      20.841 -58.249   3.151  1.00  0.00     0.201 A 
ATOM     19  C   UNL     1      19.044 -57.303   4.485  1.00  0.00     0.098 A 
ATOM     20  C   UNL     1      20.461 -59.550   3.576  1.00  0.00     0.176 A 
ATOM     21  C   UNL     1      18.683 -58.570   4.931  1.00  0.00     0.146 A 
ATOM     22  C   UNL     1      19.387 -59.708   4.485  1.00  0.00     0.111 A 
ATOM     23  O   UNL     1      17.666 -58.689   5.779  1.00  0.00    -0.456 OA
ATOM     24  C   UNL     1      18.969 -60.964   4.979  1.00  0.00     0.197 A 
ATOM     25  C   UNL     1      17.241 -59.856   6.255  1.00  0.00     0.138 A 
ATOM     26  C   UNL     1      17.895 -61.035   5.867  1.00  0.00     0.100 A 
ATOM     27  O   UNL     1      19.550 -62.031   4.642  1.00  0.00    -0.289 OA
BRANCH  18  28
ATOM     28  O   UNL     1      21.935 -58.059   2.304  1.00  0.00    -0.502 OA
ATOM     29  H   UNL     1      22.418 -57.184   2.171  1.00  0.00     0.293 HD
ENDBRANCH  18  28
BRANCH  20  30
ATOM     30  O   UNL     1      21.120 -60.692   3.106  1.00  0.00    -0.504 OA
ATOM     31  H   UNL     1      21.601 -61.362   3.688  1.00  0.00     0.293 HD
ENDBRANCH  20  30
BRANCH  25  32
ATOM     32  C   UNL     1      16.095 -59.868   7.198  1.00  0.00     0.017 A 
ATOM     33  C   UNL     1      16.266 -59.624   8.577  1.00  0.00     0.012 A 
ATOM     34  C   UNL     1      14.806 -60.162   6.717  1.00  0.00     0.012 A 
ATOM     35  C   UNL     1      15.167 -59.652   9.442  1.00  0.00     0.001 A 
ATOM     36  C   UNL     1      13.711 -60.187   7.587  1.00  0.00     0.001 A 
ATOM     37  C   UNL     1      13.892 -59.930   8.947  1.00  0.00     0.000 A 
ENDBRANCH  25  32
ENDBRANCH   1  17
TORSDOF 9
ENDMDL
MODEL 3
REMARK VINA RESULT:    -7.795      1.564      2.417
REMARK INTER + INTRA:         -12.405
REMARK INTER:                 -10.961
REMARK INTRA:                  -1.444
REMARK UNBOUND:                -1.648
REMARK SMILES O=C([O-])[C@H]1O[C@@H](Oc2cc3oc(-c4ccccc4)cc(=O)c3c(O)c2O)[C@H](O)[C@@H](O)[C@H]1O
REMARK SMILES IDX 7 1 6 2 4 3 31 4 5 5 29 6 27 7 2 8 1 9 3 10 32 11 30 13
REMARK SMILES IDX 28 15 8 17 25 18 9 19 23 20 10 21 22 22 11 23 20 24 12 25
REMARK SMILES IDX 19 26 21 27 26 28 24 30 13 32 14 33 18 34 15 35 17 36 16 37
REMARK H PARENT 32 12 30 14 28 16 26 29 24 31
REMARK Flexibility Score: inf
ROOT
ATOM      1  O   UNL     1      22.059 -54.345   2.956  1.00  0.00    -0.458 OA
ENDROOT
BRANCH   1   2
ATOM      2  C   UNL     1      21.541 -53.316   3.805  1.00  0.00     0.339 C 
ATOM      3  C   UNL     1      20.256 -52.235   2.115  1.00  0.00     0.199 C 
ATOM      4  C   UNL     1      21.250 -51.043   2.048  1.00  0.00     0.180 C 
ATOM      5  O   UNL     1      20.253 -52.880   3.383  1.00  0.00    -0.328 OA
ATOM      6  C   UNL     1      22.653 -51.415   2.557  1.00  0.00     0.181 C 
ATOM      7  C   UNL     1      22.543 -52.149   3.899  1.00  0.00     0.214 C 
BRANCH   3   8
ATOM      8  C   UNL     1      20.333 -53.233   0.980  1.00  0.00     0.073 C 
ATOM      9  O   UNL     1      19.412 -54.080   0.841  1.00  0.00    -0.547 OA
ATOM     10  O   UNL     1      21.389 -53.231   0.076  1.00  0.00    -0.547 OA
ENDBRANCH   3   8
BRANCH   4  11
ATOM     11  O   UNL     1      21.329 -50.509   0.750  1.00  0.00    -0.387 OA
ATOM     12  H   UNL     1      21.956 -49.740   0.793  1.00  0.00     0.211 HD
ENDBRANCH   4  11
BRANCH   6  13
ATOM     13  O   UNL     1      23.337 -52.223   1.633  1.00  0.00    -0.387 OA
ATOM     14  H   UNL     1      22.657 -52.793   1.187  1.00  0.00     0.211 HD
ENDBRANCH   6  13
BRANCH   7  15
ATOM     15  O   UNL     1      22.131 -51.244   4.892  1.00  0.00    -0.384 OA
ATOM     16  H   UNL     1      21.551 -50.572   4.447  1.00  0.00     0.211 HD
ENDBRANCH   7  15
ENDBRANCH   1   2
BRANCH   1  17
ATOM     17  C   UNL     1      21.586 -55.663   2.812  1.00  0.00     0.172 A 
ATOM     18  C   UNL     1      21.821 -56.484   1.679  1.00  0.00     0.201 A 
ATOM     19  C   UNL     1      20.850 -56.169   3.884  1.00  0.00     0.098 A 
ATOM     20  C   UNL     1      21.282 -57.798   1.638  1.00  0.00     0.176 A 
ATOM     21  C   UNL     1      20.343 -57.464   3.866  1.00  0.00     0.146 A 
ATOM     22  C   UNL     1      20.554 -58.295   2.747  1.00  0.00     0.111 A 
ATOM     23  O   UNL     1      19.657 -57.901   4.918  1.00  0.00    -0.456 OA
ATOM     24  C   UNL     1      20.014 -59.599   2.795  1.00  0.00     0.197 A 
ATOM     25  C   UNL     1      19.128 -59.120   4.993  1.00  0.00     0.138 A 
ATOM     26  C   UNL     1      19.301 -60.010   3.923  1.00  0.00     0.100 A 
ATOM     27  O   UNL     1      20.165 -60.412   1.844  1.00  0.00    -0.289 OA
BRANCH  18  28
ATOM     28  O   UNL     1      22.595 -55.991   0.627  1.00  0.00    -0.502 OA
ATOM     29  H   UNL     1      22.523 -56.291  -0.334  1.00  0.00     0.293 HD
ENDBRANCH  18  28
BRANCH  20  30
ATOM     30  O   UNL     1      21.444 -58.617   0.515  1.00  0.00    -0.504 OA
ATOM     31  H   UNL     1      21.134 -59.576   0.450  1.00  0.00     0.293 HD
ENDBRANCH  20  30
BRANCH  25  32
ATOM     32  C   UNL     1      18.382 -59.500   6.218  1.00  0.00     0.017 A 
ATOM     33  C   UNL     1      18.981 -60.259   7.245  1.00  0.00     0.012 A 
ATOM     34  C   UNL     1      17.032 -59.126   6.352  1.00  0.00     0.012 A 
ATOM     35  C   UNL     1      18.248 -60.611   8.383  1.00  0.00     0.001 A 
ATOM     36  C   UNL     1      16.306 -59.479   7.493  1.00  0.00     0.001 A 
ATOM     37  C   UNL     1      16.914 -60.219   8.509  1.00  0.00     0.000 A 
ENDBRANCH  25  32
ENDBRANCH   1  17
TORSDOF 9
ENDMDL
MODEL 4
REMARK VINA RESULT:    -7.636      2.865      5.303
REMARK INTER + INTRA:         -12.186
REMARK INTER:                 -10.421
REMARK INTRA:                  -1.764
REMARK UNBOUND:                -1.648
REMARK SMILES O=C([O-])[C@H]1O[C@@H](Oc2cc3oc(-c4ccccc4)cc(=O)c3c(O)c2O)[C@H](O)[C@@H](O)[C@H]1O
REMARK SMILES IDX 7 1 6 2 4 3 31 4 5 5 29 6 27 7 2 8 1 9 3 10 32 11 30 13
REMARK SMILES IDX 28 15 8 17 25 18 9 19 23 20 10 21 22 22 11 23 20 24 12 25
REMARK SMILES IDX 19 26 21 27 26 28 24 30 13 32 14 33 18 34 15 35 17 36 16 37
REMARK H PARENT 32 12 30 14 28 16 26 29 24 31
REMARK Flexibility Score: inf
ROOT
ATOM      1  O   UNL     1      21.368 -50.805   3.765  1.00  0.00    -0.458 OA
ENDROOT
BRANCH   1   2
ATOM      2  C   UNL     1      20.609 -49.701   3.262  1.00  0.00     0.339 C 
ATOM      3  C   UNL     1      22.248 -48.041   3.751  1.00  0.00     0.199 C 
ATOM      4  C   UNL     1      21.409 -47.487   4.935  1.00  0.00     0.180 C 
ATOM      5  O   UNL     1      21.448 -48.669   2.755  1.00  0.00    -0.328 OA
ATOM      6  C   UNL     1      20.421 -48.525   5.496  1.00  0.00     0.181 C 
ATOM      7  C   UNL     1      19.645 -49.181   4.347  1.00  0.00     0.214 C 
BRANCH   3   8
ATOM      8  C   UNL     1      23.446 -48.888   4.121  1.00  0.00     0.073 C 
ATOM      9  O   UNL     1      24.184 -49.343   3.208  1.00  0.00    -0.547 OA
ATOM     10  O   UNL     1      23.763 -49.165   5.445  1.00  0.00    -0.547 OA
ENDBRANCH   3   8
BRANCH   4  11
ATOM     11  O   UNL     1      22.230 -46.992   5.962  1.00  0.00    -0.387 OA
ATOM     12  H   UNL     1      23.168 -47.079   5.647  1.00  0.00     0.211 HD
ENDBRANCH   4  11
BRANCH   6  13
ATOM     13  O   UNL     1      21.084 -49.513   6.242  1.00  0.00    -0.387 OA
ATOM     14  H   UNL     1      20.590 -50.363   6.102  1.00  0.00     0.211 HD
ENDBRANCH   6  13
BRANCH   7  15
ATOM     15  O   UNL     1      18.759 -48.244   3.789  1.00  0.00    -0.384 OA
ATOM     16  H   UNL     1      18.710 -47.481   4.422  1.00  0.00     0.211 HD
ENDBRANCH   7  15
ENDBRANCH   1   2
BRANCH   1  17
ATOM     17  C   UNL     1      21.464 -52.102   3.224  1.00  0.00     0.172 A 
ATOM     18  C   UNL     1      22.354 -52.476   2.184  1.00  0.00     0.201 A 
ATOM     19  C   UNL     1      20.621 -53.061   3.784  1.00  0.00     0.098 A 
ATOM     20  C   UNL     1      22.354 -53.815   1.707  1.00  0.00     0.176 A 
ATOM     21  C   UNL     1      20.635 -54.382   3.345  1.00  0.00     0.146 A 
ATOM     22  C   UNL     1      21.502 -54.775   2.305  1.00  0.00     0.111 A 
ATOM     23  O   UNL     1      19.820 -55.260   3.921  1.00  0.00    -0.456 OA
ATOM     24  C   UNL     1      21.467 -56.132   1.910  1.00  0.00     0.197 A 
ATOM     25  C   UNL     1      19.755 -56.541   3.567  1.00  0.00     0.138 A 
ATOM     26  C   UNL     1      20.592 -57.014   2.545  1.00  0.00     0.100 A 
ATOM     27  O   UNL     1      22.216 -56.572   0.997  1.00  0.00    -0.289 OA
BRANCH  18  28
ATOM     28  O   UNL     1      23.227 -51.524   1.655  1.00  0.00    -0.502 OA
ATOM     29  H   UNL     1      24.010 -51.122   2.147  1.00  0.00     0.293 HD
ENDBRANCH  18  28
BRANCH  20  30
ATOM     30  O   UNL     1      23.175 -54.210   0.645  1.00  0.00    -0.504 OA
ATOM     31  H   UNL     1      23.792 -53.596   0.132  1.00  0.00     0.293 HD
ENDBRANCH  20  30
BRANCH  25  32
ATOM     32  C   UNL     1      18.806 -57.432   4.279  1.00  0.00     0.017 A 
ATOM     33  C   UNL     1      18.895 -58.836   4.188  1.00  0.00     0.012 A 
ATOM     34  C   UNL     1      17.767 -56.868   5.043  1.00  0.00     0.012 A 
ATOM     35  C   UNL     1      17.979 -59.649   4.863  1.00  0.00     0.001 A 
ATOM     36  C   UNL     1      16.855 -57.686   5.717  1.00  0.00     0.001 A 
ATOM     37  C   UNL     1      16.963 -59.075   5.629  1.00  0.00     0.000 A 
ENDBRANCH  25  32
ENDBRANCH   1  17
TORSDOF 9
ENDMDL
MODEL 5
REMARK VINA RESULT:    -7.498      2.898      5.725
REMARK INTER + INTRA:         -11.995
REMARK INTER:                 -10.445
REMARK INTRA:                  -1.550
REMARK UNBOUND:                -1.648
REMARK SMILES O=C([O-])[C@H]1O[C@@H](Oc2cc3oc(-c4ccccc4)cc(=O)c3c(O)c2O)[C@H](O)[C@@H](O)[C@H]1O
REMARK SMILES IDX 7 1 6 2 4 3 31 4 5 5 29 6 27 7 2 8 1 9 3 10 32 11 30 13
REMARK SMILES IDX 28 15 8 17 25 18 9 19 23 20 10 21 22 22 11 23 20 24 12 25
REMARK SMILES IDX 19 26 21 27 26 28 24 30 13 32 14 33 18 34 15 35 17 36 16 37
REMARK H PARENT 32 12 30 14 28 16 26 29 24 31
REMARK Flexibility Score: inf
ROOT
ATOM      1  O   UNL     1      21.569 -50.695   3.744  1.00  0.00    -0.458 OA
ENDROOT
BRANCH   1   2
ATOM      2  C   UNL     1      22.400 -50.138   4.767  1.00  0.00     0.339 C 
ATOM      3  C   UNL     1      20.721 -48.728   5.700  1.00  0.00     0.199 C 
ATOM      4  C   UNL     1      21.386 -47.456   5.106  1.00  0.00     0.180 C 
ATOM      5  O   UNL     1      21.651 -49.783   5.923  1.00  0.00    -0.328 OA
ATOM      6  C   UNL     1      22.276 -47.768   3.890  1.00  0.00     0.181 C 
ATOM      7  C   UNL     1      23.203 -48.946   4.210  1.00  0.00     0.214 C 
BRANCH   3   8
ATOM      8  C   UNL     1      19.476 -49.221   4.995  1.00  0.00     0.073 C 
ATOM      9  O   UNL     1      18.883 -50.241   5.435  1.00  0.00    -0.547 OA
ATOM     10  O   UNL     1      18.960 -48.568   3.882  1.00  0.00    -0.547 OA
ENDBRANCH   3   8
BRANCH   4  11
ATOM     11  O   UNL     1      20.430 -46.482   4.773  1.00  0.00    -0.387 OA
ATOM     12  H   UNL     1      19.554 -46.946   4.715  1.00  0.00     0.211 HD
ENDBRANCH   4  11
BRANCH   6  13
ATOM     13  O   UNL     1      21.506 -48.069   2.754  1.00  0.00    -0.387 OA
ATOM     14  H   UNL     1      20.582 -47.756   2.939  1.00  0.00     0.211 HD
ENDBRANCH   6  13
BRANCH   7  15
ATOM     15  O   UNL     1      24.167 -48.539   5.148  1.00  0.00    -0.384 OA
ATOM     16  H   UNL     1      24.563 -47.696   4.807  1.00  0.00     0.211 HD
ENDBRANCH   7  15
ENDBRANCH   1   2
BRANCH   1  17
ATOM     17  C   UNL     1      21.632 -51.990   3.192  1.00  0.00     0.172 A 
ATOM     18  C   UNL     1      22.519 -52.381   2.156  1.00  0.00     0.201 A 
ATOM     19  C   UNL     1      20.756 -52.929   3.736  1.00  0.00     0.098 A 
ATOM     20  C   UNL     1      22.484 -53.714   1.667  1.00  0.00     0.176 A 
ATOM     21  C   UNL     1      20.735 -54.245   3.285  1.00  0.00     0.146 A 
ATOM     22  C   UNL     1      21.599 -54.654   2.249  1.00  0.00     0.111 A 
ATOM     23  O   UNL     1      19.889 -55.104   3.845  1.00  0.00    -0.456 OA
ATOM     24  C   UNL     1      21.527 -56.005   1.840  1.00  0.00     0.197 A 
ATOM     25  C   UNL     1      19.789 -56.379   3.478  1.00  0.00     0.138 A 
ATOM     26  C   UNL     1      20.621 -56.867   2.460  1.00  0.00     0.100 A 
ATOM     27  O   UNL     1      22.271 -56.459   0.930  1.00  0.00    -0.289 OA
BRANCH  18  28
ATOM     28  O   UNL     1      23.424 -51.450   1.644  1.00  0.00    -0.502 OA
ATOM     29  H   UNL     1      23.426 -51.107   0.695  1.00  0.00     0.293 HD
ENDBRANCH  18  28
BRANCH  20  30
ATOM     30  O   UNL     1      23.302 -54.124   0.608  1.00  0.00    -0.504 OA
ATOM     31  H   UNL     1      23.856 -54.968   0.599  1.00  0.00     0.293 HD
ENDBRANCH  20  30
BRANCH  25  32
ATOM     32  C   UNL     1      18.808 -57.248   4.175  1.00  0.00     0.017 A 
ATOM     33  C   UNL     1      18.868 -58.654   4.086  1.00  0.00     0.012 A 
ATOM     34  C   UNL     1      17.768 -56.660   4.919  1.00  0.00     0.012 A 
ATOM     35  C   UNL     1      17.923 -59.446   4.745  1.00  0.00     0.001 A 
ATOM     36  C   UNL     1      16.826 -57.458   5.577  1.00  0.00     0.001 A 
ATOM     37  C   UNL     1      16.905 -58.849   5.492  1.00  0.00     0.000 A 
ENDBRANCH  25  32
ENDBRANCH   1  17
TORSDOF 9
ENDMDL
MODEL 6
REMARK VINA RESULT:    -7.493      2.124      8.110
REMARK INTER + INTRA:         -11.988
REMARK INTER:                 -10.774
REMARK INTRA:                  -1.214
REMARK UNBOUND:                -1.648
REMARK SMILES O=C([O-])[C@H]1O[C@@H](Oc2cc3oc(-c4ccccc4)cc(=O)c3c(O)c2O)[C@H](O)[C@@H](O)[C@H]1O
REMARK SMILES IDX 7 1 6 2 4 3 31 4 5 5 29 6 27 7 2 8 1 9 3 10 32 11 30 13
REMARK SMILES IDX 28 15 8 17 25 18 9 19 23 20 10 21 22 22 11 23 20 24 12 25
REMARK SMILES IDX 19 26 21 27 26 28 24 30 13 32 14 33 18 34 15 35 17 36 16 37
REMARK H PARENT 32 12 30 14 28 16 26 29 24 31
REMARK Flexibility Score: inf
ROOT
ATOM      1  O   UNL     1      19.690 -59.093   3.971  1.00  0.00    -0.458 OA
ENDROOT
BRANCH   1   2
ATOM      2  C   UNL     1      20.160 -60.433   4.150  1.00  0.00     0.339 C 
ATOM      3  C   UNL     1      18.599 -61.009   5.855  1.00  0.00     0.199 C 
ATOM      4  C   UNL     1      19.700 -60.965   6.951  1.00  0.00     0.180 C 
ATOM      5  O   UNL     1      19.117 -61.308   4.564  1.00  0.00    -0.328 OA
ATOM      6  C   UNL     1      20.901 -60.092   6.546  1.00  0.00     0.181 C 
ATOM      7  C   UNL     1      21.353 -60.453   5.126  1.00  0.00     0.214 C 
BRANCH   3   8
ATOM      8  C   UNL     1      17.649 -59.832   5.816  1.00  0.00     0.073 C 
ATOM      9  O   UNL     1      16.683 -59.847   5.008  1.00  0.00    -0.547 OA
ATOM     10  O   UNL     1      17.805 -58.739   6.661  1.00  0.00    -0.547 OA
ENDBRANCH   3   8
BRANCH   4  11
ATOM     11  O   UNL     1      19.182 -60.539   8.185  1.00  0.00    -0.387 OA
ATOM     12  H   UNL     1      19.862 -60.761   8.874  1.00  0.00     0.211 HD
ENDBRANCH   4  11
BRANCH   6  13
ATOM     13  O   UNL     1      20.584 -58.725   6.607  1.00  0.00    -0.387 OA
ATOM     14  H   UNL     1      20.311 -58.531   7.542  1.00  0.00     0.211 HD
ENDBRANCH   6  13
BRANCH   7  15
ATOM     15  O   UNL     1      21.942 -61.728   5.135  1.00  0.00    -0.384 OA
ATOM     16  H   UNL     1      22.802 -61.646   5.623  1.00  0.00     0.211 HD
ENDBRANCH   7  15
ENDBRANCH   1   2
BRANCH   1  17
ATOM     17  C   UNL     1      20.267 -58.075   3.187  1.00  0.00     0.172 A 
ATOM     18  C   UNL     1      20.739 -58.250   1.861  1.00  0.00     0.201 A 
ATOM     19  C   UNL     1      20.350 -56.818   3.785  1.00  0.00     0.098 A 
ATOM     20  C   UNL     1      21.316 -57.151   1.169  1.00  0.00     0.176 A 
ATOM     21  C   UNL     1      20.886 -55.728   3.106  1.00  0.00     0.146 A 
ATOM     22  C   UNL     1      21.373 -55.879   1.791  1.00  0.00     0.111 A 
ATOM     23  O   UNL     1      20.933 -54.548   3.717  1.00  0.00    -0.456 OA
ATOM     24  C   UNL     1      21.902 -54.732   1.159  1.00  0.00     0.197 A 
ATOM     25  C   UNL     1      21.432 -53.451   3.154  1.00  0.00     0.138 A 
ATOM     26  C   UNL     1      21.928 -53.516   1.844  1.00  0.00     0.100 A 
ATOM     27  O   UNL     1      22.347 -54.774  -0.019  1.00  0.00    -0.289 OA
BRANCH  18  28
ATOM     28  O   UNL     1      20.614 -59.499   1.250  1.00  0.00    -0.502 OA
ATOM     29  H   UNL     1      21.383 -60.048   0.896  1.00  0.00     0.293 HD
ENDBRANCH  18  28
BRANCH  20  30
ATOM     30  O   UNL     1      21.845 -57.296  -0.118  1.00  0.00    -0.504 OA
ATOM     31  H   UNL     1      22.831 -57.328  -0.337  1.00  0.00     0.293 HD
ENDBRANCH  20  30
BRANCH  25  32
ATOM     32  C   UNL     1      21.432 -52.186   3.932  1.00  0.00     0.017 A 
ATOM     33  C   UNL     1      20.323 -51.315   3.930  1.00  0.00     0.012 A 
ATOM     34  C   UNL     1      22.577 -51.825   4.666  1.00  0.00     0.012 A 
ATOM     35  C   UNL     1      20.358 -50.126   4.665  1.00  0.00     0.001 A 
ATOM     36  C   UNL     1      22.604 -50.635   5.400  1.00  0.00     0.001 A 
ATOM     37  C   UNL     1      21.495 -49.788   5.401  1.00  0.00     0.000 A 
ENDBRANCH  25  32
ENDBRANCH   1  17
TORSDOF 9
ENDMDL
MODEL 7
REMARK VINA RESULT:    -7.469      3.421      6.887
REMARK INTER + INTRA:         -11.955
REMARK INTER:                 -10.195
REMARK INTRA:                  -1.760
REMARK UNBOUND:                -1.648
REMARK SMILES O=C([O-])[C@H]1O[C@@H](Oc2cc3oc(-c4ccccc4)cc(=O)c3c(O)c2O)[C@H](O)[C@@H](O)[C@H]1O
REMARK SMILES IDX 7 1 6 2 4 3 31 4 5 5 29 6 27 7 2 8 1 9 3 10 32 11 30 13
REMARK SMILES IDX 28 15 8 17 25 18 9 19 23 20 10 21 22 22 11 23 20 24 12 25
REMARK SMILES IDX 19 26 21 27 26 28 24 30 13 32 14 33 18 34 15 35 17 36 16 37
REMARK H PARENT 32 12 30 14 28 16 26 29 24 31
REMARK Flexibility Score: inf
ROOT
ATOM      1  O   UNL     1      19.969 -50.124   4.571  1.00  0.00    -0.458 OA
ENDROOT
BRANCH   1   2
ATOM      2  C   UNL     1      19.459 -48.875   4.097  1.00  0.00     0.339 C 
ATOM      3  C   UNL     1      20.675 -47.519   5.633  1.00  0.00     0.199 C 
ATOM      4  C   UNL     1      19.394 -47.208   6.454  1.00  0.00     0.180 C 
ATOM      5  O   UNL     1      20.397 -47.820   4.270  1.00  0.00    -0.328 OA
ATOM      6  C   UNL     1      18.298 -48.271   6.264  1.00  0.00     0.181 C 
ATOM      7  C   UNL     1      18.107 -48.563   4.770  1.00  0.00     0.214 C 
BRANCH   3   8
ATOM      8  C   UNL     1      21.631 -48.522   6.242  1.00  0.00     0.073 C 
ATOM      9  O   UNL     1      22.738 -48.738   5.681  1.00  0.00    -0.547 OA
ATOM     10  O   UNL     1      21.326 -49.203   7.415  1.00  0.00    -0.547 OA
ENDBRANCH   3   8
BRANCH   4  11
ATOM     11  O   UNL     1      19.683 -47.046   7.820  1.00  0.00    -0.387 OA
ATOM     12  H   UNL     1      20.593 -47.416   7.967  1.00  0.00     0.211 HD
ENDBRANCH   4  11
BRANCH   6  13
ATOM     13  O   UNL     1      18.614 -49.461   6.940  1.00  0.00    -0.387 OA
ATOM     14  H   UNL     1      18.450 -50.208   6.307  1.00  0.00     0.211 HD
ENDBRANCH   6  13
BRANCH   7  15
ATOM     15  O   UNL     1      17.511 -47.451   4.152  1.00  0.00    -0.384 OA
ATOM     16  H   UNL     1      16.575 -47.406   4.479  1.00  0.00     0.211 HD
ENDBRANCH   7  15
ENDBRANCH   1   2
BRANCH   1  17
ATOM     17  C   UNL     1      20.699 -51.088   3.848  1.00  0.00     0.172 A 
ATOM     18  C   UNL     1      21.819 -50.799   3.026  1.00  0.00     0.201 A 
ATOM     19  C   UNL     1      20.270 -52.408   3.985  1.00  0.00     0.098 A 
ATOM     20  C   UNL     1      22.471 -51.853   2.331  1.00  0.00     0.176 A 
ATOM     21  C   UNL     1      20.920 -53.451   3.332  1.00  0.00     0.146 A 
ATOM     22  C   UNL     1      22.028 -53.188   2.501  1.00  0.00     0.111 A 
ATOM     23  O   UNL     1      20.479 -54.693   3.505  1.00  0.00    -0.456 OA
ATOM     24  C   UNL     1      22.643 -54.293   1.870  1.00  0.00     0.197 A 
ATOM     25  C   UNL     1      21.028 -55.754   2.919  1.00  0.00     0.138 A 
ATOM     26  C   UNL     1      22.141 -55.577   2.083  1.00  0.00     0.100 A 
ATOM     27  O   UNL     1      23.646 -54.150   1.120  1.00  0.00    -0.289 OA
BRANCH  18  28
ATOM     28  O   UNL     1      22.272 -49.483   2.926  1.00  0.00    -0.502 OA
ATOM     29  H   UNL     1      22.271 -48.812   3.679  1.00  0.00     0.293 HD
ENDBRANCH  18  28
BRANCH  20  30
ATOM     30  O   UNL     1      23.542 -51.602   1.466  1.00  0.00    -0.504 OA
ATOM     31  H   UNL     1      23.642 -50.776   0.895  1.00  0.00     0.293 HD
ENDBRANCH  20  30
BRANCH  25  32
ATOM     32  C   UNL     1      20.451 -57.095   3.185  1.00  0.00     0.017 A 
ATOM     33  C   UNL     1      20.984 -58.261   2.598  1.00  0.00     0.012 A 
ATOM     34  C   UNL     1      19.323 -57.211   4.018  1.00  0.00     0.012 A 
ATOM     35  C   UNL     1      20.411 -59.510   2.860  1.00  0.00     0.001 A 
ATOM     36  C   UNL     1      18.756 -58.463   4.277  1.00  0.00     0.001 A 
ATOM     37  C   UNL     1      19.301 -59.611   3.701  1.00  0.00     0.000 A 
ENDBRANCH  25  32
ENDBRANCH   1  17
TORSDOF 9
ENDMDL
MODEL 8
REMARK VINA RESULT:    -7.153      4.331      8.264
REMARK INTER + INTRA:         -11.519
REMARK INTER:                  -9.716
REMARK INTRA:                  -1.803
REMARK UNBOUND:                -1.648
REMARK SMILES O=C([O-])[C@H]1O[C@@H](Oc2cc3oc(-c4ccccc4)cc(=O)c3c(O)c2O)[C@H](O)[C@@H](O)[C@H]1O
REMARK SMILES IDX 7 1 6 2 4 3 31 4 5 5 29 6 27 7 2 8 1 9 3 10 32 11 30 13
REMARK SMILES IDX 28 15 8 17 25 18 9 19 23 20 10 21 22 22 11 23 20 24 12 25
REMARK SMILES IDX 19 26 21 27 26 28 24 30 13 32 14 33 18 34 15 35 17 36 16 37
REMARK H PARENT 32 12 30 14 28 16 26 29 24 31
REMARK Flexibility Score: inf
ROOT
ATOM      1  O   UNL     1      23.203 -48.967   1.690  1.00  0.00    -0.458 OA
ENDROOT
BRANCH   1   2
ATOM      2  C   UNL     1      24.582 -49.346   1.650  1.00  0.00     0.339 C 
ATOM      3  C   UNL     1      25.357 -47.583   3.054  1.00  0.00     0.199 C 
ATOM      4  C   UNL     1      26.001 -46.839   1.852  1.00  0.00     0.180 C 
ATOM      5  O   UNL     1      25.264 -48.988   2.846  1.00  0.00    -0.328 OA
ATOM      6  C   UNL     1      25.363 -47.227   0.506  1.00  0.00     0.181 C 
ATOM      7  C   UNL     1      25.260 -48.754   0.399  1.00  0.00     0.214 C 
BRANCH   3   8
ATOM      8  C   UNL     1      24.058 -47.010   3.576  1.00  0.00     0.073 C 
ATOM      9  O   UNL     1      23.538 -47.505   4.611  1.00  0.00    -0.547 OA
ATOM     10  O   UNL     1      23.429 -45.938   2.952  1.00  0.00    -0.547 OA
ENDBRANCH   3   8
BRANCH   4  11
ATOM     11  O   UNL     1      25.959 -45.445   2.026  1.00  0.00    -0.387 OA
ATOM     12  H   UNL     1      26.491 -45.047   1.288  1.00  0.00     0.211 HD
ENDBRANCH   4  11
BRANCH   6  13
ATOM     13  O   UNL     1      24.087 -46.658   0.360  1.00  0.00    -0.387 OA
ATOM     14  H   UNL     1      24.012 -46.351  -0.581  1.00  0.00     0.211 HD
ENDBRANCH   6  13
BRANCH   7  15
ATOM     15  O   UNL     1      26.547 -49.297   0.251  1.00  0.00    -0.384 OA
ATOM     16  H   UNL     1      26.445 -50.150  -0.246  1.00  0.00     0.211 HD
ENDBRANCH   7  15
ENDBRANCH   1   2
BRANCH   1  17
ATOM     17  C   UNL     1      22.129 -49.682   2.255  1.00  0.00     0.172 A 
ATOM     18  C   UNL     1      21.006 -49.084   2.883  1.00  0.00     0.201 A 
ATOM     19  C   UNL     1      22.202 -51.071   2.159  1.00  0.00     0.098 A 
ATOM     20  C   UNL     1      19.985 -49.907   3.431  1.00  0.00     0.176 A 
ATOM     21  C   UNL     1      21.193 -51.885   2.665  1.00  0.00     0.146 A 
ATOM     22  C   UNL     1      20.073 -51.315   3.304  1.00  0.00     0.111 A 
ATOM     23  O   UNL     1      21.306 -53.204   2.538  1.00  0.00    -0.456 OA
ATOM     24  C   UNL     1      19.085 -52.199   3.793  1.00  0.00     0.197 A 
ATOM     25  C   UNL     1      20.399 -54.064   2.995  1.00  0.00     0.138 A 
ATOM     26  C   UNL     1      19.250 -53.575   3.635  1.00  0.00     0.100 A 
ATOM     27  O   UNL     1      18.046 -51.774   4.367  1.00  0.00    -0.289 OA
BRANCH  18  28
ATOM     28  O   UNL     1      20.915 -47.692   2.939  1.00  0.00    -0.502 OA
ATOM     29  H   UNL     1      21.373 -47.110   3.624  1.00  0.00     0.293 HD
ENDBRANCH  18  28
BRANCH  20  30
ATOM     30  O   UNL     1      18.891 -49.357   4.109  1.00  0.00    -0.504 OA
ATOM     31  H   UNL     1      18.058 -48.998   3.665  1.00  0.00     0.293 HD
ENDBRANCH  20  30
BRANCH  25  32
ATOM     32  C   UNL     1      20.629 -55.517   2.796  1.00  0.00     0.017 A 
ATOM     33  C   UNL     1      20.015 -56.484   3.619  1.00  0.00     0.012 A 
ATOM     34  C   UNL     1      21.506 -55.947   1.783  1.00  0.00     0.012 A 
ATOM     35  C   UNL     1      20.260 -57.846   3.412  1.00  0.00     0.001 A 
ATOM     36  C   UNL     1      21.745 -57.310   1.581  1.00  0.00     0.001 A 
ATOM     37  C   UNL     1      21.121 -58.258   2.394  1.00  0.00     0.000 A 
ENDBRANCH  25  32
ENDBRANCH   1  17
TORSDOF 9
ENDMDL
MODEL 9
REMARK VINA RESULT:    -7.141      3.474      7.171
REMARK INTER + INTRA:         -11.502
REMARK INTER:                  -9.817
REMARK INTRA:                  -1.685
REMARK UNBOUND:                -1.648
REMARK SMILES O=C([O-])[C@H]1O[C@@H](Oc2cc3oc(-c4ccccc4)cc(=O)c3c(O)c2O)[C@H](O)[C@@H](O)[C@H]1O
REMARK SMILES IDX 7 1 6 2 4 3 31 4 5 5 29 6 27 7 2 8 1 9 3 10 32 11 30 13
REMARK SMILES IDX 28 15 8 17 25 18 9 19 23 20 10 21 22 22 11 23 20 24 12 25
REMARK SMILES IDX 19 26 21 27 26 28 24 30 13 32 14 33 18 34 15 35 17 36 16 37
REMARK H PARENT 32 12 30 14 28 16 26 29 24 31
REMARK Flexibility Score: inf
ROOT
ATOM      1  O   UNL     1      21.057 -50.290   4.902  1.00  0.00    -0.458 OA
ENDROOT
BRANCH   1   2
ATOM      2  C   UNL     1      22.188 -49.945   5.708  1.00  0.00     0.339 C 
ATOM      3  C   UNL     1      21.007 -48.470   7.160  1.00  0.00     0.199 C 
ATOM      4  C   UNL     1      21.666 -47.221   6.512  1.00  0.00     0.180 C 
ATOM      5  O   UNL     1      21.811 -49.639   7.045  1.00  0.00    -0.328 OA
ATOM      6  C   UNL     1      22.168 -47.492   5.083  1.00  0.00     0.181 C 
ATOM      7  C   UNL     1      22.977 -48.794   5.052  1.00  0.00     0.214 C 
BRANCH   3   8
ATOM      8  C   UNL     1      19.570 -48.741   6.774  1.00  0.00     0.073 C 
ATOM      9  O   UNL     1      18.941 -49.666   7.353  1.00  0.00    -0.547 OA
ATOM     10  O   UNL     1      18.917 -47.985   5.807  1.00  0.00    -0.547 OA
ENDBRANCH   3   8
BRANCH   4  11
ATOM     11  O   UNL     1      20.798 -46.116   6.522  1.00  0.00    -0.387 OA
ATOM     12  H   UNL     1      20.287 -46.159   7.373  1.00  0.00     0.211 HD
ENDBRANCH   4  11
BRANCH   6  13
ATOM     13  O   UNL     1      21.101 -47.579   4.173  1.00  0.00    -0.387 OA
ATOM     14  H   UNL     1      21.440 -47.257   3.297  1.00  0.00     0.211 HD
ENDBRANCH   6  13
BRANCH   7  15
ATOM     15  O   UNL     1      24.193 -48.603   5.730  1.00  0.00    -0.384 OA
ATOM     16  H   UNL     1      24.827 -49.283   5.383  1.00  0.00     0.211 HD
ENDBRANCH   7  15
ENDBRANCH   1   2
BRANCH   1  17
ATOM     17  C   UNL     1      21.018 -51.171   3.803  1.00  0.00     0.172 A 
ATOM     18  C   UNL     1      21.080 -50.766   2.445  1.00  0.00     0.201 A 
ATOM     19  C   UNL     1      20.925 -52.528   4.112  1.00  0.00     0.098 A 
ATOM     20  C   UNL     1      21.019 -51.745   1.416  1.00  0.00     0.176 A 
ATOM     21  C   UNL     1      20.894 -53.496   3.113  1.00  0.00     0.146 A 
ATOM     22  C   UNL     1      20.943 -53.118   1.756  1.00  0.00     0.111 A 
ATOM     23  O   UNL     1      20.816 -54.777   3.460  1.00  0.00    -0.456 OA
ATOM     24  C   UNL     1      20.910 -54.152   0.792  1.00  0.00     0.197 A 
ATOM     25  C   UNL     1      20.774 -55.774   2.580  1.00  0.00     0.138 A 
ATOM     26  C   UNL     1      20.828 -55.481   1.209  1.00  0.00     0.100 A 
ATOM     27  O   UNL     1      20.962 -53.905  -0.442  1.00  0.00    -0.289 OA
BRANCH  18  28
ATOM     28  O   UNL     1      21.218 -49.411   2.141  1.00  0.00    -0.502 OA
ATOM     29  H   UNL     1      21.781 -49.041   1.390  1.00  0.00     0.293 HD
ENDBRANCH  18  28
BRANCH  20  30
ATOM     30  O   UNL     1      21.020 -51.383   0.065  1.00  0.00    -0.504 OA
ATOM     31  H   UNL     1      21.135 -50.441  -0.280  1.00  0.00     0.293 HD
ENDBRANCH  20  30
BRANCH  25  32
ATOM     32  C   UNL     1      20.687 -57.167   3.083  1.00  0.00     0.017 A 
ATOM     33  C   UNL     1      21.373 -58.227   2.453  1.00  0.00     0.012 A 
ATOM     34  C   UNL     1      19.876 -57.452   4.197  1.00  0.00     0.012 A 
ATOM     35  C   UNL     1      21.263 -59.531   2.945  1.00  0.00     0.001 A 
ATOM     36  C   UNL     1      19.772 -58.759   4.684  1.00  0.00     0.001 A 
ATOM     37  C   UNL     1      20.467 -59.797   4.060  1.00  0.00     0.000 A 
ENDBRANCH  25  32
ENDBRANCH   1  17
TORSDOF 9
ENDMDL
