MODEL 1
REMARK VINA RESULT:    -1.150      0.000      0.000
REMARK INTER + INTRA:          -3.015
REMARK INTER:                  -2.125
REMARK INTRA:                  -0.890
REMARK UNBOUND:                -0.890
REMARK SMILES CCCCCCCCCCCCCCCCO
REMARK SMILES IDX 9 1 8 2 7 3 6 4 5 5 4 6 3 7 2 8 1 9 10 10 11 11 12 12 13 13
REMARK SMILES IDX 14 14 15 15 16 16 17 17
REMARK H PARENT 17 18
REMARK Flexibility Score: inf
ROOT
ATOM      1  C   UNL     1     -30.152 -21.614  29.380  1.00  0.00     0.000 C 
ENDROOT
BRANCH   1   2
ATOM      2  C   UNL     1     -31.329 -20.676  29.690  1.00  0.00    -0.000 C 
BRANCH   2   3
ATOM      3  C   UNL     1     -30.991 -19.197  29.430  1.00  0.00    -0.000 C 
BRANCH   3   4
ATOM      4  C   UNL     1     -31.866 -18.239  30.254  1.00  0.00    -0.000 C 
BRANCH   4   5
ATOM      5  C   UNL     1     -32.357 -17.035  29.434  1.00  0.00    -0.000 C 
BRANCH   5   6
ATOM      6  C   UNL     1     -32.188 -17.236  27.916  1.00  0.00    -0.000 C 
BRANCH   6   7
ATOM      7  C   UNL     1     -33.463 -17.665  27.164  1.00  0.00    -0.000 C 
BRANCH   7   8
ATOM      8  C   UNL     1     -33.508 -19.146  26.751  1.00  0.00    -0.003 C 
ATOM      9  C   UNL     1     -33.967 -20.066  27.883  1.00  0.00     0.004 C 
ENDBRANCH   7   8
ENDBRANCH   6   7
ENDBRANCH   5   6
ENDBRANCH   4   5
ENDBRANCH   3   4
ENDBRANCH   2   3
ENDBRANCH   1   2
BRANCH   1  10
ATOM     10  C   UNL     1     -30.496 -22.667  28.316  1.00  0.00     0.000 C 
BRANCH  10  11
ATOM     11  C   UNL     1     -32.013 -22.759  28.105  1.00  0.00     0.000 C 
BRANCH  11  12
ATOM     12  C   UNL     1     -32.345 -23.603  26.866  1.00  0.00     0.000 C 
BRANCH  12  13
ATOM     13  C   UNL     1     -33.054 -22.792  25.769  1.00  0.00     0.000 C 
BRANCH  13  14
ATOM     14  C   UNL     1     -34.581 -22.783  25.932  1.00  0.00     0.002 C 
BRANCH  14  15
ATOM     15  C   UNL     1     -35.006 -23.608  27.153  1.00  0.00     0.028 C 
BRANCH  15  16
ATOM     16  C   UNL     1     -36.236 -22.996  27.831  1.00  0.00     0.156 C 
BRANCH  16  17
ATOM     17  O   UNL     1     -37.397 -23.332  27.123  1.00  0.00    -0.396 OA
ATOM     18  H   UNL     1     -37.977 -22.526  27.129  1.00  0.00     0.210 HD
ENDBRANCH  16  17
ENDBRANCH  15  16
ENDBRANCH  14  15
ENDBRANCH  13  14
ENDBRANCH  12  13
ENDBRANCH  11  12
ENDBRANCH  10  11
ENDBRANCH   1  10
TORSDOF 15
ENDMDL
MODEL 2
REMARK VINA RESULT:    -1.031      0.715      2.207
REMARK INTER + INTRA:          -2.795
REMARK INTER:                  -1.427
REMARK INTRA:                  -1.369
REMARK UNBOUND:                -0.890
REMARK SMILES CCCCCCCCCCCCCCCCO
REMARK SMILES IDX 9 1 8 2 7 3 6 4 5 5 4 6 3 7 2 8 1 9 10 10 11 11 12 12 13 13
REMARK SMILES IDX 14 14 15 15 16 16 17 17
REMARK H PARENT 17 18
REMARK Flexibility Score: inf
ROOT
ATOM      1  C   UNL     1     -31.412 -20.732  29.183  1.00  0.00     0.000 C 
ENDROOT
BRANCH   1   2
ATOM      2  C   UNL     1     -32.873 -20.722  29.663  1.00  0.00    -0.000 C 
BRANCH   2   3
ATOM      3  C   UNL     1     -33.855 -20.299  28.556  1.00  0.00    -0.000 C 
BRANCH   3   4
ATOM      4  C   UNL     1     -33.142 -19.699  27.334  1.00  0.00    -0.000 C 
BRANCH   4   5
ATOM      5  C   UNL     1     -33.815 -18.410  26.833  1.00  0.00    -0.000 C 
BRANCH   5   6
ATOM      6  C   UNL     1     -33.146 -17.135  27.378  1.00  0.00    -0.000 C 
BRANCH   6   7
ATOM      7  C   UNL     1     -31.924 -17.372  28.287  1.00  0.00    -0.000 C 
BRANCH   7   8
ATOM      8  C   UNL     1     -32.203 -17.257  29.796  1.00  0.00    -0.003 C 
ATOM      9  C   UNL     1     -31.044 -17.760  30.656  1.00  0.00     0.004 C 
ENDBRANCH   7   8
ENDBRANCH   6   7
ENDBRANCH   5   6
ENDBRANCH   4   5
ENDBRANCH   3   4
ENDBRANCH   2   3
ENDBRANCH   1   2
BRANCH   1  10
ATOM     10  C   UNL     1     -30.783 -22.133  29.226  1.00  0.00     0.000 C 
BRANCH  10  11
ATOM     11  C   UNL     1     -30.818 -22.792  27.841  1.00  0.00     0.000 C 
BRANCH  11  12
ATOM     12  C   UNL     1     -32.223 -23.325  27.521  1.00  0.00     0.000 C 
BRANCH  12  13
ATOM     13  C   UNL     1     -32.730 -22.867  26.144  1.00  0.00     0.000 C 
BRANCH  13  14
ATOM     14  C   UNL     1     -34.263 -22.817  26.064  1.00  0.00     0.002 C 
BRANCH  14  15
ATOM     15  C   UNL     1     -34.897 -23.522  27.268  1.00  0.00     0.028 C 
BRANCH  15  16
ATOM     16  C   UNL     1     -36.148 -22.780  27.748  1.00  0.00     0.156 C 
BRANCH  16  17
ATOM     17  O   UNL     1     -37.299 -23.379  27.220  1.00  0.00    -0.396 OA
ATOM     18  H   UNL     1     -37.087 -23.625  26.282  1.00  0.00     0.210 HD
ENDBRANCH  16  17
ENDBRANCH  15  16
ENDBRANCH  14  15
ENDBRANCH  13  14
ENDBRANCH  12  13
ENDBRANCH  11  12
ENDBRANCH  10  11
ENDBRANCH   1  10
TORSDOF 15
ENDMDL
MODEL 3
REMARK VINA RESULT:    -0.963      1.524      5.248
REMARK INTER + INTRA:          -2.669
REMARK INTER:                  -1.522
REMARK INTRA:                  -1.147
REMARK UNBOUND:                -0.890
REMARK SMILES CCCCCCCCCCCCCCCCO
REMARK SMILES IDX 9 1 8 2 7 3 6 4 5 5 4 6 3 7 2 8 1 9 10 10 11 11 12 12 13 13
REMARK SMILES IDX 14 14 15 15 16 16 17 17
REMARK H PARENT 17 18
REMARK Flexibility Score: inf
ROOT
ATOM      1  C   UNL     1     -32.183 -21.632  29.411  1.00  0.00     0.000 C 
ENDROOT
BRANCH   1   2
ATOM      2  C   UNL     1     -30.705 -21.920  29.102  1.00  0.00    -0.000 C 
BRANCH   2   3
ATOM      3  C   UNL     1     -30.521 -22.784  27.842  1.00  0.00    -0.000 C 
BRANCH   3   4
ATOM      4  C   UNL     1     -31.834 -23.438  27.380  1.00  0.00    -0.000 C 
BRANCH   4   5
ATOM      5  C   UNL     1     -32.364 -22.834  26.069  1.00  0.00    -0.000 C 
BRANCH   5   6
ATOM      6  C   UNL     1     -33.901 -22.733  26.036  1.00  0.00    -0.000 C 
BRANCH   6   7
ATOM      7  C   UNL     1     -34.636 -23.544  27.120  1.00  0.00    -0.000 C 
BRANCH   7   8
ATOM      8  C   UNL     1     -35.789 -22.802  27.819  1.00  0.00    -0.003 C 
ATOM      9  C   UNL     1     -37.167 -23.326  27.412  1.00  0.00     0.004 C 
ENDBRANCH   7   8
ENDBRANCH   6   7
ENDBRANCH   5   6
ENDBRANCH   4   5
ENDBRANCH   3   4
ENDBRANCH   2   3
ENDBRANCH   1   2
BRANCH   1  10
ATOM     10  C   UNL     1     -32.451 -20.146  29.693  1.00  0.00     0.000 C 
BRANCH  10  11
ATOM     11  C   UNL     1     -31.162 -19.324  29.576  1.00  0.00     0.000 C 
BRANCH  11  12
ATOM     12  C   UNL     1     -31.348 -17.921  30.173  1.00  0.00     0.000 C 
BRANCH  12  13
ATOM     13  C   UNL     1     -32.428 -17.105  29.445  1.00  0.00     0.000 C 
BRANCH  13  14
ATOM     14  C   UNL     1     -32.273 -17.147  27.918  1.00  0.00     0.002 C 
BRANCH  14  15
ATOM     15  C   UNL     1     -33.601 -17.508  27.241  1.00  0.00     0.028 C 
BRANCH  15  16
ATOM     16  C   UNL     1     -33.633 -18.986  26.842  1.00  0.00     0.156 C 
BRANCH  16  17
ATOM     17  O   UNL     1     -34.082 -19.122  25.522  1.00  0.00    -0.396 OA
ATOM     18  H   UNL     1     -34.239 -20.091  25.373  1.00  0.00     0.210 HD
ENDBRANCH  16  17
ENDBRANCH  15  16
ENDBRANCH  14  15
ENDBRANCH  13  14
ENDBRANCH  12  13
ENDBRANCH  11  12
ENDBRANCH  10  11
ENDBRANCH   1  10
TORSDOF 15
ENDMDL
MODEL 4
REMARK VINA RESULT:    -0.475      0.832      3.322
REMARK INTER + INTRA:          -1.768
REMARK INTER:                  -1.303
REMARK INTRA:                  -0.464
REMARK UNBOUND:                -0.890
REMARK SMILES CCCCCCCCCCCCCCCCO
REMARK SMILES IDX 9 1 8 2 7 3 6 4 5 5 4 6 3 7 2 8 1 9 10 10 11 11 12 12 13 13
REMARK SMILES IDX 14 14 15 15 16 16 17 17
REMARK H PARENT 17 18
REMARK Flexibility Score: inf
ROOT
ATOM      1  C   UNL     1     -33.882 -18.317  27.358  1.00  0.00     0.000 C 
ENDROOT
BRANCH   1   2
ATOM      2  C   UNL     1     -33.029 -17.048  27.199  1.00  0.00    -0.000 C 
BRANCH   2   3
ATOM      3  C   UNL     1     -31.835 -17.012  28.170  1.00  0.00    -0.000 C 
BRANCH   3   4
ATOM      4  C   UNL     1     -32.185 -17.584  29.553  1.00  0.00    -0.000 C 
BRANCH   4   5
ATOM      5  C   UNL     1     -31.481 -18.924  29.832  1.00  0.00    -0.000 C 
BRANCH   5   6
ATOM      6  C   UNL     1     -32.452 -20.119  29.838  1.00  0.00    -0.000 C 
BRANCH   6   7
ATOM      7  C   UNL     1     -31.811 -21.487  29.529  1.00  0.00    -0.000 C 
BRANCH   7   8
ATOM      8  C   UNL     1     -30.275 -21.481  29.442  1.00  0.00    -0.003 C 
ATOM      9  C   UNL     1     -29.722 -22.633  28.604  1.00  0.00     0.004 C 
ENDBRANCH   7   8
ENDBRANCH   6   7
ENDBRANCH   5   6
ENDBRANCH   4   5
ENDBRANCH   3   4
ENDBRANCH   2   3
ENDBRANCH   1   2
BRANCH   1  10
ATOM     10  C   UNL     1     -33.521 -19.407  26.338  1.00  0.00     0.000 C 
BRANCH  10  11
ATOM     11  C   UNL     1     -33.492 -20.790  27.000  1.00  0.00     0.000 C 
BRANCH  11  12
ATOM     12  C   UNL     1     -32.905 -21.843  26.047  1.00  0.00     0.000 C 
BRANCH  12  13
ATOM     13  C   UNL     1     -32.701 -23.207  26.726  1.00  0.00     0.000 C 
BRANCH  13  14
ATOM     14  C   UNL     1     -33.879 -23.601  27.630  1.00  0.00     0.002 C 
BRANCH  14  15
ATOM     15  C   UNL     1     -35.208 -23.501  26.872  1.00  0.00     0.028 C 
BRANCH  15  16
ATOM     16  C   UNL     1     -36.375 -23.249  27.832  1.00  0.00     0.156 C 
BRANCH  16  17
ATOM     17  O   UNL     1     -37.585 -23.220  27.127  1.00  0.00    -0.396 OA
ATOM     18  H   UNL     1     -38.049 -22.384  27.395  1.00  0.00     0.210 HD
ENDBRANCH  16  17
ENDBRANCH  15  16
ENDBRANCH  14  15
ENDBRANCH  13  14
ENDBRANCH  12  13
ENDBRANCH  11  12
ENDBRANCH  10  11
ENDBRANCH   1  10
TORSDOF 15
ENDMDL
MODEL 5
REMARK VINA RESULT:     0.191      1.666      5.469
REMARK INTER + INTRA:          -0.536
REMARK INTER:                  -1.102
REMARK INTRA:                   0.566
REMARK UNBOUND:                -0.890
REMARK SMILES CCCCCCCCCCCCCCCCO
REMARK SMILES IDX 9 1 8 2 7 3 6 4 5 5 4 6 3 7 2 8 1 9 10 10 11 11 12 12 13 13
REMARK SMILES IDX 14 14 15 15 16 16 17 17
REMARK H PARENT 17 18
REMARK Flexibility Score: inf
ROOT
ATOM      1  C   UNL     1     -33.760 -20.880  28.631  1.00  0.00     0.000 C 
ENDROOT
BRANCH   1   2
ATOM      2  C   UNL     1     -34.819 -21.911  29.054  1.00  0.00    -0.000 C 
BRANCH   2   3
ATOM      3  C   UNL     1     -35.492 -22.596  27.851  1.00  0.00    -0.000 C 
BRANCH   3   4
ATOM      4  C   UNL     1     -34.533 -23.529  27.092  1.00  0.00    -0.000 C 
BRANCH   4   5
ATOM      5  C   UNL     1     -33.808 -22.817  25.938  1.00  0.00    -0.000 C 
BRANCH   5   6
ATOM      6  C   UNL     1     -32.286 -22.728  26.153  1.00  0.00    -0.000 C 
BRANCH   6   7
ATOM      7  C   UNL     1     -31.793 -23.154  27.550  1.00  0.00    -0.000 C 
BRANCH   7   8
ATOM      8  C   UNL     1     -30.341 -22.765  27.874  1.00  0.00    -0.003 C 
ATOM      9  C   UNL     1     -30.177 -22.196  29.284  1.00  0.00     0.004 C 
ENDBRANCH   7   8
ENDBRANCH   6   7
ENDBRANCH   5   6
ENDBRANCH   4   5
ENDBRANCH   3   4
ENDBRANCH   2   3
ENDBRANCH   1   2
BRANCH   1  10
ATOM     10  C   UNL     1     -33.155 -20.126  29.824  1.00  0.00     0.000 C 
BRANCH  10  11
ATOM     11  C   UNL     1     -31.635 -19.986  29.672  1.00  0.00     0.000 C 
BRANCH  11  12
ATOM     12  C   UNL     1     -31.205 -18.515  29.783  1.00  0.00     0.000 C 
BRANCH  12  13
ATOM     13  C   UNL     1     -32.331 -17.538  29.407  1.00  0.00     0.000 C 
BRANCH  13  14
ATOM     14  C   UNL     1     -32.295 -17.137  27.925  1.00  0.00     0.002 C 
BRANCH  14  15
ATOM     15  C   UNL     1     -33.578 -17.576  27.207  1.00  0.00     0.028 C 
BRANCH  15  16
ATOM     16  C   UNL     1     -33.398 -18.943  26.541  1.00  0.00     0.156 C 
BRANCH  16  17
ATOM     17  O   UNL     1     -34.129 -19.000  25.347  1.00  0.00    -0.396 OA
ATOM     18  H   UNL     1     -33.946 -18.153  24.861  1.00  0.00     0.210 HD
ENDBRANCH  16  17
ENDBRANCH  15  16
ENDBRANCH  14  15
ENDBRANCH  13  14
ENDBRANCH  12  13
ENDBRANCH  11  12
ENDBRANCH  10  11
ENDBRANCH   1  10
TORSDOF 15
ENDMDL
MODEL 6
REMARK VINA RESULT:     0.530      2.227      5.535
REMARK INTER + INTRA:           0.090
REMARK INTER:                   1.182
REMARK INTRA:                  -1.092
REMARK UNBOUND:                -0.890
REMARK SMILES CCCCCCCCCCCCCCCCO
REMARK SMILES IDX 9 1 8 2 7 3 6 4 5 5 4 6 3 7 2 8 1 9 10 10 11 11 12 12 13 13
REMARK SMILES IDX 14 14 15 15 16 16 17 17
REMARK H PARENT 17 18
REMARK Flexibility Score: inf
ROOT
ATOM      1  C   UNL     1     -33.115 -20.971  29.386  1.00  0.00     0.000 C 
ENDROOT
BRANCH   1   2
ATOM      2  C   UNL     1     -31.611 -20.923  29.070  1.00  0.00    -0.000 C 
BRANCH   2   3
ATOM      3  C   UNL     1     -30.979 -22.324  28.987  1.00  0.00    -0.000 C 
BRANCH   3   4
ATOM      4  C   UNL     1     -30.998 -22.894  27.560  1.00  0.00    -0.000 C 
BRANCH   4   5
ATOM      5  C   UNL     1     -32.306 -23.638  27.240  1.00  0.00    -0.000 C 
BRANCH   5   6
ATOM      6  C   UNL     1     -33.005 -23.102  25.976  1.00  0.00    -0.000 C 
BRANCH   6   7
ATOM      7  C   UNL     1     -34.525 -22.882  26.110  1.00  0.00    -0.000 C 
BRANCH   7   8
ATOM      8  C   UNL     1     -35.139 -23.370  27.433  1.00  0.00    -0.003 C 
ATOM      9  C   UNL     1     -36.661 -23.231  27.471  1.00  0.00     0.004 C 
ENDBRANCH   7   8
ENDBRANCH   6   7
ENDBRANCH   5   6
ENDBRANCH   4   5
ENDBRANCH   3   4
ENDBRANCH   2   3
ENDBRANCH   1   2
BRANCH   1  10
ATOM     10  C   UNL     1     -33.952 -20.120  28.420  1.00  0.00     0.000 C 
BRANCH  10  11
ATOM     11  C   UNL     1     -33.276 -20.024  27.046  1.00  0.00     0.000 C 
BRANCH  11  12
ATOM     12  C   UNL     1     -33.133 -18.559  26.605  1.00  0.00     0.000 C 
BRANCH  12  13
ATOM     13  C   UNL     1     -33.592 -17.567  27.686  1.00  0.00     0.000 C 
BRANCH  13  14
ATOM     14  C   UNL     1     -32.433 -16.734  28.255  1.00  0.00     0.002 C 
BRANCH  14  15
ATOM     15  C   UNL     1     -31.105 -17.489  28.135  1.00  0.00     0.028 C 
BRANCH  15  16
ATOM     16  C   UNL     1     -30.700 -18.111  29.475  1.00  0.00     0.156 C 
BRANCH  16  17
ATOM     17  O   UNL     1     -31.703 -17.899  30.430  1.00  0.00    -0.396 OA
ATOM     18  H   UNL     1     -31.250 -17.566  31.249  1.00  0.00     0.210 HD
ENDBRANCH  16  17
ENDBRANCH  15  16
ENDBRANCH  14  15
ENDBRANCH  13  14
ENDBRANCH  12  13
ENDBRANCH  11  12
ENDBRANCH  10  11
ENDBRANCH   1  10
TORSDOF 15
ENDMDL
MODEL 7
REMARK VINA RESULT:     0.588      2.006      5.614
REMARK INTER + INTRA:           0.197
REMARK INTER:                   0.868
REMARK INTRA:                  -0.671
REMARK UNBOUND:                -0.890
REMARK SMILES CCCCCCCCCCCCCCCCO
REMARK SMILES IDX 9 1 8 2 7 3 6 4 5 5 4 6 3 7 2 8 1 9 10 10 11 11 12 12 13 13
REMARK SMILES IDX 14 14 15 15 16 16 17 17
REMARK H PARENT 17 18
REMARK Flexibility Score: inf
ROOT
ATOM      1  C   UNL     1     -33.819 -18.006  27.223  1.00  0.00     0.000 C 
ENDROOT
BRANCH   1   2
ATOM      2  C   UNL     1     -33.185 -19.000  26.236  1.00  0.00    -0.000 C 
BRANCH   2   3
ATOM      3  C   UNL     1     -33.574 -20.459  26.534  1.00  0.00    -0.000 C 
BRANCH   3   4
ATOM      4  C   UNL     1     -32.730 -21.468  25.739  1.00  0.00    -0.000 C 
BRANCH   4   5
ATOM      5  C   UNL     1     -33.164 -22.923  25.983  1.00  0.00    -0.000 C 
BRANCH   5   6
ATOM      6  C   UNL     1     -33.293 -23.266  27.479  1.00  0.00    -0.000 C 
BRANCH   6   7
ATOM      7  C   UNL     1     -34.727 -23.546  27.968  1.00  0.00    -0.000 C 
BRANCH   7   8
ATOM      8  C   UNL     1     -35.836 -23.220  26.952  1.00  0.00    -0.003 C 
ATOM      9  C   UNL     1     -37.233 -23.225  27.573  1.00  0.00     0.004 C 
ENDBRANCH   7   8
ENDBRANCH   6   7
ENDBRANCH   5   6
ENDBRANCH   4   5
ENDBRANCH   3   4
ENDBRANCH   2   3
ENDBRANCH   1   2
BRANCH   1  10
ATOM     10  C   UNL     1     -32.781 -17.092  27.892  1.00  0.00     0.000 C 
BRANCH  10  11
ATOM     11  C   UNL     1     -31.554 -17.894  28.344  1.00  0.00     0.000 C 
BRANCH  11  12
ATOM     12  C   UNL     1     -31.763 -18.471  29.753  1.00  0.00     0.000 C 
BRANCH  12  13
ATOM     13  C   UNL     1     -32.693 -19.695  29.761  1.00  0.00     0.000 C 
BRANCH  13  14
ATOM     14  C   UNL     1     -31.965 -20.995  29.389  1.00  0.00     0.002 C 
BRANCH  14  15
ATOM     15  C   UNL     1     -30.473 -20.905  29.734  1.00  0.00     0.028 C 
BRANCH  15  16
ATOM     16  C   UNL     1     -29.733 -22.181  29.321  1.00  0.00     0.156 C 
BRANCH  16  17
ATOM     17  O   UNL     1     -30.378 -22.786  28.236  1.00  0.00    -0.396 OA
ATOM     18  H   UNL     1     -29.738 -22.766  27.477  1.00  0.00     0.210 HD
ENDBRANCH  16  17
ENDBRANCH  15  16
ENDBRANCH  14  15
ENDBRANCH  13  14
ENDBRANCH  12  13
ENDBRANCH  11  12
ENDBRANCH  10  11
ENDBRANCH   1  10
TORSDOF 15
ENDMDL
MODEL 8
REMARK VINA RESULT:     0.686      2.191      3.941
REMARK INTER + INTRA:           0.379
REMARK INTER:                   1.113
REMARK INTRA:                  -0.735
REMARK UNBOUND:                -0.890
REMARK SMILES CCCCCCCCCCCCCCCCO
REMARK SMILES IDX 9 1 8 2 7 3 6 4 5 5 4 6 3 7 2 8 1 9 10 10 11 11 12 12 13 13
REMARK SMILES IDX 14 14 15 15 16 16 17 17
REMARK H PARENT 17 18
REMARK Flexibility Score: inf
ROOT
ATOM      1  C   UNL     1     -34.475 -21.527  29.043  1.00  0.00     0.000 C 
ENDROOT
BRANCH   1   2
ATOM      2  C   UNL     1     -33.573 -20.401  28.512  1.00  0.00    -0.000 C 
BRANCH   2   3
ATOM      3  C   UNL     1     -34.028 -19.875  27.139  1.00  0.00    -0.000 C 
BRANCH   3   4
ATOM      4  C   UNL     1     -33.225 -18.646  26.684  1.00  0.00    -0.000 C 
BRANCH   4   5
ATOM      5  C   UNL     1     -33.541 -17.393  27.519  1.00  0.00    -0.000 C 
BRANCH   5   6
ATOM      6  C   UNL     1     -32.276 -16.692  28.048  1.00  0.00    -0.000 C 
BRANCH   6   7
ATOM      7  C   UNL     1     -31.023 -17.585  28.147  1.00  0.00    -0.000 C 
BRANCH   7   8
ATOM      8  C   UNL     1     -30.962 -18.483  29.395  1.00  0.00    -0.003 C 
ATOM      9  C   UNL     1     -31.905 -18.024  30.506  1.00  0.00     0.004 C 
ENDBRANCH   7   8
ENDBRANCH   6   7
ENDBRANCH   5   6
ENDBRANCH   4   5
ENDBRANCH   3   4
ENDBRANCH   2   3
ENDBRANCH   1   2
BRANCH   1  10
ATOM     10  C   UNL     1     -35.351 -22.152  27.947  1.00  0.00     0.000 C 
BRANCH  10  11
ATOM     11  C   UNL     1     -34.643 -23.345  27.292  1.00  0.00     0.000 C 
BRANCH  11  12
ATOM     12  C   UNL     1     -33.928 -22.919  26.001  1.00  0.00     0.000 C 
BRANCH  12  13
ATOM     13  C   UNL     1     -32.398 -23.017  26.111  1.00  0.00     0.000 C 
BRANCH  13  14
ATOM     14  C   UNL     1     -31.930 -23.407  27.521  1.00  0.00     0.002 C 
BRANCH  14  15
ATOM     15  C   UNL     1     -30.692 -22.600  27.929  1.00  0.00     0.028 C 
BRANCH  15  16
ATOM     16  C   UNL     1     -30.914 -21.887  29.267  1.00  0.00     0.156 C 
BRANCH  16  17
ATOM     17  O   UNL     1     -29.726 -21.870  30.010  1.00  0.00    -0.396 OA
ATOM     18  H   UNL     1     -29.427 -20.924  30.046  1.00  0.00     0.210 HD
ENDBRANCH  16  17
ENDBRANCH  15  16
ENDBRANCH  14  15
ENDBRANCH  13  14
ENDBRANCH  12  13
ENDBRANCH  11  12
ENDBRANCH  10  11
ENDBRANCH   1  10
TORSDOF 15
ENDMDL
MODEL 9
REMARK VINA RESULT:     0.734      2.293      3.575
REMARK INTER + INTRA:           0.466
REMARK INTER:                   0.613
REMARK INTRA:                  -0.147
REMARK UNBOUND:                -0.890
REMARK SMILES CCCCCCCCCCCCCCCCO
REMARK SMILES IDX 9 1 8 2 7 3 6 4 5 5 4 6 3 7 2 8 1 9 10 10 11 11 12 12 13 13
REMARK SMILES IDX 14 14 15 15 16 16 17 17
REMARK H PARENT 17 18
REMARK Flexibility Score: inf
ROOT
ATOM      1  C   UNL     1     -34.373 -21.175  28.216  1.00  0.00     0.000 C 
ENDROOT
BRANCH   1   2
ATOM      2  C   UNL     1     -33.903 -20.849  29.643  1.00  0.00    -0.000 C 
BRANCH   2   3
ATOM      3  C   UNL     1     -32.455 -20.329  29.684  1.00  0.00    -0.000 C 
BRANCH   3   4
ATOM      4  C   UNL     1     -32.379 -18.824  29.990  1.00  0.00    -0.000 C 
BRANCH   4   5
ATOM      5  C   UNL     1     -31.178 -18.145  29.309  1.00  0.00    -0.000 C 
BRANCH   5   6
ATOM      6  C   UNL     1     -31.537 -17.521  27.948  1.00  0.00    -0.000 C 
BRANCH   6   7
ATOM      7  C   UNL     1     -32.990 -17.023  27.816  1.00  0.00    -0.000 C 
BRANCH   7   8
ATOM      8  C   UNL     1     -33.918 -17.934  26.995  1.00  0.00    -0.003 C 
ATOM      9  C   UNL     1     -33.164 -19.031  26.243  1.00  0.00     0.004 C 
ENDBRANCH   7   8
ENDBRANCH   6   7
ENDBRANCH   5   6
ENDBRANCH   4   5
ENDBRANCH   3   4
ENDBRANCH   2   3
ENDBRANCH   1   2
BRANCH   1  10
ATOM     10  C   UNL     1     -35.232 -22.447  28.150  1.00  0.00     0.000 C 
BRANCH  10  11
ATOM     11  C   UNL     1     -34.630 -23.465  27.173  1.00  0.00     0.000 C 
BRANCH  11  12
ATOM     12  C   UNL     1     -33.935 -22.758  26.000  1.00  0.00     0.000 C 
BRANCH  12  13
ATOM     13  C   UNL     1     -32.405 -22.733  26.146  1.00  0.00     0.000 C 
BRANCH  13  14
ATOM     14  C   UNL     1     -31.928 -23.322  27.483  1.00  0.00     0.002 C 
BRANCH  14  15
ATOM     15  C   UNL     1     -30.523 -22.817  27.833  1.00  0.00     0.028 C 
BRANCH  15  16
ATOM     16  C   UNL     1     -30.513 -22.109  29.192  1.00  0.00     0.156 C 
BRANCH  16  17
ATOM     17  O   UNL     1     -29.220 -22.110  29.729  1.00  0.00    -0.396 OA
ATOM     18  H   UNL     1     -29.314 -22.318  30.696  1.00  0.00     0.210 HD
ENDBRANCH  16  17
ENDBRANCH  15  16
ENDBRANCH  14  15
ENDBRANCH  13  14
ENDBRANCH  12  13
ENDBRANCH  11  12
ENDBRANCH  10  11
ENDBRANCH   1  10
TORSDOF 15
ENDMDL
