MODEL 1
REMARK VINA RESULT:    -4.478      0.000      0.000
REMARK INTER + INTRA:          -5.778
REMARK INTER:                  -5.525
REMARK INTRA:                  -0.253
REMARK UNBOUND:                -0.253
REMARK SMILES CCCCC=CC(C)=O
REMARK SMILES IDX 4 1 3 2 2 3 1 4 5 5 6 6 7 7 9 8 8 9
REMARK H PARENT
REMARK Flexibility Score: inf
ROOT
ATOM      1  C   UNL     1      -2.318 -14.503  -7.888  1.00  0.00     0.027 C 
ENDROOT
BRANCH   1   2
ATOM      2  C   UNL     1      -3.364 -14.613  -9.005  1.00  0.00     0.004 C 
BRANCH   2   3
ATOM      3  C   UNL     1      -4.184 -13.323  -9.116  1.00  0.00    -0.003 C 
ATOM      4  C   UNL     1      -5.680 -13.612  -9.032  1.00  0.00     0.004 C 
ENDBRANCH   2   3
ENDBRANCH   1   2
BRANCH   1   5
ATOM      5  C   UNL     1      -2.637 -15.435  -6.753  1.00  0.00    -0.023 C 
ATOM      6  C   UNL     1      -3.825 -16.045  -6.664  1.00  0.00     0.042 C 
BRANCH   6   7
ATOM      7  C   UNL     1      -4.188 -16.958  -5.561  1.00  0.00     0.152 C 
ATOM      8  O   UNL     1      -4.650 -16.467  -4.497  1.00  0.00    -0.295 OA
ATOM      9  C   UNL     1      -4.025 -18.445  -5.662  1.00  0.00     0.093 C 
ENDBRANCH   6   7
ENDBRANCH   1   5
TORSDOF 4
ENDMDL
MODEL 2
REMARK VINA RESULT:    -4.338      1.186      1.731
REMARK INTER + INTRA:          -5.605
REMARK INTER:                  -5.333
REMARK INTRA:                  -0.272
REMARK UNBOUND:                -0.253
REMARK SMILES CCCCC=CC(C)=O
REMARK SMILES IDX 4 1 3 2 2 3 1 4 5 5 6 6 7 7 9 8 8 9
REMARK H PARENT
REMARK Flexibility Score: inf
ROOT
ATOM      1  C   UNL     1      -4.400 -14.294  -8.612  1.00  0.00     0.027 C 
ENDROOT
BRANCH   1   2
ATOM      2  C   UNL     1      -5.856 -14.009  -9.001  1.00  0.00     0.004 C 
BRANCH   2   3
ATOM      3  C   UNL     1      -6.335 -12.684  -8.398  1.00  0.00    -0.003 C 
ATOM      4  C   UNL     1      -5.168 -11.729  -8.163  1.00  0.00     0.004 C 
ENDBRANCH   2   3
ENDBRANCH   1   2
BRANCH   1   5
ATOM      5  C   UNL     1      -4.305 -15.483  -7.699  1.00  0.00    -0.023 C 
ATOM      6  C   UNL     1      -4.414 -15.354  -6.371  1.00  0.00     0.042 C 
BRANCH   6   7
ATOM      7  C   UNL     1      -4.316 -16.492  -5.434  1.00  0.00     0.152 C 
ATOM      8  O   UNL     1      -4.667 -16.321  -4.237  1.00  0.00    -0.295 OA
ATOM      9  C   UNL     1      -3.814 -17.840  -5.857  1.00  0.00     0.093 C 
ENDBRANCH   6   7
ENDBRANCH   1   5
TORSDOF 4
ENDMDL
MODEL 3
REMARK VINA RESULT:    -4.287      1.651      2.655
REMARK INTER + INTRA:          -5.543
REMARK INTER:                  -5.266
REMARK INTRA:                  -0.277
REMARK UNBOUND:                -0.253
REMARK SMILES CCCCC=CC(C)=O
REMARK SMILES IDX 4 1 3 2 2 3 1 4 5 5 6 6 7 7 9 8 8 9
REMARK H PARENT
REMARK Flexibility Score: inf
ROOT
ATOM      1  C   UNL     1      -5.959 -13.621  -8.698  1.00  0.00     0.027 C 
ENDROOT
BRANCH   1   2
ATOM      2  C   UNL     1      -5.736 -12.194  -8.183  1.00  0.00     0.004 C 
BRANCH   2   3
ATOM      3  C   UNL     1      -4.530 -11.544  -8.871  1.00  0.00    -0.003 C 
ATOM      4  C   UNL     1      -3.354 -11.405  -7.909  1.00  0.00     0.004 C 
ENDBRANCH   2   3
ENDBRANCH   1   2
BRANCH   1   5
ATOM      5  C   UNL     1      -5.106 -14.607  -7.952  1.00  0.00    -0.023 C 
ATOM      6  C   UNL     1      -5.134 -14.684  -6.616  1.00  0.00     0.042 C 
BRANCH   6   7
ATOM      7  C   UNL     1      -4.304 -15.628  -5.840  1.00  0.00     0.152 C 
ATOM      8  O   UNL     1      -4.810 -16.187  -4.831  1.00  0.00    -0.295 OA
ATOM      9  C   UNL     1      -2.886 -15.943  -6.209  1.00  0.00     0.093 C 
ENDBRANCH   6   7
ENDBRANCH   1   5
TORSDOF 4
ENDMDL
MODEL 4
REMARK VINA RESULT:    -4.021      2.709      4.835
REMARK INTER + INTRA:          -5.215
REMARK INTER:                  -5.012
REMARK INTRA:                  -0.203
REMARK UNBOUND:                -0.253
REMARK SMILES CCCCC=CC(C)=O
REMARK SMILES IDX 4 1 3 2 2 3 1 4 5 5 6 6 7 7 9 8 8 9
REMARK H PARENT
REMARK Flexibility Score: inf
ROOT
ATOM      1  C   UNL     1      -2.242 -14.785  -7.633  1.00  0.00     0.027 C 
ENDROOT
BRANCH   1   2
ATOM      2  C   UNL     1      -2.725 -15.157  -6.226  1.00  0.00     0.004 C 
BRANCH   2   3
ATOM      3  C   UNL     1      -3.626 -16.397  -6.265  1.00  0.00    -0.003 C 
ATOM      4  C   UNL     1      -4.496 -16.486  -5.015  1.00  0.00     0.004 C 
ENDBRANCH   2   3
ENDBRANCH   1   2
BRANCH   1   5
ATOM      5  C   UNL     1      -3.189 -13.827  -8.297  1.00  0.00    -0.023 C 
ATOM      6  C   UNL     1      -3.626 -12.729  -7.668  1.00  0.00     0.042 C 
BRANCH   6   7
ATOM      7  C   UNL     1      -4.567 -11.766  -8.276  1.00  0.00     0.152 C 
ATOM      8  O   UNL     1      -4.126 -10.946  -9.125  1.00  0.00    -0.295 OA
ATOM      9  C   UNL     1      -6.022 -11.730  -7.920  1.00  0.00     0.093 C 
ENDBRANCH   6   7
ENDBRANCH   1   5
TORSDOF 4
ENDMDL
MODEL 5
REMARK VINA RESULT:    -3.980      2.356      3.769
REMARK INTER + INTRA:          -5.164
REMARK INTER:                  -4.896
REMARK INTRA:                  -0.267
REMARK UNBOUND:                -0.253
REMARK SMILES CCCCC=CC(C)=O
REMARK SMILES IDX 4 1 3 2 2 3 1 4 5 5 6 6 7 7 9 8 8 9
REMARK H PARENT
REMARK Flexibility Score: inf
ROOT
ATOM      1  C   UNL     1      -3.824 -15.764  -6.799  1.00  0.00     0.027 C 
ENDROOT
BRANCH   1   2
ATOM      2  C   UNL     1      -2.573 -15.099  -7.386  1.00  0.00     0.004 C 
BRANCH   2   3
ATOM      3  C   UNL     1      -2.767 -14.784  -8.874  1.00  0.00    -0.003 C 
ATOM      4  C   UNL     1      -2.775 -13.279  -9.123  1.00  0.00     0.004 C 
ENDBRANCH   2   3
ENDBRANCH   1   2
BRANCH   1   5
ATOM      5  C   UNL     1      -4.979 -14.804  -6.753  1.00  0.00    -0.023 C 
ATOM      6  C   UNL     1      -4.898 -13.647  -6.085  1.00  0.00     0.042 C 
BRANCH   6   7
ATOM      7  C   UNL     1      -6.010 -12.678  -6.002  1.00  0.00     0.152 C 
ATOM      8  O   UNL     1      -6.718 -12.659  -4.960  1.00  0.00    -0.295 OA
ATOM      9  C   UNL     1      -6.327 -11.721  -7.111  1.00  0.00     0.093 C 
ENDBRANCH   6   7
ENDBRANCH   1   5
TORSDOF 4
ENDMDL
MODEL 6
REMARK VINA RESULT:    -3.854      2.470      4.878
REMARK INTER + INTRA:          -5.008
REMARK INTER:                  -4.768
REMARK INTRA:                  -0.240
REMARK UNBOUND:                -0.253
REMARK SMILES CCCCC=CC(C)=O
REMARK SMILES IDX 4 1 3 2 2 3 1 4 5 5 6 6 7 7 9 8 8 9
REMARK H PARENT
REMARK Flexibility Score: inf
ROOT
ATOM      1  C   UNL     1      -2.672 -15.063  -6.969  1.00  0.00     0.027 C 
ENDROOT
BRANCH   1   2
ATOM      2  C   UNL     1      -3.284 -15.046  -5.563  1.00  0.00     0.004 C 
BRANCH   2   3
ATOM      3  C   UNL     1      -4.234 -16.233  -5.364  1.00  0.00    -0.003 C 
ATOM      4  C   UNL     1      -3.746 -17.464  -6.122  1.00  0.00     0.004 C 
ENDBRANCH   2   3
ENDBRANCH   1   2
BRANCH   1   5
ATOM      5  C   UNL     1      -3.219 -13.948  -7.813  1.00  0.00    -0.023 C 
ATOM      6  C   UNL     1      -3.819 -12.885  -7.262  1.00  0.00     0.042 C 
BRANCH   6   7
ATOM      7  C   UNL     1      -4.383 -11.771  -8.052  1.00  0.00     0.152 C 
ATOM      8  O   UNL     1      -5.562 -11.398  -7.813  1.00  0.00    -0.295 OA
ATOM      9  C   UNL     1      -3.604 -11.072  -9.125  1.00  0.00     0.093 C 
ENDBRANCH   6   7
ENDBRANCH   1   5
TORSDOF 4
ENDMDL
MODEL 7
REMARK VINA RESULT:    -3.799      2.533      4.867
REMARK INTER + INTRA:          -4.941
REMARK INTER:                  -4.806
REMARK INTRA:                  -0.135
REMARK UNBOUND:                -0.253
REMARK SMILES CCCCC=CC(C)=O
REMARK SMILES IDX 4 1 3 2 2 3 1 4 5 5 6 6 7 7 9 8 8 9
REMARK H PARENT
REMARK Flexibility Score: inf
ROOT
ATOM      1  C   UNL     1      -2.751 -15.134  -5.726  1.00  0.00     0.027 C 
ENDROOT
BRANCH   1   2
ATOM      2  C   UNL     1      -3.375 -16.350  -6.423  1.00  0.00     0.004 C 
BRANCH   2   3
ATOM      3  C   UNL     1      -4.164 -17.208  -5.428  1.00  0.00    -0.003 C 
ATOM      4  C   UNL     1      -3.934 -18.696  -5.678  1.00  0.00     0.004 C 
ENDBRANCH   2   3
ENDBRANCH   1   2
BRANCH   1   5
ATOM      5  C   UNL     1      -2.920 -13.890  -6.550  1.00  0.00    -0.023 C 
ATOM      6  C   UNL     1      -4.126 -13.348  -6.756  1.00  0.00     0.042 C 
BRANCH   6   7
ATOM      7  C   UNL     1      -4.342 -12.133  -7.569  1.00  0.00     0.152 C 
ATOM      8  O   UNL     1      -3.349 -11.411  -7.850  1.00  0.00    -0.295 OA
ATOM      9  C   UNL     1      -5.697 -11.730  -8.069  1.00  0.00     0.093 C 
ENDBRANCH   6   7
ENDBRANCH   1   5
TORSDOF 4
ENDMDL
MODEL 8
REMARK VINA RESULT:    -3.552      2.563      4.548
REMARK INTER + INTRA:          -4.636
REMARK INTER:                  -4.773
REMARK INTRA:                   0.137
REMARK UNBOUND:                -0.253
REMARK SMILES CCCCC=CC(C)=O
REMARK SMILES IDX 4 1 3 2 2 3 1 4 5 5 6 6 7 7 9 8 8 9
REMARK H PARENT
REMARK Flexibility Score: inf
ROOT
ATOM      1  C   UNL     1      -4.725 -15.453  -6.091  1.00  0.00     0.027 C 
ENDROOT
BRANCH   1   2
ATOM      2  C   UNL     1      -3.520 -16.111  -6.775  1.00  0.00     0.004 C 
BRANCH   2   3
ATOM      3  C   UNL     1      -2.358 -15.121  -6.909  1.00  0.00    -0.003 C 
ATOM      4  C   UNL     1      -2.179 -14.671  -8.356  1.00  0.00     0.004 C 
ENDBRANCH   2   3
ENDBRANCH   1   2
BRANCH   1   5
ATOM      5  C   UNL     1      -5.260 -14.314  -6.911  1.00  0.00    -0.023 C 
ATOM      6  C   UNL     1      -4.847 -13.056  -6.712  1.00  0.00     0.042 C 
BRANCH   6   7
ATOM      7  C   UNL     1      -5.353 -11.903  -7.485  1.00  0.00     0.152 C 
ATOM      8  O   UNL     1      -6.278 -11.206  -6.992  1.00  0.00    -0.295 OA
ATOM      9  C   UNL     1      -4.805 -11.536  -8.831  1.00  0.00     0.093 C 
ENDBRANCH   6   7
ENDBRANCH   1   5
TORSDOF 4
ENDMDL
