MODEL 1
REMARK VINA RESULT:    -6.992      0.000      0.000
REMARK INTER + INTRA:          -8.151
REMARK INTER:                  -8.422
REMARK INTRA:                   0.271
REMARK UNBOUND:                 0.271
REMARK SMILES O=c1c(O)c(-c2ccc(O)c(O)c2)oc2cc(O)cc(O)c12
REMARK SMILES IDX 5 1 3 2 2 3 1 4 22 5 20 6 19 7 17 8 16 9 15 10 14 11 6 12
REMARK SMILES IDX 7 13 8 14 9 15 13 16 11 17 10 18 12 20 4 22 21 24 18 26
REMARK H PARENT 10 19 12 21 4 23 21 25 18 27
REMARK Flexibility Score: inf
ROOT
ATOM      1  C   UNL     1       4.262  -7.423  -0.188  1.00  0.00     0.180 A 
ATOM      2  C   UNL     1       4.468  -8.549  -1.005  1.00  0.00     0.208 A 
ATOM      3  C   UNL     1       5.347  -8.449  -2.095  1.00  0.00     0.238 A 
ATOM      4  O   UNL     1       5.568  -9.475  -2.788  1.00  0.00    -0.285 OA
ATOM      5  C   UNL     1       5.998  -7.221  -2.365  1.00  0.00     0.111 A 
ATOM      6  C   UNL     1       6.878  -6.995  -3.464  1.00  0.00     0.134 A 
ATOM      7  C   UNL     1       7.568  -5.780  -3.559  1.00  0.00     0.093 A 
ATOM      8  C   UNL     1       7.359  -4.759  -2.629  1.00  0.00     0.123 A 
ATOM      9  C   UNL     1       6.456  -4.948  -1.585  1.00  0.00     0.094 A 
ATOM     10  C   UNL     1       5.780  -6.163  -1.444  1.00  0.00     0.146 A 
ATOM     11  O   UNL     1       4.938  -6.305  -0.428  1.00  0.00    -0.452 OA
ENDROOT
BRANCH   1  12
ATOM     12  C   UNL     1       3.331  -7.444   0.964  1.00  0.00     0.025 A 
ATOM     13  C   UNL     1       2.181  -8.248   0.908  1.00  0.00     0.016 A 
ATOM     14  C   UNL     1       1.301  -8.298   1.992  1.00  0.00     0.051 A 
ATOM     15  C   UNL     1       1.563  -7.563   3.151  1.00  0.00     0.157 A 
ATOM     16  C   UNL     1       3.604  -6.721   2.138  1.00  0.00     0.062 A 
ATOM     17  C   UNL     1       2.722  -6.772   3.228  1.00  0.00     0.158 A 
BRANCH  15  18
ATOM     18  O   UNL     1       0.665  -7.632   4.215  1.00  0.00    -0.504 OA
ATOM     19  H   UNL     1      -0.099  -6.975   4.319  1.00  0.00     0.293 HD
ENDBRANCH  15  18
BRANCH  17  20
ATOM     20  O   UNL     1       2.998  -6.047   4.387  1.00  0.00    -0.504 OA
ATOM     21  H   UNL     1       2.675  -6.358   5.296  1.00  0.00     0.293 HD
ENDBRANCH  17  20
ENDBRANCH   1  12
BRANCH   2  22
ATOM     22  O   UNL     1       3.832  -9.758  -0.708  1.00  0.00    -0.502 OA
ATOM     23  H   UNL     1       4.238 -10.657  -0.937  1.00  0.00     0.293 HD
ENDBRANCH   2  22
BRANCH   6  24
ATOM     24  O   UNL     1       7.087  -7.913  -4.498  1.00  0.00    -0.507 OA
ATOM     25  H   UNL     1       6.616  -8.801  -4.582  1.00  0.00     0.293 HD
ENDBRANCH   6  24
BRANCH   8  26
ATOM     26  O   UNL     1       8.037  -3.546  -2.739  1.00  0.00    -0.508 OA
ATOM     27  H   UNL     1       7.709  -2.711  -2.269  1.00  0.00     0.293 HD
ENDBRANCH   8  26
TORSDOF 6
ENDMDL
MODEL 2
REMARK VINA RESULT:    -6.716      1.552      6.861
REMARK INTER + INTRA:          -7.819
REMARK INTER:                  -7.918
REMARK INTRA:                   0.098
REMARK UNBOUND:                 0.271
REMARK SMILES O=c1c(O)c(-c2ccc(O)c(O)c2)oc2cc(O)cc(O)c12
REMARK SMILES IDX 5 1 3 2 2 3 1 4 22 5 20 6 19 7 17 8 16 9 15 10 14 11 6 12
REMARK SMILES IDX 7 13 8 14 9 15 13 16 11 17 10 18 12 20 4 22 21 24 18 26
REMARK H PARENT 10 19 12 21 4 23 21 25 18 27
REMARK Flexibility Score: inf
ROOT
ATOM      1  C   UNL     1       4.237  -7.765   0.062  1.00  0.00     0.180 A 
ATOM      2  C   UNL     1       3.467  -8.941   0.069  1.00  0.00     0.208 A 
ATOM      3  C   UNL     1       2.568  -9.161   1.124  1.00  0.00     0.238 A 
ATOM      4  O   UNL     1       1.843 -10.189   1.096  1.00  0.00    -0.285 OA
ATOM      5  C   UNL     1       2.460  -8.210   2.168  1.00  0.00     0.111 A 
ATOM      6  C   UNL     1       1.611  -8.348   3.306  1.00  0.00     0.134 A 
ATOM      7  C   UNL     1       1.487  -7.285   4.209  1.00  0.00     0.093 A 
ATOM      8  C   UNL     1       2.232  -6.114   4.050  1.00  0.00     0.123 A 
ATOM      9  C   UNL     1       3.108  -5.993   2.974  1.00  0.00     0.094 A 
ATOM     10  C   UNL     1       3.226  -7.022   2.036  1.00  0.00     0.146 A 
ATOM     11  O   UNL     1       4.064  -6.861   1.020  1.00  0.00    -0.452 OA
ENDROOT
BRANCH   1  12
ATOM     12  C   UNL     1       5.224  -7.475  -1.003  1.00  0.00     0.025 A 
ATOM     13  C   UNL     1       6.510  -7.034  -0.652  1.00  0.00     0.016 A 
ATOM     14  C   UNL     1       7.463  -6.775  -1.640  1.00  0.00     0.051 A 
ATOM     15  C   UNL     1       7.154  -6.967  -2.990  1.00  0.00     0.157 A 
ATOM     16  C   UNL     1       4.921  -7.687  -2.360  1.00  0.00     0.062 A 
ATOM     17  C   UNL     1       5.877  -7.429  -3.353  1.00  0.00     0.158 A 
BRANCH  15  18
ATOM     18  O   UNL     1       8.125  -6.698  -3.953  1.00  0.00    -0.504 OA
ATOM     19  H   UNL     1       7.902  -6.242  -4.829  1.00  0.00     0.293 HD
ENDBRANCH  15  18
BRANCH  17  20
ATOM     20  O   UNL     1       5.566  -7.637  -4.696  1.00  0.00    -0.504 OA
ATOM     21  H   UNL     1       5.496  -6.866  -5.350  1.00  0.00     0.293 HD
ENDBRANCH  17  20
ENDBRANCH   1  12
BRANCH   2  22
ATOM     22  O   UNL     1       3.573  -9.856  -0.982  1.00  0.00    -0.502 OA
ATOM     23  H   UNL     1       4.011  -9.623  -1.865  1.00  0.00     0.293 HD
ENDBRANCH   2  22
BRANCH   6  24
ATOM     24  O   UNL     1       0.894  -9.511   3.608  1.00  0.00    -0.507 OA
ATOM     25  H   UNL     1       1.186 -10.445   3.367  1.00  0.00     0.293 HD
ENDBRANCH   6  24
BRANCH   8  26
ATOM     26  O   UNL     1       2.115  -5.067   4.962  1.00  0.00    -0.508 OA
ATOM     27  H   UNL     1       2.249  -4.103   4.682  1.00  0.00     0.293 HD
ENDBRANCH   8  26
TORSDOF 6
ENDMDL
MODEL 3
REMARK VINA RESULT:    -6.527      1.723      7.169
REMARK INTER + INTRA:          -7.592
REMARK INTER:                  -7.593
REMARK INTRA:                   0.002
REMARK UNBOUND:                 0.271
REMARK SMILES O=c1c(O)c(-c2ccc(O)c(O)c2)oc2cc(O)cc(O)c12
REMARK SMILES IDX 5 1 3 2 2 3 1 4 22 5 20 6 19 7 17 8 16 9 15 10 14 11 6 12
REMARK SMILES IDX 7 13 8 14 9 15 13 16 11 17 10 18 12 20 4 22 21 24 18 26
REMARK H PARENT 10 19 12 21 4 23 21 25 18 27
REMARK Flexibility Score: inf
ROOT
ATOM      1  C   UNL     1       4.904  -7.857  -0.691  1.00  0.00     0.180 A 
ATOM      2  C   UNL     1       5.670  -7.148   0.250  1.00  0.00     0.208 A 
ATOM      3  C   UNL     1       5.106  -6.847   1.500  1.00  0.00     0.238 A 
ATOM      4  O   UNL     1       5.816  -6.261   2.358  1.00  0.00    -0.285 OA
ATOM      5  C   UNL     1       3.778  -7.244   1.788  1.00  0.00     0.111 A 
ATOM      6  C   UNL     1       3.092  -6.958   3.006  1.00  0.00     0.134 A 
ATOM      7  C   UNL     1       1.827  -7.513   3.233  1.00  0.00     0.093 A 
ATOM      8  C   UNL     1       1.195  -8.289   2.259  1.00  0.00     0.123 A 
ATOM      9  C   UNL     1       1.832  -8.525   1.043  1.00  0.00     0.094 A 
ATOM     10  C   UNL     1       3.110  -8.015   0.801  1.00  0.00     0.146 A 
ATOM     11  O   UNL     1       3.685  -8.273  -0.367  1.00  0.00    -0.452 OA
ENDROOT
BRANCH   1  12
ATOM     12  C   UNL     1       5.421  -8.189  -2.039  1.00  0.00     0.025 A 
ATOM     13  C   UNL     1       5.982  -7.176  -2.833  1.00  0.00     0.016 A 
ATOM     14  C   UNL     1       6.494  -7.472  -4.099  1.00  0.00     0.051 A 
ATOM     15  C   UNL     1       6.469  -8.782  -4.584  1.00  0.00     0.157 A 
ATOM     16  C   UNL     1       5.415  -9.510  -2.520  1.00  0.00     0.062 A 
ATOM     17  C   UNL     1       5.931  -9.809  -3.790  1.00  0.00     0.158 A 
BRANCH  15  18
ATOM     18  O   UNL     1       6.986  -9.046  -5.852  1.00  0.00    -0.504 OA
ATOM     19  H   UNL     1       7.934  -9.375  -5.988  1.00  0.00     0.293 HD
ENDBRANCH  15  18
BRANCH  17  20
ATOM     20  O   UNL     1       5.916 -11.122  -4.261  1.00  0.00    -0.504 OA
ATOM     21  H   UNL     1       6.624 -11.463  -4.901  1.00  0.00     0.293 HD
ENDBRANCH  17  20
ENDBRANCH   1  12
BRANCH   2  22
ATOM     22  O   UNL     1       6.987  -6.785  -0.046  1.00  0.00    -0.502 OA
ATOM     23  H   UNL     1       7.252  -6.373  -0.932  1.00  0.00     0.293 HD
ENDBRANCH   2  22
BRANCH   6  24
ATOM     24  O   UNL     1       3.594  -6.119   4.005  1.00  0.00    -0.507 OA
ATOM     25  H   UNL     1       4.485  -5.647   3.966  1.00  0.00     0.293 HD
ENDBRANCH   6  24
BRANCH   8  26
ATOM     26  O   UNL     1      -0.071  -8.824   2.487  1.00  0.00    -0.508 OA
ATOM     27  H   UNL     1      -0.575  -9.320   1.761  1.00  0.00     0.293 HD
ENDBRANCH   8  26
TORSDOF 6
ENDMDL
MODEL 4
REMARK VINA RESULT:    -6.422      1.877      7.190
REMARK INTER + INTRA:          -7.465
REMARK INTER:                  -7.169
REMARK INTRA:                  -0.296
REMARK UNBOUND:                 0.271
REMARK SMILES O=c1c(O)c(-c2ccc(O)c(O)c2)oc2cc(O)cc(O)c12
REMARK SMILES IDX 5 1 3 2 2 3 1 4 22 5 20 6 19 7 17 8 16 9 15 10 14 11 6 12
REMARK SMILES IDX 7 13 8 14 9 15 13 16 11 17 10 18 12 20 4 22 21 24 18 26
REMARK H PARENT 10 19 12 21 4 23 21 25 18 27
REMARK Flexibility Score: inf
ROOT
ATOM      1  C   UNL     1       5.685  -6.288   0.408  1.00  0.00     0.180 A 
ATOM      2  C   UNL     1       6.494  -6.534   1.531  1.00  0.00     0.208 A 
ATOM      3  C   UNL     1       5.914  -7.099   2.678  1.00  0.00     0.238 A 
ATOM      4  O   UNL     1       6.654  -7.367   3.660  1.00  0.00    -0.285 OA
ATOM      5  C   UNL     1       4.530  -7.396   2.694  1.00  0.00     0.111 A 
ATOM      6  C   UNL     1       3.829  -7.932   3.815  1.00  0.00     0.134 A 
ATOM      7  C   UNL     1       2.488  -8.310   3.675  1.00  0.00     0.093 A 
ATOM      8  C   UNL     1       1.804  -8.108   2.474  1.00  0.00     0.123 A 
ATOM      9  C   UNL     1       2.464  -7.530   1.392  1.00  0.00     0.094 A 
ATOM     10  C   UNL     1       3.812  -7.177   1.490  1.00  0.00     0.146 A 
ATOM     11  O   UNL     1       4.405  -6.639   0.431  1.00  0.00    -0.452 OA
ENDROOT
BRANCH   1  12
ATOM     12  C   UNL     1       6.220  -5.672  -0.828  1.00  0.00     0.025 A 
ATOM     13  C   UNL     1       6.078  -4.290  -1.029  1.00  0.00     0.016 A 
ATOM     14  C   UNL     1       6.593  -3.685  -2.178  1.00  0.00     0.051 A 
ATOM     15  C   UNL     1       7.270  -4.446  -3.136  1.00  0.00     0.157 A 
ATOM     16  C   UNL     1       6.919  -6.433  -1.782  1.00  0.00     0.062 A 
ATOM     17  C   UNL     1       7.438  -5.827  -2.936  1.00  0.00     0.158 A 
BRANCH  15  18
ATOM     18  O   UNL     1       7.771  -3.815  -4.273  1.00  0.00    -0.504 OA
ATOM     19  H   UNL     1       7.383  -3.980  -5.194  1.00  0.00     0.293 HD
ENDBRANCH  15  18
BRANCH  17  20
ATOM     20  O   UNL     1       8.125  -6.590  -3.880  1.00  0.00    -0.504 OA
ATOM     21  H   UNL     1       8.411  -6.200  -4.770  1.00  0.00     0.293 HD
ENDBRANCH  17  20
ENDBRANCH   1  12
BRANCH   2  22
ATOM     22  O   UNL     1       7.863  -6.254   1.486  1.00  0.00    -0.502 OA
ATOM     23  H   UNL     1       8.530  -6.696   2.107  1.00  0.00     0.293 HD
ENDBRANCH   2  22
BRANCH   6  24
ATOM     24  O   UNL     1       4.392  -8.089   5.086  1.00  0.00    -0.507 OA
ATOM     25  H   UNL     1       4.466  -7.357   5.776  1.00  0.00     0.293 HD
ENDBRANCH   6  24
BRANCH   8  26
ATOM     26  O   UNL     1       0.465  -8.471   2.348  1.00  0.00    -0.508 OA
ATOM     27  H   UNL     1       0.049  -8.659   1.444  1.00  0.00     0.293 HD
ENDBRANCH   8  26
TORSDOF 6
ENDMDL
MODEL 5
REMARK VINA RESULT:    -6.141     13.217     14.856
REMARK INTER + INTRA:          -7.127
REMARK INTER:                  -7.060
REMARK INTRA:                  -0.067
REMARK UNBOUND:                 0.271
REMARK SMILES O=c1c(O)c(-c2ccc(O)c(O)c2)oc2cc(O)cc(O)c12
REMARK SMILES IDX 5 1 3 2 2 3 1 4 22 5 20 6 19 7 17 8 16 9 15 10 14 11 6 12
REMARK SMILES IDX 7 13 8 14 9 15 13 16 11 17 10 18 12 20 4 22 21 24 18 26
REMARK H PARENT 10 19 12 21 4 23 21 25 18 27
REMARK Flexibility Score: inf
ROOT
ATOM      1  C   UNL     1       4.547   5.856  -6.721  1.00  0.00     0.180 A 
ATOM      2  C   UNL     1       5.782   5.358  -7.171  1.00  0.00     0.208 A 
ATOM      3  C   UNL     1       5.911   4.968  -8.513  1.00  0.00     0.238 A 
ATOM      4  O   UNL     1       7.034   4.574  -8.923  1.00  0.00    -0.285 OA
ATOM      5  C   UNL     1       4.800   5.066  -9.386  1.00  0.00     0.111 A 
ATOM      6  C   UNL     1       4.806   4.663 -10.754  1.00  0.00     0.134 A 
ATOM      7  C   UNL     1       3.689   4.927 -11.557  1.00  0.00     0.093 A 
ATOM      8  C   UNL     1       2.543   5.521 -11.023  1.00  0.00     0.123 A 
ATOM      9  C   UNL     1       2.506   5.864  -9.674  1.00  0.00     0.094 A 
ATOM     10  C   UNL     1       3.617   5.646  -8.856  1.00  0.00     0.146 A 
ATOM     11  O   UNL     1       3.544   5.998  -7.579  1.00  0.00    -0.452 OA
ENDROOT
BRANCH   1  12
ATOM     12  C   UNL     1       4.327   6.264  -5.314  1.00  0.00     0.025 A 
ATOM     13  C   UNL     1       3.777   7.525  -5.038  1.00  0.00     0.016 A 
ATOM     14  C   UNL     1       3.542   7.922  -3.719  1.00  0.00     0.051 A 
ATOM     15  C   UNL     1       3.837   7.061  -2.658  1.00  0.00     0.157 A 
ATOM     16  C   UNL     1       4.604   5.391  -4.247  1.00  0.00     0.062 A 
ATOM     17  C   UNL     1       4.368   5.786  -2.922  1.00  0.00     0.158 A 
BRANCH  15  18
ATOM     18  O   UNL     1       3.593   7.485  -1.353  1.00  0.00    -0.504 OA
ATOM     19  H   UNL     1       3.848   6.924  -0.549  1.00  0.00     0.293 HD
ENDBRANCH  15  18
BRANCH  17  20
ATOM     20  O   UNL     1       4.650   4.917  -1.870  1.00  0.00    -0.504 OA
ATOM     21  H   UNL     1       5.504   4.997  -1.330  1.00  0.00     0.293 HD
ENDBRANCH  17  20
ENDBRANCH   1  12
BRANCH   2  22
ATOM     22  O   UNL     1       6.873   5.290  -6.299  1.00  0.00    -0.502 OA
ATOM     23  H   UNL     1       6.792   4.939  -5.353  1.00  0.00     0.293 HD
ENDBRANCH   2  22
BRANCH   6  24
ATOM     24  O   UNL     1       5.864   3.979 -11.362  1.00  0.00    -0.507 OA
ATOM     25  H   UNL     1       5.762   3.312 -12.111  1.00  0.00     0.293 HD
ENDBRANCH   6  24
BRANCH   8  26
ATOM     26  O   UNL     1       1.430   5.765 -11.826  1.00  0.00    -0.508 OA
ATOM     27  H   UNL     1       0.505   5.449 -11.559  1.00  0.00     0.293 HD
ENDBRANCH   8  26
TORSDOF 6
ENDMDL
MODEL 6
REMARK VINA RESULT:    -5.951     13.308     15.816
REMARK INTER + INTRA:          -6.898
REMARK INTER:                  -6.773
REMARK INTRA:                  -0.125
REMARK UNBOUND:                 0.271
REMARK SMILES O=c1c(O)c(-c2ccc(O)c(O)c2)oc2cc(O)cc(O)c12
REMARK SMILES IDX 5 1 3 2 2 3 1 4 22 5 20 6 19 7 17 8 16 9 15 10 14 11 6 12
REMARK SMILES IDX 7 13 8 14 9 15 13 16 11 17 10 18 12 20 4 22 21 24 18 26
REMARK H PARENT 10 19 12 21 4 23 21 25 18 27
REMARK Flexibility Score: inf
ROOT
ATOM      1  C   UNL     1       4.091   6.388  -7.268  1.00  0.00     0.180 A 
ATOM      2  C   UNL     1       3.095   7.371  -7.406  1.00  0.00     0.208 A 
ATOM      3  C   UNL     1       2.502   7.568  -8.663  1.00  0.00     0.238 A 
ATOM      4  O   UNL     1       1.573   8.410  -8.767  1.00  0.00    -0.285 OA
ATOM      5  C   UNL     1       2.922   6.791  -9.770  1.00  0.00     0.111 A 
ATOM      6  C   UNL     1       2.418   6.933 -11.097  1.00  0.00     0.134 A 
ATOM      7  C   UNL     1       2.811   6.023 -12.086  1.00  0.00     0.093 A 
ATOM      8  C   UNL     1       3.740   5.017 -11.811  1.00  0.00     0.123 A 
ATOM      9  C   UNL     1       4.283   4.907 -10.533  1.00  0.00     0.094 A 
ATOM     10  C   UNL     1       3.883   5.778  -9.516  1.00  0.00     0.146 A 
ATOM     11  O   UNL     1       4.416   5.631  -8.310  1.00  0.00    -0.452 OA
ENDROOT
BRANCH   1  12
ATOM     12  C   UNL     1       4.781   6.139  -5.981  1.00  0.00     0.025 A 
ATOM     13  C   UNL     1       6.158   6.387  -5.876  1.00  0.00     0.016 A 
ATOM     14  C   UNL     1       6.824   6.178  -4.666  1.00  0.00     0.051 A 
ATOM     15  C   UNL     1       6.124   5.737  -3.539  1.00  0.00     0.157 A 
ATOM     16  C   UNL     1       4.073   5.715  -4.842  1.00  0.00     0.062 A 
ATOM     17  C   UNL     1       4.740   5.507  -3.625  1.00  0.00     0.158 A 
BRANCH  15  18
ATOM     18  O   UNL     1       6.816   5.536  -2.345  1.00  0.00    -0.504 OA
ATOM     19  H   UNL     1       7.459   6.225  -1.974  1.00  0.00     0.293 HD
ENDBRANCH  15  18
BRANCH  17  20
ATOM     20  O   UNL     1       4.032   5.081  -2.502  1.00  0.00    -0.504 OA
ATOM     21  H   UNL     1       3.701   5.737  -1.804  1.00  0.00     0.293 HD
ENDBRANCH  17  20
ENDBRANCH   1  12
BRANCH   2  22
ATOM     22  O   UNL     1       2.680   8.111  -6.295  1.00  0.00    -0.502 OA
ATOM     23  H   UNL     1       3.241   8.853  -5.896  1.00  0.00     0.293 HD
ENDBRANCH   2  22
BRANCH   6  24
ATOM     24  O   UNL     1       1.558   7.960 -11.499  1.00  0.00    -0.507 OA
ATOM     25  H   UNL     1       1.498   8.325 -12.438  1.00  0.00     0.293 HD
ENDBRANCH   6  24
BRANCH   8  26
ATOM     26  O   UNL     1       4.138   4.125 -12.806  1.00  0.00    -0.508 OA
ATOM     27  H   UNL     1       4.001   4.332 -13.788  1.00  0.00     0.293 HD
ENDBRANCH   8  26
TORSDOF 6
ENDMDL
MODEL 7
REMARK VINA RESULT:    -5.895     13.280     16.290
REMARK INTER + INTRA:          -6.830
REMARK INTER:                  -6.639
REMARK INTRA:                  -0.191
REMARK UNBOUND:                 0.271
REMARK SMILES O=c1c(O)c(-c2ccc(O)c(O)c2)oc2cc(O)cc(O)c12
REMARK SMILES IDX 5 1 3 2 2 3 1 4 22 5 20 6 19 7 17 8 16 9 15 10 14 11 6 12
REMARK SMILES IDX 7 13 8 14 9 15 13 16 11 17 10 18 12 20 4 22 21 24 18 26
REMARK H PARENT 10 19 12 21 4 23 21 25 18 27
REMARK Flexibility Score: inf
ROOT
ATOM      1  C   UNL     1       4.429   5.480  -9.094  1.00  0.00     0.180 A 
ATOM      2  C   UNL     1       5.536   4.614  -9.055  1.00  0.00     0.208 A 
ATOM      3  C   UNL     1       6.154   4.353  -7.821  1.00  0.00     0.238 A 
ATOM      4  O   UNL     1       7.109   3.536  -7.785  1.00  0.00    -0.285 OA
ATOM      5  C   UNL     1       5.666   4.972  -6.644  1.00  0.00     0.111 A 
ATOM      6  C   UNL     1       6.238   4.810  -5.347  1.00  0.00     0.134 A 
ATOM      7  C   UNL     1       5.594   5.366  -4.234  1.00  0.00     0.093 A 
ATOM      8  C   UNL     1       4.436   6.131  -4.380  1.00  0.00     0.123 A 
ATOM      9  C   UNL     1       3.903   6.344  -5.650  1.00  0.00     0.094 A 
ATOM     10  C   UNL     1       4.502   5.773  -6.775  1.00  0.00     0.146 A 
ATOM     11  O   UNL     1       3.954   5.992  -7.964  1.00  0.00    -0.452 OA
ENDROOT
BRANCH   1  12
ATOM     12  C   UNL     1       3.742   5.823 -10.360  1.00  0.00     0.025 A 
ATOM     13  C   UNL     1       2.392   5.477 -10.529  1.00  0.00     0.016 A 
ATOM     14  C   UNL     1       1.718   5.809 -11.707  1.00  0.00     0.051 A 
ATOM     15  C   UNL     1       2.376   6.505 -12.726  1.00  0.00     0.157 A 
ATOM     16  C   UNL     1       4.396   6.541 -11.377  1.00  0.00     0.062 A 
ATOM     17  C   UNL     1       3.721   6.877 -12.560  1.00  0.00     0.158 A 
BRANCH  15  18
ATOM     18  O   UNL     1       1.678   6.821 -13.891  1.00  0.00    -0.504 OA
ATOM     19  H   UNL     1       0.697   6.598 -14.008  1.00  0.00     0.293 HD
ENDBRANCH  15  18
BRANCH  17  20
ATOM     20  O   UNL     1       4.379   7.584 -13.566  1.00  0.00    -0.504 OA
ATOM     21  H   UNL     1       4.127   7.476 -14.541  1.00  0.00     0.293 HD
ENDBRANCH  17  20
ENDBRANCH   1  12
BRANCH   2  22
ATOM     22  O   UNL     1       5.988   3.997 -10.224  1.00  0.00    -0.502 OA
ATOM     23  H   UNL     1       6.119   2.995 -10.296  1.00  0.00     0.293 HD
ENDBRANCH   2  22
BRANCH   6  24
ATOM     24  O   UNL     1       7.442   4.143  -5.103  1.00  0.00    -0.507 OA
ATOM     25  H   UNL     1       8.154   4.457  -4.461  1.00  0.00     0.293 HD
ENDBRANCH   6  24
BRANCH   8  26
ATOM     26  O   UNL     1       3.810   6.694  -3.269  1.00  0.00    -0.508 OA
ATOM     27  H   UNL     1       4.205   6.610  -2.340  1.00  0.00     0.293 HD
ENDBRANCH   8  26
TORSDOF 6
ENDMDL
MODEL 8
REMARK VINA RESULT:    -5.811      1.700      1.992
REMARK INTER + INTRA:          -6.729
REMARK INTER:                  -6.433
REMARK INTRA:                  -0.296
REMARK UNBOUND:                 0.271
REMARK SMILES O=c1c(O)c(-c2ccc(O)c(O)c2)oc2cc(O)cc(O)c12
REMARK SMILES IDX 5 1 3 2 2 3 1 4 22 5 20 6 19 7 17 8 16 9 15 10 14 11 6 12
REMARK SMILES IDX 7 13 8 14 9 15 13 16 11 17 10 18 12 20 4 22 21 24 18 26
REMARK H PARENT 10 19 12 21 4 23 21 25 18 27
REMARK Flexibility Score: inf
ROOT
ATOM      1  C   UNL     1       3.685  -8.690   0.497  1.00  0.00     0.180 A 
ATOM      2  C   UNL     1       3.956  -9.613  -0.528  1.00  0.00     0.208 A 
ATOM      3  C   UNL     1       4.789  -9.228  -1.590  1.00  0.00     0.238 A 
ATOM      4  O   UNL     1       5.072 -10.077  -2.475  1.00  0.00    -0.285 OA
ATOM      5  C   UNL     1       5.330  -7.920  -1.622  1.00  0.00     0.111 A 
ATOM      6  C   UNL     1       6.154  -7.409  -2.669  1.00  0.00     0.134 A 
ATOM      7  C   UNL     1       6.740  -6.145  -2.532  1.00  0.00     0.093 A 
ATOM      8  C   UNL     1       6.478  -5.346  -1.417  1.00  0.00     0.123 A 
ATOM      9  C   UNL     1       5.627  -5.812  -0.417  1.00  0.00     0.094 A 
ATOM     10  C   UNL     1       5.057  -7.084  -0.508  1.00  0.00     0.146 A 
ATOM     11  O   UNL     1       4.261  -7.493   0.472  1.00  0.00    -0.452 OA
ENDROOT
BRANCH   1  12
ATOM     12  C   UNL     1       2.795  -9.014   1.636  1.00  0.00     0.025 A 
ATOM     13  C   UNL     1       1.447  -8.625   1.592  1.00  0.00     0.016 A 
ATOM     14  C   UNL     1       0.586  -8.938   2.646  1.00  0.00     0.051 A 
ATOM     15  C   UNL     1       1.051  -9.659   3.750  1.00  0.00     0.157 A 
ATOM     16  C   UNL     1       3.257  -9.756   2.737  1.00  0.00     0.062 A 
ATOM     17  C   UNL     1       2.394 -10.074   3.796  1.00  0.00     0.158 A 
BRANCH  15  18
ATOM     18  O   UNL     1       0.169  -9.955   4.788  1.00  0.00    -0.504 OA
ATOM     19  H   UNL     1       0.458  -9.951   5.758  1.00  0.00     0.293 HD
ENDBRANCH  15  18
BRANCH  17  20
ATOM     20  O   UNL     1       2.861 -10.805   4.887  1.00  0.00    -0.504 OA
ATOM     21  H   UNL     1       2.535 -10.620   5.828  1.00  0.00     0.293 HD
ENDBRANCH  17  20
ENDBRANCH   1  12
BRANCH   2  22
ATOM     22  O   UNL     1       3.430 -10.906  -0.465  1.00  0.00    -0.502 OA
ATOM     23  H   UNL     1       2.607 -11.185  -0.985  1.00  0.00     0.293 HD
ENDBRANCH   2  22
BRANCH   6  24
ATOM     24  O   UNL     1       6.405  -8.087  -3.866  1.00  0.00    -0.507 OA
ATOM     25  H   UNL     1       7.245  -7.990  -4.416  1.00  0.00     0.293 HD
ENDBRANCH   6  24
BRANCH   8  26
ATOM     26  O   UNL     1       7.052  -4.082  -1.297  1.00  0.00    -0.508 OA
ATOM     27  H   UNL     1       6.869  -3.350  -1.973  1.00  0.00     0.293 HD
ENDBRANCH   8  26
TORSDOF 6
ENDMDL
MODEL 9
REMARK VINA RESULT:    -5.793     12.544     14.133
REMARK INTER + INTRA:          -6.708
REMARK INTER:                  -6.523
REMARK INTRA:                  -0.185
REMARK UNBOUND:                 0.271
REMARK SMILES O=c1c(O)c(-c2ccc(O)c(O)c2)oc2cc(O)cc(O)c12
REMARK SMILES IDX 5 1 3 2 2 3 1 4 22 5 20 6 19 7 17 8 16 9 15 10 14 11 6 12
REMARK SMILES IDX 7 13 8 14 9 15 13 16 11 17 10 18 12 20 4 22 21 24 18 26
REMARK H PARENT 10 19 12 21 4 23 21 25 18 27
REMARK Flexibility Score: inf
ROOT
ATOM      1  C   UNL     1       5.057   5.814  -5.436  1.00  0.00     0.180 A 
ATOM      2  C   UNL     1       4.076   6.361  -6.281  1.00  0.00     0.208 A 
ATOM      3  C   UNL     1       4.043   5.971  -7.630  1.00  0.00     0.238 A 
ATOM      4  O   UNL     1       3.129   6.423  -8.367  1.00  0.00    -0.285 OA
ATOM      5  C   UNL     1       5.000   5.050  -8.120  1.00  0.00     0.111 A 
ATOM      6  C   UNL     1       5.085   4.614  -9.476  1.00  0.00     0.134 A 
ATOM      7  C   UNL     1       5.988   3.601  -9.821  1.00  0.00     0.093 A 
ATOM      8  C   UNL     1       6.855   3.055  -8.872  1.00  0.00     0.123 A 
ATOM      9  C   UNL     1       6.820   3.516  -7.558  1.00  0.00     0.094 A 
ATOM     10  C   UNL     1       5.905   4.500  -7.175  1.00  0.00     0.146 A 
ATOM     11  O   UNL     1       5.899   4.902  -5.911  1.00  0.00    -0.452 OA
ENDROOT
BRANCH   1  12
ATOM     12  C   UNL     1       5.171   6.196  -4.010  1.00  0.00     0.025 A 
ATOM     13  C   UNL     1       5.537   7.509  -3.673  1.00  0.00     0.016 A 
ATOM     14  C   UNL     1       5.631   7.895  -2.334  1.00  0.00     0.051 A 
ATOM     15  C   UNL     1       5.345   6.985  -1.313  1.00  0.00     0.157 A 
ATOM     16  C   UNL     1       4.864   5.287  -2.982  1.00  0.00     0.062 A 
ATOM     17  C   UNL     1       4.956   5.674  -1.637  1.00  0.00     0.158 A 
BRANCH  15  18
ATOM     18  O   UNL     1       5.449   7.400   0.014  1.00  0.00    -0.504 OA
ATOM     19  H   UNL     1       5.390   8.376   0.279  1.00  0.00     0.293 HD
ENDBRANCH  15  18
BRANCH  17  20
ATOM     20  O   UNL     1       4.655   4.764  -0.624  1.00  0.00    -0.504 OA
ATOM     21  H   UNL     1       3.813   4.202  -0.649  1.00  0.00     0.293 HD
ENDBRANCH  17  20
ENDBRANCH   1  12
BRANCH   2  22
ATOM     22  O   UNL     1       3.128   7.252  -5.772  1.00  0.00    -0.502 OA
ATOM     23  H   UNL     1       3.362   8.198  -5.496  1.00  0.00     0.293 HD
ENDBRANCH   2  22
BRANCH   6  24
ATOM     24  O   UNL     1       4.329   5.159 -10.519  1.00  0.00    -0.507 OA
ATOM     25  H   UNL     1       3.601   5.847 -10.403  1.00  0.00     0.293 HD
ENDBRANCH   6  24
BRANCH   8  26
ATOM     26  O   UNL     1       7.762   2.058  -9.227  1.00  0.00    -0.508 OA
ATOM     27  H   UNL     1       7.601   1.456 -10.025  1.00  0.00     0.293 HD
ENDBRANCH   8  26
TORSDOF 6
ENDMDL
