MODEL 1
REMARK VINA RESULT:    -4.097      0.000      0.000
REMARK INTER + INTRA:          -6.577
REMARK INTER:                  -5.773
REMARK INTRA:                  -0.804
REMARK UNBOUND:                -0.804
REMARK SMILES C=CCCCCCCC(=O)[O-]
REMARK SMILES IDX 6 1 7 2 8 3 9 4 10 5 11 6 5 7 4 8 3 9 2 10 1 11
REMARK H PARENT
REMARK Flexibility Score: inf
ROOT
ATOM      1  C   UNL     1      -0.103  17.280   8.833  1.00  0.00     0.000 C 
ENDROOT
BRANCH   1   2
ATOM      2  C   UNL     1       0.263  18.494   7.971  1.00  0.00     0.006 C 
BRANCH   2   3
ATOM      3  C   UNL     1       1.764  18.787   8.046  1.00  0.00     0.053 C 
BRANCH   3   4
ATOM      4  C   UNL     1       2.107  19.440   9.349  1.00  0.00     0.041 C 
ATOM      5  O   UNL     1       3.244  19.268   9.863  1.00  0.00    -0.550 OA
ATOM      6  O   UNL     1       1.189  20.276   9.970  1.00  0.00    -0.550 OA
ENDBRANCH   3   4
ENDBRANCH   2   3
ENDBRANCH   1   2
BRANCH   1   7
ATOM      7  C   UNL     1       0.803  16.082   8.510  1.00  0.00     0.000 C 
BRANCH   7   8
ATOM      8  C   UNL     1       1.430  15.452   9.767  1.00  0.00     0.004 C 
BRANCH   8   9
ATOM      9  C   UNL     1       2.936  15.724   9.924  1.00  0.00     0.027 C 
BRANCH   9  10
ATOM     10  C   UNL     1       3.665  15.731   8.607  1.00  0.00    -0.035 C 
ATOM     11  C   UNL     1       4.755  16.477   8.409  1.00  0.00     0.004 C 
ENDBRANCH   9  10
ENDBRANCH   8   9
ENDBRANCH   7   8
ENDBRANCH   1   7
TORSDOF 7
ENDMDL
MODEL 2
REMARK VINA RESULT:    -4.078      2.149      3.468
REMARK INTER + INTRA:          -6.551
REMARK INTER:                  -5.824
REMARK INTRA:                  -0.727
REMARK UNBOUND:                -0.804
REMARK SMILES C=CCCCCCCC(=O)[O-]
REMARK SMILES IDX 6 1 7 2 8 3 9 4 10 5 11 6 5 7 4 8 3 9 2 10 1 11
REMARK H PARENT
REMARK Flexibility Score: inf
ROOT
ATOM      1  C   UNL     1      -0.164  17.025   8.323  1.00  0.00     0.000 C 
ENDROOT
BRANCH   1   2
ATOM      2  C   UNL     1       1.078  16.152   8.541  1.00  0.00     0.006 C 
BRANCH   2   3
ATOM      3  C   UNL     1       0.875  15.193   9.718  1.00  0.00     0.053 C 
BRANCH   3   4
ATOM      4  C   UNL     1       1.709  15.615  10.886  1.00  0.00     0.041 C 
ATOM      5  O   UNL     1       2.922  15.281  10.952  1.00  0.00    -0.550 OA
ATOM      6  O   UNL     1       1.161  16.416  11.878  1.00  0.00    -0.550 OA
ENDBRANCH   3   4
ENDBRANCH   2   3
ENDBRANCH   1   2
BRANCH   1   7
ATOM      7  C   UNL     1       0.234  18.470   7.980  1.00  0.00     0.000 C 
BRANCH   7   8
ATOM      8  C   UNL     1       1.721  18.760   8.253  1.00  0.00     0.004 C 
BRANCH   8   9
ATOM      9  C   UNL     1       1.978  19.590   9.523  1.00  0.00     0.027 C 
BRANCH   9  10
ATOM     10  C   UNL     1       3.284  19.244  10.187  1.00  0.00    -0.035 C 
ATOM     11  C   UNL     1       4.133  18.362   9.654  1.00  0.00     0.004 C 
ENDBRANCH   9  10
ENDBRANCH   8   9
ENDBRANCH   7   8
ENDBRANCH   1   7
TORSDOF 7
ENDMDL
MODEL 3
REMARK VINA RESULT:    -4.010      1.911      2.881
REMARK INTER + INTRA:          -6.456
REMARK INTER:                  -5.690
REMARK INTRA:                  -0.766
REMARK UNBOUND:                -0.804
REMARK SMILES C=CCCCCCCC(=O)[O-]
REMARK SMILES IDX 6 1 7 2 8 3 9 4 10 5 11 6 5 7 4 8 3 9 2 10 1 11
REMARK H PARENT
REMARK Flexibility Score: inf
ROOT
ATOM      1  C   UNL     1       1.942  18.657   8.297  1.00  0.00     0.000 C 
ENDROOT
BRANCH   1   2
ATOM      2  C   UNL     1       2.179  19.652   9.439  1.00  0.00     0.006 C 
BRANCH   2   3
ATOM      3  C   UNL     1       2.265  18.931  10.787  1.00  0.00     0.053 C 
BRANCH   3   4
ATOM      4  C   UNL     1       0.964  19.034  11.520  1.00  0.00     0.041 C 
ATOM      5  O   UNL     1       0.392  17.995  11.942  1.00  0.00    -0.550 OA
ATOM      6  O   UNL     1       0.409  20.280  11.780  1.00  0.00    -0.550 OA
ENDBRANCH   3   4
ENDBRANCH   2   3
ENDBRANCH   1   2
BRANCH   1   7
ATOM      7  C   UNL     1       0.441  18.491   8.016  1.00  0.00     0.000 C 
BRANCH   7   8
ATOM      8  C   UNL     1      -0.039  17.037   8.177  1.00  0.00     0.004 C 
BRANCH   8   9
ATOM      9  C   UNL     1       1.076  16.042   8.546  1.00  0.00     0.027 C 
BRANCH   9  10
ATOM     10  C   UNL     1       0.754  15.243   9.780  1.00  0.00    -0.035 C 
ATOM     11  C   UNL     1       1.703  14.857  10.637  1.00  0.00     0.004 C 
ENDBRANCH   9  10
ENDBRANCH   8   9
ENDBRANCH   7   8
ENDBRANCH   1   7
TORSDOF 7
ENDMDL
MODEL 4
REMARK VINA RESULT:    -3.990      2.027      3.542
REMARK INTER + INTRA:          -6.427
REMARK INTER:                  -5.777
REMARK INTRA:                  -0.650
REMARK UNBOUND:                -0.804
REMARK SMILES C=CCCCCCCC(=O)[O-]
REMARK SMILES IDX 6 1 7 2 8 3 9 4 10 5 11 6 5 7 4 8 3 9 2 10 1 11
REMARK H PARENT
REMARK Flexibility Score: inf
ROOT
ATOM      1  C   UNL     1       1.945  19.631   9.546  1.00  0.00     0.000 C 
ENDROOT
BRANCH   1   2
ATOM      2  C   UNL     1       3.142  19.183  10.394  1.00  0.00     0.006 C 
BRANCH   2   3
ATOM      3  C   UNL     1       4.158  18.413   9.546  1.00  0.00     0.053 C 
BRANCH   3   4
ATOM      4  C   UNL     1       5.548  18.885   9.837  1.00  0.00     0.041 C 
ATOM      5  O   UNL     1       6.534  18.144   9.582  1.00  0.00    -0.550 OA
ATOM      6  O   UNL     1       5.757  20.161  10.343  1.00  0.00    -0.550 OA
ENDBRANCH   3   4
ENDBRANCH   2   3
ENDBRANCH   1   2
BRANCH   1   7
ATOM      7  C   UNL     1       1.837  18.793   8.262  1.00  0.00     0.000 C 
BRANCH   7   8
ATOM      8  C   UNL     1       0.380  18.470   7.883  1.00  0.00     0.004 C 
BRANCH   8   9
ATOM      9  C   UNL     1      -0.130  17.124   8.429  1.00  0.00     0.027 C 
BRANCH   9  10
ATOM     10  C   UNL     1       0.970  16.110   8.592  1.00  0.00    -0.035 C 
ATOM     11  C   UNL     1       1.104  15.388   9.707  1.00  0.00     0.004 C 
ENDBRANCH   9  10
ENDBRANCH   8   9
ENDBRANCH   7   8
ENDBRANCH   1   7
TORSDOF 7
ENDMDL
MODEL 5
REMARK VINA RESULT:    -3.903      1.459      2.045
REMARK INTER + INTRA:          -6.304
REMARK INTER:                  -5.496
REMARK INTRA:                  -0.808
REMARK UNBOUND:                -0.804
REMARK SMILES C=CCCCCCCC(=O)[O-]
REMARK SMILES IDX 6 1 7 2 8 3 9 4 10 5 11 6 5 7 4 8 3 9 2 10 1 11
REMARK H PARENT
REMARK Flexibility Score: inf
ROOT
ATOM      1  C   UNL     1      -0.144  16.905   8.365  1.00  0.00     0.000 C 
ENDROOT
BRANCH   1   2
ATOM      2  C   UNL     1       0.270  18.372   8.533  1.00  0.00     0.006 C 
BRANCH   2   3
ATOM      3  C   UNL     1       1.788  18.533   8.411  1.00  0.00     0.053 C 
BRANCH   3   4
ATOM      4  C   UNL     1       2.306  19.446   9.478  1.00  0.00     0.041 C 
ATOM      5  O   UNL     1       1.529  20.256  10.049  1.00  0.00    -0.550 OA
ATOM      6  O   UNL     1       3.634  19.369   9.875  1.00  0.00    -0.550 OA
ENDBRANCH   3   4
ENDBRANCH   2   3
ENDBRANCH   1   2
BRANCH   1   7
ATOM      7  C   UNL     1       1.050  15.967   8.602  1.00  0.00     0.000 C 
BRANCH   7   8
ATOM      8  C   UNL     1       0.889  15.106   9.868  1.00  0.00     0.004 C 
BRANCH   8   9
ATOM      9  C   UNL     1       2.184  14.933  10.682  1.00  0.00     0.027 C 
BRANCH   9  10
ATOM     10  C   UNL     1       2.598  16.196  11.387  1.00  0.00    -0.035 C 
ATOM     11  C   UNL     1       1.733  16.922  12.100  1.00  0.00     0.004 C 
ENDBRANCH   9  10
ENDBRANCH   8   9
ENDBRANCH   7   8
ENDBRANCH   1   7
TORSDOF 7
ENDMDL
MODEL 6
REMARK VINA RESULT:    -3.892      2.076      3.889
REMARK INTER + INTRA:          -6.289
REMARK INTER:                  -5.511
REMARK INTRA:                  -0.778
REMARK UNBOUND:                -0.804
REMARK SMILES C=CCCCCCCC(=O)[O-]
REMARK SMILES IDX 6 1 7 2 8 3 9 4 10 5 11 6 5 7 4 8 3 9 2 10 1 11
REMARK H PARENT
REMARK Flexibility Score: inf
ROOT
ATOM      1  C   UNL     1       1.215  15.949   8.797  1.00  0.00     0.000 C 
ENDROOT
BRANCH   1   2
ATOM      2  C   UNL     1       0.997  15.012   9.990  1.00  0.00     0.006 C 
BRANCH   2   3
ATOM      3  C   UNL     1       2.145  15.129  10.997  1.00  0.00     0.053 C 
BRANCH   3   4
ATOM      4  C   UNL     1       2.070  16.432  11.729  1.00  0.00     0.041 C 
ATOM      5  O   UNL     1       0.999  16.781  12.292  1.00  0.00    -0.550 OA
ATOM      6  O   UNL     1       3.195  17.238  11.830  1.00  0.00    -0.550 OA
ENDBRANCH   3   4
ENDBRANCH   2   3
ENDBRANCH   1   2
BRANCH   1   7
ATOM      7  C   UNL     1      -0.053  16.766   8.500  1.00  0.00     0.000 C 
BRANCH   7   8
ATOM      8  C   UNL     1       0.254  18.228   8.128  1.00  0.00     0.004 C 
BRANCH   8   9
ATOM      9  C   UNL     1       1.704  18.660   8.408  1.00  0.00     0.027 C 
BRANCH   9  10
ATOM     10  C   UNL     1       1.822  19.540   9.623  1.00  0.00    -0.035 C 
ATOM     11  C   UNL     1       0.769  19.819  10.396  1.00  0.00     0.004 C 
ENDBRANCH   9  10
ENDBRANCH   8   9
ENDBRANCH   7   8
ENDBRANCH   1   7
TORSDOF 7
ENDMDL
MODEL 7
REMARK VINA RESULT:    -3.886      1.729      3.673
REMARK INTER + INTRA:          -6.281
REMARK INTER:                  -5.445
REMARK INTRA:                  -0.835
REMARK UNBOUND:                -0.804
REMARK SMILES C=CCCCCCCC(=O)[O-]
REMARK SMILES IDX 6 1 7 2 8 3 9 4 10 5 11 6 5 7 4 8 3 9 2 10 1 11
REMARK H PARENT
REMARK Flexibility Score: inf
ROOT
ATOM      1  C   UNL     1       1.086  15.400   9.841  1.00  0.00     0.000 C 
ENDROOT
BRANCH   1   2
ATOM      2  C   UNL     1       2.586  15.615  10.080  1.00  0.00     0.006 C 
BRANCH   2   3
ATOM      3  C   UNL     1       3.365  15.563   8.762  1.00  0.00     0.053 C 
BRANCH   3   4
ATOM      4  C   UNL     1       4.489  16.550   8.779  1.00  0.00     0.041 C 
ATOM      5  O   UNL     1       4.899  17.024   9.872  1.00  0.00    -0.550 OA
ATOM      6  O   UNL     1       5.116  16.910   7.594  1.00  0.00    -0.550 OA
ENDBRANCH   3   4
ENDBRANCH   2   3
ENDBRANCH   1   2
BRANCH   1   7
ATOM      7  C   UNL     1       0.650  16.008   8.499  1.00  0.00     0.000 C 
BRANCH   7   8
ATOM      8  C   UNL     1      -0.182  17.292   8.668  1.00  0.00     0.004 C 
BRANCH   8   9
ATOM      9  C   UNL     1       0.290  18.470   7.798  1.00  0.00     0.027 C 
BRANCH   9  10
ATOM     10  C   UNL     1       1.710  18.875   8.092  1.00  0.00    -0.035 C 
ATOM     11  C   UNL     1       2.078  19.331   9.292  1.00  0.00     0.004 C 
ENDBRANCH   9  10
ENDBRANCH   8   9
ENDBRANCH   7   8
ENDBRANCH   1   7
TORSDOF 7
ENDMDL
MODEL 8
REMARK VINA RESULT:    -3.791      2.227      4.307
REMARK INTER + INTRA:          -6.147
REMARK INTER:                  -5.482
REMARK INTRA:                  -0.665
REMARK UNBOUND:                -0.804
REMARK SMILES C=CCCCCCCC(=O)[O-]
REMARK SMILES IDX 6 1 7 2 8 3 9 4 10 5 11 6 5 7 4 8 3 9 2 10 1 11
REMARK H PARENT
REMARK Flexibility Score: inf
ROOT
ATOM      1  C   UNL     1       3.753  17.141   8.607  1.00  0.00     0.000 C 
ENDROOT
BRANCH   1   2
ATOM      2  C   UNL     1       3.190  15.890   9.292  1.00  0.00     0.006 C 
BRANCH   2   3
ATOM      3  C   UNL     1       3.164  16.061  10.814  1.00  0.00     0.053 C 
BRANCH   3   4
ATOM      4  C   UNL     1       1.823  15.687  11.361  1.00  0.00     0.041 C 
ATOM      5  O   UNL     1       1.063  14.924  10.708  1.00  0.00    -0.550 OA
ATOM      6  O   UNL     1       1.431  16.141  12.613  1.00  0.00    -0.550 OA
ENDBRANCH   3   4
ENDBRANCH   2   3
ENDBRANCH   1   2
BRANCH   1   7
ATOM      7  C   UNL     1       3.567  18.384   9.492  1.00  0.00     0.000 C 
BRANCH   7   8
ATOM      8  C   UNL     1       2.222  19.092   9.250  1.00  0.00     0.004 C 
BRANCH   8   9
ATOM      9  C   UNL     1       1.629  18.858   7.849  1.00  0.00     0.027 C 
BRANCH   9  10
ATOM     10  C   UNL     1       0.191  18.414   7.895  1.00  0.00    -0.035 C 
ATOM     11  C   UNL     1      -0.150  17.166   8.223  1.00  0.00     0.004 C 
ENDBRANCH   9  10
ENDBRANCH   8   9
ENDBRANCH   7   8
ENDBRANCH   1   7
TORSDOF 7
ENDMDL
MODEL 9
REMARK VINA RESULT:    -3.766      2.340      3.893
REMARK INTER + INTRA:          -6.111
REMARK INTER:                  -5.310
REMARK INTRA:                  -0.800
REMARK UNBOUND:                -0.804
REMARK SMILES C=CCCCCCCC(=O)[O-]
REMARK SMILES IDX 6 1 7 2 8 3 9 4 10 5 11 6 5 7 4 8 3 9 2 10 1 11
REMARK H PARENT
REMARK Flexibility Score: inf
ROOT
ATOM      1  C   UNL     1       2.492  19.296   9.574  1.00  0.00     0.000 C 
ENDROOT
BRANCH   1   2
ATOM      2  C   UNL     1       3.520  18.234   9.981  1.00  0.00     0.006 C 
BRANCH   2   3
ATOM      3  C   UNL     1       4.354  17.786   8.777  1.00  0.00     0.053 C 
BRANCH   3   4
ATOM      4  C   UNL     1       4.725  16.342   8.904  1.00  0.00     0.041 C 
ATOM      5  O   UNL     1       4.416  15.527   7.995  1.00  0.00    -0.550 OA
ATOM      6  O   UNL     1       5.454  15.906  10.001  1.00  0.00    -0.550 OA
ENDBRANCH   3   4
ENDBRANCH   2   3
ENDBRANCH   1   2
BRANCH   1   7
ATOM      7  C   UNL     1       1.734  18.871   8.307  1.00  0.00     0.000 C 
BRANCH   7   8
ATOM      8  C   UNL     1       0.262  18.517   8.583  1.00  0.00     0.004 C 
BRANCH   8   9
ATOM      9  C   UNL     1      -0.135  17.091   8.160  1.00  0.00     0.027 C 
BRANCH   9  10
ATOM     10  C   UNL     1       0.932  16.076   8.472  1.00  0.00    -0.035 C 
ATOM     11  C   UNL     1       0.996  15.463   9.657  1.00  0.00     0.004 C 
ENDBRANCH   9  10
ENDBRANCH   8   9
ENDBRANCH   7   8
ENDBRANCH   1   7
TORSDOF 7
ENDMDL
