MODEL 1
REMARK VINA RESULT:    -3.476      0.000      0.000
REMARK INTER + INTRA:          -4.531
REMARK INTER:                  -4.289
REMARK INTRA:                  -0.243
REMARK UNBOUND:                -0.243
REMARK SMILES CCCCCC(=O)[O-]
REMARK SMILES IDX 4 1 5 2 6 3 7 4 8 5 3 6 2 7 1 8
REMARK H PARENT
REMARK Flexibility Score: inf
ROOT
ATOM      1  C   UNL     1     -10.101   1.068   4.631  1.00  0.00     0.006 C 
ENDROOT
BRANCH   1   2
ATOM      2  C   UNL     1      -9.641   2.081   5.687  1.00  0.00     0.053 C 
BRANCH   2   3
ATOM      3  C   UNL     1      -8.244   1.803   6.151  1.00  0.00     0.041 C 
ATOM      4  O   UNL     1      -7.268   2.005   5.382  1.00  0.00    -0.550 OA
ATOM      5  O   UNL     1      -8.018   1.352   7.445  1.00  0.00    -0.550 OA
ENDBRANCH   2   3
ENDBRANCH   1   2
BRANCH   1   6
ATOM      6  C   UNL     1     -10.173  -0.361   5.189  1.00  0.00     0.000 C 
BRANCH   6   7
ATOM      7  C   UNL     1      -9.372  -1.333   4.316  1.00  0.00    -0.003 C 
ATOM      8  C   UNL     1      -8.456  -0.582   3.353  1.00  0.00     0.004 C 
ENDBRANCH   6   7
ENDBRANCH   1   6
TORSDOF 4
ENDMDL
MODEL 2
REMARK VINA RESULT:    -3.455      1.695      2.142
REMARK INTER + INTRA:          -4.506
REMARK INTER:                  -4.364
REMARK INTRA:                  -0.142
REMARK UNBOUND:                -0.243
REMARK SMILES CCCCCC(=O)[O-]
REMARK SMILES IDX 4 1 5 2 6 3 7 4 8 5 3 6 2 7 1 8
REMARK H PARENT
REMARK Flexibility Score: inf
ROOT
ATOM      1  C   UNL     1     -10.838   0.050   5.825  1.00  0.00     0.006 C 
ENDROOT
BRANCH   1   2
ATOM      2  C   UNL     1     -11.027   1.156   4.779  1.00  0.00     0.053 C 
BRANCH   2   3
ATOM      3  C   UNL     1     -10.350   2.429   5.189  1.00  0.00     0.041 C 
ATOM      4  O   UNL     1     -11.034   3.421   5.552  1.00  0.00    -0.550 OA
ATOM      5  O   UNL     1      -8.964   2.507   5.199  1.00  0.00    -0.550 OA
ENDBRANCH   2   3
ENDBRANCH   1   2
BRANCH   1   6
ATOM      6  C   UNL     1      -9.643  -0.859   5.500  1.00  0.00     0.000 C 
BRANCH   6   7
ATOM      7  C   UNL     1      -9.550  -1.127   3.994  1.00  0.00    -0.003 C 
ATOM      8  C   UNL     1      -8.273  -0.533   3.406  1.00  0.00     0.004 C 
ENDBRANCH   6   7
ENDBRANCH   1   6
TORSDOF 4
ENDMDL
MODEL 3
REMARK VINA RESULT:    -3.365      2.576      3.041
REMARK INTER + INTRA:          -4.395
REMARK INTER:                  -4.233
REMARK INTRA:                  -0.161
REMARK UNBOUND:                -0.243
REMARK SMILES CCCCCC(=O)[O-]
REMARK SMILES IDX 4 1 5 2 6 3 7 4 8 5 3 6 2 7 1 8
REMARK H PARENT
REMARK Flexibility Score: inf
ROOT
ATOM      1  C   UNL     1      -9.894   0.667   5.270  1.00  0.00     0.006 C 
ENDROOT
BRANCH   1   2
ATOM      2  C   UNL     1     -11.316   1.239   5.230  1.00  0.00     0.053 C 
BRANCH   2   3
ATOM      3  C   UNL     1     -12.125   0.799   6.413  1.00  0.00     0.041 C 
ATOM      4  O   UNL     1     -13.269   0.301   6.248  1.00  0.00    -0.550 OA
ATOM      5  O   UNL     1     -11.601   0.911   7.694  1.00  0.00    -0.550 OA
ENDBRANCH   2   3
ENDBRANCH   1   2
BRANCH   1   6
ATOM      6  C   UNL     1      -9.878  -0.862   5.129  1.00  0.00     0.000 C 
BRANCH   6   7
ATOM      7  C   UNL     1      -9.369  -1.281   3.745  1.00  0.00    -0.003 C 
ATOM      8  C   UNL     1      -8.211  -0.396   3.293  1.00  0.00     0.004 C 
ENDBRANCH   6   7
ENDBRANCH   1   6
TORSDOF 4
ENDMDL
MODEL 4
REMARK VINA RESULT:    -3.361     12.186     13.097
REMARK INTER + INTRA:          -4.390
REMARK INTER:                  -4.275
REMARK INTRA:                  -0.115
REMARK UNBOUND:                -0.243
REMARK SMILES CCCCCC(=O)[O-]
REMARK SMILES IDX 4 1 5 2 6 3 7 4 8 5 3 6 2 7 1 8
REMARK H PARENT
REMARK Flexibility Score: inf
ROOT
ATOM      1  C   UNL     1      -0.549  -9.700   6.450  1.00  0.00     0.006 C 
ENDROOT
BRANCH   1   2
ATOM      2  C   UNL     1       0.350  -8.650   7.114  1.00  0.00     0.053 C 
BRANCH   2   3
ATOM      3  C   UNL     1       0.705  -9.031   8.518  1.00  0.00     0.041 C 
ATOM      4  O   UNL     1       0.513  -8.222   9.463  1.00  0.00    -0.550 OA
ATOM      5  O   UNL     1       1.219 -10.293   8.787  1.00  0.00    -0.550 OA
ENDBRANCH   2   3
ENDBRANCH   1   2
BRANCH   1   6
ATOM      6  C   UNL     1      -2.035  -9.482   6.773  1.00  0.00     0.000 C 
BRANCH   6   7
ATOM      7  C   UNL     1      -2.349  -7.990   6.930  1.00  0.00    -0.003 C 
ATOM      8  C   UNL     1      -2.618  -7.338   5.577  1.00  0.00     0.004 C 
ENDBRANCH   6   7
ENDBRANCH   1   6
TORSDOF 4
ENDMDL
MODEL 5
REMARK VINA RESULT:    -3.315      1.173      1.302
REMARK INTER + INTRA:          -4.333
REMARK INTER:                  -4.111
REMARK INTRA:                  -0.222
REMARK UNBOUND:                -0.243
REMARK SMILES CCCCCC(=O)[O-]
REMARK SMILES IDX 4 1 5 2 6 3 7 4 8 5 3 6 2 7 1 8
REMARK H PARENT
REMARK Flexibility Score: inf
ROOT
ATOM      1  C   UNL     1     -10.467   0.449   5.191  1.00  0.00     0.006 C 
ENDROOT
BRANCH   1   2
ATOM      2  C   UNL     1     -10.431   1.019   6.615  1.00  0.00     0.053 C 
BRANCH   2   3
ATOM      3  C   UNL     1      -9.089   0.830   7.255  1.00  0.00     0.041 C 
ATOM      4  O   UNL     1      -8.070   1.384   6.764  1.00  0.00    -0.550 OA
ATOM      5  O   UNL     1      -8.970   0.069   8.410  1.00  0.00    -0.550 OA
ENDBRANCH   2   3
ENDBRANCH   1   2
BRANCH   1   6
ATOM      6  C   UNL     1     -10.031  -1.023   5.143  1.00  0.00     0.000 C 
BRANCH   6   7
ATOM      7  C   UNL     1      -9.395  -1.363   3.790  1.00  0.00    -0.003 C 
ATOM      8  C   UNL     1      -8.314  -0.352   3.420  1.00  0.00     0.004 C 
ENDBRANCH   6   7
ENDBRANCH   1   6
TORSDOF 4
ENDMDL
MODEL 6
REMARK VINA RESULT:    -3.209      2.486      3.650
REMARK INTER + INTRA:          -4.202
REMARK INTER:                  -4.033
REMARK INTRA:                  -0.170
REMARK UNBOUND:                -0.243
REMARK SMILES CCCCCC(=O)[O-]
REMARK SMILES IDX 4 1 5 2 6 3 7 4 8 5 3 6 2 7 1 8
REMARK H PARENT
REMARK Flexibility Score: inf
ROOT
ATOM      1  C   UNL     1     -10.104   1.490   5.465  1.00  0.00     0.006 C 
ENDROOT
BRANCH   1   2
ATOM      2  C   UNL     1     -10.253   0.369   4.429  1.00  0.00     0.053 C 
BRANCH   2   3
ATOM      3  C   UNL     1      -9.093  -0.580   4.466  1.00  0.00     0.041 C 
ATOM      4  O   UNL     1      -9.091  -1.545   5.275  1.00  0.00    -0.550 OA
ATOM      5  O   UNL     1      -8.032  -0.416   3.586  1.00  0.00    -0.550 OA
ENDBRANCH   2   3
ENDBRANCH   1   2
BRANCH   1   6
ATOM      6  C   UNL     1     -11.242   1.484   6.496  1.00  0.00     0.000 C 
BRANCH   6   7
ATOM      7  C   UNL     1     -12.201   0.313   6.249  1.00  0.00    -0.003 C 
ATOM      8  C   UNL     1     -13.649   0.789   6.195  1.00  0.00     0.004 C 
ENDBRANCH   6   7
ENDBRANCH   1   6
TORSDOF 4
ENDMDL
MODEL 7
REMARK VINA RESULT:    -3.173     12.541     13.285
REMARK INTER + INTRA:          -4.157
REMARK INTER:                  -3.945
REMARK INTRA:                  -0.212
REMARK UNBOUND:                -0.243
REMARK SMILES CCCCCC(=O)[O-]
REMARK SMILES IDX 4 1 5 2 6 3 7 4 8 5 3 6 2 7 1 8
REMARK H PARENT
REMARK Flexibility Score: inf
ROOT
ATOM      1  C   UNL     1      -1.160  -8.459   6.623  1.00  0.00     0.006 C 
ENDROOT
BRANCH   1   2
ATOM      2  C   UNL     1       0.356  -8.682   6.683  1.00  0.00     0.053 C 
BRANCH   2   3
ATOM      3  C   UNL     1       0.799  -9.121   8.046  1.00  0.00     0.041 C 
ATOM      4  O   UNL     1       1.406 -10.214   8.192  1.00  0.00    -0.550 OA
ATOM      5  O   UNL     1       0.569  -8.309   9.148  1.00  0.00    -0.550 OA
ENDBRANCH   2   3
ENDBRANCH   1   2
BRANCH   1   6
ATOM      6  C   UNL     1      -1.920  -9.733   6.229  1.00  0.00     0.000 C 
BRANCH   6   7
ATOM      7  C   UNL     1      -3.095  -9.988   7.181  1.00  0.00    -0.003 C 
ATOM      8  C   UNL     1      -2.876  -9.298   8.524  1.00  0.00     0.004 C 
ENDBRANCH   6   7
ENDBRANCH   1   6
TORSDOF 4
ENDMDL
MODEL 8
REMARK VINA RESULT:    -3.141      2.129      3.648
REMARK INTER + INTRA:          -4.118
REMARK INTER:                  -3.986
REMARK INTRA:                  -0.132
REMARK UNBOUND:                -0.243
REMARK SMILES CCCCCC(=O)[O-]
REMARK SMILES IDX 4 1 5 2 6 3 7 4 8 5 3 6 2 7 1 8
REMARK H PARENT
REMARK Flexibility Score: inf
ROOT
ATOM      1  C   UNL     1     -10.967   0.464   5.702  1.00  0.00     0.006 C 
ENDROOT
BRANCH   1   2
ATOM      2  C   UNL     1     -10.213   0.290   4.377  1.00  0.00     0.053 C 
BRANCH   2   3
ATOM      3  C   UNL     1      -9.102  -0.708   4.497  1.00  0.00     0.041 C 
ATOM      4  O   UNL     1      -9.099  -1.542   5.441  1.00  0.00    -0.550 OA
ATOM      5  O   UNL     1      -8.088  -0.736   3.549  1.00  0.00    -0.550 OA
ENDBRANCH   2   3
ENDBRANCH   1   2
BRANCH   1   6
ATOM      6  C   UNL     1     -11.279   1.937   6.004  1.00  0.00     0.000 C 
BRANCH   6   7
ATOM      7  C   UNL     1     -10.047   2.819   5.769  1.00  0.00    -0.003 C 
ATOM      8  C   UNL     1     -10.372   3.984   4.839  1.00  0.00     0.004 C 
ENDBRANCH   6   7
ENDBRANCH   1   6
TORSDOF 4
ENDMDL
MODEL 9
REMARK VINA RESULT:    -3.103      1.947      3.397
REMARK INTER + INTRA:          -4.071
REMARK INTER:                  -3.835
REMARK INTRA:                  -0.236
REMARK UNBOUND:                -0.243
REMARK SMILES CCCCCC(=O)[O-]
REMARK SMILES IDX 4 1 5 2 6 3 7 4 8 5 3 6 2 7 1 8
REMARK H PARENT
REMARK Flexibility Score: inf
ROOT
ATOM      1  C   UNL     1     -10.339   1.590   4.724  1.00  0.00     0.006 C 
ENDROOT
BRANCH   1   2
ATOM      2  C   UNL     1     -10.655   0.123   5.043  1.00  0.00     0.053 C 
BRANCH   2   3
ATOM      3  C   UNL     1      -9.424  -0.731   5.005  1.00  0.00     0.041 C 
ATOM      4  O   UNL     1      -9.205  -1.567   5.921  1.00  0.00    -0.550 OA
ATOM      5  O   UNL     1      -8.536  -0.625   3.943  1.00  0.00    -0.550 OA
ENDBRANCH   2   3
ENDBRANCH   1   2
BRANCH   1   6
ATOM      6  C   UNL     1      -9.568   2.279   5.859  1.00  0.00     0.000 C 
BRANCH   6   7
ATOM      7  C   UNL     1      -8.493   3.219   5.302  1.00  0.00    -0.003 C 
ATOM      8  C   UNL     1      -7.174   2.483   5.089  1.00  0.00     0.004 C 
ENDBRANCH   6   7
ENDBRANCH   1   6
TORSDOF 4
ENDMDL
