MODEL 1
REMARK VINA RESULT:    -8.098      0.000      0.000
REMARK INTER + INTRA:          -9.835
REMARK INTER:                  -9.518
REMARK INTRA:                  -0.317
REMARK UNBOUND:                -0.317
REMARK SMILES O=c1cc(-c2ccc(O)c(O)c2)oc2cc(O)cc(O)c12
REMARK SMILES IDX 4 1 3 2 2 3 1 4 21 5 19 6 18 7 16 8 15 9 14 10 13 11 5 12
REMARK SMILES IDX 6 13 7 14 8 15 12 16 10 17 9 18 11 20 20 22 17 24
REMARK H PARENT 9 19 11 21 20 23 17 25
REMARK Flexibility Score: inf
ROOT
ATOM      1  C   UNL     1     -32.088   6.237   1.336  1.00  0.00     0.138 A 
ATOM      2  C   UNL     1     -31.395   5.079   0.956  1.00  0.00     0.100 A 
ATOM      3  C   UNL     1     -30.010   5.124   0.795  1.00  0.00     0.197 A 
ATOM      4  O   UNL     1     -29.425   4.084   0.399  1.00  0.00    -0.289 OA
ATOM      5  C   UNL     1     -29.311   6.328   1.052  1.00  0.00     0.107 A 
ATOM      6  C   UNL     1     -27.895   6.483   0.956  1.00  0.00     0.134 A 
ATOM      7  C   UNL     1     -27.326   7.750   1.139  1.00  0.00     0.093 A 
ATOM      8  C   UNL     1     -28.112   8.852   1.473  1.00  0.00     0.123 A 
ATOM      9  C   UNL     1     -29.491   8.702   1.620  1.00  0.00     0.094 A 
ATOM     10  C   UNL     1     -30.093   7.459   1.409  1.00  0.00     0.146 A 
ATOM     11  O   UNL     1     -31.412   7.362   1.542  1.00  0.00    -0.456 OA
ENDROOT
BRANCH   1  12
ATOM     12  C   UNL     1     -33.560   6.245   1.525  1.00  0.00     0.021 A 
ATOM     13  C   UNL     1     -34.364   5.160   1.126  1.00  0.00     0.016 A 
ATOM     14  C   UNL     1     -35.749   5.200   1.306  1.00  0.00     0.051 A 
ATOM     15  C   UNL     1     -36.358   6.320   1.879  1.00  0.00     0.157 A 
ATOM     16  C   UNL     1     -34.179   7.374   2.088  1.00  0.00     0.062 A 
ATOM     17  C   UNL     1     -35.569   7.415   2.271  1.00  0.00     0.158 A 
BRANCH  15  18
ATOM     18  O   UNL     1     -37.741   6.330   2.048  1.00  0.00    -0.504 OA
ATOM     19  H   UNL     1     -38.200   6.954   2.699  1.00  0.00     0.293 HD
ENDBRANCH  15  18
BRANCH  17  20
ATOM     20  O   UNL     1     -36.169   8.538   2.839  1.00  0.00    -0.504 OA
ATOM     21  H   UNL     1     -36.953   9.002   2.396  1.00  0.00     0.293 HD
ENDBRANCH  17  20
ENDBRANCH   1  12
BRANCH   6  22
ATOM     22  O   UNL     1     -27.006   5.433   0.706  1.00  0.00    -0.507 OA
ATOM     23  H   UNL     1     -27.192   4.460   0.891  1.00  0.00     0.293 HD
ENDBRANCH   6  22
BRANCH   8  24
ATOM     24  O   UNL     1     -27.509  10.094   1.663  1.00  0.00    -0.508 OA
ATOM     25  H   UNL     1     -28.047  10.908   1.934  1.00  0.00     0.293 HD
ENDBRANCH   8  24
TORSDOF 5
ENDMDL
MODEL 2
REMARK VINA RESULT:    -8.051      1.742      7.039
REMARK INTER + INTRA:          -9.780
REMARK INTER:                  -9.488
REMARK INTRA:                  -0.292
REMARK UNBOUND:                -0.317
REMARK SMILES O=c1cc(-c2ccc(O)c(O)c2)oc2cc(O)cc(O)c12
REMARK SMILES IDX 4 1 3 2 2 3 1 4 21 5 19 6 18 7 16 8 15 9 14 10 13 11 5 12
REMARK SMILES IDX 6 13 7 14 8 15 12 16 10 17 9 18 11 20 20 22 17 24
REMARK H PARENT 9 19 11 21 20 23 17 25
REMARK Flexibility Score: inf
ROOT
ATOM      1  C   UNL     1     -29.972   6.926   0.992  1.00  0.00     0.138 A 
ATOM      2  C   UNL     1     -30.168   5.991  -0.034  1.00  0.00     0.100 A 
ATOM      3  C   UNL     1     -31.463   5.584  -0.359  1.00  0.00     0.197 A 
ATOM      4  O   UNL     1     -31.602   4.703  -1.246  1.00  0.00    -0.289 OA
ATOM      5  C   UNL     1     -32.569   6.146   0.323  1.00  0.00     0.107 A 
ATOM      6  C   UNL     1     -33.936   5.834   0.052  1.00  0.00     0.134 A 
ATOM      7  C   UNL     1     -34.941   6.380   0.860  1.00  0.00     0.093 A 
ATOM      8  C   UNL     1     -34.635   7.270   1.889  1.00  0.00     0.123 A 
ATOM      9  C   UNL     1     -33.307   7.622   2.130  1.00  0.00     0.094 A 
ATOM     10  C   UNL     1     -32.278   7.067   1.364  1.00  0.00     0.146 A 
ATOM     11  O   UNL     1     -31.025   7.415   1.638  1.00  0.00    -0.456 OA
ENDROOT
BRANCH   1  12
ATOM     12  C   UNL     1     -28.618   7.396   1.378  1.00  0.00     0.021 A 
ATOM     13  C   UNL     1     -28.429   8.568   2.137  1.00  0.00     0.016 A 
ATOM     14  C   UNL     1     -27.142   8.992   2.477  1.00  0.00     0.051 A 
ATOM     15  C   UNL     1     -26.023   8.264   2.063  1.00  0.00     0.157 A 
ATOM     16  C   UNL     1     -27.488   6.675   0.955  1.00  0.00     0.062 A 
ATOM     17  C   UNL     1     -26.196   7.100   1.297  1.00  0.00     0.158 A 
BRANCH  15  18
ATOM     18  O   UNL     1     -24.752   8.712   2.420  1.00  0.00    -0.504 OA
ATOM     19  H   UNL     1     -24.350   8.522   3.330  1.00  0.00     0.293 HD
ENDBRANCH  15  18
BRANCH  17  20
ATOM     20  O   UNL     1     -25.084   6.371   0.877  1.00  0.00    -0.504 OA
ATOM     21  H   UNL     1     -25.081   5.866  -0.002  1.00  0.00     0.293 HD
ENDBRANCH  17  20
ENDBRANCH   1  12
BRANCH   6  22
ATOM     22  O   UNL     1     -34.360   5.018  -1.002  1.00  0.00    -0.507 OA
ATOM     23  H   UNL     1     -34.280   5.248  -1.980  1.00  0.00     0.293 HD
ENDBRANCH   6  22
BRANCH   8  24
ATOM     24  O   UNL     1     -35.663   7.806   2.662  1.00  0.00    -0.508 OA
ATOM     25  H   UNL     1     -35.487   8.527   3.351  1.00  0.00     0.293 HD
ENDBRANCH   8  24
TORSDOF 5
ENDMDL
MODEL 3
REMARK VINA RESULT:    -7.970      1.945      7.432
REMARK INTER + INTRA:          -9.685
REMARK INTER:                  -9.397
REMARK INTRA:                  -0.288
REMARK UNBOUND:                -0.317
REMARK SMILES O=c1cc(-c2ccc(O)c(O)c2)oc2cc(O)cc(O)c12
REMARK SMILES IDX 4 1 3 2 2 3 1 4 21 5 19 6 18 7 16 8 15 9 14 10 13 11 5 12
REMARK SMILES IDX 6 13 7 14 8 15 12 16 10 17 9 18 11 20 20 22 17 24
REMARK H PARENT 9 19 11 21 20 23 17 25
REMARK Flexibility Score: inf
ROOT
ATOM      1  C   UNL     1     -29.875   7.755   2.110  1.00  0.00     0.138 A 
ATOM      2  C   UNL     1     -30.403   8.065   3.371  1.00  0.00     0.100 A 
ATOM      3  C   UNL     1     -31.756   7.837   3.628  1.00  0.00     0.197 A 
ATOM      4  O   UNL     1     -32.211   8.178   4.750  1.00  0.00    -0.289 OA
ATOM      5  C   UNL     1     -32.575   7.261   2.628  1.00  0.00     0.107 A 
ATOM      6  C   UNL     1     -33.960   6.950   2.789  1.00  0.00     0.134 A 
ATOM      7  C   UNL     1     -34.691   6.472   1.694  1.00  0.00     0.093 A 
ATOM      8  C   UNL     1     -34.078   6.238   0.464  1.00  0.00     0.123 A 
ATOM      9  C   UNL     1     -32.715   6.489   0.310  1.00  0.00     0.094 A 
ATOM     10  C   UNL     1     -31.965   7.000   1.373  1.00  0.00     0.146 A 
ATOM     11  O   UNL     1     -30.672   7.243   1.178  1.00  0.00    -0.456 OA
ENDROOT
BRANCH   1  12
ATOM     12  C   UNL     1     -28.444   7.973   1.782  1.00  0.00     0.021 A 
ATOM     13  C   UNL     1     -27.813   9.212   2.008  1.00  0.00     0.016 A 
ATOM     14  C   UNL     1     -26.467   9.392   1.680  1.00  0.00     0.051 A 
ATOM     15  C   UNL     1     -25.729   8.348   1.116  1.00  0.00     0.157 A 
ATOM     16  C   UNL     1     -27.700   6.931   1.202  1.00  0.00     0.062 A 
ATOM     17  C   UNL     1     -26.349   7.110   0.874  1.00  0.00     0.158 A 
BRANCH  15  18
ATOM     18  O   UNL     1     -24.388   8.558   0.801  1.00  0.00    -0.504 OA
ATOM     19  H   UNL     1     -24.075   8.711  -0.150  1.00  0.00     0.293 HD
ENDBRANCH  15  18
BRANCH  17  20
ATOM     20  O   UNL     1     -25.620   6.065   0.307  1.00  0.00    -0.504 OA
ATOM     21  H   UNL     1     -24.606   6.064   0.308  1.00  0.00     0.293 HD
ENDBRANCH  17  20
ENDBRANCH   1  12
BRANCH   6  22
ATOM     22  O   UNL     1     -34.655   7.071   3.997  1.00  0.00    -0.507 OA
ATOM     23  H   UNL     1     -35.307   6.393   4.359  1.00  0.00     0.293 HD
ENDBRANCH   6  22
BRANCH   8  24
ATOM     24  O   UNL     1     -34.834   5.747  -0.598  1.00  0.00    -0.508 OA
ATOM     25  H   UNL     1     -34.866   6.223  -1.491  1.00  0.00     0.293 HD
ENDBRANCH   8  24
TORSDOF 5
ENDMDL
MODEL 4
REMARK VINA RESULT:    -7.941      1.944      2.937
REMARK INTER + INTRA:          -9.651
REMARK INTER:                  -9.387
REMARK INTRA:                  -0.264
REMARK UNBOUND:                -0.317
REMARK SMILES O=c1cc(-c2ccc(O)c(O)c2)oc2cc(O)cc(O)c12
REMARK SMILES IDX 4 1 3 2 2 3 1 4 21 5 19 6 18 7 16 8 15 9 14 10 13 11 5 12
REMARK SMILES IDX 6 13 7 14 8 15 12 16 10 17 9 18 11 20 20 22 17 24
REMARK H PARENT 9 19 11 21 20 23 17 25
REMARK Flexibility Score: inf
ROOT
ATOM      1  C   UNL     1     -32.797   6.989   2.459  1.00  0.00     0.138 A 
ATOM      2  C   UNL     1     -32.248   7.383   3.687  1.00  0.00     0.100 A 
ATOM      3  C   UNL     1     -30.924   7.821   3.744  1.00  0.00     0.197 A 
ATOM      4  O   UNL     1     -30.445   8.114   4.869  1.00  0.00    -0.289 OA
ATOM      5  C   UNL     1     -30.158   7.900   2.557  1.00  0.00     0.107 A 
ATOM      6  C   UNL     1     -28.810   8.365   2.487  1.00  0.00     0.134 A 
ATOM      7  C   UNL     1     -28.121   8.304   1.269  1.00  0.00     0.093 A 
ATOM      8  C   UNL     1     -28.747   7.852   0.108  1.00  0.00     0.123 A 
ATOM      9  C   UNL     1     -30.080   7.443   0.153  1.00  0.00     0.094 A 
ATOM     10  C   UNL     1     -30.784   7.458   1.361  1.00  0.00     0.146 A 
ATOM     11  O   UNL     1     -32.047   7.043   1.363  1.00  0.00    -0.456 OA
ENDROOT
BRANCH   1  12
ATOM     12  C   UNL     1     -34.200   6.518   2.340  1.00  0.00     0.021 A 
ATOM     13  C   UNL     1     -35.268   7.416   2.148  1.00  0.00     0.016 A 
ATOM     14  C   UNL     1     -36.580   6.944   2.050  1.00  0.00     0.051 A 
ATOM     15  C   UNL     1     -36.851   5.577   2.148  1.00  0.00     0.157 A 
ATOM     16  C   UNL     1     -34.480   5.146   2.451  1.00  0.00     0.062 A 
ATOM     17  C   UNL     1     -35.796   4.671   2.351  1.00  0.00     0.158 A 
BRANCH  15  18
ATOM     18  O   UNL     1     -38.170   5.137   2.044  1.00  0.00    -0.504 OA
ATOM     19  H   UNL     1     -38.953   5.780   2.035  1.00  0.00     0.293 HD
ENDBRANCH  15  18
BRANCH  17  20
ATOM     20  O   UNL     1     -36.060   3.306   2.453  1.00  0.00    -0.504 OA
ATOM     21  H   UNL     1     -36.925   2.962   2.852  1.00  0.00     0.293 HD
ENDBRANCH  17  20
ENDBRANCH   1  12
BRANCH   6  22
ATOM     22  O   UNL     1     -28.112   8.911   3.569  1.00  0.00    -0.507 OA
ATOM     23  H   UNL     1     -28.327   8.746   4.540  1.00  0.00     0.293 HD
ENDBRANCH   6  22
BRANCH   8  24
ATOM     24  O   UNL     1     -28.035   7.820  -1.089  1.00  0.00    -0.508 OA
ATOM     25  H   UNL     1     -27.554   8.638  -1.442  1.00  0.00     0.293 HD
ENDBRANCH   8  24
TORSDOF 5
ENDMDL
MODEL 5
REMARK VINA RESULT:    -7.673      1.943      7.093
REMARK INTER + INTRA:          -9.335
REMARK INTER:                  -9.052
REMARK INTRA:                  -0.283
REMARK UNBOUND:                -0.317
REMARK SMILES O=c1cc(-c2ccc(O)c(O)c2)oc2cc(O)cc(O)c12
REMARK SMILES IDX 4 1 3 2 2 3 1 4 21 5 19 6 18 7 16 8 15 9 14 10 13 11 5 12
REMARK SMILES IDX 6 13 7 14 8 15 12 16 10 17 9 18 11 20 20 22 17 24
REMARK H PARENT 9 19 11 21 20 23 17 25
REMARK Flexibility Score: inf
ROOT
ATOM      1  C   UNL     1     -29.207   7.012   1.298  1.00  0.00     0.138 A 
ATOM      2  C   UNL     1     -29.298   5.725   0.750  1.00  0.00     0.100 A 
ATOM      3  C   UNL     1     -30.472   4.987   0.909  1.00  0.00     0.197 A 
ATOM      4  O   UNL     1     -30.501   3.815   0.454  1.00  0.00    -0.289 OA
ATOM      5  C   UNL     1     -31.574   5.557   1.589  1.00  0.00     0.107 A 
ATOM      6  C   UNL     1     -32.833   4.912   1.781  1.00  0.00     0.134 A 
ATOM      7  C   UNL     1     -33.817   5.539   2.557  1.00  0.00     0.093 A 
ATOM      8  C   UNL     1     -33.611   6.807   3.098  1.00  0.00     0.123 A 
ATOM      9  C   UNL     1     -32.403   7.468   2.874  1.00  0.00     0.094 A 
ATOM     10  C   UNL     1     -31.388   6.856   2.134  1.00  0.00     0.146 A 
ATOM     11  O   UNL     1     -30.246   7.513   1.959  1.00  0.00    -0.456 OA
ENDROOT
BRANCH   1  12
ATOM     12  C   UNL     1     -27.985   7.843   1.157  1.00  0.00     0.021 A 
ATOM     13  C   UNL     1     -27.581   8.741   2.163  1.00  0.00     0.016 A 
ATOM     14  C   UNL     1     -26.431   9.518   1.999  1.00  0.00     0.051 A 
ATOM     15  C   UNL     1     -25.670   9.420   0.831  1.00  0.00     0.157 A 
ATOM     16  C   UNL     1     -27.223   7.758  -0.021  1.00  0.00     0.062 A 
ATOM     17  C   UNL     1     -26.068   8.536  -0.186  1.00  0.00     0.158 A 
BRANCH  15  18
ATOM     18  O   UNL     1     -24.527  10.207   0.697  1.00  0.00    -0.504 OA
ATOM     19  H   UNL     1     -24.488  10.998   0.066  1.00  0.00     0.293 HD
ENDBRANCH  15  18
BRANCH  17  20
ATOM     20  O   UNL     1     -25.316   8.435  -1.355  1.00  0.00    -0.504 OA
ATOM     21  H   UNL     1     -24.305   8.372  -1.332  1.00  0.00     0.293 HD
ENDBRANCH  17  20
ENDBRANCH   1  12
BRANCH   6  22
ATOM     22  O   UNL     1     -33.177   3.679   1.220  1.00  0.00    -0.507 OA
ATOM     23  H   UNL     1     -32.973   3.396   0.274  1.00  0.00     0.293 HD
ENDBRANCH   6  22
BRANCH   8  24
ATOM     24  O   UNL     1     -34.619   7.405   3.852  1.00  0.00    -0.508 OA
ATOM     25  H   UNL     1     -35.597   7.292   3.614  1.00  0.00     0.293 HD
ENDBRANCH   8  24
TORSDOF 5
ENDMDL
MODEL 6
REMARK VINA RESULT:    -7.564      2.246      7.365
REMARK INTER + INTRA:          -9.208
REMARK INTER:                  -8.945
REMARK INTRA:                  -0.262
REMARK UNBOUND:                -0.317
REMARK SMILES O=c1cc(-c2ccc(O)c(O)c2)oc2cc(O)cc(O)c12
REMARK SMILES IDX 4 1 3 2 2 3 1 4 21 5 19 6 18 7 16 8 15 9 14 10 13 11 5 12
REMARK SMILES IDX 6 13 7 14 8 15 12 16 10 17 9 18 11 20 20 22 17 24
REMARK H PARENT 9 19 11 21 20 23 17 25
REMARK Flexibility Score: inf
ROOT
ATOM      1  C   UNL     1     -33.205   6.818   2.369  1.00  0.00     0.138 A 
ATOM      2  C   UNL     1     -34.395   7.556   2.300  1.00  0.00     0.100 A 
ATOM      3  C   UNL     1     -35.621   6.890   2.264  1.00  0.00     0.197 A 
ATOM      4  O   UNL     1     -36.666   7.579   2.145  1.00  0.00    -0.289 OA
ATOM      5  C   UNL     1     -35.655   5.477   2.335  1.00  0.00     0.107 A 
ATOM      6  C   UNL     1     -36.848   4.691   2.343  1.00  0.00     0.134 A 
ATOM      7  C   UNL     1     -36.753   3.294   2.317  1.00  0.00     0.093 A 
ATOM      8  C   UNL     1     -35.515   2.654   2.343  1.00  0.00     0.123 A 
ATOM      9  C   UNL     1     -34.344   3.411   2.388  1.00  0.00     0.094 A 
ATOM     10  C   UNL     1     -34.403   4.807   2.379  1.00  0.00     0.146 A 
ATOM     11  O   UNL     1     -33.264   5.491   2.404  1.00  0.00    -0.456 OA
ENDROOT
BRANCH   1  12
ATOM     12  C   UNL     1     -31.874   7.474   2.412  1.00  0.00     0.021 A 
ATOM     13  C   UNL     1     -31.160   7.620   3.618  1.00  0.00     0.016 A 
ATOM     14  C   UNL     1     -29.914   8.251   3.630  1.00  0.00     0.051 A 
ATOM     15  C   UNL     1     -29.361   8.753   2.449  1.00  0.00     0.157 A 
ATOM     16  C   UNL     1     -31.319   7.993   1.230  1.00  0.00     0.062 A 
ATOM     17  C   UNL     1     -30.068   8.625   1.241  1.00  0.00     0.158 A 
BRANCH  15  18
ATOM     18  O   UNL     1     -28.115   9.376   2.493  1.00  0.00    -0.504 OA
ATOM     19  H   UNL     1     -27.868  10.133   1.868  1.00  0.00     0.293 HD
ENDBRANCH  15  18
BRANCH  17  20
ATOM     20  O   UNL     1     -29.525   9.127   0.060  1.00  0.00    -0.504 OA
ATOM     21  H   UNL     1     -28.575   9.479   0.019  1.00  0.00     0.293 HD
ENDBRANCH  17  20
ENDBRANCH   1  12
BRANCH   6  22
ATOM     22  O   UNL     1     -38.139   5.226   2.397  1.00  0.00    -0.507 OA
ATOM     23  H   UNL     1     -38.406   6.041   2.925  1.00  0.00     0.293 HD
ENDBRANCH   6  22
BRANCH   8  24
ATOM     24  O   UNL     1     -35.460   1.262   2.333  1.00  0.00    -0.508 OA
ATOM     25  H   UNL     1     -35.727   0.727   1.516  1.00  0.00     0.293 HD
ENDBRANCH   8  24
TORSDOF 5
ENDMDL
MODEL 7
REMARK VINA RESULT:    -7.307      1.966      2.475
REMARK INTER + INTRA:          -8.905
REMARK INTER:                  -8.631
REMARK INTRA:                  -0.274
REMARK UNBOUND:                -0.317
REMARK SMILES O=c1cc(-c2ccc(O)c(O)c2)oc2cc(O)cc(O)c12
REMARK SMILES IDX 4 1 3 2 2 3 1 4 21 5 19 6 18 7 16 8 15 9 14 10 13 11 5 12
REMARK SMILES IDX 6 13 7 14 8 15 12 16 10 17 9 18 11 20 20 22 17 24
REMARK H PARENT 9 19 11 21 20 23 17 25
REMARK Flexibility Score: inf
ROOT
ATOM      1  C   UNL     1     -31.819   5.798   1.077  1.00  0.00     0.138 A 
ATOM      2  C   UNL     1     -31.322   5.461  -0.190  1.00  0.00     0.100 A 
ATOM      3  C   UNL     1     -30.127   6.027  -0.636  1.00  0.00     0.197 A 
ATOM      4  O   UNL     1     -29.737   5.749  -1.799  1.00  0.00    -0.289 OA
ATOM      5  C   UNL     1     -29.407   6.907   0.208  1.00  0.00     0.107 A 
ATOM      6  C   UNL     1     -28.160   7.517  -0.126  1.00  0.00     0.134 A 
ATOM      7  C   UNL     1     -27.591   8.448   0.752  1.00  0.00     0.093 A 
ATOM      8  C   UNL     1     -28.190   8.747   1.974  1.00  0.00     0.123 A 
ATOM      9  C   UNL     1     -29.383   8.120   2.334  1.00  0.00     0.094 A 
ATOM     10  C   UNL     1     -29.995   7.212   1.465  1.00  0.00     0.146 A 
ATOM     11  O   UNL     1     -31.140   6.650   1.838  1.00  0.00    -0.456 OA
ENDROOT
BRANCH   1  12
ATOM     12  C   UNL     1     -33.083   5.224   1.603  1.00  0.00     0.021 A 
ATOM     13  C   UNL     1     -34.059   6.028   2.222  1.00  0.00     0.016 A 
ATOM     14  C   UNL     1     -35.235   5.458   2.718  1.00  0.00     0.051 A 
ATOM     15  C   UNL     1     -35.456   4.082   2.613  1.00  0.00     0.157 A 
ATOM     16  C   UNL     1     -33.304   3.839   1.513  1.00  0.00     0.062 A 
ATOM     17  C   UNL     1     -34.485   3.266   2.009  1.00  0.00     0.158 A 
BRANCH  15  18
ATOM     18  O   UNL     1     -36.639   3.544   3.115  1.00  0.00    -0.504 OA
ATOM     19  H   UNL     1     -37.300   3.051   2.527  1.00  0.00     0.293 HD
ENDBRANCH  15  18
BRANCH  17  20
ATOM     20  O   UNL     1     -34.696   1.892   1.904  1.00  0.00    -0.504 OA
ATOM     21  H   UNL     1     -35.609   1.511   1.686  1.00  0.00     0.293 HD
ENDBRANCH  17  20
ENDBRANCH   1  12
BRANCH   6  22
ATOM     22  O   UNL     1     -27.433   7.231  -1.286  1.00  0.00    -0.507 OA
ATOM     23  H   UNL     1     -27.365   7.834  -2.090  1.00  0.00     0.293 HD
ENDBRANCH   6  22
BRANCH   8  24
ATOM     24  O   UNL     1     -27.587   9.667   2.829  1.00  0.00    -0.508 OA
ATOM     25  H   UNL     1     -26.868   9.388   3.487  1.00  0.00     0.293 HD
ENDBRANCH   8  24
TORSDOF 5
ENDMDL
MODEL 8
REMARK VINA RESULT:    -7.253      1.659      7.326
REMARK INTER + INTRA:          -8.841
REMARK INTER:                  -8.523
REMARK INTRA:                  -0.318
REMARK UNBOUND:                -0.317
REMARK SMILES O=c1cc(-c2ccc(O)c(O)c2)oc2cc(O)cc(O)c12
REMARK SMILES IDX 4 1 3 2 2 3 1 4 21 5 19 6 18 7 16 8 15 9 14 10 13 11 5 12
REMARK SMILES IDX 6 13 7 14 8 15 12 16 10 17 9 18 11 20 20 22 17 24
REMARK H PARENT 9 19 11 21 20 23 17 25
REMARK Flexibility Score: inf
ROOT
ATOM      1  C   UNL     1     -31.773   6.905   1.639  1.00  0.00     0.138 A 
ATOM      2  C   UNL     1     -32.788   7.858   1.807  1.00  0.00     0.100 A 
ATOM      3  C   UNL     1     -34.099   7.438   2.032  1.00  0.00     0.197 A 
ATOM      4  O   UNL     1     -34.995   8.316   2.123  1.00  0.00    -0.289 OA
ATOM      5  C   UNL     1     -34.389   6.056   2.126  1.00  0.00     0.107 A 
ATOM      6  C   UNL     1     -35.683   5.511   2.388  1.00  0.00     0.134 A 
ATOM      7  C   UNL     1     -35.865   4.123   2.360  1.00  0.00     0.093 A 
ATOM      8  C   UNL     1     -34.794   3.259   2.139  1.00  0.00     0.123 A 
ATOM      9  C   UNL     1     -33.516   3.777   1.932  1.00  0.00     0.094 A 
ATOM     10  C   UNL     1     -33.307   5.159   1.919  1.00  0.00     0.146 A 
ATOM     11  O   UNL     1     -32.077   5.613   1.701  1.00  0.00    -0.456 OA
ENDROOT
BRANCH   1  12
ATOM     12  C   UNL     1     -30.361   7.295   1.400  1.00  0.00     0.021 A 
ATOM     13  C   UNL     1     -29.978   8.643   1.260  1.00  0.00     0.016 A 
ATOM     14  C   UNL     1     -28.643   8.980   1.025  1.00  0.00     0.051 A 
ATOM     15  C   UNL     1     -27.669   7.983   0.918  1.00  0.00     0.157 A 
ATOM     16  C   UNL     1     -29.379   6.297   1.278  1.00  0.00     0.062 A 
ATOM     17  C   UNL     1     -28.038   6.634   1.044  1.00  0.00     0.158 A 
BRANCH  15  18
ATOM     18  O   UNL     1     -26.344   8.351   0.686  1.00  0.00    -0.504 OA
ATOM     19  H   UNL     1     -25.983   9.260   0.949  1.00  0.00     0.293 HD
ENDBRANCH  15  18
BRANCH  17  20
ATOM     20  O   UNL     1     -27.072   5.634   0.935  1.00  0.00    -0.504 OA
ATOM     21  H   UNL     1     -26.135   5.760   1.299  1.00  0.00     0.293 HD
ENDBRANCH  17  20
ENDBRANCH   1  12
BRANCH   6  22
ATOM     22  O   UNL     1     -36.809   6.280   2.700  1.00  0.00    -0.507 OA
ATOM     23  H   UNL     1     -37.365   6.790   2.032  1.00  0.00     0.293 HD
ENDBRANCH   6  22
BRANCH   8  24
ATOM     24  O   UNL     1     -35.010   1.882   2.134  1.00  0.00    -0.508 OA
ATOM     25  H   UNL     1     -35.134   1.368   1.271  1.00  0.00     0.293 HD
ENDBRANCH   8  24
TORSDOF 5
ENDMDL
MODEL 9
REMARK VINA RESULT:    -7.206      2.042      7.436
REMARK INTER + INTRA:          -8.787
REMARK INTER:                  -8.514
REMARK INTRA:                  -0.273
REMARK UNBOUND:                -0.317
REMARK SMILES O=c1cc(-c2ccc(O)c(O)c2)oc2cc(O)cc(O)c12
REMARK SMILES IDX 4 1 3 2 2 3 1 4 21 5 19 6 18 7 16 8 15 9 14 10 13 11 5 12
REMARK SMILES IDX 6 13 7 14 8 15 12 16 10 17 9 18 11 20 20 22 17 24
REMARK H PARENT 9 19 11 21 20 23 17 25
REMARK Flexibility Score: inf
ROOT
ATOM      1  C   UNL     1     -29.359   7.401   1.249  1.00  0.00     0.138 A 
ATOM      2  C   UNL     1     -29.976   7.988   2.362  1.00  0.00     0.100 A 
ATOM      3  C   UNL     1     -31.338   7.779   2.588  1.00  0.00     0.197 A 
ATOM      4  O   UNL     1     -31.874   8.364   3.563  1.00  0.00    -0.289 OA
ATOM      5  C   UNL     1     -32.076   6.946   1.713  1.00  0.00     0.107 A 
ATOM      6  C   UNL     1     -33.461   6.632   1.863  1.00  0.00     0.134 A 
ATOM      7  C   UNL     1     -34.107   5.876   0.877  1.00  0.00     0.093 A 
ATOM      8  C   UNL     1     -33.409   5.373  -0.220  1.00  0.00     0.123 A 
ATOM      9  C   UNL     1     -32.044   5.631  -0.351  1.00  0.00     0.094 A 
ATOM     10  C   UNL     1     -31.378   6.412   0.597  1.00  0.00     0.146 A 
ATOM     11  O   UNL     1     -30.081   6.648   0.425  1.00  0.00    -0.456 OA
ENDROOT
BRANCH   1  12
ATOM     12  C   UNL     1     -27.915   7.587   0.963  1.00  0.00     0.021 A 
ATOM     13  C   UNL     1     -27.072   6.497   0.668  1.00  0.00     0.016 A 
ATOM     14  C   UNL     1     -25.713   6.701   0.413  1.00  0.00     0.051 A 
ATOM     15  C   UNL     1     -25.170   7.988   0.453  1.00  0.00     0.157 A 
ATOM     16  C   UNL     1     -27.359   8.877   1.014  1.00  0.00     0.062 A 
ATOM     17  C   UNL     1     -25.996   9.083   0.757  1.00  0.00     0.158 A 
BRANCH  15  18
ATOM     18  O   UNL     1     -23.811   8.160   0.191  1.00  0.00    -0.504 OA
ATOM     19  H   UNL     1     -23.277   7.488  -0.346  1.00  0.00     0.293 HD
ENDBRANCH  15  18
BRANCH  17  20
ATOM     20  O   UNL     1     -25.460  10.369   0.802  1.00  0.00    -0.504 OA
ATOM     21  H   UNL     1     -24.795  10.642   1.516  1.00  0.00     0.293 HD
ENDBRANCH  17  20
ENDBRANCH   1  12
BRANCH   6  22
ATOM     22  O   UNL     1     -34.237   7.016   2.961  1.00  0.00    -0.507 OA
ATOM     23  H   UNL     1     -35.059   6.531   3.286  1.00  0.00     0.293 HD
ENDBRANCH   6  22
BRANCH   8  24
ATOM     24  O   UNL     1     -34.082   4.611  -1.173  1.00  0.00    -0.508 OA
ATOM     25  H   UNL     1     -34.015   3.600  -1.187  1.00  0.00     0.293 HD
ENDBRANCH   8  24
TORSDOF 5
ENDMDL
