MODEL 1
REMARK VINA RESULT:    -4.436      0.000      0.000
REMARK INTER + INTRA:          -6.858
REMARK INTER:                  -6.770
REMARK INTRA:                  -0.089
REMARK UNBOUND:                -0.089
REMARK SMILES CC1=CCC[C@H](C)C(=O)C[C@@H](C(C)C)C(=O)C1
REMARK SMILES IDX 8 1 9 2 6 3 7 4 5 5 4 6 3 7 2 8 1 9 10 11 11 12 15 13 16 14
REMARK SMILES IDX 17 15 12 17 13 18 14 19
REMARK H PARENT
REMARK Flexibility Score: 70.00
ROOT
ATOM      1  C   UNL     1      -6.665 -28.106 -19.420  1.00  0.00     0.136 C 
ATOM      2  O   UNL     1      -6.720 -28.883 -20.364  1.00  0.00    -0.299 OA
ENDROOT
BRANCH   1   3
ATOM      3  C   UNL     1      -5.548 -27.080 -19.337  1.00  0.00     0.053 C 
ATOM      4  C   UNL     1      -5.402 -26.265 -20.632  1.00  0.00     0.016 C 
BRANCH   3   5
ATOM      5  C   UNL     1      -5.714 -26.165 -18.106  1.00  0.00     0.015 C 
BRANCH   5   6
ATOM      6  C   UNL     1      -6.618 -24.942 -18.358  1.00  0.00     0.028 C 
BRANCH   6   7
ATOM      7  C   UNL     1      -7.524 -24.695 -17.179  1.00  0.00    -0.028 C 
ATOM      8  C   UNL     1      -8.843 -24.999 -17.146  1.00  0.00    -0.070 CG0
ATOM      9  C   UNL     1      -9.596 -24.741 -15.865  1.00  0.00     0.039 C 
ATOM     10  G   UNL     1      -9.595 -25.567 -18.340  1.00  0.00     0.000 G0
ENDBRANCH   6   7
ENDBRANCH   5   6
ENDBRANCH   3   5
ENDBRANCH   1   3
BRANCH   1  11
ATOM     11  C   UNL     1      -7.726 -28.183 -18.349  1.00  0.00     0.087 C 
BRANCH  11  12
ATOM     12  C   UNL     1      -9.159 -28.076 -18.935  1.00  0.00     0.066 C 
BRANCH  12  13
ATOM     13  C   UNL     1      -9.967 -27.003 -18.220  1.00  0.00     0.140 C 
ATOM     14  O   UNL     1     -10.971 -27.315 -17.594  1.00  0.00    -0.299 OA
BRANCH  13  15
ATOM     15  C   UNL     1      -9.600 -25.545 -18.343  1.00  0.00     0.106 CG0
ATOM     16  G   UNL     1      -8.832 -25.034 -17.133  1.00  0.00     0.000 G0
ENDBRANCH  13  15
ENDBRANCH  12  13
BRANCH  12  17
ATOM     17  C   UNL     1      -9.929 -29.436 -18.948  1.00  0.00    -0.006 C 
ATOM     18  C   UNL     1      -9.243 -30.553 -18.139  1.00  0.00     0.008 C 
ATOM     19  C   UNL     1     -10.194 -29.921 -20.382  1.00  0.00     0.008 C 
ENDBRANCH  12  17
ENDBRANCH  11  12
ENDBRANCH   1  11
TORSDOF 1
ENDMDL
MODEL 2
REMARK VINA RESULT:    -4.015      1.437      3.916
REMARK INTER + INTRA:          -6.216
REMARK INTER:                  -5.978
REMARK INTRA:                  -0.238
REMARK UNBOUND:                -0.089
REMARK SMILES CC1=CCC[C@H](C)C(=O)C[C@@H](C(C)C)C(=O)C1
REMARK SMILES IDX 8 1 9 2 6 3 7 4 5 5 4 6 3 7 2 8 1 9 10 11 11 12 15 13 16 14
REMARK SMILES IDX 17 15 12 17 13 18 14 19
REMARK H PARENT
REMARK Flexibility Score: 70.00
ROOT
ATOM      1  C   UNL     1     -10.198 -26.874 -18.027  1.00  0.00     0.136 C 
ATOM      2  O   UNL     1     -11.039 -27.603 -17.517  1.00  0.00    -0.299 OA
ENDROOT
BRANCH   1   3
ATOM      3  C   UNL     1     -10.001 -25.458 -17.513  1.00  0.00     0.053 C 
ATOM      4  C   UNL     1      -9.829 -25.406 -15.986  1.00  0.00     0.016 C 
BRANCH   3   5
ATOM      5  C   UNL     1      -8.836 -24.753 -18.240  1.00  0.00     0.015 C 
BRANCH   5   6
ATOM      6  C   UNL     1      -7.480 -24.890 -17.519  1.00  0.00     0.028 C 
BRANCH   6   7
ATOM      7  C   UNL     1      -6.347 -24.913 -18.511  1.00  0.00    -0.028 C 
ATOM      8  C   UNL     1      -5.696 -26.030 -18.911  1.00  0.00    -0.070 CG0
ATOM      9  C   UNL     1      -4.621 -25.886 -19.959  1.00  0.00     0.039 C 
ATOM     10  G   UNL     1      -5.988 -27.411 -18.341  1.00  0.00     0.000 G0
ENDBRANCH   6   7
ENDBRANCH   5   6
ENDBRANCH   3   5
ENDBRANCH   1   3
BRANCH   1  11
ATOM     11  C   UNL     1      -9.362 -27.409 -19.165  1.00  0.00     0.087 C 
BRANCH  11  12
ATOM     12  C   UNL     1      -8.372 -28.508 -18.698  1.00  0.00     0.066 C 
BRANCH  12  13
ATOM     13  C   UNL     1      -6.960 -28.222 -19.190  1.00  0.00     0.140 C 
ATOM     14  O   UNL     1      -6.580 -28.693 -20.252  1.00  0.00    -0.299 OA
BRANCH  13  15
ATOM     15  C   UNL     1      -5.989 -27.436 -18.343  1.00  0.00     0.106 CG0
ATOM     16  G   UNL     1      -5.701 -26.057 -18.916  1.00  0.00     0.000 G0
ENDBRANCH  13  15
ENDBRANCH  12  13
BRANCH  12  17
ATOM     17  C   UNL     1      -8.815 -29.953 -19.092  1.00  0.00    -0.006 C 
ATOM     18  C   UNL     1      -9.918 -30.000 -20.167  1.00  0.00     0.008 C 
ATOM     19  C   UNL     1      -9.253 -30.765 -17.862  1.00  0.00     0.008 C 
ENDBRANCH  12  17
ENDBRANCH  11  12
ENDBRANCH   1  11
TORSDOF 1
ENDMDL
MODEL 3
REMARK VINA RESULT:    -3.894      2.503      4.568
REMARK INTER + INTRA:          -6.032
REMARK INTER:                  -5.973
REMARK INTRA:                  -0.058
REMARK UNBOUND:                -0.089
REMARK SMILES CC1=CCC[C@H](C)C(=O)C[C@@H](C(C)C)C(=O)C1
REMARK SMILES IDX 8 1 9 2 6 3 7 4 5 5 4 6 3 7 2 8 1 9 10 11 11 12 15 13 16 14
REMARK SMILES IDX 17 15 12 17 13 18 14 19
REMARK H PARENT
REMARK Flexibility Score: 70.00
ROOT
ATOM      1  C   UNL     1      -7.780 -24.350 -17.127  1.00  0.00     0.136 C 
ATOM      2  O   UNL     1      -8.411 -24.657 -16.125  1.00  0.00    -0.299 OA
ENDROOT
BRANCH   1   3
ATOM      3  C   UNL     1      -6.890 -23.119 -17.124  1.00  0.00     0.053 C 
ATOM      4  C   UNL     1      -7.695 -21.812 -17.219  1.00  0.00     0.016 C 
BRANCH   3   5
ATOM      5  C   UNL     1      -5.942 -23.114 -15.907  1.00  0.00     0.015 C 
BRANCH   5   6
ATOM      6  C   UNL     1      -5.104 -24.401 -15.766  1.00  0.00     0.028 C 
BRANCH   6   7
ATOM      7  C   UNL     1      -4.070 -24.487 -16.859  1.00  0.00    -0.028 C 
ATOM      8  C   UNL     1      -3.939 -25.529 -17.714  1.00  0.00    -0.070 CG0
ATOM      9  C   UNL     1      -2.887 -25.432 -18.790  1.00  0.00     0.039 C 
ATOM     10  G   UNL     1      -4.788 -26.788 -17.625  1.00  0.00     0.000 G0
ENDBRANCH   6   7
ENDBRANCH   5   6
ENDBRANCH   3   5
ENDBRANCH   1   3
BRANCH   1  11
ATOM     11  C   UNL     1      -7.900 -25.215 -18.359  1.00  0.00     0.087 C 
BRANCH  11  12
ATOM     12  C   UNL     1      -7.362 -26.650 -18.120  1.00  0.00     0.066 C 
BRANCH  12  13
ATOM     13  C   UNL     1      -5.927 -26.789 -18.607  1.00  0.00     0.140 C 
ATOM     14  O   UNL     1      -5.703 -26.971 -19.795  1.00  0.00    -0.299 OA
BRANCH  13  15
ATOM     15  C   UNL     1      -4.775 -26.792 -17.632  1.00  0.00     0.106 CG0
ATOM     16  G   UNL     1      -3.955 -25.512 -17.695  1.00  0.00     0.000 G0
ENDBRANCH  13  15
ENDBRANCH  12  13
BRANCH  12  17
ATOM     17  C   UNL     1      -8.268 -27.764 -18.737  1.00  0.00    -0.006 C 
ATOM     18  C   UNL     1      -9.762 -27.622 -18.389  1.00  0.00     0.008 C 
ATOM     19  C   UNL     1      -7.777 -29.169 -18.354  1.00  0.00     0.008 C 
ENDBRANCH  12  17
ENDBRANCH  11  12
ENDBRANCH   1  11
TORSDOF 1
ENDMDL
MODEL 4
REMARK VINA RESULT:    -3.874      3.556      6.534
REMARK INTER + INTRA:          -6.001
REMARK INTER:                  -5.731
REMARK INTRA:                  -0.270
REMARK UNBOUND:                -0.089
REMARK SMILES CC1=CCC[C@H](C)C(=O)C[C@@H](C(C)C)C(=O)C1
REMARK SMILES IDX 8 1 9 2 6 3 7 4 5 5 4 6 3 7 2 8 1 9 10 11 11 12 15 13 16 14
REMARK SMILES IDX 17 15 12 17 13 18 14 19
REMARK H PARENT
REMARK Flexibility Score: 70.00
ROOT
ATOM      1  C   UNL     1      -8.520 -23.238 -17.280  1.00  0.00     0.136 C 
ATOM      2  O   UNL     1      -9.492 -22.919 -17.951  1.00  0.00    -0.299 OA
ENDROOT
BRANCH   1   3
ATOM      3  C   UNL     1      -8.344 -24.676 -16.822  1.00  0.00     0.053 C 
ATOM      4  C   UNL     1      -9.400 -25.095 -15.786  1.00  0.00     0.016 C 
BRANCH   3   5
ATOM      5  C   UNL     1      -8.307 -25.646 -18.021  1.00  0.00     0.015 C 
BRANCH   5   6
ATOM      6  C   UNL     1      -7.001 -25.576 -18.838  1.00  0.00     0.028 C 
BRANCH   6   7
ATOM      7  C   UNL     1      -5.811 -25.907 -17.974  1.00  0.00    -0.028 C 
ATOM      8  C   UNL     1      -4.747 -25.091 -17.784  1.00  0.00    -0.070 CG0
ATOM      9  C   UNL     1      -3.665 -25.549 -16.840  1.00  0.00     0.039 C 
ATOM     10  G   UNL     1      -4.590 -23.753 -18.492  1.00  0.00     0.000 G0
ENDBRANCH   6   7
ENDBRANCH   5   6
ENDBRANCH   3   5
ENDBRANCH   1   3
BRANCH   1  11
ATOM     11  C   UNL     1      -7.504 -22.181 -16.920  1.00  0.00     0.087 C 
BRANCH  11  12
ATOM     12  C   UNL     1      -6.464 -21.960 -18.051  1.00  0.00     0.066 C 
BRANCH  12  13
ATOM     13  C   UNL     1      -5.122 -22.583 -17.694  1.00  0.00     0.140 C 
ATOM     14  O   UNL     1      -4.446 -22.098 -16.799  1.00  0.00    -0.299 OA
BRANCH  13  15
ATOM     15  C   UNL     1      -4.570 -23.741 -18.489  1.00  0.00     0.106 CG0
ATOM     16  G   UNL     1      -4.754 -25.074 -17.779  1.00  0.00     0.000 G0
ENDBRANCH  13  15
ENDBRANCH  12  13
BRANCH  12  17
ATOM     17  C   UNL     1      -6.291 -20.460 -18.453  1.00  0.00    -0.006 C 
ATOM     18  C   UNL     1      -7.602 -19.767 -18.869  1.00  0.00     0.008 C 
ATOM     19  C   UNL     1      -5.239 -20.289 -19.559  1.00  0.00     0.008 C 
ENDBRANCH  12  17
ENDBRANCH  11  12
ENDBRANCH   1  11
TORSDOF 1
ENDMDL
MODEL 5
REMARK VINA RESULT:    -3.802      1.872      4.142
REMARK INTER + INTRA:          -5.891
REMARK INTER:                  -5.648
REMARK INTRA:                  -0.243
REMARK UNBOUND:                -0.089
REMARK SMILES CC1=CCC[C@H](C)C(=O)C[C@@H](C(C)C)C(=O)C1
REMARK SMILES IDX 8 1 9 2 6 3 7 4 5 5 4 6 3 7 2 8 1 9 10 11 11 12 15 13 16 14
REMARK SMILES IDX 17 15 12 17 13 18 14 19
REMARK H PARENT
REMARK Flexibility Score: 70.00
ROOT
ATOM      1  C   UNL     1      -7.283 -28.764 -18.900  1.00  0.00     0.136 C 
ATOM      2  O   UNL     1      -7.046 -29.649 -18.089  1.00  0.00    -0.299 OA
ENDROOT
BRANCH   1   3
ATOM      3  C   UNL     1      -8.697 -28.560 -19.417  1.00  0.00     0.053 C 
ATOM      4  C   UNL     1      -9.341 -29.870 -19.899  1.00  0.00     0.016 C 
BRANCH   3   5
ATOM      5  C   UNL     1      -9.579 -27.844 -18.374  1.00  0.00     0.015 C 
BRANCH   5   6
ATOM      6  C   UNL     1      -9.716 -26.326 -18.612  1.00  0.00     0.028 C 
BRANCH   6   7
ATOM      7  C   UNL     1      -9.118 -25.550 -17.467  1.00  0.00    -0.028 C 
ATOM      8  C   UNL     1      -7.918 -24.926 -17.503  1.00  0.00    -0.070 CG0
ATOM      9  C   UNL     1      -7.492 -24.140 -16.289  1.00  0.00     0.039 C 
ATOM     10  G   UNL     1      -6.980 -24.998 -18.699  1.00  0.00     0.000 G0
ENDBRANCH   6   7
ENDBRANCH   5   6
ENDBRANCH   3   5
ENDBRANCH   1   3
BRANCH   1  11
ATOM     11  C   UNL     1      -6.151 -27.883 -19.370  1.00  0.00     0.087 C 
BRANCH  11  12
ATOM     12  C   UNL     1      -5.487 -27.110 -18.200  1.00  0.00     0.066 C 
BRANCH  12  13
ATOM     13  C   UNL     1      -5.630 -25.606 -18.383  1.00  0.00     0.140 C 
ATOM     14  O   UNL     1      -4.666 -24.877 -18.195  1.00  0.00    -0.299 OA
BRANCH  13  15
ATOM     15  C   UNL     1      -6.968 -24.988 -18.707  1.00  0.00     0.106 CG0
ATOM     16  G   UNL     1      -7.888 -24.924 -17.497  1.00  0.00     0.000 G0
ENDBRANCH  13  15
ENDBRANCH  12  13
BRANCH  12  17
ATOM     17  C   UNL     1      -3.992 -27.502 -17.965  1.00  0.00    -0.006 C 
ATOM     18  C   UNL     1      -3.252 -27.944 -19.241  1.00  0.00     0.008 C 
ATOM     19  C   UNL     1      -3.855 -28.584 -16.883  1.00  0.00     0.008 C 
ENDBRANCH  12  17
ENDBRANCH  11  12
ENDBRANCH   1  11
TORSDOF 1
ENDMDL
MODEL 6
REMARK VINA RESULT:    -3.658      2.277      4.857
REMARK INTER + INTRA:          -5.672
REMARK INTER:                  -5.583
REMARK INTRA:                  -0.088
REMARK UNBOUND:                -0.089
REMARK SMILES CC1=CCC[C@H](C)C(=O)C[C@@H](C(C)C)C(=O)C1
REMARK SMILES IDX 8 1 9 2 6 3 7 4 5 5 4 6 3 7 2 8 1 9 10 11 11 12 15 13 16 14
REMARK SMILES IDX 17 15 12 17 13 18 14 19
REMARK H PARENT
REMARK Flexibility Score: 70.00
ROOT
ATOM      1  C   UNL     1      -9.115 -27.147 -18.429  1.00  0.00     0.136 C 
ATOM      2  O   UNL     1     -10.072 -26.632 -18.993  1.00  0.00    -0.299 OA
ENDROOT
BRANCH   1   3
ATOM      3  C   UNL     1      -8.870 -28.641 -18.548  1.00  0.00     0.053 C 
ATOM      4  C   UNL     1      -9.396 -29.219 -19.873  1.00  0.00     0.016 C 
BRANCH   3   5
ATOM      5  C   UNL     1      -7.382 -28.986 -18.330  1.00  0.00     0.015 C 
BRANCH   5   6
ATOM      6  C   UNL     1      -6.473 -28.596 -19.513  1.00  0.00     0.028 C 
BRANCH   6   7
ATOM      7  C   UNL     1      -5.161 -28.042 -19.019  1.00  0.00    -0.028 C 
ATOM      8  C   UNL     1      -4.825 -26.731 -19.035  1.00  0.00    -0.070 CG0
ATOM      9  C   UNL     1      -3.494 -26.335 -18.448  1.00  0.00     0.039 C 
ATOM     10  G   UNL     1      -5.717 -25.651 -19.630  1.00  0.00     0.000 G0
ENDBRANCH   6   7
ENDBRANCH   5   6
ENDBRANCH   3   5
ENDBRANCH   1   3
BRANCH   1  11
ATOM     11  C   UNL     1      -8.187 -26.272 -17.622  1.00  0.00     0.087 C 
BRANCH  11  12
ATOM     12  C   UNL     1      -7.888 -24.925 -18.331  1.00  0.00     0.066 C 
BRANCH  12  13
ATOM     13  C   UNL     1      -6.402 -24.777 -18.628  1.00  0.00     0.140 C 
ATOM     14  O   UNL     1      -5.758 -23.894 -18.079  1.00  0.00    -0.299 OA
BRANCH  13  15
ATOM     15  C   UNL     1      -5.727 -25.650 -19.657  1.00  0.00     0.106 CG0
ATOM     16  G   UNL     1      -4.841 -26.714 -19.027  1.00  0.00     0.000 G0
ENDBRANCH  13  15
ENDBRANCH  12  13
BRANCH  12  17
ATOM     17  C   UNL     1      -8.427 -23.680 -17.555  1.00  0.00    -0.006 C 
ATOM     18  C   UNL     1      -9.216 -24.029 -16.280  1.00  0.00     0.008 C 
ATOM     19  C   UNL     1      -9.276 -22.774 -18.461  1.00  0.00     0.008 C 
ENDBRANCH  12  17
ENDBRANCH  11  12
ENDBRANCH   1  11
TORSDOF 1
ENDMDL
MODEL 7
REMARK VINA RESULT:    -3.649      2.718      4.783
REMARK INTER + INTRA:          -5.658
REMARK INTER:                  -5.706
REMARK INTRA:                   0.048
REMARK UNBOUND:                -0.089
REMARK SMILES CC1=CCC[C@H](C)C(=O)C[C@@H](C(C)C)C(=O)C1
REMARK SMILES IDX 8 1 9 2 6 3 7 4 5 5 4 6 3 7 2 8 1 9 10 11 11 12 15 13 16 14
REMARK SMILES IDX 17 15 12 17 13 18 14 19
REMARK H PARENT
REMARK Flexibility Score: 70.00
ROOT
ATOM      1  C   UNL     1      -8.450 -25.910 -17.977  1.00  0.00     0.136 C 
ATOM      2  O   UNL     1      -8.731 -27.101 -17.987  1.00  0.00    -0.299 OA
ENDROOT
BRANCH   1   3
ATOM      3  C   UNL     1      -9.462 -24.889 -17.484  1.00  0.00     0.053 C 
ATOM      4  C   UNL     1      -9.907 -25.156 -16.036  1.00  0.00     0.016 C 
BRANCH   3   5
ATOM      5  C   UNL     1      -8.939 -23.449 -17.661  1.00  0.00     0.015 C 
BRANCH   5   6
ATOM      6  C   UNL     1      -8.375 -22.829 -16.366  1.00  0.00     0.028 C 
BRANCH   6   7
ATOM      7  C   UNL     1      -7.032 -22.195 -16.618  1.00  0.00    -0.028 C 
ATOM      8  C   UNL     1      -5.842 -22.819 -16.448  1.00  0.00    -0.070 CG0
ATOM      9  C   UNL     1      -4.588 -22.059 -16.802  1.00  0.00     0.039 C 
ATOM     10  G   UNL     1      -5.717 -24.233 -15.903  1.00  0.00     0.000 G0
ENDBRANCH   6   7
ENDBRANCH   5   6
ENDBRANCH   3   5
ENDBRANCH   1   3
BRANCH   1  11
ATOM     11  C   UNL     1      -7.086 -25.478 -18.457  1.00  0.00     0.087 C 
BRANCH  11  12
ATOM     12  C   UNL     1      -5.942 -26.189 -17.686  1.00  0.00     0.066 C 
BRANCH  12  13
ATOM     13  C   UNL     1      -5.088 -25.188 -16.922  1.00  0.00     0.140 C 
ATOM     14  O   UNL     1      -3.874 -25.186 -17.071  1.00  0.00    -0.299 OA
BRANCH  13  15
ATOM     15  C   UNL     1      -5.707 -24.252 -15.913  1.00  0.00     0.106 CG0
ATOM     16  G   UNL     1      -5.848 -22.833 -16.446  1.00  0.00     0.000 G0
ENDBRANCH  13  15
ENDBRANCH  12  13
BRANCH  12  17
ATOM     17  C   UNL     1      -5.054 -27.100 -18.593  1.00  0.00    -0.006 C 
ATOM     18  C   UNL     1      -5.757 -27.586 -19.875  1.00  0.00     0.008 C 
ATOM     19  C   UNL     1      -4.500 -28.304 -17.815  1.00  0.00     0.008 C 
ENDBRANCH  12  17
ENDBRANCH  11  12
ENDBRANCH   1  11
TORSDOF 1
ENDMDL
MODEL 8
REMARK VINA RESULT:    -3.624      2.886      4.983
REMARK INTER + INTRA:          -5.620
REMARK INTER:                  -5.499
REMARK INTRA:                  -0.121
REMARK UNBOUND:                -0.089
REMARK SMILES CC1=CCC[C@H](C)C(=O)C[C@@H](C(C)C)C(=O)C1
REMARK SMILES IDX 8 1 9 2 6 3 7 4 5 5 4 6 3 7 2 8 1 9 10 11 11 12 15 13 16 14
REMARK SMILES IDX 17 15 12 17 13 18 14 19
REMARK H PARENT
REMARK Flexibility Score: 70.00
ROOT
ATOM      1  C   UNL     1      -5.752 -23.011 -17.561  1.00  0.00     0.136 C 
ATOM      2  O   UNL     1      -6.296 -22.095 -16.959  1.00  0.00    -0.299 OA
ENDROOT
BRANCH   1   3
ATOM      3  C   UNL     1      -4.266 -23.270 -17.379  1.00  0.00     0.053 C 
ATOM      4  C   UNL     1      -3.586 -22.197 -16.512  1.00  0.00     0.016 C 
BRANCH   3   5
ATOM      5  C   UNL     1      -4.005 -24.689 -16.834  1.00  0.00     0.015 C 
BRANCH   5   6
ATOM      6  C   UNL     1      -3.516 -25.686 -17.905  1.00  0.00     0.028 C 
BRANCH   6   7
ATOM      7  C   UNL     1      -4.044 -27.070 -17.627  1.00  0.00    -0.028 C 
ATOM      8  C   UNL     1      -5.179 -27.582 -18.159  1.00  0.00    -0.070 CG0
ATOM      9  C   UNL     1      -5.535 -29.009 -17.824  1.00  0.00     0.039 C 
ATOM     10  G   UNL     1      -6.111 -26.781 -19.056  1.00  0.00     0.000 G0
ENDBRANCH   6   7
ENDBRANCH   5   6
ENDBRANCH   3   5
ENDBRANCH   1   3
BRANCH   1  11
ATOM     11  C   UNL     1      -6.582 -23.877 -18.478  1.00  0.00     0.087 C 
BRANCH  11  12
ATOM     12  C   UNL     1      -7.411 -24.930 -17.698  1.00  0.00     0.066 C 
BRANCH  12  13
ATOM     13  C   UNL     1      -7.351 -26.291 -18.375  1.00  0.00     0.140 C 
ATOM     14  O   UNL     1      -8.305 -27.052 -18.296  1.00  0.00    -0.299 OA
BRANCH  13  15
ATOM     15  C   UNL     1      -6.095 -26.755 -19.072  1.00  0.00     0.106 CG0
ATOM     16  G   UNL     1      -5.192 -27.571 -18.161  1.00  0.00     0.000 G0
ENDBRANCH  13  15
ENDBRANCH  12  13
BRANCH  12  17
ATOM     17  C   UNL     1      -8.893 -24.497 -17.451  1.00  0.00    -0.006 C 
ATOM     18  C   UNL     1      -9.346 -23.298 -18.306  1.00  0.00     0.008 C 
ATOM     19  C   UNL     1      -9.157 -24.205 -15.966  1.00  0.00     0.008 C 
ENDBRANCH  12  17
ENDBRANCH  11  12
ENDBRANCH   1  11
TORSDOF 1
ENDMDL
MODEL 9
REMARK VINA RESULT:    -3.585      2.657      3.864
REMARK INTER + INTRA:          -5.560
REMARK INTER:                  -5.304
REMARK INTRA:                  -0.256
REMARK UNBOUND:                -0.089
REMARK SMILES CC1=CCC[C@H](C)C(=O)C[C@@H](C(C)C)C(=O)C1
REMARK SMILES IDX 8 1 9 2 6 3 7 4 5 5 4 6 3 7 2 8 1 9 10 11 11 12 15 13 16 14
REMARK SMILES IDX 17 15 12 17 13 18 14 19
REMARK H PARENT
REMARK Flexibility Score: 70.00
ROOT
ATOM      1  C   UNL     1      -4.108 -24.499 -17.388  1.00  0.00     0.136 C 
ATOM      2  O   UNL     1      -2.971 -24.903 -17.593  1.00  0.00    -0.299 OA
ENDROOT
BRANCH   1   3
ATOM      3  C   UNL     1      -4.378 -23.011 -17.246  1.00  0.00     0.053 C 
ATOM      4  C   UNL     1      -4.806 -22.363 -18.572  1.00  0.00     0.016 C 
BRANCH   3   5
ATOM      5  C   UNL     1      -5.395 -22.729 -16.121  1.00  0.00     0.015 C 
BRANCH   5   6
ATOM      6  C   UNL     1      -6.746 -22.186 -16.627  1.00  0.00     0.028 C 
BRANCH   6   7
ATOM      7  C   UNL     1      -7.893 -22.932 -15.995  1.00  0.00    -0.028 C 
ATOM      8  C   UNL     1      -8.614 -23.900 -16.609  1.00  0.00    -0.070 CG0
ATOM      9  C   UNL     1      -9.693 -24.590 -15.813  1.00  0.00     0.039 C 
ATOM     10  G   UNL     1      -8.396 -24.304 -18.059  1.00  0.00     0.000 G0
ENDBRANCH   6   7
ENDBRANCH   5   6
ENDBRANCH   3   5
ENDBRANCH   1   3
BRANCH   1  11
ATOM     11  C   UNL     1      -5.231 -25.503 -17.286  1.00  0.00     0.087 C 
BRANCH  11  12
ATOM     12  C   UNL     1      -6.120 -25.519 -18.557  1.00  0.00     0.066 C 
BRANCH  12  13
ATOM     13  C   UNL     1      -7.597 -25.587 -18.196  1.00  0.00     0.140 C 
ATOM     14  O   UNL     1      -8.146 -26.673 -18.085  1.00  0.00    -0.299 OA
BRANCH  13  15
ATOM     15  C   UNL     1      -8.419 -24.328 -18.057  1.00  0.00     0.106 CG0
ATOM     16  G   UNL     1      -8.607 -23.913 -16.605  1.00  0.00     0.000 G0
ENDBRANCH  13  15
ENDBRANCH  12  13
BRANCH  12  17
ATOM     17  C   UNL     1      -5.742 -26.651 -19.566  1.00  0.00    -0.006 C 
ATOM     18  C   UNL     1      -5.233 -27.942 -18.898  1.00  0.00     0.008 C 
ATOM     19  C   UNL     1      -4.719 -26.164 -20.604  1.00  0.00     0.008 C 
ENDBRANCH  12  17
ENDBRANCH  11  12
ENDBRANCH   1  11
TORSDOF 1
ENDMDL
