MODEL 1
REMARK VINA RESULT:    -8.427      0.000      0.000
REMARK INTER + INTRA:          -9.330
REMARK INTER:                  -9.166
REMARK INTRA:                  -0.164
REMARK UNBOUND:                -0.164
REMARK SMILES C[C@@H]1[C@H](C)CC[C@]2(C(=O)[O-])CC[C@@]3(C)C(=CC[C@H]4[C@]5(C)CC[C@@H](O)C(C)(C)[C@@H]5CC[C@]43C)[C@H]12
REMARK SMILES IDX 7 1 6 2 11 3 33 4 5 5 12 6 15 7 2 8 3 9 13 10 16 11 1 12
REMARK SMILES IDX 4 13 14 14 31 15 17 16 18 17 30 18 32 19 19 20 29 21 28 22
REMARK SMILES IDX 21 23 20 24 25 25 22 26 23 27 26 28 27 29 8 30 9 31 10 32
REMARK SMILES IDX 24 33
REMARK H PARENT 24 34
REMARK Flexibility Score: inf
ROOT
ATOM      1  C   UNL     1     -14.800 122.932  22.246  1.00  0.00     0.017 C 
ATOM      2  C   UNL     1     -14.275 124.403  22.299  1.00  0.00     0.014 C 
ATOM      3  C   UNL     1     -15.015 122.369  23.688  1.00  0.00     0.014 C 
ATOM      4  C   UNL     1     -13.829 122.002  21.427  1.00  0.00     0.030 C 
ATOM      5  C   UNL     1     -12.778 124.551  22.582  1.00  0.00     0.004 C 
ATOM      6  C   UNL     1     -14.955 120.824  23.851  1.00  0.00     0.013 C 
ATOM      7  C   UNL     1     -14.262 120.528  21.459  1.00  0.00    -0.063 C 
ATOM      8  C   UNL     1     -12.299 122.221  21.691  1.00  0.00    -0.003 C 
ATOM      9  C   UNL     1     -11.961 123.730  21.576  1.00  0.00    -0.011 C 
ATOM     10  C   UNL     1     -15.173 119.964  22.555  1.00  0.00    -0.006 C 
ATOM     11  C   UNL     1     -14.004 119.750  20.394  1.00  0.00    -0.027 C 
ATOM     12  C   UNL     1     -11.754 121.597  22.989  1.00  0.00     0.008 C 
ATOM     13  C   UNL     1     -10.460 124.029  21.712  1.00  0.00     0.008 C 
ATOM     14  C   UNL     1     -16.672 120.123  22.103  1.00  0.00     0.017 C 
ATOM     15  C   UNL     1     -14.834 118.384  22.780  1.00  0.00    -0.020 C 
ATOM     16  C   UNL     1     -14.822 118.519  20.158  1.00  0.00     0.032 C 
ATOM     17  C   UNL     1     -14.941 117.552  21.408  1.00  0.00     0.006 C 
ATOM     18  C   UNL     1     -13.378 118.189  23.280  1.00  0.00     0.008 C 
ATOM     19  C   UNL     1     -15.831 117.833  23.868  1.00  0.00     0.012 C 
ATOM     20  C   UNL     1     -14.151 116.107  21.288  1.00  0.00    -0.025 C 
ATOM     21  C   UNL     1     -13.027 116.740  23.563  1.00  0.00     0.005 C 
ATOM     22  C   UNL     1     -12.923 115.882  22.292  1.00  0.00     0.003 C 
ATOM     23  C   UNL     1     -15.175 114.913  21.439  1.00  0.00     0.010 C 
ATOM     24  C   UNL     1     -13.574 115.968  19.842  1.00  0.00     0.012 C 
ATOM     25  C   UNL     1     -12.623 114.354  22.684  1.00  0.00    -0.006 C 
ATOM     26  C   UNL     1     -15.231 114.287  22.833  1.00  0.00     0.033 C 
ATOM     27  C   UNL     1     -13.898 113.650  23.282  1.00  0.00     0.120 C 
ATOM     28  C   UNL     1     -11.480 114.268  23.740  1.00  0.00     0.014 C 
ATOM     29  C   UNL     1     -12.083 113.551  21.464  1.00  0.00     0.014 C 
ENDROOT
BRANCH   1  30
ATOM     30  C   UNL     1     -16.154 123.053  21.542  1.00  0.00     0.048 C 
ATOM     31  O   UNL     1     -16.238 122.995  20.284  1.00  0.00    -0.550 OA
ATOM     32  O   UNL     1     -17.300 123.372  22.259  1.00  0.00    -0.550 OA
ENDBRANCH   1  30
BRANCH  27  33
ATOM     33  O   UNL     1     -13.888 112.270  22.997  1.00  0.00    -0.393 OA
ATOM     34  H   UNL     1     -14.252 112.146  22.082  1.00  0.00     0.210 HD
ENDBRANCH  27  33
TORSDOF 2
ENDMDL
MODEL 2
REMARK VINA RESULT:    -8.050     12.007     16.163
REMARK INTER + INTRA:          -8.921
REMARK INTER:                  -8.757
REMARK INTRA:                  -0.164
REMARK UNBOUND:                -0.164
REMARK SMILES C[C@@H]1[C@H](C)CC[C@]2(C(=O)[O-])CC[C@@]3(C)C(=CC[C@H]4[C@]5(C)CC[C@@H](O)C(C)(C)[C@@H]5CC[C@]43C)[C@H]12
REMARK SMILES IDX 7 1 6 2 11 3 33 4 5 5 12 6 15 7 2 8 3 9 13 10 16 11 1 12
REMARK SMILES IDX 4 13 14 14 31 15 17 16 18 17 30 18 32 19 19 20 29 21 28 22
REMARK SMILES IDX 21 23 20 24 25 25 22 26 23 27 26 28 27 29 8 30 9 31 10 32
REMARK SMILES IDX 24 33
REMARK H PARENT 24 34
REMARK Flexibility Score: inf
ROOT
ATOM      1  C   UNL     1     -28.189 108.129  21.165  1.00  0.00     0.017 C 
ATOM      2  C   UNL     1     -29.234 106.973  21.281  1.00  0.00     0.014 C 
ATOM      3  C   UNL     1     -26.735 107.557  21.115  1.00  0.00     0.014 C 
ATOM      4  C   UNL     1     -28.338 109.162  22.343  1.00  0.00     0.030 C 
ATOM      5  C   UNL     1     -29.412 106.394  22.686  1.00  0.00     0.004 C 
ATOM      6  C   UNL     1     -25.595 108.504  21.583  1.00  0.00     0.013 C 
ATOM      7  C   UNL     1     -27.246 110.244  22.316  1.00  0.00    -0.063 C 
ATOM      8  C   UNL     1     -28.582 108.541  23.762  1.00  0.00    -0.003 C 
ATOM      9  C   UNL     1     -29.739 107.510  23.686  1.00  0.00    -0.011 C 
ATOM     10  C   UNL     1     -25.910 110.043  21.594  1.00  0.00    -0.006 C 
ATOM     11  C   UNL     1     -27.539 111.476  22.766  1.00  0.00    -0.027 C 
ATOM     12  C   UNL     1     -27.334 107.969  24.460  1.00  0.00     0.008 C 
ATOM     13  C   UNL     1     -30.124 106.928  25.055  1.00  0.00     0.008 C 
ATOM     14  C   UNL     1     -26.058 110.527  20.104  1.00  0.00     0.017 C 
ATOM     15  C   UNL     1     -24.753 110.919  22.341  1.00  0.00    -0.020 C 
ATOM     16  C   UNL     1     -26.730 112.647  22.302  1.00  0.00     0.032 C 
ATOM     17  C   UNL     1     -25.162 112.470  22.451  1.00  0.00     0.006 C 
ATOM     18  C   UNL     1     -24.538 110.435  23.799  1.00  0.00     0.008 C 
ATOM     19  C   UNL     1     -23.415 110.731  21.532  1.00  0.00     0.012 C 
ATOM     20  C   UNL     1     -24.430 113.409  23.595  1.00  0.00    -0.025 C 
ATOM     21  C   UNL     1     -23.431 111.178  24.524  1.00  0.00     0.005 C 
ATOM     22  C   UNL     1     -23.789 112.638  24.844  1.00  0.00     0.003 C 
ATOM     23  C   UNL     1     -23.330 114.324  22.926  1.00  0.00     0.010 C 
ATOM     24  C   UNL     1     -25.484 114.403  24.180  1.00  0.00     0.012 C 
ATOM     25  C   UNL     1     -22.541 113.369  25.542  1.00  0.00    -0.006 C 
ATOM     26  C   UNL     1     -21.898 113.799  23.045  1.00  0.00     0.033 C 
ATOM     27  C   UNL     1     -21.400 113.680  24.502  1.00  0.00     0.120 C 
ATOM     28  C   UNL     1     -21.939 112.481  26.672  1.00  0.00     0.014 C 
ATOM     29  C   UNL     1     -22.982 114.674  26.268  1.00  0.00     0.014 C 
ENDROOT
BRANCH   1  30
ATOM     30  C   UNL     1     -28.521 108.787  19.824  1.00  0.00     0.048 C 
ATOM     31  O   UNL     1     -29.388 109.702  19.747  1.00  0.00    -0.550 OA
ATOM     32  O   UNL     1     -27.981 108.298  18.640  1.00  0.00    -0.550 OA
ENDBRANCH   1  30
BRANCH  27  33
ATOM     33  O   UNL     1     -20.682 114.834  24.876  1.00  0.00    -0.393 OA
ATOM     34  H   UNL     1     -19.796 114.543  25.216  1.00  0.00     0.210 HD
ENDBRANCH  27  33
TORSDOF 2
ENDMDL
MODEL 3
REMARK VINA RESULT:    -8.021     11.129     13.820
REMARK INTER + INTRA:          -8.889
REMARK INTER:                  -8.725
REMARK INTRA:                  -0.163
REMARK UNBOUND:                -0.164
REMARK SMILES C[C@@H]1[C@H](C)CC[C@]2(C(=O)[O-])CC[C@@]3(C)C(=CC[C@H]4[C@]5(C)CC[C@@H](O)C(C)(C)[C@@H]5CC[C@]43C)[C@H]12
REMARK SMILES IDX 7 1 6 2 11 3 33 4 5 5 12 6 15 7 2 8 3 9 13 10 16 11 1 12
REMARK SMILES IDX 4 13 14 14 31 15 17 16 18 17 30 18 32 19 19 20 29 21 28 22
REMARK SMILES IDX 21 23 20 24 25 25 22 26 23 27 26 28 27 29 8 30 9 31 10 32
REMARK SMILES IDX 24 33
REMARK H PARENT 24 34
REMARK Flexibility Score: inf
ROOT
ATOM      1  C   UNL     1     -23.117 115.100  20.876  1.00  0.00     0.017 C 
ATOM      2  C   UNL     1     -22.357 116.453  21.063  1.00  0.00     0.014 C 
ATOM      3  C   UNL     1     -24.572 115.349  20.361  1.00  0.00     0.014 C 
ATOM      4  C   UNL     1     -23.135 114.261  22.207  1.00  0.00     0.030 C 
ATOM      5  C   UNL     1     -22.685 117.212  22.351  1.00  0.00     0.004 C 
ATOM      6  C   UNL     1     -25.621 114.245  20.672  1.00  0.00     0.013 C 
ATOM      7  C   UNL     1     -23.976 112.980  22.081  1.00  0.00    -0.063 C 
ATOM      8  C   UNL     1     -23.411 115.076  23.518  1.00  0.00    -0.003 C 
ATOM      9  C   UNL     1     -22.471 116.309  23.572  1.00  0.00    -0.011 C 
ATOM     10  C   UNL     1     -25.067 112.816  21.018  1.00  0.00    -0.006 C 
ATOM     11  C   UNL     1     -23.619 111.895  22.788  1.00  0.00    -0.027 C 
ATOM     12  C   UNL     1     -24.883 115.452  23.769  1.00  0.00     0.008 C 
ATOM     13  C   UNL     1     -22.593 117.109  24.878  1.00  0.00     0.008 C 
ATOM     14  C   UNL     1     -24.423 112.209  19.717  1.00  0.00     0.017 C 
ATOM     15  C   UNL     1     -26.223 111.810  21.578  1.00  0.00    -0.020 C 
ATOM     16  C   UNL     1     -24.054 110.537  22.334  1.00  0.00     0.032 C 
ATOM     17  C   UNL     1     -25.607 110.400  22.045  1.00  0.00     0.006 C 
ATOM     18  C   UNL     1     -26.921 112.400  22.832  1.00  0.00     0.008 C 
ATOM     19  C   UNL     1     -27.289 111.624  20.434  1.00  0.00     0.012 C 
ATOM     20  C   UNL     1     -26.464 109.465  23.102  1.00  0.00    -0.025 C 
ATOM     21  C   UNL     1     -28.046 111.531  23.361  1.00  0.00     0.005 C 
ATOM     22  C   UNL     1     -27.553 110.223  24.000  1.00  0.00     0.003 C 
ATOM     23  C   UNL     1     -27.159 108.273  22.334  1.00  0.00     0.010 C 
ATOM     24  C   UNL     1     -25.466 108.784  24.094  1.00  0.00     0.012 C 
ATOM     25  C   UNL     1     -28.805 109.333  24.465  1.00  0.00    -0.006 C 
ATOM     26  C   UNL     1     -28.633 108.499  21.994  1.00  0.00     0.033 C 
ATOM     27  C   UNL     1     -29.536 108.676  23.235  1.00  0.00     0.120 C 
ATOM     28  C   UNL     1     -29.843 110.199  25.241  1.00  0.00     0.014 C 
ATOM     29  C   UNL     1     -28.375 108.239  25.486  1.00  0.00     0.014 C 
ENDROOT
BRANCH   1  30
ATOM     30  C   UNL     1     -22.312 114.378  19.792  1.00  0.00     0.048 C 
ATOM     31  O   UNL     1     -21.327 113.649  20.094  1.00  0.00    -0.550 OA
ATOM     32  O   UNL     1     -22.558 114.619  18.447  1.00  0.00    -0.550 OA
ENDBRANCH   1  30
BRANCH  27  33
ATOM     33  O   UNL     1     -30.125 107.449  23.598  1.00  0.00    -0.393 OA
ATOM     34  H   UNL     1     -30.964 107.649  24.089  1.00  0.00     0.210 HD
ENDBRANCH  27  33
TORSDOF 2
ENDMDL
MODEL 4
REMARK VINA RESULT:    -7.878      9.270     11.091
REMARK INTER + INTRA:          -8.733
REMARK INTER:                  -8.573
REMARK INTRA:                  -0.160
REMARK UNBOUND:                -0.164
REMARK SMILES C[C@@H]1[C@H](C)CC[C@]2(C(=O)[O-])CC[C@@]3(C)C(=CC[C@H]4[C@]5(C)CC[C@@H](O)C(C)(C)[C@@H]5CC[C@]43C)[C@H]12
REMARK SMILES IDX 7 1 6 2 11 3 33 4 5 5 12 6 15 7 2 8 3 9 13 10 16 11 1 12
REMARK SMILES IDX 4 13 14 14 31 15 17 16 18 17 30 18 32 19 19 20 29 21 28 22
REMARK SMILES IDX 21 23 20 24 25 25 22 26 23 27 26 28 27 29 8 30 9 31 10 32
REMARK SMILES IDX 24 33
REMARK H PARENT 24 34
REMARK Flexibility Score: inf
ROOT
ATOM      1  C   UNL     1     -15.868 122.252  10.370  1.00  0.00     0.017 C 
ATOM      2  C   UNL     1     -16.554 123.606  10.741  1.00  0.00     0.014 C 
ATOM      3  C   UNL     1     -16.875 121.064  10.511  1.00  0.00     0.014 C 
ATOM      4  C   UNL     1     -14.584 121.998  11.244  1.00  0.00     0.030 C 
ATOM      5  C   UNL     1     -16.676 123.886  12.240  1.00  0.00     0.004 C 
ATOM      6  C   UNL     1     -16.264 119.657  10.760  1.00  0.00     0.013 C 
ATOM      7  C   UNL     1     -13.958 120.619  10.979  1.00  0.00    -0.063 C 
ATOM      8  C   UNL     1     -14.719 122.353  12.765  1.00  0.00    -0.003 C 
ATOM      9  C   UNL     1     -15.303 123.782  12.915  1.00  0.00    -0.011 C 
ATOM     10  C   UNL     1     -14.754 119.459  10.373  1.00  0.00    -0.006 C 
ATOM     11  C   UNL     1     -12.627 120.476  11.094  1.00  0.00    -0.027 C 
ATOM     12  C   UNL     1     -15.473 121.320  13.623  1.00  0.00     0.008 C 
ATOM     13  C   UNL     1     -15.369 124.261  14.374  1.00  0.00     0.008 C 
ATOM     14  C   UNL     1     -14.635 119.523   8.805  1.00  0.00     0.017 C 
ATOM     15  C   UNL     1     -14.145 118.044  10.911  1.00  0.00    -0.020 C 
ATOM     16  C   UNL     1     -11.936 119.359  10.375  1.00  0.00     0.032 C 
ATOM     17  C   UNL     1     -12.569 117.926  10.613  1.00  0.00     0.006 C 
ATOM     18  C   UNL     1     -14.294 117.918  12.449  1.00  0.00     0.008 C 
ATOM     19  C   UNL     1     -14.952 116.882  10.217  1.00  0.00     0.012 C 
ATOM     20  C   UNL     1     -11.666 116.870  11.506  1.00  0.00    -0.025 C 
ATOM     21  C   UNL     1     -13.796 116.594  12.998  1.00  0.00     0.005 C 
ATOM     22  C   UNL     1     -12.268 116.445  12.928  1.00  0.00     0.003 C 
ATOM     23  C   UNL     1     -11.355 115.571  10.662  1.00  0.00     0.010 C 
ATOM     24  C   UNL     1     -10.271 117.516  11.787  1.00  0.00     0.012 C 
ATOM     25  C   UNL     1     -11.832 114.993  13.457  1.00  0.00    -0.006 C 
ATOM     26  C   UNL     1     -12.269 114.380  10.954  1.00  0.00     0.033 C 
ATOM     27  C   UNL     1     -12.177 113.870  12.409  1.00  0.00     0.120 C 
ATOM     28  C   UNL     1     -12.557 114.650  14.793  1.00  0.00     0.014 C 
ATOM     29  C   UNL     1     -10.318 114.952  13.817  1.00  0.00     0.014 C 
ENDROOT
BRANCH   1  30
ATOM     30  C   UNL     1     -15.493 122.426   8.895  1.00  0.00     0.048 C 
ATOM     31  O   UNL     1     -14.414 122.991   8.563  1.00  0.00    -0.550 OA
ATOM     32  O   UNL     1     -16.393 122.094   7.890  1.00  0.00    -0.550 OA
ENDBRANCH   1  30
BRANCH  27  33
ATOM     33  O   UNL     1     -11.264 112.800  12.503  1.00  0.00    -0.393 OA
ATOM     34  H   UNL     1     -10.905 112.789  13.428  1.00  0.00     0.210 HD
ENDBRANCH  27  33
TORSDOF 2
ENDMDL
MODEL 5
REMARK VINA RESULT:    -7.684      1.727      7.699
REMARK INTER + INTRA:          -8.523
REMARK INTER:                  -8.366
REMARK INTRA:                  -0.156
REMARK UNBOUND:                -0.164
REMARK SMILES C[C@@H]1[C@H](C)CC[C@]2(C(=O)[O-])CC[C@@]3(C)C(=CC[C@H]4[C@]5(C)CC[C@@H](O)C(C)(C)[C@@H]5CC[C@]43C)[C@H]12
REMARK SMILES IDX 7 1 6 2 11 3 33 4 5 5 12 6 15 7 2 8 3 9 13 10 16 11 1 12
REMARK SMILES IDX 4 13 14 14 31 15 17 16 18 17 30 18 32 19 19 20 29 21 28 22
REMARK SMILES IDX 21 23 20 24 25 25 22 26 23 27 26 28 27 29 8 30 9 31 10 32
REMARK SMILES IDX 24 33
REMARK H PARENT 24 34
REMARK Flexibility Score: inf
ROOT
ATOM      1  C   UNL     1     -12.490 114.748  23.109  1.00  0.00     0.017 C 
ATOM      2  C   UNL     1     -11.798 113.407  22.703  1.00  0.00     0.014 C 
ATOM      3  C   UNL     1     -14.042 114.639  22.953  1.00  0.00     0.014 C 
ATOM      4  C   UNL     1     -11.932 115.961  22.275  1.00  0.00     0.030 C 
ATOM      5  C   UNL     1     -11.633 113.189  21.197  1.00  0.00     0.004 C 
ATOM      6  C   UNL     1     -14.817 115.969  22.738  1.00  0.00     0.013 C 
ATOM      7  C   UNL     1     -12.679 117.270  22.573  1.00  0.00    -0.063 C 
ATOM      8  C   UNL     1     -11.714 115.688  20.746  1.00  0.00    -0.003 C 
ATOM      9  C   UNL     1     -10.903 114.378  20.562  1.00  0.00    -0.011 C 
ATOM     10  C   UNL     1     -14.090 117.293  23.170  1.00  0.00    -0.006 C 
ATOM     11  C   UNL     1     -12.009 118.433  22.498  1.00  0.00    -0.027 C 
ATOM     12  C   UNL     1     -12.986 115.713  19.879  1.00  0.00     0.008 C 
ATOM     13  C   UNL     1     -10.545 114.087  19.096  1.00  0.00     0.008 C 
ATOM     14  C   UNL     1     -13.979 117.305  24.740  1.00  0.00     0.017 C 
ATOM     15  C   UNL     1     -14.870 118.635  22.667  1.00  0.00    -0.020 C 
ATOM     16  C   UNL     1     -12.510 119.628  23.249  1.00  0.00     0.032 C 
ATOM     17  C   UNL     1     -14.039 119.968  23.010  1.00  0.00     0.006 C 
ATOM     18  C   UNL     1     -15.048 118.635  21.126  1.00  0.00     0.008 C 
ATOM     19  C   UNL     1     -16.289 118.647  23.351  1.00  0.00     0.012 C 
ATOM     20  C   UNL     1     -14.353 121.346  22.156  1.00  0.00    -0.025 C 
ATOM     21  C   UNL     1     -15.821 119.834  20.608  1.00  0.00     0.005 C 
ATOM     22  C   UNL     1     -15.041 121.153  20.722  1.00  0.00     0.003 C 
ATOM     23  C   UNL     1     -15.225 122.337  23.024  1.00  0.00     0.010 C 
ATOM     24  C   UNL     1     -13.007 122.100  21.906  1.00  0.00     0.012 C 
ATOM     25  C   UNL     1     -15.953 122.376  20.223  1.00  0.00    -0.006 C 
ATOM     26  C   UNL     1     -16.723 122.310  22.720  1.00  0.00     0.033 C 
ATOM     27  C   UNL     1     -17.071 122.728  21.274  1.00  0.00     0.120 C 
ATOM     28  C   UNL     1     -16.648 122.033  18.871  1.00  0.00     0.014 C 
ATOM     29  C   UNL     1     -15.092 123.634  19.906  1.00  0.00     0.014 C 
ENDROOT
BRANCH   1  30
ATOM     30  C   UNL     1     -12.139 114.905  24.591  1.00  0.00     0.048 C 
ATOM     31  O   UNL     1     -11.049 115.431  24.947  1.00  0.00    -0.550 OA
ATOM     32  O   UNL     1     -12.945 114.344  25.574  1.00  0.00    -0.550 OA
ENDBRANCH   1  30
BRANCH  27  33
ATOM     33  O   UNL     1     -17.397 124.098  21.219  1.00  0.00    -0.393 OA
ATOM     34  H   UNL     1     -18.375 124.172  21.069  1.00  0.00     0.210 HD
ENDBRANCH  27  33
TORSDOF 2
ENDMDL
MODEL 6
REMARK VINA RESULT:    -7.565     10.915     13.787
REMARK INTER + INTRA:          -8.393
REMARK INTER:                  -8.227
REMARK INTRA:                  -0.166
REMARK UNBOUND:                -0.164
REMARK SMILES C[C@@H]1[C@H](C)CC[C@]2(C(=O)[O-])CC[C@@]3(C)C(=CC[C@H]4[C@]5(C)CC[C@@H](O)C(C)(C)[C@@H]5CC[C@]43C)[C@H]12
REMARK SMILES IDX 7 1 6 2 11 3 33 4 5 5 12 6 15 7 2 8 3 9 13 10 16 11 1 12
REMARK SMILES IDX 4 13 14 14 31 15 17 16 18 17 30 18 32 19 19 20 29 21 28 22
REMARK SMILES IDX 21 23 20 24 25 25 22 26 23 27 26 28 27 29 8 30 9 31 10 32
REMARK SMILES IDX 24 33
REMARK H PARENT 24 34
REMARK Flexibility Score: inf
ROOT
ATOM      1  C   UNL     1     -22.629 114.681  23.279  1.00  0.00     0.017 C 
ATOM      2  C   UNL     1     -22.043 116.127  23.199  1.00  0.00     0.014 C 
ATOM      3  C   UNL     1     -21.821 113.705  22.363  1.00  0.00     0.014 C 
ATOM      4  C   UNL     1     -24.157 114.656  22.905  1.00  0.00     0.030 C 
ATOM      5  C   UNL     1     -22.463 116.933  21.968  1.00  0.00     0.004 C 
ATOM      6  C   UNL     1     -22.569 112.436  21.864  1.00  0.00     0.013 C 
ATOM      7  C   UNL     1     -24.728 113.230  22.863  1.00  0.00    -0.063 C 
ATOM      8  C   UNL     1     -24.569 115.541  21.677  1.00  0.00    -0.003 C 
ATOM      9  C   UNL     1     -23.992 116.971  21.850  1.00  0.00    -0.011 C 
ATOM     10  C   UNL     1     -23.840 111.995  22.675  1.00  0.00    -0.006 C 
ATOM     11  C   UNL     1     -26.015 113.033  23.198  1.00  0.00    -0.027 C 
ATOM     12  C   UNL     1     -24.249 114.946  20.293  1.00  0.00     0.008 C 
ATOM     13  C   UNL     1     -24.436 117.943  20.746  1.00  0.00     0.008 C 
ATOM     14  C   UNL     1     -23.371 111.485  24.088  1.00  0.00     0.017 C 
ATOM     15  C   UNL     1     -24.692 110.823  21.925  1.00  0.00    -0.020 C 
ATOM     16  C   UNL     1     -26.462 111.682  23.663  1.00  0.00     0.032 C 
ATOM     17  C   UNL     1     -26.052 110.483  22.712  1.00  0.00     0.006 C 
ATOM     18  C   UNL     1     -25.126 111.268  20.504  1.00  0.00     0.008 C 
ATOM     19  C   UNL     1     -23.761 109.557  21.808  1.00  0.00     0.012 C 
ATOM     20  C   UNL     1     -27.285 109.749  21.894  1.00  0.00    -0.025 C 
ATOM     21  C   UNL     1     -25.874 110.192  19.737  1.00  0.00     0.005 C 
ATOM     22  C   UNL     1     -27.276 109.910  20.300  1.00  0.00     0.003 C 
ATOM     23  C   UNL     1     -27.345 108.215  22.264  1.00  0.00     0.010 C 
ATOM     24  C   UNL     1     -28.642 110.342  22.393  1.00  0.00     0.012 C 
ATOM     25  C   UNL     1     -27.966 108.713  19.481  1.00  0.00    -0.006 C 
ATOM     26  C   UNL     1     -26.680 107.282  21.250  1.00  0.00     0.033 C 
ATOM     27  C   UNL     1     -27.331 107.320  19.850  1.00  0.00     0.120 C 
ATOM     28  C   UNL     1     -27.805 108.928  17.946  1.00  0.00     0.014 C 
ATOM     29  C   UNL     1     -29.506 108.685  19.709  1.00  0.00     0.014 C 
ENDROOT
BRANCH   1  30
ATOM     30  C   UNL     1     -22.425 114.286  24.744  1.00  0.00     0.048 C 
ATOM     31  O   UNL     1     -23.290 114.569  25.619  1.00  0.00    -0.550 OA
ATOM     32  O   UNL     1     -21.223 113.735  25.170  1.00  0.00    -0.550 OA
ENDBRANCH   1  30
BRANCH  27  33
ATOM     33  O   UNL     1     -28.280 106.287  19.717  1.00  0.00    -0.393 OA
ATOM     34  H   UNL     1     -28.329 105.806  20.584  1.00  0.00     0.210 HD
ENDBRANCH  27  33
TORSDOF 2
ENDMDL
MODEL 7
REMARK VINA RESULT:    -7.532      1.960      7.822
REMARK INTER + INTRA:          -8.357
REMARK INTER:                  -8.192
REMARK INTRA:                  -0.165
REMARK UNBOUND:                -0.164
REMARK SMILES C[C@@H]1[C@H](C)CC[C@]2(C(=O)[O-])CC[C@@]3(C)C(=CC[C@H]4[C@]5(C)CC[C@@H](O)C(C)(C)[C@@H]5CC[C@]43C)[C@H]12
REMARK SMILES IDX 7 1 6 2 11 3 33 4 5 5 12 6 15 7 2 8 3 9 13 10 16 11 1 12
REMARK SMILES IDX 4 13 14 14 31 15 17 16 18 17 30 18 32 19 19 20 29 21 28 22
REMARK SMILES IDX 21 23 20 24 25 25 22 26 23 27 26 28 27 29 8 30 9 31 10 32
REMARK SMILES IDX 24 33
REMARK H PARENT 24 34
REMARK Flexibility Score: inf
ROOT
ATOM      1  C   UNL     1     -12.446 115.196  20.528  1.00  0.00     0.017 C 
ATOM      2  C   UNL     1     -11.763 113.965  21.205  1.00  0.00     0.014 C 
ATOM      3  C   UNL     1     -11.387 116.290  20.172  1.00  0.00     0.014 C 
ATOM      4  C   UNL     1     -13.581 115.798  21.436  1.00  0.00     0.030 C 
ATOM      5  C   UNL     1     -11.438 114.135  22.690  1.00  0.00     0.004 C 
ATOM      6  C   UNL     1     -11.904 117.751  20.054  1.00  0.00     0.013 C 
ATOM      7  C   UNL     1     -14.188 117.080  20.844  1.00  0.00    -0.063 C 
ATOM      8  C   UNL     1     -13.243 115.902  22.964  1.00  0.00    -0.003 C 
ATOM      9  C   UNL     1     -12.695 114.542  23.469  1.00  0.00    -0.011 C 
ATOM     10  C   UNL     1     -13.446 117.942  19.818  1.00  0.00    -0.006 C 
ATOM     11  C   UNL     1     -15.483 117.355  21.076  1.00  0.00    -0.027 C 
ATOM     12  C   UNL     1     -12.337 117.081  23.364  1.00  0.00     0.008 C 
ATOM     13  C   UNL     1     -12.438 114.515  24.984  1.00  0.00     0.008 C 
ATOM     14  C   UNL     1     -13.791 117.424  18.373  1.00  0.00     0.017 C 
ATOM     15  C   UNL     1     -13.920 119.496  19.970  1.00  0.00    -0.020 C 
ATOM     16  C   UNL     1     -16.229 118.258  20.144  1.00  0.00     0.032 C 
ATOM     17  C   UNL     1     -15.517 119.643  19.851  1.00  0.00     0.006 C 
ATOM     18  C   UNL     1     -13.547 120.061  21.365  1.00  0.00     0.008 C 
ATOM     19  C   UNL     1     -13.179 120.332  18.859  1.00  0.00     0.012 C 
ATOM     20  C   UNL     1     -16.243 120.984  20.485  1.00  0.00    -0.025 C 
ATOM     21  C   UNL     1     -13.913 121.524  21.541  1.00  0.00     0.005 C 
ATOM     22  C   UNL     1     -15.429 121.764  21.622  1.00  0.00     0.003 C 
ATOM     23  C   UNL     1     -16.625 121.992  19.330  1.00  0.00     0.010 C 
ATOM     24  C   UNL     1     -17.606 120.562  21.123  1.00  0.00     0.012 C 
ATOM     25  C   UNL     1     -15.731 123.337  21.733  1.00  0.00    -0.006 C 
ATOM     26  C   UNL     1     -15.636 123.141  19.128  1.00  0.00     0.033 C 
ATOM     27  C   UNL     1     -15.500 124.067  20.357  1.00  0.00     0.120 C 
ATOM     28  C   UNL     1     -14.811 124.004  22.798  1.00  0.00     0.014 C 
ATOM     29  C   UNL     1     -17.176 123.601  22.250  1.00  0.00     0.014 C 
ENDROOT
BRANCH   1  30
ATOM     30  C   UNL     1     -13.035 114.622  19.236  1.00  0.00     0.048 C 
ATOM     31  O   UNL     1     -14.195 114.125  19.218  1.00  0.00    -0.550 OA
ATOM     32  O   UNL     1     -12.256 114.504  18.092  1.00  0.00    -0.550 OA
ENDBRANCH   1  30
BRANCH  27  33
ATOM     33  O   UNL     1     -16.350 125.184  20.233  1.00  0.00    -0.393 OA
ATOM     34  H   UNL     1     -15.791 125.965  19.984  1.00  0.00     0.210 HD
ENDBRANCH  27  33
TORSDOF 2
ENDMDL
MODEL 8
REMARK VINA RESULT:    -7.512      5.594      8.429
REMARK INTER + INTRA:          -8.335
REMARK INTER:                  -8.210
REMARK INTRA:                  -0.124
REMARK UNBOUND:                -0.164
REMARK SMILES C[C@@H]1[C@H](C)CC[C@]2(C(=O)[O-])CC[C@@]3(C)C(=CC[C@H]4[C@]5(C)CC[C@@H](O)C(C)(C)[C@@H]5CC[C@]43C)[C@H]12
REMARK SMILES IDX 7 1 6 2 11 3 33 4 5 5 12 6 15 7 2 8 3 9 13 10 16 11 1 12
REMARK SMILES IDX 4 13 14 14 31 15 17 16 18 17 30 18 32 19 19 20 29 21 28 22
REMARK SMILES IDX 21 23 20 24 25 25 22 26 23 27 26 28 27 29 8 30 9 31 10 32
REMARK SMILES IDX 24 33
REMARK H PARENT 24 34
REMARK Flexibility Score: inf
ROOT
ATOM      1  C   UNL     1     -23.441 116.275  22.162  1.00  0.00     0.017 C 
ATOM      2  C   UNL     1     -24.806 116.151  22.912  1.00  0.00     0.014 C 
ATOM      3  C   UNL     1     -23.137 114.974  21.349  1.00  0.00     0.014 C 
ATOM      4  C   UNL     1     -22.264 116.596  23.156  1.00  0.00     0.030 C 
ATOM      5  C   UNL     1     -24.765 115.346  24.213  1.00  0.00     0.004 C 
ATOM      6  C   UNL     1     -21.642 114.675  21.044  1.00  0.00     0.013 C 
ATOM      7  C   UNL     1     -20.894 116.607  22.458  1.00  0.00    -0.063 C 
ATOM      8  C   UNL     1     -22.283 115.802  24.507  1.00  0.00    -0.003 C 
ATOM      9  C   UNL     1     -23.689 115.906  25.152  1.00  0.00    -0.011 C 
ATOM     10  C   UNL     1     -20.643 115.885  21.130  1.00  0.00    -0.006 C 
ATOM     11  C   UNL     1     -19.937 117.433  22.915  1.00  0.00    -0.027 C 
ATOM     12  C   UNL     1     -21.782 114.348  24.430  1.00  0.00     0.008 C 
ATOM     13  C   UNL     1     -23.772 115.248  26.539  1.00  0.00     0.008 C 
ATOM     14  C   UNL     1     -20.961 116.872  19.946  1.00  0.00     0.017 C 
ATOM     15  C   UNL     1     -19.081 115.421  21.052  1.00  0.00    -0.020 C 
ATOM     16  C   UNL     1     -18.824 117.853  22.007  1.00  0.00     0.032 C 
ATOM     17  C   UNL     1     -18.082 116.662  21.271  1.00  0.00     0.006 C 
ATOM     18  C   UNL     1     -18.742 114.403  22.172  1.00  0.00     0.008 C 
ATOM     19  C   UNL     1     -18.856 114.739  19.649  1.00  0.00     0.012 C 
ATOM     20  C   UNL     1     -16.532 116.361  21.754  1.00  0.00    -0.025 C 
ATOM     21  C   UNL     1     -17.314 113.892  22.111  1.00  0.00     0.005 C 
ATOM     22  C   UNL     1     -16.272 114.959  22.482  1.00  0.00     0.003 C 
ATOM     23  C   UNL     1     -15.544 116.504  20.529  1.00  0.00     0.010 C 
ATOM     24  C   UNL     1     -16.095 117.474  22.761  1.00  0.00     0.012 C 
ATOM     25  C   UNL     1     -14.791 114.360  22.321  1.00  0.00    -0.006 C 
ATOM     26  C   UNL     1     -15.146 115.185  19.867  1.00  0.00     0.033 C 
ATOM     27  C   UNL     1     -14.386 114.223  20.806  1.00  0.00     0.120 C 
ATOM     28  C   UNL     1     -14.688 112.953  22.981  1.00  0.00     0.014 C 
ATOM     29  C   UNL     1     -13.745 115.223  23.086  1.00  0.00     0.014 C 
ENDROOT
BRANCH   1  30
ATOM     30  C   UNL     1     -23.662 117.438  21.192  1.00  0.00     0.048 C 
ATOM     31  O   UNL     1     -23.317 118.613  21.498  1.00  0.00    -0.550 OA
ATOM     32  O   UNL     1     -24.375 117.254  20.013  1.00  0.00    -0.550 OA
ENDBRANCH   1  30
BRANCH  27  33
ATOM     33  O   UNL     1     -12.994 114.369  20.644  1.00  0.00    -0.393 OA
ATOM     34  H   UNL     1     -12.624 114.711  21.500  1.00  0.00     0.210 HD
ENDBRANCH  27  33
TORSDOF 2
ENDMDL
MODEL 9
REMARK VINA RESULT:    -7.482     12.584     16.636
REMARK INTER + INTRA:          -8.302
REMARK INTER:                  -8.140
REMARK INTRA:                  -0.162
REMARK UNBOUND:                -0.164
REMARK SMILES C[C@@H]1[C@H](C)CC[C@]2(C(=O)[O-])CC[C@@]3(C)C(=CC[C@H]4[C@]5(C)CC[C@@H](O)C(C)(C)[C@@H]5CC[C@]43C)[C@H]12
REMARK SMILES IDX 7 1 6 2 11 3 33 4 5 5 12 6 15 7 2 8 3 9 13 10 16 11 1 12
REMARK SMILES IDX 4 13 14 14 31 15 17 16 18 17 30 18 32 19 19 20 29 21 28 22
REMARK SMILES IDX 21 23 20 24 25 25 22 26 23 27 26 28 27 29 8 30 9 31 10 32
REMARK SMILES IDX 24 33
REMARK H PARENT 24 34
REMARK Flexibility Score: inf
ROOT
ATOM      1  C   UNL     1     -28.792 107.784  20.038  1.00  0.00     0.017 C 
ATOM      2  C   UNL     1     -29.651 107.170  18.886  1.00  0.00     0.014 C 
ATOM      3  C   UNL     1     -29.637 108.796  20.879  1.00  0.00     0.014 C 
ATOM      4  C   UNL     1     -27.492 108.475  19.482  1.00  0.00     0.030 C 
ATOM      5  C   UNL     1     -29.818 108.059  17.652  1.00  0.00     0.004 C 
ATOM      6  C   UNL     1     -28.850 109.898  21.642  1.00  0.00     0.013 C 
ATOM      7  C   UNL     1     -26.690 109.187  20.583  1.00  0.00    -0.063 C 
ATOM      8  C   UNL     1     -27.681 109.328  18.181  1.00  0.00    -0.003 C 
ATOM      9  C   UNL     1     -28.447 108.495  17.119  1.00  0.00    -0.011 C 
ATOM     10  C   UNL     1     -27.325 109.627  21.907  1.00  0.00    -0.006 C 
ATOM     11  C   UNL     1     -25.352 109.253  20.475  1.00  0.00    -0.027 C 
ATOM     12  C   UNL     1     -28.299 110.723  18.386  1.00  0.00     0.008 C 
ATOM     13  C   UNL     1     -28.584 109.213  15.767  1.00  0.00     0.008 C 
ATOM     14  C   UNL     1     -27.205 108.451  22.945  1.00  0.00     0.017 C 
ATOM     15  C   UNL     1     -26.540 110.940  22.474  1.00  0.00    -0.020 C 
ATOM     16  C   UNL     1     -24.518 109.454  21.701  1.00  0.00     0.032 C 
ATOM     17  C   UNL     1     -24.960 110.673  22.612  1.00  0.00     0.006 C 
ATOM     18  C   UNL     1     -26.680 112.141  21.502  1.00  0.00     0.008 C 
ATOM     19  C   UNL     1     -27.185 111.320  23.860  1.00  0.00     0.012 C 
ATOM     20  C   UNL     1     -23.933 111.966  22.649  1.00  0.00    -0.025 C 
ATOM     21  C   UNL     1     -26.017 113.408  22.009  1.00  0.00     0.005 C 
ATOM     22  C   UNL     1     -24.482 113.329  22.014  1.00  0.00     0.003 C 
ATOM     23  C   UNL     1     -23.450 112.235  24.128  1.00  0.00     0.010 C 
ATOM     24  C   UNL     1     -22.636 111.598  21.859  1.00  0.00     0.012 C 
ATOM     25  C   UNL     1     -23.865 114.677  22.631  1.00  0.00    -0.006 C 
ATOM     26  C   UNL     1     -24.203 113.349  24.857  1.00  0.00     0.033 C 
ATOM     27  C   UNL     1     -24.054 114.736  24.193  1.00  0.00     0.120 C 
ATOM     28  C   UNL     1     -24.547 115.933  22.011  1.00  0.00     0.014 C 
ATOM     29  C   UNL     1     -22.360 114.832  22.261  1.00  0.00     0.014 C 
ENDROOT
BRANCH   1  30
ATOM     30  C   UNL     1     -28.434 106.577  20.909  1.00  0.00     0.048 C 
ATOM     31  O   UNL     1     -27.416 105.875  20.656  1.00  0.00    -0.550 OA
ATOM     32  O   UNL     1     -29.296 106.142  21.908  1.00  0.00    -0.550 OA
ENDBRANCH   1  30
BRANCH  27  33
ATOM     33  O   UNL     1     -23.011 115.466  24.797  1.00  0.00    -0.393 OA
ATOM     34  H   UNL     1     -23.019 115.260  25.768  1.00  0.00     0.210 HD
ENDBRANCH  27  33
TORSDOF 2
ENDMDL
