MODEL 1
REMARK VINA RESULT:    -4.141      0.000      0.000
REMARK INTER + INTRA:          -5.909
REMARK INTER:                  -5.351
REMARK INTRA:                  -0.558
REMARK UNBOUND:                -0.558
REMARK SMILES C=CC(=O)CCCCC
REMARK SMILES IDX 6 1 7 2 8 3 9 4 5 5 3 6 4 7 2 8 1 9
REMARK H PARENT
REMARK Flexibility Score: inf
ROOT
ATOM      1  C   UNL     1       3.790  12.996  31.200  1.00  0.00     0.008 C 
ENDROOT
BRANCH   1   2
ATOM      2  C   UNL     1       4.269  13.924  30.065  1.00  0.00     0.000 C 
BRANCH   2   3
ATOM      3  C   UNL     1       4.541  13.217  28.724  1.00  0.00    -0.003 C 
ATOM      4  C   UNL     1       4.257  11.716  28.770  1.00  0.00     0.004 C 
ENDBRANCH   2   3
ENDBRANCH   1   2
BRANCH   1   5
ATOM      5  C   UNL     1       2.388  13.322  31.738  1.00  0.00     0.080 C 
BRANCH   5   6
ATOM      6  C   UNL     1       1.306  12.892  30.787  1.00  0.00     0.155 C 
ATOM      7  O   UNL     1       1.167  11.666  30.529  1.00  0.00    -0.295 OA
BRANCH   6   8
ATOM      8  C   UNL     1       0.404  13.893  30.184  1.00  0.00     0.039 C 
ATOM      9  C   UNL     1       0.472  14.231  28.897  1.00  0.00     0.012 C 
ENDBRANCH   6   8
ENDBRANCH   5   6
ENDBRANCH   1   5
TORSDOF 5
ENDMDL
MODEL 2
REMARK VINA RESULT:    -4.119      1.725      2.627
REMARK INTER + INTRA:          -5.881
REMARK INTER:                  -5.529
REMARK INTRA:                  -0.352
REMARK UNBOUND:                -0.558
REMARK SMILES C=CC(=O)CCCCC
REMARK SMILES IDX 6 1 7 2 8 3 9 4 5 5 3 6 4 7 2 8 1 9
REMARK H PARENT
REMARK Flexibility Score: inf
ROOT
ATOM      1  C   UNL     1       2.884  12.668  28.414  1.00  0.00     0.008 C 
ENDROOT
BRANCH   1   2
ATOM      2  C   UNL     1       4.386  12.747  28.755  1.00  0.00     0.000 C 
BRANCH   2   3
ATOM      3  C   UNL     1       4.850  14.103  29.319  1.00  0.00    -0.003 C 
ATOM      4  C   UNL     1       5.900  14.787  28.445  1.00  0.00     0.004 C 
ENDBRANCH   2   3
ENDBRANCH   1   2
BRANCH   1   5
ATOM      5  C   UNL     1       2.144  14.014  28.486  1.00  0.00     0.080 C 
BRANCH   5   6
ATOM      6  C   UNL     1       0.761  13.865  29.056  1.00  0.00     0.155 C 
ATOM      7  O   UNL     1      -0.222  14.323  28.412  1.00  0.00    -0.295 OA
BRANCH   6   8
ATOM      8  C   UNL     1       0.556  13.168  30.341  1.00  0.00     0.039 C 
ATOM      9  C   UNL     1       1.098  13.597  31.480  1.00  0.00     0.012 C 
ENDBRANCH   6   8
ENDBRANCH   5   6
ENDBRANCH   1   5
TORSDOF 5
ENDMDL
MODEL 3
REMARK VINA RESULT:    -4.117      1.679      2.560
REMARK INTER + INTRA:          -5.878
REMARK INTER:                  -5.685
REMARK INTRA:                  -0.193
REMARK UNBOUND:                -0.558
REMARK SMILES C=CC(=O)CCCCC
REMARK SMILES IDX 6 1 7 2 8 3 9 4 5 5 3 6 4 7 2 8 1 9
REMARK H PARENT
REMARK Flexibility Score: inf
ROOT
ATOM      1  C   UNL     1       4.420  12.703  28.715  1.00  0.00     0.008 C 
ENDROOT
BRANCH   1   2
ATOM      2  C   UNL     1       4.892  14.084  29.215  1.00  0.00     0.000 C 
BRANCH   2   3
ATOM      3  C   UNL     1       5.945  14.767  28.325  1.00  0.00    -0.003 C 
ATOM      4  C   UNL     1       6.730  15.857  29.054  1.00  0.00     0.004 C 
ENDBRANCH   2   3
ENDBRANCH   1   2
BRANCH   1   5
ATOM      5  C   UNL     1       3.081  12.723  27.960  1.00  0.00     0.080 C 
BRANCH   5   6
ATOM      6  C   UNL     1       1.920  12.972  28.881  1.00  0.00     0.155 C 
ATOM      7  O   UNL     1       1.658  12.129  29.782  1.00  0.00    -0.295 OA
BRANCH   6   8
ATOM      8  C   UNL     1       1.113  14.201  28.748  1.00  0.00     0.039 C 
ATOM      9  C   UNL     1      -0.216  14.175  28.664  1.00  0.00     0.012 C 
ENDBRANCH   6   8
ENDBRANCH   5   6
ENDBRANCH   1   5
TORSDOF 5
ENDMDL
MODEL 4
REMARK VINA RESULT:    -4.104      1.882      4.287
REMARK INTER + INTRA:          -5.862
REMARK INTER:                  -5.616
REMARK INTRA:                  -0.246
REMARK UNBOUND:                -0.558
REMARK SMILES C=CC(=O)CCCCC
REMARK SMILES IDX 6 1 7 2 8 3 9 4 5 5 3 6 4 7 2 8 1 9
REMARK H PARENT
REMARK Flexibility Score: inf
ROOT
ATOM      1  C   UNL     1       1.690  13.968  28.786  1.00  0.00     0.008 C 
ENDROOT
BRANCH   1   2
ATOM      2  C   UNL     1       0.458  13.860  29.708  1.00  0.00     0.000 C 
BRANCH   2   3
ATOM      3  C   UNL     1       0.784  13.723  31.206  1.00  0.00    -0.003 C 
ATOM      4  C   UNL     1       0.003  12.600  31.888  1.00  0.00     0.004 C 
ENDBRANCH   2   3
ENDBRANCH   1   2
BRANCH   1   5
ATOM      5  C   UNL     1       2.837  13.009  29.142  1.00  0.00     0.080 C 
BRANCH   5   6
ATOM      6  C   UNL     1       4.112  13.744  29.444  1.00  0.00     0.155 C 
ATOM      7  O   UNL     1       4.325  14.150  30.619  1.00  0.00    -0.295 OA
BRANCH   6   8
ATOM      8  C   UNL     1       5.114  13.966  28.382  1.00  0.00     0.039 C 
ATOM      9  C   UNL     1       6.010  14.949  28.441  1.00  0.00     0.012 C 
ENDBRANCH   6   8
ENDBRANCH   5   6
ENDBRANCH   1   5
TORSDOF 5
ENDMDL
MODEL 5
REMARK VINA RESULT:    -4.070      2.475      4.494
REMARK INTER + INTRA:          -5.818
REMARK INTER:                  -5.385
REMARK INTRA:                  -0.434
REMARK UNBOUND:                -0.558
REMARK SMILES C=CC(=O)CCCCC
REMARK SMILES IDX 6 1 7 2 8 3 9 4 5 5 3 6 4 7 2 8 1 9
REMARK H PARENT
REMARK Flexibility Score: inf
ROOT
ATOM      1  C   UNL     1       3.082  13.634  29.440  1.00  0.00     0.008 C 
ENDROOT
BRANCH   1   2
ATOM      2  C   UNL     1       2.835  13.354  30.936  1.00  0.00     0.000 C 
BRANCH   2   3
ATOM      3  C   UNL     1       4.111  13.198  31.783  1.00  0.00    -0.003 C 
ATOM      4  C   UNL     1       4.533  14.493  32.475  1.00  0.00     0.004 C 
ENDBRANCH   2   3
ENDBRANCH   1   2
BRANCH   1   5
ATOM      5  C   UNL     1       4.492  13.266  28.948  1.00  0.00     0.080 C 
BRANCH   5   6
ATOM      6  C   UNL     1       5.005  14.243  27.928  1.00  0.00     0.155 C 
ATOM      7  O   UNL     1       4.406  14.349  26.823  1.00  0.00    -0.295 OA
BRANCH   6   8
ATOM      8  C   UNL     1       6.180  15.085  28.228  1.00  0.00     0.039 C 
ATOM      9  C   UNL     1       6.440  15.537  29.454  1.00  0.00     0.012 C 
ENDBRANCH   6   8
ENDBRANCH   5   6
ENDBRANCH   1   5
TORSDOF 5
ENDMDL
MODEL 6
REMARK VINA RESULT:    -4.053      1.565      2.136
REMARK INTER + INTRA:          -5.796
REMARK INTER:                  -5.474
REMARK INTRA:                  -0.321
REMARK UNBOUND:                -0.558
REMARK SMILES C=CC(=O)CCCCC
REMARK SMILES IDX 6 1 7 2 8 3 9 4 5 5 3 6 4 7 2 8 1 9
REMARK H PARENT
REMARK Flexibility Score: inf
ROOT
ATOM      1  C   UNL     1       3.725  12.744  30.615  1.00  0.00     0.008 C 
ENDROOT
BRANCH   1   2
ATOM      2  C   UNL     1       4.459  14.005  30.116  1.00  0.00     0.000 C 
BRANCH   2   3
ATOM      3  C   UNL     1       4.877  13.965  28.635  1.00  0.00    -0.003 C 
ATOM      4  C   UNL     1       6.055  14.885  28.320  1.00  0.00     0.004 C 
ENDBRANCH   2   3
ENDBRANCH   1   2
BRANCH   1   5
ATOM      5  C   UNL     1       2.505  12.342  29.770  1.00  0.00     0.080 C 
BRANCH   5   6
ATOM      6  C   UNL     1       1.402  13.359  29.855  1.00  0.00     0.155 C 
ATOM      7  O   UNL     1       1.035  13.958  28.808  1.00  0.00    -0.295 OA
BRANCH   6   8
ATOM      8  C   UNL     1       0.740  13.633  31.146  1.00  0.00     0.039 C 
ATOM      9  C   UNL     1       0.112  12.686  31.842  1.00  0.00     0.012 C 
ENDBRANCH   6   8
ENDBRANCH   5   6
ENDBRANCH   1   5
TORSDOF 5
ENDMDL
MODEL 7
REMARK VINA RESULT:    -4.010      1.547      2.398
REMARK INTER + INTRA:          -5.741
REMARK INTER:                  -5.475
REMARK INTRA:                  -0.266
REMARK UNBOUND:                -0.558
REMARK SMILES C=CC(=O)CCCCC
REMARK SMILES IDX 6 1 7 2 8 3 9 4 5 5 3 6 4 7 2 8 1 9
REMARK H PARENT
REMARK Flexibility Score: inf
ROOT
ATOM      1  C   UNL     1       3.312  12.908  30.449  1.00  0.00     0.008 C 
ENDROOT
BRANCH   1   2
ATOM      2  C   UNL     1       4.381  13.973  30.767  1.00  0.00     0.000 C 
BRANCH   2   3
ATOM      3  C   UNL     1       4.478  14.367  32.252  1.00  0.00    -0.003 C 
ATOM      4  C   UNL     1       5.463  15.507  32.506  1.00  0.00     0.004 C 
ENDBRANCH   2   3
ENDBRANCH   1   2
BRANCH   1   5
ATOM      5  C   UNL     1       2.166  12.832  31.471  1.00  0.00     0.080 C 
BRANCH   5   6
ATOM      6  C   UNL     1       0.822  13.011  30.822  1.00  0.00     0.155 C 
ATOM      7  O   UNL     1      -0.209  13.066  31.548  1.00  0.00    -0.295 OA
BRANCH   6   8
ATOM      8  C   UNL     1       0.714  13.146  29.356  1.00  0.00     0.039 C 
ATOM      9  C   UNL     1       0.318  14.275  28.771  1.00  0.00     0.012 C 
ENDBRANCH   6   8
ENDBRANCH   5   6
ENDBRANCH   1   5
TORSDOF 5
ENDMDL
MODEL 8
REMARK VINA RESULT:    -4.005      1.371      3.492
REMARK INTER + INTRA:          -5.734
REMARK INTER:                  -5.269
REMARK INTRA:                  -0.465
REMARK UNBOUND:                -0.558
REMARK SMILES C=CC(=O)CCCCC
REMARK SMILES IDX 6 1 7 2 8 3 9 4 5 5 3 6 4 7 2 8 1 9
REMARK H PARENT
REMARK Flexibility Score: inf
ROOT
ATOM      1  C   UNL     1       1.770  12.675  31.790  1.00  0.00     0.008 C 
ENDROOT
BRANCH   1   2
ATOM      2  C   UNL     1       0.747  13.657  31.183  1.00  0.00     0.000 C 
BRANCH   2   3
ATOM      3  C   UNL     1       0.342  13.351  29.730  1.00  0.00    -0.003 C 
ATOM      4  C   UNL     1       0.847  14.394  28.735  1.00  0.00     0.004 C 
ENDBRANCH   2   3
ENDBRANCH   1   2
BRANCH   1   5
ATOM      5  C   UNL     1       3.214  13.201  31.823  1.00  0.00     0.080 C 
BRANCH   5   6
ATOM      6  C   UNL     1       3.948  12.908  30.545  1.00  0.00     0.155 C 
ATOM      7  O   UNL     1       4.068  11.711  30.164  1.00  0.00    -0.295 OA
BRANCH   6   8
ATOM      8  C   UNL     1       4.500  14.011  29.733  1.00  0.00     0.039 C 
ATOM      9  C   UNL     1       4.991  13.819  28.509  1.00  0.00     0.012 C 
ENDBRANCH   6   8
ENDBRANCH   5   6
ENDBRANCH   1   5
TORSDOF 5
ENDMDL
MODEL 9
REMARK VINA RESULT:    -3.970      1.819      2.972
REMARK INTER + INTRA:          -5.689
REMARK INTER:                  -5.204
REMARK INTRA:                  -0.485
REMARK UNBOUND:                -0.558
REMARK SMILES C=CC(=O)CCCCC
REMARK SMILES IDX 6 1 7 2 8 3 9 4 5 5 3 6 4 7 2 8 1 9
REMARK H PARENT
REMARK Flexibility Score: inf
ROOT
ATOM      1  C   UNL     1       1.373  13.594  31.512  1.00  0.00     0.008 C 
ENDROOT
BRANCH   1   2
ATOM      2  C   UNL     1       2.113  12.289  31.867  1.00  0.00     0.000 C 
BRANCH   2   3
ATOM      3  C   UNL     1       3.644  12.417  31.950  1.00  0.00    -0.003 C 
ATOM      4  C   UNL     1       4.128  13.866  31.903  1.00  0.00     0.004 C 
ENDBRANCH   2   3
ENDBRANCH   1   2
BRANCH   1   5
ATOM      5  C   UNL     1       0.229  13.421  30.499  1.00  0.00     0.080 C 
BRANCH   5   6
ATOM      6  C   UNL     1       0.606  13.926  29.134  1.00  0.00     0.155 C 
ATOM      7  O   UNL     1      -0.297  14.365  28.370  1.00  0.00    -0.295 OA
BRANCH   6   8
ATOM      8  C   UNL     1       2.018  13.929  28.704  1.00  0.00     0.039 C 
ATOM      9  C   UNL     1       2.597  12.865  28.150  1.00  0.00     0.012 C 
ENDBRANCH   6   8
ENDBRANCH   5   6
ENDBRANCH   1   5
TORSDOF 5
ENDMDL
