MODEL 1
REMARK VINA RESULT:    -3.652      0.000      0.000
REMARK INTER + INTRA:          -5.112
REMARK INTER:                  -5.574
REMARK INTRA:                   0.462
REMARK UNBOUND:                 0.462
REMARK SMILES CC1=CCC[C@@H](C)C(=O)C[C@@H](C(C)C)C(=O)C1
REMARK SMILES IDX 8 1 9 2 6 3 7 4 5 5 4 6 3 7 2 8 1 9 10 11 11 12 15 13 16 14
REMARK SMILES IDX 17 15 12 17 13 18 14 19
REMARK H PARENT
REMARK Flexibility Score: 70.00
ROOT
ATOM      1  C   UNL     1       1.340 -12.684   8.522  1.00  0.00     0.136 C 
ATOM      2  O   UNL     1       0.475 -12.904   7.686  1.00  0.00    -0.299 OA
ENDROOT
BRANCH   1   3
ATOM      3  C   UNL     1       2.623 -12.006   8.075  1.00  0.00     0.053 C 
ATOM      4  C   UNL     1       2.823 -12.232   6.571  1.00  0.00     0.016 C 
BRANCH   3   5
ATOM      5  C   UNL     1       3.868 -12.495   8.864  1.00  0.00     0.015 C 
BRANCH   5   6
ATOM      6  C   UNL     1       4.272 -13.973   8.644  1.00  0.00     0.028 C 
BRANCH   6   7
ATOM      7  C   UNL     1       4.941 -14.633   9.827  1.00  0.00    -0.028 C 
ATOM      8  C   UNL     1       4.407 -14.838  11.056  1.00  0.00    -0.070 CG0
ATOM      9  C   UNL     1       5.212 -15.670  12.025  1.00  0.00     0.039 C 
ATOM     10  G   UNL     1       3.118 -14.204  11.554  1.00  0.00     0.000 G0
ENDBRANCH   6   7
ENDBRANCH   5   6
ENDBRANCH   3   5
ENDBRANCH   1   3
BRANCH   1  11
ATOM     11  C   UNL     1       1.041 -13.040   9.967  1.00  0.00     0.087 C 
BRANCH  11  12
ATOM     12  C   UNL     1       0.846 -14.547  10.297  1.00  0.00     0.066 C 
BRANCH  12  13
ATOM     13  C   UNL     1       1.862 -15.016  11.330  1.00  0.00     0.140 C 
ATOM     14  O   UNL     1       1.599 -15.970  12.049  1.00  0.00    -0.299 OA
BRANCH  13  15
ATOM     15  C   UNL     1       3.121 -14.217  11.575  1.00  0.00     0.106 CG0
ATOM     16  G   UNL     1       4.403 -14.851  11.056  1.00  0.00     0.000 G0
ENDBRANCH  13  15
ENDBRANCH  12  13
BRANCH  12  17
ATOM     17  C   UNL     1       0.935 -15.437   9.014  1.00  0.00    -0.006 C 
ATOM     18  C   UNL     1      -0.454 -15.866   8.505  1.00  0.00     0.008 C 
ATOM     19  C   UNL     1       1.785 -16.698   9.260  1.00  0.00     0.008 C 
ENDBRANCH  12  17
ENDBRANCH  11  12
ENDBRANCH   1  11
TORSDOF 1
ENDMDL
MODEL 2
REMARK VINA RESULT:    -3.525      1.975      3.779
REMARK INTER + INTRA:          -4.918
REMARK INTER:                  -4.582
REMARK INTRA:                  -0.337
REMARK UNBOUND:                 0.462
REMARK SMILES CC1=CCC[C@@H](C)C(=O)C[C@@H](C(C)C)C(=O)C1
REMARK SMILES IDX 8 1 9 2 6 3 7 4 5 5 4 6 3 7 2 8 1 9 10 11 11 12 15 13 16 14
REMARK SMILES IDX 17 15 12 17 13 18 14 19
REMARK H PARENT
REMARK Flexibility Score: 70.00
ROOT
ATOM      1  C   UNL     1       1.595 -15.878  10.010  1.00  0.00     0.136 C 
ATOM      2  O   UNL     1       2.513 -16.156   9.250  1.00  0.00    -0.299 OA
ENDROOT
BRANCH   1   3
ATOM      3  C   UNL     1       0.402 -15.121   9.456  1.00  0.00     0.053 C 
ATOM      4  C   UNL     1      -0.341 -16.004   8.447  1.00  0.00     0.016 C 
BRANCH   3   5
ATOM      5  C   UNL     1       0.798 -13.770   8.800  1.00  0.00     0.015 C 
BRANCH   5   6
ATOM      6  C   UNL     1       1.252 -12.653   9.771  1.00  0.00     0.028 C 
BRANCH   6   7
ATOM      7  C   UNL     1       2.710 -12.271   9.665  1.00  0.00    -0.028 C 
ATOM      8  C   UNL     1       3.698 -12.574  10.542  1.00  0.00    -0.070 CG0
ATOM      9  C   UNL     1       5.109 -12.223  10.135  1.00  0.00     0.039 C 
ATOM     10  G   UNL     1       3.473 -13.139  11.936  1.00  0.00     0.000 G0
ENDBRANCH   6   7
ENDBRANCH   5   6
ENDBRANCH   3   5
ENDBRANCH   1   3
BRANCH   1  11
ATOM     11  C   UNL     1       1.681 -16.375  11.442  1.00  0.00     0.087 C 
BRANCH  11  12
ATOM     12  C   UNL     1       2.191 -15.366  12.510  1.00  0.00     0.066 C 
BRANCH  12  13
ATOM     13  C   UNL     1       3.450 -14.653  12.032  1.00  0.00     0.140 C 
ATOM     14  O   UNL     1       4.476 -15.293  11.851  1.00  0.00    -0.299 OA
BRANCH  13  15
ATOM     15  C   UNL     1       3.477 -13.146  11.932  1.00  0.00     0.106 CG0
ATOM     16  G   UNL     1       3.694 -12.593  10.532  1.00  0.00     0.000 G0
ENDBRANCH  13  15
ENDBRANCH  12  13
BRANCH  12  17
ATOM     17  C   UNL     1       2.457 -16.065  13.884  1.00  0.00    -0.006 C 
ATOM     18  C   UNL     1       1.410 -17.149  14.199  1.00  0.00     0.008 C 
ATOM     19  C   UNL     1       2.480 -15.045  15.039  1.00  0.00     0.008 C 
ENDBRANCH  12  17
ENDBRANCH  11  12
ENDBRANCH   1  11
TORSDOF 1
ENDMDL
MODEL 3
REMARK VINA RESULT:    -3.297     14.113     15.748
REMARK INTER + INTRA:          -4.570
REMARK INTER:                  -4.090
REMARK INTRA:                  -0.480
REMARK UNBOUND:                 0.462
REMARK SMILES CC1=CCC[C@@H](C)C(=O)C[C@@H](C(C)C)C(=O)C1
REMARK SMILES IDX 8 1 9 2 6 3 7 4 5 5 4 6 3 7 2 8 1 9 10 11 11 12 15 13 16 14
REMARK SMILES IDX 17 15 12 17 13 18 14 19
REMARK H PARENT
REMARK Flexibility Score: 70.00
ROOT
ATOM      1  C   UNL     1       1.040 -27.829  10.725  1.00  0.00     0.136 C 
ATOM      2  O   UNL     1       1.285 -26.813  10.088  1.00  0.00    -0.299 OA
ENDROOT
BRANCH   1   3
ATOM      3  C   UNL     1       1.183 -29.171  10.030  1.00  0.00     0.053 C 
ATOM      4  C   UNL     1       2.526 -29.224   9.292  1.00  0.00     0.016 C 
BRANCH   3   5
ATOM      5  C   UNL     1       0.016 -29.467   9.049  1.00  0.00     0.015 C 
BRANCH   5   6
ATOM      6  C   UNL     1      -1.049 -30.474   9.548  1.00  0.00     0.028 C 
BRANCH   6   7
ATOM      7  C   UNL     1      -2.428 -29.893   9.753  1.00  0.00    -0.028 C 
ATOM      8  C   UNL     1      -2.977 -29.488  10.924  1.00  0.00    -0.070 CG0
ATOM      9  C   UNL     1      -4.312 -28.785  10.851  1.00  0.00     0.039 C 
ATOM     10  G   UNL     1      -2.396 -29.783  12.298  1.00  0.00     0.000 G0
ENDBRANCH   6   7
ENDBRANCH   5   6
ENDBRANCH   3   5
ENDBRANCH   1   3
BRANCH   1  11
ATOM     11  C   UNL     1       0.681 -27.679  12.192  1.00  0.00     0.087 C 
BRANCH  11  12
ATOM     12  C   UNL     1      -0.011 -28.891  12.877  1.00  0.00     0.066 C 
BRANCH  12  13
ATOM     13  C   UNL     1      -1.524 -28.712  12.906  1.00  0.00     0.140 C 
ATOM     14  O   UNL     1      -2.010 -27.771  13.517  1.00  0.00    -0.299 OA
BRANCH  13  15
ATOM     15  C   UNL     1      -2.425 -29.773  12.319  1.00  0.00     0.106 CG0
ATOM     16  G   UNL     1      -2.964 -29.469  10.929  1.00  0.00     0.000 G0
ENDBRANCH  13  15
ENDBRANCH  12  13
BRANCH  12  17
ATOM     17  C   UNL     1       0.531 -29.123  14.326  1.00  0.00    -0.006 C 
ATOM     18  C   UNL     1       2.056 -28.935  14.415  1.00  0.00     0.008 C 
ATOM     19  C   UNL     1       0.172 -30.529  14.843  1.00  0.00     0.008 C 
ENDBRANCH  12  17
ENDBRANCH  11  12
ENDBRANCH   1  11
TORSDOF 1
ENDMDL
MODEL 4
REMARK VINA RESULT:    -3.281      2.318      4.209
REMARK INTER + INTRA:          -4.546
REMARK INTER:                  -4.536
REMARK INTRA:                  -0.009
REMARK UNBOUND:                 0.462
REMARK SMILES CC1=CCC[C@@H](C)C(=O)C[C@@H](C(C)C)C(=O)C1
REMARK SMILES IDX 8 1 9 2 6 3 7 4 5 5 4 6 3 7 2 8 1 9 10 11 11 12 15 13 16 14
REMARK SMILES IDX 17 15 12 17 13 18 14 19
REMARK H PARENT
REMARK Flexibility Score: 70.00
ROOT
ATOM      1  C   UNL     1       1.774 -15.592  10.014  1.00  0.00     0.136 C 
ATOM      2  O   UNL     1       2.721 -15.917   9.312  1.00  0.00    -0.299 OA
ENDROOT
BRANCH   1   3
ATOM      3  C   UNL     1       0.633 -14.818   9.377  1.00  0.00     0.053 C 
ATOM      4  C   UNL     1      -0.199 -15.762   8.501  1.00  0.00     0.016 C 
BRANCH   3   5
ATOM      5  C   UNL     1       1.122 -13.601   8.546  1.00  0.00     0.015 C 
BRANCH   5   6
ATOM      6  C   UNL     1       1.255 -12.264   9.315  1.00  0.00     0.028 C 
BRANCH   6   7
ATOM      7  C   UNL     1       0.459 -12.184  10.596  1.00  0.00    -0.028 C 
ATOM      8  C   UNL     1       0.948 -12.137  11.859  1.00  0.00    -0.070 CG0
ATOM      9  C   UNL     1      -0.043 -11.891  12.971  1.00  0.00     0.039 C 
ATOM     10  G   UNL     1       2.394 -12.417  12.237  1.00  0.00     0.000 G0
ENDBRANCH   6   7
ENDBRANCH   5   6
ENDBRANCH   3   5
ENDBRANCH   1   3
BRANCH   1  11
ATOM     11  C   UNL     1       1.770 -16.050  11.461  1.00  0.00     0.087 C 
BRANCH  11  12
ATOM     12  C   UNL     1       1.792 -14.943  12.553  1.00  0.00     0.066 C 
BRANCH  12  13
ATOM     13  C   UNL     1       2.815 -13.865  12.218  1.00  0.00     0.140 C 
ATOM     14  O   UNL     1       3.991 -14.169  12.075  1.00  0.00    -0.299 OA
BRANCH  13  15
ATOM     15  C   UNL     1       2.411 -12.409  12.215  1.00  0.00     0.106 CG0
ATOM     16  G   UNL     1       0.952 -12.141  11.879  1.00  0.00     0.000 G0
ENDBRANCH  13  15
ENDBRANCH  12  13
BRANCH  12  17
ATOM     17  C   UNL     1       2.081 -15.535  13.971  1.00  0.00    -0.006 C 
ATOM     18  C   UNL     1       1.374 -16.885  14.194  1.00  0.00     0.008 C 
ATOM     19  C   UNL     1       1.655 -14.561  15.086  1.00  0.00     0.008 C 
ENDBRANCH  12  17
ENDBRANCH  11  12
ENDBRANCH   1  11
TORSDOF 1
ENDMDL
MODEL 5
REMARK VINA RESULT:    -3.246      2.821      5.257
REMARK INTER + INTRA:          -4.491
REMARK INTER:                  -4.345
REMARK INTRA:                  -0.146
REMARK UNBOUND:                 0.462
REMARK SMILES CC1=CCC[C@@H](C)C(=O)C[C@@H](C(C)C)C(=O)C1
REMARK SMILES IDX 8 1 9 2 6 3 7 4 5 5 4 6 3 7 2 8 1 9 10 11 11 12 15 13 16 14
REMARK SMILES IDX 17 15 12 17 13 18 14 19
REMARK H PARENT
REMARK Flexibility Score: 70.00
ROOT
ATOM      1  C   UNL     1       1.395 -15.867  14.075  1.00  0.00     0.136 C 
ATOM      2  O   UNL     1       1.271 -15.246  15.121  1.00  0.00    -0.299 OA
ENDROOT
BRANCH   1   3
ATOM      3  C   UNL     1       1.043 -17.344  14.064  1.00  0.00     0.053 C 
ATOM      4  C   UNL     1       0.157 -17.667  15.273  1.00  0.00     0.016 C 
BRANCH   3   5
ATOM      5  C   UNL     1       2.296 -18.261  14.054  1.00  0.00     0.015 C 
BRANCH   5   6
ATOM      6  C   UNL     1       3.447 -17.845  15.003  1.00  0.00     0.028 C 
BRANCH   6   7
ATOM      7  C   UNL     1       4.825 -17.877  14.384  1.00  0.00    -0.028 C 
ATOM      8  C   UNL     1       5.439 -16.876  13.708  1.00  0.00    -0.070 CG0
ATOM      9  C   UNL     1       6.885 -17.088  13.327  1.00  0.00     0.039 C 
ATOM     10  G   UNL     1       4.748 -15.612  13.219  1.00  0.00     0.000 G0
ENDBRANCH   6   7
ENDBRANCH   5   6
ENDBRANCH   3   5
ENDBRANCH   1   3
BRANCH   1  11
ATOM     11  C   UNL     1       1.824 -15.099  12.838  1.00  0.00     0.087 C 
BRANCH  11  12
ATOM     12  C   UNL     1       2.591 -15.894  11.744  1.00  0.00     0.066 C 
BRANCH  12  13
ATOM     13  C   UNL     1       4.094 -15.681  11.865  1.00  0.00     0.140 C 
ATOM     14  O   UNL     1       4.792 -15.704  10.862  1.00  0.00    -0.299 OA
BRANCH  13  15
ATOM     15  C   UNL     1       4.741 -15.596  13.228  1.00  0.00     0.106 CG0
ATOM     16  G   UNL     1       5.439 -16.864  13.695  1.00  0.00     0.000 G0
ENDBRANCH  13  15
ENDBRANCH  12  13
BRANCH  12  17
ATOM     17  C   UNL     1       2.108 -15.511  10.306  1.00  0.00    -0.006 C 
ATOM     18  C   UNL     1       0.983 -14.460  10.329  1.00  0.00     0.008 C 
ATOM     19  C   UNL     1       1.617 -16.748   9.529  1.00  0.00     0.008 C 
ENDBRANCH  12  17
ENDBRANCH  11  12
ENDBRANCH   1  11
TORSDOF 1
ENDMDL
MODEL 6
REMARK VINA RESULT:    -2.995      2.133      3.676
REMARK INTER + INTRA:          -4.109
REMARK INTER:                  -3.904
REMARK INTRA:                  -0.206
REMARK UNBOUND:                 0.462
REMARK SMILES CC1=CCC[C@@H](C)C(=O)C[C@@H](C(C)C)C(=O)C1
REMARK SMILES IDX 8 1 9 2 6 3 7 4 5 5 4 6 3 7 2 8 1 9 10 11 11 12 15 13 16 14
REMARK SMILES IDX 17 15 12 17 13 18 14 19
REMARK H PARENT
REMARK Flexibility Score: 70.00
ROOT
ATOM      1  C   UNL     1       1.698 -16.142  10.581  1.00  0.00     0.136 C 
ATOM      2  O   UNL     1       1.348 -17.046   9.834  1.00  0.00    -0.299 OA
ENDROOT
BRANCH   1   3
ATOM      3  C   UNL     1       1.358 -14.713  10.198  1.00  0.00     0.053 C 
ATOM      4  C   UNL     1       0.186 -14.714   9.208  1.00  0.00     0.016 C 
BRANCH   3   5
ATOM      5  C   UNL     1       2.568 -13.947   9.599  1.00  0.00     0.015 C 
BRANCH   5   6
ATOM      6  C   UNL     1       3.813 -14.804   9.261  1.00  0.00     0.028 C 
BRANCH   6   7
ATOM      7  C   UNL     1       5.112 -14.295   9.838  1.00  0.00    -0.028 C 
ATOM      8  C   UNL     1       5.725 -14.723  10.969  1.00  0.00    -0.070 CG0
ATOM      9  C   UNL     1       7.104 -14.176  11.253  1.00  0.00     0.039 C 
ATOM     10  G   UNL     1       5.082 -15.624  12.013  1.00  0.00     0.000 G0
ENDBRANCH   6   7
ENDBRANCH   5   6
ENDBRANCH   3   5
ENDBRANCH   1   3
BRANCH   1  11
ATOM     11  C   UNL     1       2.387 -16.520  11.879  1.00  0.00     0.087 C 
BRANCH  11  12
ATOM     12  C   UNL     1       2.625 -15.380  12.910  1.00  0.00     0.066 C 
BRANCH  12  13
ATOM     13  C   UNL     1       4.088 -14.959  12.933  1.00  0.00     0.140 C 
ATOM     14  O   UNL     1       4.430 -13.993  13.599  1.00  0.00    -0.299 OA
BRANCH  13  15
ATOM     15  C   UNL     1       5.086 -15.631  12.018  1.00  0.00     0.106 CG0
ATOM     16  G   UNL     1       5.739 -14.720  10.989  1.00  0.00     0.000 G0
ENDBRANCH  13  15
ENDBRANCH  12  13
BRANCH  12  17
ATOM     17  C   UNL     1       2.163 -15.794  14.346  1.00  0.00    -0.006 C 
ATOM     18  C   UNL     1       1.554 -17.208  14.378  1.00  0.00     0.008 C 
ATOM     19  C   UNL     1       1.135 -14.798  14.916  1.00  0.00     0.008 C 
ENDBRANCH  12  17
ENDBRANCH  11  12
ENDBRANCH   1  11
TORSDOF 1
ENDMDL
MODEL 7
REMARK VINA RESULT:    -2.963      2.195      4.398
REMARK INTER + INTRA:          -4.060
REMARK INTER:                  -3.599
REMARK INTRA:                  -0.461
REMARK UNBOUND:                 0.462
REMARK SMILES CC1=CCC[C@@H](C)C(=O)C[C@@H](C(C)C)C(=O)C1
REMARK SMILES IDX 8 1 9 2 6 3 7 4 5 5 4 6 3 7 2 8 1 9 10 11 11 12 15 13 16 14
REMARK SMILES IDX 17 15 12 17 13 18 14 19
REMARK H PARENT
REMARK Flexibility Score: 70.00
ROOT
ATOM      1  C   UNL     1       1.839 -15.451  13.326  1.00  0.00     0.136 C 
ATOM      2  O   UNL     1       1.012 -15.354  14.223  1.00  0.00    -0.299 OA
ENDROOT
BRANCH   1   3
ATOM      3  C   UNL     1       2.832 -16.597  13.379  1.00  0.00     0.053 C 
ATOM      4  C   UNL     1       2.147 -17.842  13.954  1.00  0.00     0.016 C 
BRANCH   3   5
ATOM      5  C   UNL     1       4.104 -16.254  14.202  1.00  0.00     0.015 C 
BRANCH   5   6
ATOM      6  C   UNL     1       4.520 -14.762  14.215  1.00  0.00     0.028 C 
BRANCH   6   7
ATOM      7  C   UNL     1       5.614 -14.398  13.239  1.00  0.00    -0.028 C 
ATOM      8  C   UNL     1       5.540 -13.496  12.231  1.00  0.00    -0.070 CG0
ATOM      9  C   UNL     1       6.820 -13.182  11.493  1.00  0.00     0.039 C 
ATOM     10  G   UNL     1       4.250 -12.865  11.728  1.00  0.00     0.000 G0
ENDBRANCH   6   7
ENDBRANCH   5   6
ENDBRANCH   3   5
ENDBRANCH   1   3
BRANCH   1  11
ATOM     11  C   UNL     1       1.766 -14.457  12.181  1.00  0.00     0.087 C 
BRANCH  11  12
ATOM     12  C   UNL     1       2.618 -14.771  10.919  1.00  0.00     0.066 C 
BRANCH  12  13
ATOM     13  C   UNL     1       3.558 -13.618  10.593  1.00  0.00     0.140 C 
ATOM     14  O   UNL     1       3.854 -13.389   9.429  1.00  0.00    -0.299 OA
BRANCH  13  15
ATOM     15  C   UNL     1       4.245 -12.860  11.705  1.00  0.00     0.106 CG0
ATOM     16  G   UNL     1       5.521 -13.498  12.233  1.00  0.00     0.000 G0
ENDBRANCH  13  15
ENDBRANCH  12  13
BRANCH  12  17
ATOM     17  C   UNL     1       1.718 -15.097   9.681  1.00  0.00    -0.006 C 
ATOM     18  C   UNL     1       0.390 -14.317   9.704  1.00  0.00     0.008 C 
ATOM     19  C   UNL     1       1.408 -16.603   9.592  1.00  0.00     0.008 C 
ENDBRANCH  12  17
ENDBRANCH  11  12
ENDBRANCH   1  11
TORSDOF 1
ENDMDL
MODEL 8
REMARK VINA RESULT:    -2.845     15.672     17.980
REMARK INTER + INTRA:          -3.879
REMARK INTER:                  -3.579
REMARK INTRA:                  -0.300
REMARK UNBOUND:                 0.462
REMARK SMILES CC1=CCC[C@@H](C)C(=O)C[C@@H](C(C)C)C(=O)C1
REMARK SMILES IDX 8 1 9 2 6 3 7 4 5 5 4 6 3 7 2 8 1 9 10 11 11 12 15 13 16 14
REMARK SMILES IDX 17 15 12 17 13 18 14 19
REMARK H PARENT
REMARK Flexibility Score: 70.00
ROOT
ATOM      1  C   UNL     1      -4.385 -28.051  13.609  1.00  0.00     0.136 C 
ATOM      2  O   UNL     1      -3.237 -27.870  13.228  1.00  0.00    -0.299 OA
ENDROOT
BRANCH   1   3
ATOM      3  C   UNL     1      -5.046 -26.978  14.456  1.00  0.00     0.053 C 
ATOM      4  C   UNL     1      -3.967 -26.106  15.108  1.00  0.00     0.016 C 
BRANCH   3   5
ATOM      5  C   UNL     1      -5.992 -27.564  15.538  1.00  0.00     0.015 C 
BRANCH   5   6
ATOM      6  C   UNL     1      -7.503 -27.539  15.203  1.00  0.00     0.028 C 
BRANCH   6   7
ATOM      7  C   UNL     1      -8.181 -28.889  15.217  1.00  0.00    -0.028 C 
ATOM      8  C   UNL     1      -8.437 -29.685  14.150  1.00  0.00    -0.070 CG0
ATOM      9  C   UNL     1      -8.977 -31.066  14.435  1.00  0.00     0.039 C 
ATOM     10  G   UNL     1      -8.319 -29.248  12.698  1.00  0.00     0.000 G0
ENDBRANCH   6   7
ENDBRANCH   5   6
ENDBRANCH   3   5
ENDBRANCH   1   3
BRANCH   1  11
ATOM     11  C   UNL     1      -5.099 -29.308  13.144  1.00  0.00     0.087 C 
BRANCH  11  12
ATOM     12  C   UNL     1      -5.856 -29.231  11.788  1.00  0.00     0.066 C 
BRANCH  12  13
ATOM     13  C   UNL     1      -7.222 -29.897  11.886  1.00  0.00     0.140 C 
ATOM     14  O   UNL     1      -7.461 -30.890  11.214  1.00  0.00    -0.299 OA
BRANCH  13  15
ATOM     15  C   UNL     1      -8.327 -29.249  12.687  1.00  0.00     0.106 CG0
ATOM     16  G   UNL     1      -8.430 -29.703  14.135  1.00  0.00     0.000 G0
ENDBRANCH  13  15
ENDBRANCH  12  13
BRANCH  12  17
ATOM     17  C   UNL     1      -5.028 -29.871  10.626  1.00  0.00    -0.006 C 
ATOM     18  C   UNL     1      -3.769 -30.597  11.138  1.00  0.00     0.008 C 
ATOM     19  C   UNL     1      -4.604 -28.814   9.588  1.00  0.00     0.008 C 
ENDBRANCH  12  17
ENDBRANCH  11  12
ENDBRANCH   1  11
TORSDOF 1
ENDMDL
MODEL 9
REMARK VINA RESULT:    -2.772      2.844      4.680
REMARK INTER + INTRA:          -3.768
REMARK INTER:                  -3.634
REMARK INTRA:                  -0.134
REMARK UNBOUND:                 0.462
REMARK SMILES CC1=CCC[C@@H](C)C(=O)C[C@@H](C(C)C)C(=O)C1
REMARK SMILES IDX 8 1 9 2 6 3 7 4 5 5 4 6 3 7 2 8 1 9 10 11 11 12 15 13 16 14
REMARK SMILES IDX 17 15 12 17 13 18 14 19
REMARK H PARENT
REMARK Flexibility Score: 70.00
ROOT
ATOM      1  C   UNL     1       2.243 -15.825  11.074  1.00  0.00     0.136 C 
ATOM      2  O   UNL     1       2.703 -16.763  10.439  1.00  0.00    -0.299 OA
ENDROOT
BRANCH   1   3
ATOM      3  C   UNL     1       1.193 -14.950  10.414  1.00  0.00     0.053 C 
ATOM      4  C   UNL     1       0.599 -15.685   9.207  1.00  0.00     0.016 C 
BRANCH   3   5
ATOM      5  C   UNL     1       1.749 -13.566   9.980  1.00  0.00     0.015 C 
BRANCH   5   6
ATOM      6  C   UNL     1       2.147 -12.606  11.128  1.00  0.00     0.028 C 
BRANCH   6   7
ATOM      7  C   UNL     1       1.025 -12.246  12.074  1.00  0.00    -0.028 C 
ATOM      8  C   UNL     1       0.960 -12.513  13.401  1.00  0.00    -0.070 CG0
ATOM      9  C   UNL     1      -0.189 -11.905  14.170  1.00  0.00     0.039 C 
ATOM     10  G   UNL     1       1.894 -13.460  14.139  1.00  0.00     0.000 G0
ENDBRANCH   6   7
ENDBRANCH   5   6
ENDBRANCH   3   5
ENDBRANCH   1   3
BRANCH   1  11
ATOM     11  C   UNL     1       2.702 -15.645  12.510  1.00  0.00     0.087 C 
BRANCH  11  12
ATOM     12  C   UNL     1       1.694 -16.036  13.628  1.00  0.00     0.066 C 
BRANCH  12  13
ATOM     13  C   UNL     1       1.310 -14.824  14.466  1.00  0.00     0.140 C 
ATOM     14  O   UNL     1       0.437 -14.928  15.316  1.00  0.00    -0.299 OA
BRANCH  13  15
ATOM     15  C   UNL     1       1.891 -13.466  14.149  1.00  0.00     0.106 CG0
ATOM     16  G   UNL     1       0.961 -12.521  13.402  1.00  0.00     0.000 G0
ENDBRANCH  13  15
ENDBRANCH  12  13
BRANCH  12  17
ATOM     17  C   UNL     1       2.261 -17.168  14.546  1.00  0.00    -0.006 C 
ATOM     18  C   UNL     1       3.541 -16.734  15.284  1.00  0.00     0.008 C 
ATOM     19  C   UNL     1       2.560 -18.448  13.743  1.00  0.00     0.008 C 
ENDBRANCH  12  17
ENDBRANCH  11  12
ENDBRANCH   1  11
TORSDOF 1
ENDMDL
