MODEL 1
REMARK VINA RESULT:    -6.369      0.000      0.000
REMARK INTER + INTRA:         -12.663
REMARK INTER:                 -11.582
REMARK INTRA:                  -1.081
REMARK UNBOUND:                -1.081
REMARK SMILES CCCCCC=CCC=CCCCCCCCC(=O)[O-]
REMARK SMILES IDX 11 1 12 2 13 3 14 4 15 5 16 6 17 7 18 8 19 9 20 10 10 11
REMARK SMILES IDX 9 12 8 13 7 14 6 15 5 16 4 17 3 18 2 19 1 20
REMARK H PARENT
REMARK Flexibility Score: inf
ROOT
ATOM      1  C   UNL     1      -2.813  45.656   6.327  1.00  0.00     0.027 C 
ENDROOT
BRANCH   1   2
ATOM      2  C   UNL     1      -1.724  46.416   7.104  1.00  0.00     0.004 C 
BRANCH   2   3
ATOM      3  C   UNL     1      -0.412  46.624   6.321  1.00  0.00     0.000 C 
BRANCH   3   4
ATOM      4  C   UNL     1       0.725  47.285   7.124  1.00  0.00     0.000 C 
BRANCH   4   5
ATOM      5  C   UNL     1       0.269  48.314   8.178  1.00  0.00     0.000 C 
BRANCH   5   6
ATOM      6  C   UNL     1       1.089  48.318   9.484  1.00  0.00     0.006 C 
BRANCH   6   7
ATOM      7  C   UNL     1       1.554  46.929   9.946  1.00  0.00     0.053 C 
BRANCH   7   8
ATOM      8  C   UNL     1       0.494  46.212  10.723  1.00  0.00     0.041 C 
ATOM      9  O   UNL     1      -0.450  46.858  11.251  1.00  0.00    -0.550 OA
ATOM     10  O   UNL     1       0.526  44.828  10.834  1.00  0.00    -0.550 OA
ENDBRANCH   7   8
ENDBRANCH   6   7
ENDBRANCH   5   6
ENDBRANCH   4   5
ENDBRANCH   3   4
ENDBRANCH   2   3
ENDBRANCH   1   2
BRANCH   1  11
ATOM     11  C   UNL     1      -2.360  45.240   4.953  1.00  0.00    -0.031 C 
ATOM     12  C   UNL     1      -2.879  44.170   4.337  1.00  0.00    -0.027 C 
BRANCH  12  13
ATOM     13  C   UNL     1      -2.404  43.768   2.967  1.00  0.00     0.054 C 
BRANCH  13  14
ATOM     14  C   UNL     1      -2.247  44.970   2.072  1.00  0.00    -0.027 C 
ATOM     15  C   UNL     1      -1.213  45.164   1.232  1.00  0.00    -0.031 C 
BRANCH  15  16
ATOM     16  C   UNL     1      -0.023  44.243   1.111  1.00  0.00     0.027 C 
BRANCH  16  17
ATOM     17  C   UNL     1       1.298  44.950   1.458  1.00  0.00     0.004 C 
BRANCH  17  18
ATOM     18  C   UNL     1       2.481  44.562   0.551  1.00  0.00     0.000 C 
BRANCH  18  19
ATOM     19  C   UNL     1       2.111  44.556  -0.939  1.00  0.00    -0.003 C 
ATOM     20  C   UNL     1       3.272  44.049  -1.790  1.00  0.00     0.004 C 
ENDBRANCH  18  19
ENDBRANCH  17  18
ENDBRANCH  16  17
ENDBRANCH  15  16
ENDBRANCH  13  14
ENDBRANCH  12  13
ENDBRANCH   1  11
TORSDOF 14
ENDMDL
MODEL 2
REMARK VINA RESULT:    -6.288      4.205      7.737
REMARK INTER + INTRA:         -12.515
REMARK INTER:                 -11.766
REMARK INTRA:                  -0.749
REMARK UNBOUND:                -1.081
REMARK SMILES CCCCCC=CCC=CCCCCCCCC(=O)[O-]
REMARK SMILES IDX 11 1 12 2 13 3 14 4 15 5 16 6 17 7 18 8 19 9 20 10 10 11
REMARK SMILES IDX 9 12 8 13 7 14 6 15 5 16 4 17 3 18 2 19 1 20
REMARK H PARENT
REMARK Flexibility Score: inf
ROOT
ATOM      1  C   UNL     1      -0.887  45.247  -2.301  1.00  0.00     0.027 C 
ENDROOT
BRANCH   1   2
ATOM      2  C   UNL     1      -0.600  44.967  -0.815  1.00  0.00     0.004 C 
BRANCH   2   3
ATOM      3  C   UNL     1      -1.674  45.506   0.151  1.00  0.00     0.000 C 
BRANCH   3   4
ATOM      4  C   UNL     1      -2.519  44.423   0.852  1.00  0.00     0.000 C 
BRANCH   4   5
ATOM      5  C   UNL     1      -1.733  43.488   1.791  1.00  0.00     0.000 C 
BRANCH   5   6
ATOM      6  C   UNL     1      -2.326  43.336   3.207  1.00  0.00     0.006 C 
BRANCH   6   7
ATOM      7  C   UNL     1      -2.759  44.659   3.858  1.00  0.00     0.053 C 
BRANCH   7   8
ATOM      8  C   UNL     1      -3.219  44.465   5.270  1.00  0.00     0.041 C 
ATOM      9  O   UNL     1      -3.764  45.414   5.894  1.00  0.00    -0.550 OA
ATOM     10  O   UNL     1      -3.079  43.228   5.885  1.00  0.00    -0.550 OA
ENDBRANCH   7   8
ENDBRANCH   6   7
ENDBRANCH   5   6
ENDBRANCH   4   5
ENDBRANCH   3   4
ENDBRANCH   2   3
ENDBRANCH   1   2
BRANCH   1  11
ATOM     11  C   UNL     1       0.355  45.195  -3.150  1.00  0.00    -0.031 C 
ATOM     12  C   UNL     1       1.413  44.450  -2.802  1.00  0.00    -0.027 C 
BRANCH  12  13
ATOM     13  C   UNL     1       2.647  44.421  -3.662  1.00  0.00     0.054 C 
BRANCH  13  14
ATOM     14  C   UNL     1       3.876  44.127  -2.841  1.00  0.00    -0.027 C 
ATOM     15  C   UNL     1       5.137  44.210  -3.303  1.00  0.00    -0.031 C 
BRANCH  15  16
ATOM     16  C   UNL     1       5.508  44.542  -4.728  1.00  0.00     0.027 C 
BRANCH  16  17
ATOM     17  C   UNL     1       6.633  45.589  -4.808  1.00  0.00     0.004 C 
BRANCH  17  18
ATOM     18  C   UNL     1       7.473  45.714  -3.523  1.00  0.00     0.000 C 
BRANCH  18  19
ATOM     19  C   UNL     1       8.867  46.306  -3.778  1.00  0.00    -0.003 C 
ATOM     20  C   UNL     1       9.659  45.445  -4.758  1.00  0.00     0.004 C 
ENDBRANCH  18  19
ENDBRANCH  17  18
ENDBRANCH  16  17
ENDBRANCH  15  16
ENDBRANCH  13  14
ENDBRANCH  12  13
ENDBRANCH   1  11
TORSDOF 14
ENDMDL
MODEL 3
REMARK VINA RESULT:    -6.273      3.198      6.102
REMARK INTER + INTRA:         -12.487
REMARK INTER:                 -11.435
REMARK INTRA:                  -1.052
REMARK UNBOUND:                -1.081
REMARK SMILES CCCCCC=CCC=CCCCCCCCC(=O)[O-]
REMARK SMILES IDX 11 1 12 2 13 3 14 4 15 5 16 6 17 7 18 8 19 9 20 10 10 11
REMARK SMILES IDX 9 12 8 13 7 14 6 15 5 16 4 17 3 18 2 19 1 20
REMARK H PARENT
REMARK Flexibility Score: inf
ROOT
ATOM      1  C   UNL     1       2.347  44.813   0.720  1.00  0.00     0.027 C 
ENDROOT
BRANCH   1   2
ATOM      2  C   UNL     1       2.932  44.564   2.121  1.00  0.00     0.004 C 
BRANCH   2   3
ATOM      3  C   UNL     1       3.130  45.841   2.963  1.00  0.00     0.000 C 
BRANCH   3   4
ATOM      4  C   UNL     1       3.622  45.599   4.403  1.00  0.00     0.000 C 
BRANCH   4   5
ATOM      5  C   UNL     1       5.054  45.041   4.519  1.00  0.00     0.000 C 
BRANCH   5   6
ATOM      6  C   UNL     1       5.314  44.158   5.757  1.00  0.00     0.006 C 
BRANCH   6   7
ATOM      7  C   UNL     1       4.049  43.787   6.547  1.00  0.00     0.053 C 
BRANCH   7   8
ATOM      8  C   UNL     1       4.315  42.718   7.561  1.00  0.00     0.041 C 
ATOM      9  O   UNL     1       3.437  42.423   8.414  1.00  0.00    -0.550 OA
ATOM     10  O   UNL     1       5.518  42.023   7.542  1.00  0.00    -0.550 OA
ENDBRANCH   7   8
ENDBRANCH   6   7
ENDBRANCH   5   6
ENDBRANCH   4   5
ENDBRANCH   3   4
ENDBRANCH   2   3
ENDBRANCH   1   2
BRANCH   1  11
ATOM     11  C   UNL     1       0.886  44.466   0.632  1.00  0.00    -0.031 C 
ATOM     12  C   UNL     1      -0.030  45.085   1.388  1.00  0.00    -0.027 C 
BRANCH  12  13
ATOM     13  C   UNL     1      -1.485  44.714   1.290  1.00  0.00     0.054 C 
BRANCH  13  14
ATOM     14  C   UNL     1      -1.796  43.506   2.134  1.00  0.00    -0.027 C 
ATOM     15  C   UNL     1      -2.385  43.554   3.343  1.00  0.00    -0.031 C 
BRANCH  15  16
ATOM     16  C   UNL     1      -2.759  44.826   4.065  1.00  0.00     0.027 C 
BRANCH  16  17
ATOM     17  C   UNL     1      -3.018  44.591   5.563  1.00  0.00     0.004 C 
BRANCH  17  18
ATOM     18  C   UNL     1      -2.574  45.753   6.471  1.00  0.00     0.000 C 
BRANCH  18  19
ATOM     19  C   UNL     1      -1.203  46.323   6.082  1.00  0.00    -0.003 C 
ATOM     20  C   UNL     1      -0.569  47.075   7.249  1.00  0.00     0.004 C 
ENDBRANCH  18  19
ENDBRANCH  17  18
ENDBRANCH  16  17
ENDBRANCH  15  16
ENDBRANCH  13  14
ENDBRANCH  12  13
ENDBRANCH   1  11
TORSDOF 14
ENDMDL
MODEL 4
REMARK VINA RESULT:    -6.255      1.382      1.762
REMARK INTER + INTRA:         -12.455
REMARK INTER:                 -11.477
REMARK INTRA:                  -0.978
REMARK UNBOUND:                -1.081
REMARK SMILES CCCCCC=CCC=CCCCCCCCC(=O)[O-]
REMARK SMILES IDX 11 1 12 2 13 3 14 4 15 5 16 6 17 7 18 8 19 9 20 10 10 11
REMARK SMILES IDX 9 12 8 13 7 14 6 15 5 16 4 17 3 18 2 19 1 20
REMARK H PARENT
REMARK Flexibility Score: inf
ROOT
ATOM      1  C   UNL     1      -2.937  45.466   6.495  1.00  0.00     0.027 C 
ENDROOT
BRANCH   1   2
ATOM      2  C   UNL     1      -1.975  46.138   7.490  1.00  0.00     0.004 C 
BRANCH   2   3
ATOM      3  C   UNL     1      -0.740  46.792   6.838  1.00  0.00     0.000 C 
BRANCH   3   4
ATOM      4  C   UNL     1      -0.181  48.016   7.589  1.00  0.00     0.000 C 
BRANCH   4   5
ATOM      5  C   UNL     1       0.982  47.715   8.555  1.00  0.00     0.000 C 
BRANCH   5   6
ATOM      6  C   UNL     1       0.572  47.527  10.030  1.00  0.00     0.006 C 
BRANCH   6   7
ATOM      7  C   UNL     1       1.586  48.078  11.045  1.00  0.00     0.053 C 
BRANCH   7   8
ATOM      8  C   UNL     1       1.740  47.177  12.231  1.00  0.00     0.041 C 
ATOM      9  O   UNL     1       0.742  46.896  12.946  1.00  0.00    -0.550 OA
ATOM     10  O   UNL     1       2.977  46.617  12.525  1.00  0.00    -0.550 OA
ENDBRANCH   7   8
ENDBRANCH   6   7
ENDBRANCH   5   6
ENDBRANCH   4   5
ENDBRANCH   3   4
ENDBRANCH   2   3
ENDBRANCH   1   2
BRANCH   1  11
ATOM     11  C   UNL     1      -2.334  45.305   5.126  1.00  0.00    -0.031 C 
ATOM     12  C   UNL     1      -2.905  44.530   4.194  1.00  0.00    -0.027 C 
BRANCH  12  13
ATOM     13  C   UNL     1      -2.278  44.376   2.835  1.00  0.00     0.054 C 
BRANCH  13  14
ATOM     14  C   UNL     1      -1.876  45.712   2.268  1.00  0.00    -0.027 C 
ATOM     15  C   UNL     1      -1.337  45.889   1.047  1.00  0.00    -0.031 C 
BRANCH  15  16
ATOM     16  C   UNL     1      -0.993  44.772   0.091  1.00  0.00     0.027 C 
BRANCH  16  17
ATOM     17  C   UNL     1       0.521  44.671  -0.165  1.00  0.00     0.004 C 
BRANCH  17  18
ATOM     18  C   UNL     1       1.348  44.280   1.073  1.00  0.00     0.000 C 
BRANCH  18  19
ATOM     19  C   UNL     1       2.744  44.919   1.084  1.00  0.00    -0.003 C 
ATOM     20  C   UNL     1       3.040  45.568   2.433  1.00  0.00     0.004 C 
ENDBRANCH  18  19
ENDBRANCH  17  18
ENDBRANCH  16  17
ENDBRANCH  15  16
ENDBRANCH  13  14
ENDBRANCH  12  13
ENDBRANCH   1  11
TORSDOF 14
ENDMDL
MODEL 5
REMARK VINA RESULT:    -6.250      1.518      3.257
REMARK INTER + INTRA:         -12.446
REMARK INTER:                 -11.543
REMARK INTRA:                  -0.902
REMARK UNBOUND:                -1.081
REMARK SMILES CCCCCC=CCC=CCCCCCCCC(=O)[O-]
REMARK SMILES IDX 11 1 12 2 13 3 14 4 15 5 16 6 17 7 18 8 19 9 20 10 10 11
REMARK SMILES IDX 9 12 8 13 7 14 6 15 5 16 4 17 3 18 2 19 1 20
REMARK H PARENT
REMARK Flexibility Score: inf
ROOT
ATOM      1  C   UNL     1      -2.523  43.372   3.406  1.00  0.00     0.027 C 
ENDROOT
BRANCH   1   2
ATOM      2  C   UNL     1      -3.018  43.889   4.768  1.00  0.00     0.004 C 
BRANCH   2   3
ATOM      3  C   UNL     1      -2.533  45.308   5.124  1.00  0.00     0.000 C 
BRANCH   3   4
ATOM      4  C   UNL     1      -2.797  45.739   6.580  1.00  0.00     0.000 C 
BRANCH   4   5
ATOM      5  C   UNL     1      -1.595  46.384   7.299  1.00  0.00     0.000 C 
BRANCH   5   6
ATOM      6  C   UNL     1      -0.434  46.807   6.376  1.00  0.00     0.006 C 
BRANCH   6   7
ATOM      7  C   UNL     1       0.931  46.900   7.076  1.00  0.00     0.053 C 
BRANCH   7   8
ATOM      8  C   UNL     1       0.801  47.332   8.504  1.00  0.00     0.041 C 
ATOM      9  O   UNL     1       0.859  46.481   9.431  1.00  0.00    -0.550 OA
ATOM     10  O   UNL     1       0.652  48.678   8.815  1.00  0.00    -0.550 OA
ENDBRANCH   7   8
ENDBRANCH   6   7
ENDBRANCH   5   6
ENDBRANCH   4   5
ENDBRANCH   3   4
ENDBRANCH   2   3
ENDBRANCH   1   2
BRANCH   1  11
ATOM     11  C   UNL     1      -2.085  44.482   2.490  1.00  0.00    -0.031 C 
ATOM     12  C   UNL     1      -2.467  44.526   1.207  1.00  0.00    -0.027 C 
BRANCH  12  13
ATOM     13  C   UNL     1      -2.007  45.641   0.307  1.00  0.00     0.054 C 
BRANCH  13  14
ATOM     14  C   UNL     1      -1.082  45.129  -0.766  1.00  0.00    -0.027 C 
ATOM     15  C   UNL     1       0.174  44.699  -0.546  1.00  0.00    -0.031 C 
BRANCH  15  16
ATOM     16  C   UNL     1       0.868  44.729   0.795  1.00  0.00     0.027 C 
BRANCH  16  17
ATOM     17  C   UNL     1       2.395  44.595   0.663  1.00  0.00     0.004 C 
BRANCH  17  18
ATOM     18  C   UNL     1       3.156  44.692   1.998  1.00  0.00     0.000 C 
BRANCH  18  19
ATOM     19  C   UNL     1       3.249  46.130   2.528  1.00  0.00    -0.003 C 
ATOM     20  C   UNL     1       2.443  46.294   3.814  1.00  0.00     0.004 C 
ENDBRANCH  18  19
ENDBRANCH  17  18
ENDBRANCH  16  17
ENDBRANCH  15  16
ENDBRANCH  13  14
ENDBRANCH  12  13
ENDBRANCH   1  11
TORSDOF 14
ENDMDL
MODEL 6
REMARK VINA RESULT:    -6.196      3.046      5.782
REMARK INTER + INTRA:         -12.349
REMARK INTER:                 -11.271
REMARK INTRA:                  -1.078
REMARK UNBOUND:                -1.081
REMARK SMILES CCCCCC=CCC=CCCCCCCCC(=O)[O-]
REMARK SMILES IDX 11 1 12 2 13 3 14 4 15 5 16 6 17 7 18 8 19 9 20 10 10 11
REMARK SMILES IDX 9 12 8 13 7 14 6 15 5 16 4 17 3 18 2 19 1 20
REMARK H PARENT
REMARK Flexibility Score: inf
ROOT
ATOM      1  C   UNL     1      -1.145  45.181   1.758  1.00  0.00     0.027 C 
ENDROOT
BRANCH   1   2
ATOM      2  C   UNL     1      -1.843  44.001   2.456  1.00  0.00     0.004 C 
BRANCH   2   3
ATOM      3  C   UNL     1      -3.048  44.401   3.331  1.00  0.00     0.000 C 
BRANCH   3   4
ATOM      4  C   UNL     1      -3.027  43.835   4.764  1.00  0.00     0.000 C 
BRANCH   4   5
ATOM      5  C   UNL     1      -3.118  44.889   5.885  1.00  0.00     0.000 C 
BRANCH   5   6
ATOM      6  C   UNL     1      -1.975  45.924   5.902  1.00  0.00     0.006 C 
BRANCH   6   7
ATOM      7  C   UNL     1      -1.569  46.398   7.306  1.00  0.00     0.053 C 
BRANCH   7   8
ATOM      8  C   UNL     1      -0.240  47.089   7.303  1.00  0.00     0.041 C 
ATOM      9  O   UNL     1       0.765  46.525   6.795  1.00  0.00    -0.550 OA
ATOM     10  O   UNL     1      -0.119  48.368   7.829  1.00  0.00    -0.550 OA
ENDBRANCH   7   8
ENDBRANCH   6   7
ENDBRANCH   5   6
ENDBRANCH   4   5
ENDBRANCH   3   4
ENDBRANCH   2   3
ENDBRANCH   1   2
BRANCH   1  11
ATOM     11  C   UNL     1       0.303  45.308   2.145  1.00  0.00    -0.031 C 
ATOM     12  C   UNL     1       1.275  44.723   1.432  1.00  0.00    -0.027 C 
BRANCH  12  13
ATOM     13  C   UNL     1       2.716  44.857   1.844  1.00  0.00     0.054 C 
BRANCH  13  14
ATOM     14  C   UNL     1       2.908  46.020   2.781  1.00  0.00    -0.027 C 
ATOM     15  C   UNL     1       3.633  45.972   3.914  1.00  0.00    -0.031 C 
BRANCH  15  16
ATOM     16  C   UNL     1       4.304  44.732   4.451  1.00  0.00     0.027 C 
BRANCH  16  17
ATOM     17  C   UNL     1       4.038  44.528   5.953  1.00  0.00     0.004 C 
BRANCH  17  18
ATOM     18  C   UNL     1       4.747  43.304   6.560  1.00  0.00     0.000 C 
BRANCH  18  19
ATOM     19  C   UNL     1       4.039  42.767   7.813  1.00  0.00    -0.003 C 
ATOM     20  C   UNL     1       4.884  42.998   9.063  1.00  0.00     0.004 C 
ENDBRANCH  18  19
ENDBRANCH  17  18
ENDBRANCH  16  17
ENDBRANCH  15  16
ENDBRANCH  13  14
ENDBRANCH  12  13
ENDBRANCH   1  11
TORSDOF 14
ENDMDL
MODEL 7
REMARK VINA RESULT:    -6.165      3.259      5.320
REMARK INTER + INTRA:         -12.291
REMARK INTER:                 -10.937
REMARK INTRA:                  -1.355
REMARK UNBOUND:                -1.081
REMARK SMILES CCCCCC=CCC=CCCCCCCCC(=O)[O-]
REMARK SMILES IDX 11 1 12 2 13 3 14 4 15 5 16 6 17 7 18 8 19 9 20 10 10 11
REMARK SMILES IDX 9 12 8 13 7 14 6 15 5 16 4 17 3 18 2 19 1 20
REMARK H PARENT
REMARK Flexibility Score: inf
ROOT
ATOM      1  C   UNL     1       3.357  45.814   4.086  1.00  0.00     0.027 C 
ENDROOT
BRANCH   1   2
ATOM      2  C   UNL     1       4.569  44.867   4.084  1.00  0.00     0.004 C 
BRANCH   2   3
ATOM      3  C   UNL     1       5.095  44.504   5.488  1.00  0.00     0.000 C 
BRANCH   3   4
ATOM      4  C   UNL     1       4.002  44.218   6.536  1.00  0.00     0.000 C 
BRANCH   4   5
ATOM      5  C   UNL     1       4.084  42.831   7.203  1.00  0.00     0.000 C 
BRANCH   5   6
ATOM      6  C   UNL     1       4.865  42.791   8.532  1.00  0.00     0.006 C 
BRANCH   6   7
ATOM      7  C   UNL     1       3.983  42.658   9.783  1.00  0.00     0.053 C 
BRANCH   7   8
ATOM      8  C   UNL     1       3.701  43.986  10.415  1.00  0.00     0.041 C 
ATOM      9  O   UNL     1       4.648  44.767  10.697  1.00  0.00    -0.550 OA
ATOM     10  O   UNL     1       2.391  44.377  10.661  1.00  0.00    -0.550 OA
ENDBRANCH   7   8
ENDBRANCH   6   7
ENDBRANCH   5   6
ENDBRANCH   4   5
ENDBRANCH   3   4
ENDBRANCH   2   3
ENDBRANCH   1   2
BRANCH   1  11
ATOM     11  C   UNL     1       2.471  45.624   2.884  1.00  0.00    -0.031 C 
ATOM     12  C   UNL     1       2.865  44.898   1.829  1.00  0.00    -0.027 C 
BRANCH  12  13
ATOM     13  C   UNL     1       1.966  44.730   0.634  1.00  0.00     0.054 C 
BRANCH  13  14
ATOM     14  C   UNL     1       0.828  43.791   0.938  1.00  0.00    -0.027 C 
ATOM     15  C   UNL     1      -0.474  44.128   0.878  1.00  0.00    -0.031 C 
BRANCH  15  16
ATOM     16  C   UNL     1      -0.987  45.512   0.564  1.00  0.00     0.027 C 
BRANCH  16  17
ATOM     17  C   UNL     1      -1.688  46.160   1.771  1.00  0.00     0.004 C 
BRANCH  17  18
ATOM     18  C   UNL     1      -0.936  45.995   3.104  1.00  0.00     0.000 C 
BRANCH  18  19
ATOM     19  C   UNL     1      -1.840  45.497   4.240  1.00  0.00    -0.003 C 
ATOM     20  C   UNL     1      -2.717  44.337   3.777  1.00  0.00     0.004 C 
ENDBRANCH  18  19
ENDBRANCH  17  18
ENDBRANCH  16  17
ENDBRANCH  15  16
ENDBRANCH  13  14
ENDBRANCH  12  13
ENDBRANCH   1  11
TORSDOF 14
ENDMDL
MODEL 8
REMARK VINA RESULT:    -6.155      4.278      7.091
REMARK INTER + INTRA:         -12.274
REMARK INTER:                 -11.316
REMARK INTRA:                  -0.958
REMARK UNBOUND:                -1.081
REMARK SMILES CCCCCC=CCC=CCCCCCCCC(=O)[O-]
REMARK SMILES IDX 11 1 12 2 13 3 14 4 15 5 16 6 17 7 18 8 19 9 20 10 10 11
REMARK SMILES IDX 9 12 8 13 7 14 6 15 5 16 4 17 3 18 2 19 1 20
REMARK H PARENT
REMARK Flexibility Score: inf
ROOT
ATOM      1  C   UNL     1       0.391  44.538  -0.391  1.00  0.00     0.027 C 
ENDROOT
BRANCH   1   2
ATOM      2  C   UNL     1       0.810  44.724   1.077  1.00  0.00     0.004 C 
BRANCH   2   3
ATOM      3  C   UNL     1       2.322  44.564   1.333  1.00  0.00     0.000 C 
BRANCH   3   4
ATOM      4  C   UNL     1       2.962  45.691   2.166  1.00  0.00     0.000 C 
BRANCH   4   5
ATOM      5  C   UNL     1       2.198  46.070   3.450  1.00  0.00     0.000 C 
BRANCH   5   6
ATOM      6  C   UNL     1       3.013  45.951   4.754  1.00  0.00     0.006 C 
BRANCH   6   7
ATOM      7  C   UNL     1       4.186  44.962   4.681  1.00  0.00     0.053 C 
BRANCH   7   8
ATOM      8  C   UNL     1       4.556  44.430   6.031  1.00  0.00     0.041 C 
ATOM      9  O   UNL     1       5.768  44.308   6.353  1.00  0.00    -0.550 OA
ATOM     10  O   UNL     1       3.565  44.103   6.948  1.00  0.00    -0.550 OA
ENDBRANCH   7   8
ENDBRANCH   6   7
ENDBRANCH   5   6
ENDBRANCH   4   5
ENDBRANCH   3   4
ENDBRANCH   2   3
ENDBRANCH   1   2
BRANCH   1  11
ATOM     11  C   UNL     1       1.569  44.496  -1.328  1.00  0.00    -0.031 C 
ATOM     12  C   UNL     1       1.410  44.532  -2.658  1.00  0.00    -0.027 C 
BRANCH  12  13
ATOM     13  C   UNL     1       2.602  44.480  -3.575  1.00  0.00     0.054 C 
BRANCH  13  14
ATOM     14  C   UNL     1       3.850  44.099  -2.822  1.00  0.00    -0.027 C 
ATOM     15  C   UNL     1       5.097  44.188  -3.322  1.00  0.00    -0.031 C 
BRANCH  15  16
ATOM     16  C   UNL     1       5.427  44.616  -4.731  1.00  0.00     0.027 C 
BRANCH  16  17
ATOM     17  C   UNL     1       6.924  44.925  -4.910  1.00  0.00     0.004 C 
BRANCH  17  18
ATOM     18  C   UNL     1       7.329  46.352  -4.495  1.00  0.00     0.000 C 
BRANCH  18  19
ATOM     19  C   UNL     1       8.756  46.426  -3.935  1.00  0.00    -0.003 C 
ATOM     20  C   UNL     1       8.748  46.802  -2.456  1.00  0.00     0.004 C 
ENDBRANCH  18  19
ENDBRANCH  17  18
ENDBRANCH  16  17
ENDBRANCH  15  16
ENDBRANCH  13  14
ENDBRANCH  12  13
ENDBRANCH   1  11
TORSDOF 14
ENDMDL
MODEL 9
REMARK VINA RESULT:    -6.140      4.829      9.578
REMARK INTER + INTRA:         -12.245
REMARK INTER:                 -11.531
REMARK INTRA:                  -0.715
REMARK UNBOUND:                -1.081
REMARK SMILES CCCCCC=CCC=CCCCCCCCC(=O)[O-]
REMARK SMILES IDX 11 1 12 2 13 3 14 4 15 5 16 6 17 7 18 8 19 9 20 10 10 11
REMARK SMILES IDX 9 12 8 13 7 14 6 15 5 16 4 17 3 18 2 19 1 20
REMARK H PARENT
REMARK Flexibility Score: inf
ROOT
ATOM      1  C   UNL     1      -3.310  44.854   5.313  1.00  0.00     0.027 C 
ENDROOT
BRANCH   1   2
ATOM      2  C   UNL     1      -2.375  44.991   4.098  1.00  0.00     0.004 C 
BRANCH   2   3
ATOM      3  C   UNL     1      -2.385  43.777   3.148  1.00  0.00     0.000 C 
BRANCH   3   4
ATOM      4  C   UNL     1      -2.421  44.127   1.648  1.00  0.00     0.000 C 
BRANCH   4   5
ATOM      5  C   UNL     1      -1.272  45.032   1.160  1.00  0.00     0.000 C 
BRANCH   5   6
ATOM      6  C   UNL     1      -1.420  45.554  -0.283  1.00  0.00     0.006 C 
BRANCH   6   7
ATOM      7  C   UNL     1      -0.446  44.922  -1.289  1.00  0.00     0.053 C 
BRANCH   7   8
ATOM      8  C   UNL     1      -0.783  45.287  -2.702  1.00  0.00     0.041 C 
ATOM      9  O   UNL     1      -0.178  46.232  -3.274  1.00  0.00    -0.550 OA
ATOM     10  O   UNL     1      -1.740  44.561  -3.400  1.00  0.00    -0.550 OA
ENDBRANCH   7   8
ENDBRANCH   6   7
ENDBRANCH   5   6
ENDBRANCH   4   5
ENDBRANCH   3   4
ENDBRANCH   2   3
ENDBRANCH   1   2
BRANCH   1  11
ATOM     11  C   UNL     1      -2.756  45.512   6.547  1.00  0.00    -0.031 C 
ATOM     12  C   UNL     1      -1.566  46.129   6.541  1.00  0.00    -0.027 C 
BRANCH  12  13
ATOM     13  C   UNL     1      -1.029  46.772   7.790  1.00  0.00     0.054 C 
BRANCH  13  14
ATOM     14  C   UNL     1       0.196  47.597   7.494  1.00  0.00    -0.027 C 
ATOM     15  C   UNL     1       0.933  48.228   8.427  1.00  0.00    -0.031 C 
BRANCH  15  16
ATOM     16  C   UNL     1       0.606  48.260   9.900  1.00  0.00     0.027 C 
BRANCH  16  17
ATOM     17  C   UNL     1       1.861  48.439  10.772  1.00  0.00     0.004 C 
BRANCH  17  18
ATOM     18  C   UNL     1       2.073  47.324  11.812  1.00  0.00     0.000 C 
BRANCH  18  19
ATOM     19  C   UNL     1       1.671  45.938  11.289  1.00  0.00    -0.003 C 
ATOM     20  C   UNL     1       1.385  44.978  12.441  1.00  0.00     0.004 C 
ENDBRANCH  18  19
ENDBRANCH  17  18
ENDBRANCH  16  17
ENDBRANCH  15  16
ENDBRANCH  13  14
ENDBRANCH  12  13
ENDBRANCH   1  11
TORSDOF 14
ENDMDL
