MODEL 1
REMARK VINA RESULT:    -5.224      0.000      0.000
REMARK INTER + INTRA:          -6.481
REMARK INTER:                  -6.293
REMARK INTRA:                  -0.188
REMARK UNBOUND:                -0.188
REMARK SMILES O=c1c(O)c(-c2ccc(O)c(O)c2)oc2cc(O)cc(O)c12
REMARK SMILES IDX 5 1 3 2 2 3 1 4 22 5 20 6 19 7 17 8 16 9 15 10 14 11 6 12
REMARK SMILES IDX 7 13 8 14 9 15 13 16 11 17 10 18 12 20 4 22 21 24 18 26
REMARK H PARENT 10 19 12 21 4 23 21 25 18 27
REMARK Flexibility Score: inf
ROOT
ATOM      1  C   UNL     1     -24.062  -9.239  -6.997  1.00  0.00     0.180 A 
ATOM      2  C   UNL     1     -24.897 -10.290  -6.579  1.00  0.00     0.208 A 
ATOM      3  C   UNL     1     -24.459 -11.614  -6.744  1.00  0.00     0.238 A 
ATOM      4  O   UNL     1     -25.186 -12.549  -6.318  1.00  0.00    -0.285 OA
ATOM      5  C   UNL     1     -23.200 -11.871  -7.340  1.00  0.00     0.111 A 
ATOM      6  C   UNL     1     -22.674 -13.173  -7.593  1.00  0.00     0.134 A 
ATOM      7  C   UNL     1     -21.363 -13.308  -8.067  1.00  0.00     0.093 A 
ATOM      8  C   UNL     1     -20.584 -12.186  -8.359  1.00  0.00     0.123 A 
ATOM      9  C   UNL     1     -21.110 -10.910  -8.172  1.00  0.00     0.094 A 
ATOM     10  C   UNL     1     -22.401 -10.744  -7.666  1.00  0.00     0.146 A 
ATOM     11  O   UNL     1     -22.860  -9.510  -7.492  1.00  0.00    -0.452 OA
ENDROOT
BRANCH   1  12
ATOM     12  C   UNL     1     -24.464  -7.819  -6.879  1.00  0.00     0.025 A 
ATOM     13  C   UNL     1     -24.697  -7.028  -8.015  1.00  0.00     0.016 A 
ATOM     14  C   UNL     1     -25.052  -5.685  -7.878  1.00  0.00     0.051 A 
ATOM     15  C   UNL     1     -25.170  -5.101  -6.612  1.00  0.00     0.157 A 
ATOM     16  C   UNL     1     -24.561  -7.230  -5.608  1.00  0.00     0.062 A 
ATOM     17  C   UNL     1     -24.916  -5.884  -5.461  1.00  0.00     0.158 A 
BRANCH  15  18
ATOM     18  O   UNL     1     -25.533  -3.754  -6.545  1.00  0.00    -0.504 OA
ATOM     19  H   UNL     1     -25.488  -3.117  -7.326  1.00  0.00     0.293 HD
ENDBRANCH  15  18
BRANCH  17  20
ATOM     20  O   UNL     1     -25.005  -5.370  -4.166  1.00  0.00    -0.504 OA
ATOM     21  H   UNL     1     -24.655  -4.462  -3.894  1.00  0.00     0.293 HD
ENDBRANCH  17  20
ENDBRANCH   1  12
BRANCH   2  22
ATOM     22  O   UNL     1     -26.125 -10.014  -5.973  1.00  0.00    -0.502 OA
ATOM     23  H   UNL     1     -26.853 -10.711  -5.875  1.00  0.00     0.293 HD
ENDBRANCH   2  22
BRANCH   6  24
ATOM     24  O   UNL     1     -23.401 -14.355  -7.423  1.00  0.00    -0.507 OA
ATOM     25  H   UNL     1     -23.523 -15.062  -8.133  1.00  0.00     0.293 HD
ENDBRANCH   6  24
BRANCH   8  26
ATOM     26  O   UNL     1     -19.286 -12.329  -8.846  1.00  0.00    -0.508 OA
ATOM     27  H   UNL     1     -18.750 -13.174  -8.685  1.00  0.00     0.293 HD
ENDBRANCH   8  26
TORSDOF 6
ENDMDL
MODEL 2
REMARK VINA RESULT:    -5.178      1.345      6.682
REMARK INTER + INTRA:          -6.425
REMARK INTER:                  -6.290
REMARK INTRA:                  -0.136
REMARK UNBOUND:                -0.188
REMARK SMILES O=c1c(O)c(-c2ccc(O)c(O)c2)oc2cc(O)cc(O)c12
REMARK SMILES IDX 5 1 3 2 2 3 1 4 22 5 20 6 19 7 17 8 16 9 15 10 14 11 6 12
REMARK SMILES IDX 7 13 8 14 9 15 13 16 11 17 10 18 12 20 4 22 21 24 18 26
REMARK H PARENT 10 19 12 21 4 23 21 25 18 27
REMARK Flexibility Score: inf
ROOT
ATOM      1  C   UNL     1     -23.141 -10.597  -7.103  1.00  0.00     0.180 A 
ATOM      2  C   UNL     1     -23.872 -11.033  -5.985  1.00  0.00     0.208 A 
ATOM      3  C   UNL     1     -24.626 -10.098  -5.258  1.00  0.00     0.238 A 
ATOM      4  O   UNL     1     -25.321 -10.503  -4.290  1.00  0.00    -0.285 OA
ATOM      5  C   UNL     1     -24.627  -8.736  -5.648  1.00  0.00     0.111 A 
ATOM      6  C   UNL     1     -25.323  -7.697  -4.961  1.00  0.00     0.134 A 
ATOM      7  C   UNL     1     -25.360  -6.410  -5.512  1.00  0.00     0.093 A 
ATOM      8  C   UNL     1     -24.672  -6.110  -6.690  1.00  0.00     0.123 A 
ATOM      9  C   UNL     1     -23.941  -7.105  -7.336  1.00  0.00     0.094 A 
ATOM     10  C   UNL     1     -23.915  -8.406  -6.830  1.00  0.00     0.146 A 
ATOM     11  O   UNL     1     -23.215  -9.327  -7.483  1.00  0.00    -0.452 OA
ENDROOT
BRANCH   1  12
ATOM     12  C   UNL     1     -22.303 -11.518  -7.905  1.00  0.00     0.025 A 
ATOM     13  C   UNL     1     -22.865 -12.602  -8.597  1.00  0.00     0.016 A 
ATOM     14  C   UNL     1     -22.051 -13.471  -9.326  1.00  0.00     0.051 A 
ATOM     15  C   UNL     1     -20.665 -13.284  -9.371  1.00  0.00     0.157 A 
ATOM     16  C   UNL     1     -20.910 -11.341  -7.930  1.00  0.00     0.062 A 
ATOM     17  C   UNL     1     -20.087 -12.207  -8.659  1.00  0.00     0.158 A 
BRANCH  15  18
ATOM     18  O   UNL     1     -19.909 -14.186 -10.123  1.00  0.00    -0.504 OA
ATOM     19  H   UNL     1     -19.480 -15.017  -9.744  1.00  0.00     0.293 HD
ENDBRANCH  15  18
BRANCH  17  20
ATOM     20  O   UNL     1     -18.712 -11.963  -8.648  1.00  0.00    -0.504 OA
ATOM     21  H   UNL     1     -18.114 -12.062  -9.457  1.00  0.00     0.293 HD
ENDBRANCH  17  20
ENDBRANCH   1  12
BRANCH   2  22
ATOM     22  O   UNL     1     -23.875 -12.384  -5.630  1.00  0.00    -0.502 OA
ATOM     23  H   UNL     1     -24.098 -12.700  -4.694  1.00  0.00     0.293 HD
ENDBRANCH   2  22
BRANCH   6  24
ATOM     24  O   UNL     1     -25.965  -7.868  -3.731  1.00  0.00    -0.507 OA
ATOM     25  H   UNL     1     -26.127  -8.760  -3.287  1.00  0.00     0.293 HD
ENDBRANCH   6  24
BRANCH   8  26
ATOM     26  O   UNL     1     -24.701  -4.823  -7.222  1.00  0.00    -0.508 OA
ATOM     27  H   UNL     1     -25.149  -4.626  -8.109  1.00  0.00     0.293 HD
ENDBRANCH   8  26
TORSDOF 6
ENDMDL
MODEL 3
REMARK VINA RESULT:    -5.060     14.183     17.804
REMARK INTER + INTRA:          -6.283
REMARK INTER:                  -6.090
REMARK INTRA:                  -0.193
REMARK UNBOUND:                -0.188
REMARK SMILES O=c1c(O)c(-c2ccc(O)c(O)c2)oc2cc(O)cc(O)c12
REMARK SMILES IDX 5 1 3 2 2 3 1 4 22 5 20 6 19 7 17 8 16 9 15 10 14 11 6 12
REMARK SMILES IDX 7 13 8 14 9 15 13 16 11 17 10 18 12 20 4 22 21 24 18 26
REMARK H PARENT 10 19 12 21 4 23 21 25 18 27
REMARK Flexibility Score: inf
ROOT
ATOM      1  C   UNL     1      -7.718 -14.310  -2.167  1.00  0.00     0.180 A 
ATOM      2  C   UNL     1      -7.384 -15.322  -3.084  1.00  0.00     0.208 A 
ATOM      3  C   UNL     1      -7.845 -15.221  -4.407  1.00  0.00     0.238 A 
ATOM      4  O   UNL     1      -7.497 -16.102  -5.237  1.00  0.00    -0.285 OA
ATOM      5  C   UNL     1      -8.647 -14.120  -4.792  1.00  0.00     0.111 A 
ATOM      6  C   UNL     1      -9.202 -13.938  -6.095  1.00  0.00     0.134 A 
ATOM      7  C   UNL     1      -9.871 -12.745  -6.399  1.00  0.00     0.093 A 
ATOM      8  C   UNL     1     -10.062 -11.758  -5.429  1.00  0.00     0.123 A 
ATOM      9  C   UNL     1      -9.576 -11.954  -4.139  1.00  0.00     0.094 A 
ATOM     10  C   UNL     1      -8.873 -13.116  -3.814  1.00  0.00     0.146 A 
ATOM     11  O   UNL     1      -8.417 -13.257  -2.575  1.00  0.00    -0.452 OA
ENDROOT
BRANCH   1  12
ATOM     12  C   UNL     1      -7.290 -14.358  -0.751  1.00  0.00     0.025 A 
ATOM     13  C   UNL     1      -6.336 -13.462  -0.244  1.00  0.00     0.016 A 
ATOM     14  C   UNL     1      -5.931 -13.542   1.089  1.00  0.00     0.051 A 
ATOM     15  C   UNL     1      -6.458 -14.521   1.939  1.00  0.00     0.157 A 
ATOM     16  C   UNL     1      -7.805 -15.355   0.094  1.00  0.00     0.062 A 
ATOM     17  C   UNL     1      -7.404 -15.443   1.433  1.00  0.00     0.158 A 
BRANCH  15  18
ATOM     18  O   UNL     1      -6.014 -14.544   3.263  1.00  0.00    -0.504 OA
ATOM     19  H   UNL     1      -5.155 -14.980   3.563  1.00  0.00     0.293 HD
ENDBRANCH  15  18
BRANCH  17  20
ATOM     20  O   UNL     1      -7.967 -16.452   2.217  1.00  0.00    -0.504 OA
ATOM     21  H   UNL     1      -8.536 -16.282   3.033  1.00  0.00     0.293 HD
ENDBRANCH  17  20
ENDBRANCH   1  12
BRANCH   2  22
ATOM     22  O   UNL     1      -6.572 -16.389  -2.690  1.00  0.00    -0.502 OA
ATOM     23  H   UNL     1      -5.988 -16.898  -3.342  1.00  0.00     0.293 HD
ENDBRANCH   2  22
BRANCH   6  24
ATOM     24  O   UNL     1      -9.148 -14.900  -7.107  1.00  0.00    -0.507 OA
ATOM     25  H   UNL     1      -9.059 -15.893  -6.953  1.00  0.00     0.293 HD
ENDBRANCH   6  24
BRANCH   8  26
ATOM     26  O   UNL     1     -10.743 -10.583  -5.736  1.00  0.00    -0.508 OA
ATOM     27  H   UNL     1     -10.455  -9.988  -6.504  1.00  0.00     0.293 HD
ENDBRANCH   8  26
TORSDOF 6
ENDMDL
MODEL 4
REMARK VINA RESULT:    -5.048      2.201      6.981
REMARK INTER + INTRA:          -6.270
REMARK INTER:                  -6.170
REMARK INTRA:                  -0.100
REMARK UNBOUND:                -0.188
REMARK SMILES O=c1c(O)c(-c2ccc(O)c(O)c2)oc2cc(O)cc(O)c12
REMARK SMILES IDX 5 1 3 2 2 3 1 4 22 5 20 6 19 7 17 8 16 9 15 10 14 11 6 12
REMARK SMILES IDX 7 13 8 14 9 15 13 16 11 17 10 18 12 20 4 22 21 24 18 26
REMARK H PARENT 10 19 12 21 4 23 21 25 18 27
REMARK Flexibility Score: inf
ROOT
ATOM      1  C   UNL     1     -22.933 -11.027  -6.970  1.00  0.00     0.180 A 
ATOM      2  C   UNL     1     -23.253  -9.744  -7.446  1.00  0.00     0.208 A 
ATOM      3  C   UNL     1     -24.102  -8.927  -6.682  1.00  0.00     0.238 A 
ATOM      4  O   UNL     1     -24.341  -7.759  -7.086  1.00  0.00    -0.285 OA
ATOM      5  C   UNL     1     -24.633  -9.409  -5.461  1.00  0.00     0.111 A 
ATOM      6  C   UNL     1     -25.534  -8.681  -4.627  1.00  0.00     0.134 A 
ATOM      7  C   UNL     1     -25.892  -9.204  -3.378  1.00  0.00     0.093 A 
ATOM      8  C   UNL     1     -25.433 -10.456  -2.962  1.00  0.00     0.123 A 
ATOM      9  C   UNL     1     -24.601 -11.199  -3.795  1.00  0.00     0.094 A 
ATOM     10  C   UNL     1     -24.197 -10.689  -5.032  1.00  0.00     0.146 A 
ATOM     11  O   UNL     1     -23.394 -11.426  -5.790  1.00  0.00    -0.452 OA
ENDROOT
BRANCH   1  12
ATOM     12  C   UNL     1     -22.065 -11.956  -7.730  1.00  0.00     0.025 A 
ATOM     13  C   UNL     1     -22.525 -13.219  -8.135  1.00  0.00     0.016 A 
ATOM     14  C   UNL     1     -21.681 -14.087  -8.830  1.00  0.00     0.051 A 
ATOM     15  C   UNL     1     -20.363 -13.720  -9.124  1.00  0.00     0.157 A 
ATOM     16  C   UNL     1     -20.737 -11.594  -8.004  1.00  0.00     0.062 A 
ATOM     17  C   UNL     1     -19.883 -12.458  -8.701  1.00  0.00     0.158 A 
BRANCH  15  18
ATOM     18  O   UNL     1     -19.571 -14.632  -9.826  1.00  0.00    -0.504 OA
ATOM     19  H   UNL     1     -18.587 -14.774  -9.656  1.00  0.00     0.293 HD
ENDBRANCH  15  18
BRANCH  17  20
ATOM     20  O   UNL     1     -18.578 -12.026  -8.948  1.00  0.00    -0.504 OA
ATOM     21  H   UNL     1     -17.926 -12.513  -9.545  1.00  0.00     0.293 HD
ENDBRANCH  17  20
ENDBRANCH   1  12
BRANCH   2  22
ATOM     22  O   UNL     1     -22.700  -9.280  -8.642  1.00  0.00    -0.502 OA
ATOM     23  H   UNL     1     -21.701  -9.207  -8.788  1.00  0.00     0.293 HD
ENDBRANCH   2  22
BRANCH   6  24
ATOM     24  O   UNL     1     -26.123  -7.466  -4.987  1.00  0.00    -0.507 OA
ATOM     25  H   UNL     1     -27.045  -7.370  -5.386  1.00  0.00     0.293 HD
ENDBRANCH   6  24
BRANCH   8  26
ATOM     26  O   UNL     1     -25.808 -10.976  -1.725  1.00  0.00    -0.508 OA
ATOM     27  H   UNL     1     -26.313 -11.851  -1.648  1.00  0.00     0.293 HD
ENDBRANCH   8  26
TORSDOF 6
ENDMDL
MODEL 5
REMARK VINA RESULT:    -5.011     15.588     17.751
REMARK INTER + INTRA:          -6.224
REMARK INTER:                  -5.895
REMARK INTRA:                  -0.329
REMARK UNBOUND:                -0.188
REMARK SMILES O=c1c(O)c(-c2ccc(O)c(O)c2)oc2cc(O)cc(O)c12
REMARK SMILES IDX 5 1 3 2 2 3 1 4 22 5 20 6 19 7 17 8 16 9 15 10 14 11 6 12
REMARK SMILES IDX 7 13 8 14 9 15 13 16 11 17 10 18 12 20 4 22 21 24 18 26
REMARK H PARENT 10 19 12 21 4 23 21 25 18 27
REMARK Flexibility Score: inf
ROOT
ATOM      1  C   UNL     1      -8.241 -15.012  -2.413  1.00  0.00     0.180 A 
ATOM      2  C   UNL     1      -7.586 -15.815  -3.362  1.00  0.00     0.208 A 
ATOM      3  C   UNL     1      -7.357 -15.300  -4.648  1.00  0.00     0.238 A 
ATOM      4  O   UNL     1      -6.722 -16.004  -5.477  1.00  0.00    -0.285 OA
ATOM      5  C   UNL     1      -7.801 -13.995  -4.974  1.00  0.00     0.111 A 
ATOM      6  C   UNL     1      -7.658 -13.388  -6.258  1.00  0.00     0.134 A 
ATOM      7  C   UNL     1      -8.016 -12.045  -6.430  1.00  0.00     0.093 A 
ATOM      8  C   UNL     1      -8.572 -11.308  -5.382  1.00  0.00     0.123 A 
ATOM      9  C   UNL     1      -8.770 -11.910  -4.142  1.00  0.00     0.094 A 
ATOM     10  C   UNL     1      -8.390 -13.237  -3.929  1.00  0.00     0.146 A 
ATOM     11  O   UNL     1      -8.586 -13.769  -2.728  1.00  0.00    -0.452 OA
ENDROOT
BRANCH   1  12
ATOM     12  C   UNL     1      -8.540 -15.493  -1.045  1.00  0.00     0.025 A 
ATOM     13  C   UNL     1      -9.759 -16.118  -0.740  1.00  0.00     0.016 A 
ATOM     14  C   UNL     1     -10.028 -16.542   0.562  1.00  0.00     0.051 A 
ATOM     15  C   UNL     1      -9.096 -16.342   1.586  1.00  0.00     0.157 A 
ATOM     16  C   UNL     1      -7.612 -15.271  -0.015  1.00  0.00     0.062 A 
ATOM     17  C   UNL     1      -7.873 -15.693   1.294  1.00  0.00     0.158 A 
BRANCH  15  18
ATOM     18  O   UNL     1      -9.425 -16.794   2.867  1.00  0.00    -0.504 OA
ATOM     19  H   UNL     1     -10.360 -16.788   3.245  1.00  0.00     0.293 HD
ENDBRANCH  15  18
BRANCH  17  20
ATOM     20  O   UNL     1      -6.899 -15.449   2.265  1.00  0.00    -0.504 OA
ATOM     21  H   UNL     1      -7.090 -15.389   3.255  1.00  0.00     0.293 HD
ENDBRANCH  17  20
ENDBRANCH   1  12
BRANCH   2  22
ATOM     22  O   UNL     1      -7.137 -17.091  -3.013  1.00  0.00    -0.502 OA
ATOM     23  H   UNL     1      -7.193 -17.448  -2.067  1.00  0.00     0.293 HD
ENDBRANCH   2  22
BRANCH   6  24
ATOM     24  O   UNL     1      -7.200 -14.063  -7.394  1.00  0.00    -0.507 OA
ATOM     25  H   UNL     1      -7.757 -14.691  -7.953  1.00  0.00     0.293 HD
ENDBRANCH   6  24
BRANCH   8  26
ATOM     26  O   UNL     1      -8.940  -9.977  -5.567  1.00  0.00    -0.508 OA
ATOM     27  H   UNL     1      -8.962  -9.556  -6.488  1.00  0.00     0.293 HD
ENDBRANCH   8  26
TORSDOF 6
ENDMDL
MODEL 6
REMARK VINA RESULT:    -4.944      1.669      6.850
REMARK INTER + INTRA:          -6.144
REMARK INTER:                  -5.824
REMARK INTRA:                  -0.320
REMARK UNBOUND:                -0.188
REMARK SMILES O=c1c(O)c(-c2ccc(O)c(O)c2)oc2cc(O)cc(O)c12
REMARK SMILES IDX 5 1 3 2 2 3 1 4 22 5 20 6 19 7 17 8 16 9 15 10 14 11 6 12
REMARK SMILES IDX 7 13 8 14 9 15 13 16 11 17 10 18 12 20 4 22 21 24 18 26
REMARK H PARENT 10 19 12 21 4 23 21 25 18 27
REMARK Flexibility Score: inf
ROOT
ATOM      1  C   UNL     1     -23.839 -11.023  -6.855  1.00  0.00     0.180 A 
ATOM      2  C   UNL     1     -24.186 -10.792  -5.513  1.00  0.00     0.208 A 
ATOM      3  C   UNL     1     -24.453  -9.478  -5.095  1.00  0.00     0.238 A 
ATOM      4  O   UNL     1     -24.816  -9.284  -3.905  1.00  0.00    -0.285 OA
ATOM      5  C   UNL     1     -24.353  -8.410  -6.020  1.00  0.00     0.111 A 
ATOM      6  C   UNL     1     -24.562  -7.036  -5.696  1.00  0.00     0.134 A 
ATOM      7  C   UNL     1     -24.565  -6.079  -6.719  1.00  0.00     0.093 A 
ATOM      8  C   UNL     1     -24.302  -6.438  -8.043  1.00  0.00     0.123 A 
ATOM      9  C   UNL     1     -24.038  -7.769  -8.359  1.00  0.00     0.094 A 
ATOM     10  C   UNL     1     -24.063  -8.751  -7.367  1.00  0.00     0.146 A 
ATOM     11  O   UNL     1     -23.817 -10.010  -7.713  1.00  0.00    -0.452 OA
ENDROOT
BRANCH   1  12
ATOM     12  C   UNL     1     -23.519 -12.376  -7.365  1.00  0.00     0.025 A 
ATOM     13  C   UNL     1     -24.526 -13.242  -7.820  1.00  0.00     0.016 A 
ATOM     14  C   UNL     1     -24.203 -14.521  -8.274  1.00  0.00     0.051 A 
ATOM     15  C   UNL     1     -22.877 -14.968  -8.272  1.00  0.00     0.157 A 
ATOM     16  C   UNL     1     -22.191 -12.829  -7.341  1.00  0.00     0.062 A 
ATOM     17  C   UNL     1     -21.858 -14.111  -7.794  1.00  0.00     0.158 A 
BRANCH  15  18
ATOM     18  O   UNL     1     -22.621 -16.257  -8.743  1.00  0.00    -0.504 OA
ATOM     19  H   UNL     1     -21.752 -16.750  -8.597  1.00  0.00     0.293 HD
ENDBRANCH  15  18
BRANCH  17  20
ATOM     20  O   UNL     1     -20.514 -14.488  -7.752  1.00  0.00    -0.504 OA
ATOM     21  H   UNL     1     -20.103 -15.031  -7.005  1.00  0.00     0.293 HD
ENDBRANCH  17  20
ENDBRANCH   1  12
BRANCH   2  22
ATOM     22  O   UNL     1     -24.301 -11.862  -4.622  1.00  0.00    -0.502 OA
ATOM     23  H   UNL     1     -25.135 -12.024  -4.071  1.00  0.00     0.293 HD
ENDBRANCH   2  22
BRANCH   6  24
ATOM     24  O   UNL     1     -24.741  -6.559  -4.394  1.00  0.00    -0.507 OA
ATOM     25  H   UNL     1     -24.576  -5.607  -4.103  1.00  0.00     0.293 HD
ENDBRANCH   6  24
BRANCH   8  26
ATOM     26  O   UNL     1     -24.291  -5.477  -9.051  1.00  0.00    -0.508 OA
ATOM     27  H   UNL     1     -24.901  -4.669  -9.020  1.00  0.00     0.293 HD
ENDBRANCH   8  26
TORSDOF 6
ENDMDL
MODEL 7
REMARK VINA RESULT:    -4.802      1.689      2.647
REMARK INTER + INTRA:          -5.973
REMARK INTER:                  -5.913
REMARK INTRA:                  -0.061
REMARK UNBOUND:                -0.188
REMARK SMILES O=c1c(O)c(-c2ccc(O)c(O)c2)oc2cc(O)cc(O)c12
REMARK SMILES IDX 5 1 3 2 2 3 1 4 22 5 20 6 19 7 17 8 16 9 15 10 14 11 6 12
REMARK SMILES IDX 7 13 8 14 9 15 13 16 11 17 10 18 12 20 4 22 21 24 18 26
REMARK H PARENT 10 19 12 21 4 23 21 25 18 27
REMARK Flexibility Score: inf
ROOT
ATOM      1  C   UNL     1     -23.269 -11.235  -7.045  1.00  0.00     0.180 A 
ATOM      2  C   UNL     1     -23.914 -12.477  -7.183  1.00  0.00     0.208 A 
ATOM      3  C   UNL     1     -23.267 -13.504  -7.889  1.00  0.00     0.238 A 
ATOM      4  O   UNL     1     -23.825 -14.630  -7.963  1.00  0.00    -0.285 OA
ATOM      5  C   UNL     1     -21.992 -13.272  -8.461  1.00  0.00     0.111 A 
ATOM      6  C   UNL     1     -21.264 -14.229  -9.231  1.00  0.00     0.134 A 
ATOM      7  C   UNL     1     -19.956 -13.935  -9.636  1.00  0.00     0.093 A 
ATOM      8  C   UNL     1     -19.375 -12.696  -9.357  1.00  0.00     0.123 A 
ATOM      9  C   UNL     1     -20.101 -11.734  -8.658  1.00  0.00     0.094 A 
ATOM     10  C   UNL     1     -21.394 -12.011  -8.209  1.00  0.00     0.146 A 
ATOM     11  O   UNL     1     -22.047 -11.069  -7.536  1.00  0.00    -0.452 OA
ENDROOT
BRANCH   1  12
ATOM     12  C   UNL     1     -23.897 -10.096  -6.337  1.00  0.00     0.025 A 
ATOM     13  C   UNL     1     -24.071  -8.852  -6.964  1.00  0.00     0.016 A 
ATOM     14  C   UNL     1     -24.644  -7.786  -6.268  1.00  0.00     0.051 A 
ATOM     15  C   UNL     1     -25.042  -7.934  -4.935  1.00  0.00     0.157 A 
ATOM     16  C   UNL     1     -24.275 -10.240  -4.992  1.00  0.00     0.062 A 
ATOM     17  C   UNL     1     -24.851  -9.177  -4.287  1.00  0.00     0.158 A 
BRANCH  15  18
ATOM     18  O   UNL     1     -25.613  -6.830  -4.297  1.00  0.00    -0.504 OA
ATOM     19  H   UNL     1     -25.692  -5.915  -4.716  1.00  0.00     0.293 HD
ENDBRANCH  15  18
BRANCH  17  20
ATOM     20  O   UNL     1     -25.213  -9.397  -2.957  1.00  0.00    -0.504 OA
ATOM     21  H   UNL     1     -25.497 -10.295  -2.590  1.00  0.00     0.293 HD
ENDBRANCH  17  20
ENDBRANCH   1  12
BRANCH   2  22
ATOM     22  O   UNL     1     -25.161 -12.691  -6.592  1.00  0.00    -0.502 OA
ATOM     23  H   UNL     1     -26.030 -12.577  -7.099  1.00  0.00     0.293 HD
ENDBRANCH   2  22
BRANCH   6  24
ATOM     24  O   UNL     1     -21.785 -15.459  -9.643  1.00  0.00    -0.507 OA
ATOM     25  H   UNL     1     -21.304 -16.342  -9.562  1.00  0.00     0.293 HD
ENDBRANCH   6  24
BRANCH   8  26
ATOM     26  O   UNL     1     -18.079 -12.407  -9.779  1.00  0.00    -0.508 OA
ATOM     27  H   UNL     1     -17.881 -12.140 -10.737  1.00  0.00     0.293 HD
ENDBRANCH   8  26
TORSDOF 6
ENDMDL
MODEL 8
REMARK VINA RESULT:    -4.690      1.450      6.828
REMARK INTER + INTRA:          -5.838
REMARK INTER:                  -5.990
REMARK INTRA:                   0.151
REMARK UNBOUND:                -0.188
REMARK SMILES O=c1c(O)c(-c2ccc(O)c(O)c2)oc2cc(O)cc(O)c12
REMARK SMILES IDX 5 1 3 2 2 3 1 4 22 5 20 6 19 7 17 8 16 9 15 10 14 11 6 12
REMARK SMILES IDX 7 13 8 14 9 15 13 16 11 17 10 18 12 20 4 22 21 24 18 26
REMARK H PARENT 10 19 12 21 4 23 21 25 18 27
REMARK Flexibility Score: inf
ROOT
ATOM      1  C   UNL     1     -23.592  -9.167  -7.146  1.00  0.00     0.180 A 
ATOM      2  C   UNL     1     -24.337  -8.893  -5.986  1.00  0.00     0.208 A 
ATOM      3  C   UNL     1     -24.923  -7.625  -5.837  1.00  0.00     0.238 A 
ATOM      4  O   UNL     1     -25.634  -7.404  -4.822  1.00  0.00    -0.285 OA
ATOM      5  C   UNL     1     -24.744  -6.643  -6.842  1.00  0.00     0.111 A 
ATOM      6  C   UNL     1     -25.260  -5.314  -6.776  1.00  0.00     0.134 A 
ATOM      7  C   UNL     1     -25.132  -4.469  -7.885  1.00  0.00     0.093 A 
ATOM      8  C   UNL     1     -24.451  -4.883  -9.032  1.00  0.00     0.123 A 
ATOM      9  C   UNL     1     -23.893  -6.158  -9.082  1.00  0.00     0.094 A 
ATOM     10  C   UNL     1     -24.035  -7.037  -8.006  1.00  0.00     0.146 A 
ATOM     11  O   UNL     1     -23.497  -8.248  -8.100  1.00  0.00    -0.452 OA
ENDROOT
BRANCH   1  12
ATOM     12  C   UNL     1     -22.924 -10.470  -7.364  1.00  0.00     0.025 A 
ATOM     13  C   UNL     1     -23.546 -11.678  -7.011  1.00  0.00     0.016 A 
ATOM     14  C   UNL     1     -22.886 -12.893  -7.204  1.00  0.00     0.051 A 
ATOM     15  C   UNL     1     -21.593 -12.928  -7.738  1.00  0.00     0.157 A 
ATOM     16  C   UNL     1     -21.619 -10.501  -7.880  1.00  0.00     0.062 A 
ATOM     17  C   UNL     1     -20.949 -11.714  -8.077  1.00  0.00     0.158 A 
BRANCH  15  18
ATOM     18  O   UNL     1     -20.991 -14.177  -7.910  1.00  0.00    -0.504 OA
ATOM     19  H   UNL     1     -20.128 -14.453  -7.466  1.00  0.00     0.293 HD
ENDBRANCH  15  18
BRANCH  17  20
ATOM     20  O   UNL     1     -19.657 -11.668  -8.605  1.00  0.00    -0.504 OA
ATOM     21  H   UNL     1     -18.826 -11.515  -8.052  1.00  0.00     0.293 HD
ENDBRANCH  17  20
ENDBRANCH   1  12
BRANCH   2  22
ATOM     22  O   UNL     1     -24.521  -9.883  -5.018  1.00  0.00    -0.502 OA
ATOM     23  H   UNL     1     -25.169  -9.777  -4.247  1.00  0.00     0.293 HD
ENDBRANCH   2  22
BRANCH   6  24
ATOM     24  O   UNL     1     -25.874  -4.770  -5.644  1.00  0.00    -0.507 OA
ATOM     25  H   UNL     1     -26.470  -5.283  -5.011  1.00  0.00     0.293 HD
ENDBRANCH   6  24
BRANCH   8  26
ATOM     26  O   UNL     1     -24.314  -4.030 -10.125  1.00  0.00    -0.508 OA
ATOM     27  H   UNL     1     -24.526  -4.337 -11.067  1.00  0.00     0.293 HD
ENDBRANCH   8  26
TORSDOF 6
ENDMDL
MODEL 9
REMARK VINA RESULT:    -4.530     14.711     17.601
REMARK INTER + INTRA:          -5.645
REMARK INTER:                  -5.331
REMARK INTRA:                  -0.314
REMARK UNBOUND:                -0.188
REMARK SMILES O=c1c(O)c(-c2ccc(O)c(O)c2)oc2cc(O)cc(O)c12
REMARK SMILES IDX 5 1 3 2 2 3 1 4 22 5 20 6 19 7 17 8 16 9 15 10 14 11 6 12
REMARK SMILES IDX 7 13 8 14 9 15 13 16 11 17 10 18 12 20 4 22 21 24 18 26
REMARK H PARENT 10 19 12 21 4 23 21 25 18 27
REMARK Flexibility Score: inf
ROOT
ATOM      1  C   UNL     1      -8.203 -14.554  -2.756  1.00  0.00     0.180 A 
ATOM      2  C   UNL     1      -7.114 -13.932  -2.121  1.00  0.00     0.208 A 
ATOM      3  C   UNL     1      -6.884 -14.187  -0.760  1.00  0.00     0.238 A 
ATOM      4  O   UNL     1      -5.875 -13.671  -0.210  1.00  0.00    -0.285 OA
ATOM      5  C   UNL     1      -7.754 -15.047  -0.046  1.00  0.00     0.111 A 
ATOM      6  C   UNL     1      -7.638 -15.345   1.345  1.00  0.00     0.134 A 
ATOM      7  C   UNL     1      -8.477 -16.310   1.915  1.00  0.00     0.093 A 
ATOM      8  C   UNL     1      -9.468 -16.941   1.161  1.00  0.00     0.123 A 
ATOM      9  C   UNL     1      -9.627 -16.614  -0.184  1.00  0.00     0.094 A 
ATOM     10  C   UNL     1      -8.783 -15.681  -0.790  1.00  0.00     0.146 A 
ATOM     11  O   UNL     1      -8.962 -15.406  -2.077  1.00  0.00    -0.452 OA
ENDROOT
BRANCH   1  12
ATOM     12  C   UNL     1      -8.525 -14.315  -4.182  1.00  0.00     0.025 A 
ATOM     13  C   UNL     1      -8.052 -15.169  -5.191  1.00  0.00     0.016 A 
ATOM     14  C   UNL     1      -8.348 -14.910  -6.530  1.00  0.00     0.051 A 
ATOM     15  C   UNL     1      -9.110 -13.792  -6.891  1.00  0.00     0.157 A 
ATOM     16  C   UNL     1      -9.270 -13.181  -4.543  1.00  0.00     0.062 A 
ATOM     17  C   UNL     1      -9.573 -12.914  -5.883  1.00  0.00     0.158 A 
BRANCH  15  18
ATOM     18  O   UNL     1      -9.375 -13.593  -8.248  1.00  0.00    -0.504 OA
ATOM     19  H   UNL     1      -8.730 -13.821  -8.989  1.00  0.00     0.293 HD
ENDBRANCH  15  18
BRANCH  17  20
ATOM     20  O   UNL     1     -10.329 -11.774  -6.166  1.00  0.00    -0.504 OA
ATOM     21  H   UNL     1     -10.988 -11.709  -6.928  1.00  0.00     0.293 HD
ENDBRANCH  17  20
ENDBRANCH   1  12
BRANCH   2  22
ATOM     22  O   UNL     1      -6.254 -13.105  -2.849  1.00  0.00    -0.502 OA
ATOM     23  H   UNL     1      -6.044 -12.155  -2.565  1.00  0.00     0.293 HD
ENDBRANCH   2  22
BRANCH   6  24
ATOM     24  O   UNL     1      -6.744 -14.705   2.208  1.00  0.00    -0.507 OA
ATOM     25  H   UNL     1      -6.119 -15.179   2.843  1.00  0.00     0.293 HD
ENDBRANCH   6  24
BRANCH   8  26
ATOM     26  O   UNL     1     -10.309 -17.889   1.741  1.00  0.00    -0.508 OA
ATOM     27  H   UNL     1     -11.317 -17.818   1.669  1.00  0.00     0.293 HD
ENDBRANCH   8  26
TORSDOF 6
ENDMDL
