MODEL 1
REMARK VINA RESULT:     0.446      0.000      0.000
REMARK INTER + INTRA:           0.158
REMARK INTER:                   0.603
REMARK INTRA:                  -0.445
REMARK UNBOUND:                -0.445
REMARK SMILES COc1ccc(-c2cc(=O)c3c(OC)c(OC)c(OC)c(OC)c3o2)cc1
REMARK SMILES IDX 7 1 8 2 9 3 10 4 11 5 24 6 25 7 21 8 18 9 15 10 12 11 6 12
REMARK SMILES IDX 3 13 4 14 27 15 5 16 26 17 2 18 1 19 22 20 23 21 13 22 14 23
REMARK SMILES IDX 19 24 20 25 16 26 17 27
REMARK H PARENT
REMARK Flexibility Score: inf
ROOT
ATOM      1  C   UNL     1       2.731   7.958  17.630  1.00  0.00     0.138 A 
ATOM      2  C   UNL     1       2.638   9.058  18.494  1.00  0.00     0.100 A 
ATOM      3  C   UNL     1       2.919  10.334  18.007  1.00  0.00     0.197 A 
ATOM      4  O   UNL     1       2.835  11.316  18.794  1.00  0.00    -0.289 OA
ATOM      5  C   UNL     1       3.299  10.501  16.657  1.00  0.00     0.115 A 
ATOM      6  C   UNL     1       3.377   9.345  15.852  1.00  0.00     0.188 A 
ATOM      7  O   UNL     1       3.097   8.150  16.367  1.00  0.00    -0.452 OA
ATOM      8  C   UNL     1       3.737   9.429  14.501  1.00  0.00     0.209 A 
ATOM      9  C   UNL     1       4.058  10.688  13.933  1.00  0.00     0.211 A 
ATOM     10  C   UNL     1       4.027  11.845  14.752  1.00  0.00     0.208 A 
ATOM     11  C   UNL     1       3.584  11.760  16.090  1.00  0.00     0.179 A 
ENDROOT
BRANCH   1  12
ATOM     12  C   UNL     1       2.447   6.573  18.088  1.00  0.00     0.018 A 
ATOM     13  C   UNL     1       1.963   3.938  18.983  1.00  0.00     0.118 A 
ATOM     14  C   UNL     1       1.287   4.443  17.867  1.00  0.00     0.047 A 
ATOM     15  C   UNL     1       2.893   4.756  19.648  1.00  0.00     0.047 A 
ATOM     16  C   UNL     1       1.526   5.745  17.419  1.00  0.00     0.016 A 
ATOM     17  C   UNL     1       3.136   6.058  19.201  1.00  0.00     0.016 A 
BRANCH  13  18
ATOM     18  O   UNL     1       1.685   2.625  19.392  1.00  0.00    -0.497 OA
ATOM     19  C   UNL     1       2.501   1.499  19.084  1.00  0.00     0.278 C 
ENDBRANCH  13  18
ENDBRANCH   1  12
BRANCH   8  20
ATOM     20  O   UNL     1       3.758   8.214  13.786  1.00  0.00    -0.490 OA
ATOM     21  C   UNL     1       2.696   7.646  13.029  1.00  0.00     0.278 C 
ENDBRANCH   8  20
BRANCH  11  22
ATOM     22  O   UNL     1       3.421  12.919  16.857  1.00  0.00    -0.492 OA
ATOM     23  C   UNL     1       2.491  13.940  16.509  1.00  0.00     0.278 C 
ENDBRANCH  11  22
BRANCH   9  24
ATOM     24  O   UNL     1       4.410  10.736  12.570  1.00  0.00    -0.490 OA
ATOM     25  C   UNL     1       5.536  10.125  11.949  1.00  0.00     0.279 C 
ENDBRANCH   9  24
BRANCH  10  26
ATOM     26  O   UNL     1       4.452  13.076  14.243  1.00  0.00    -0.490 OA
ATOM     27  C   UNL     1       5.829  13.410  14.099  1.00  0.00     0.278 C 
ENDBRANCH  10  26
TORSDOF 6
ENDMDL
MODEL 2
REMARK VINA RESULT:     2.814      1.150      3.602
REMARK INTER + INTRA:           3.356
REMARK INTER:                   3.697
REMARK INTRA:                  -0.342
REMARK UNBOUND:                -0.445
REMARK SMILES COc1ccc(-c2cc(=O)c3c(OC)c(OC)c(OC)c(OC)c3o2)cc1
REMARK SMILES IDX 7 1 8 2 9 3 10 4 11 5 24 6 25 7 21 8 18 9 15 10 12 11 6 12
REMARK SMILES IDX 3 13 4 14 27 15 5 16 26 17 2 18 1 19 22 20 23 21 13 22 14 23
REMARK SMILES IDX 19 24 20 25 16 26 17 27
REMARK H PARENT
REMARK Flexibility Score: inf
ROOT
ATOM      1  C   UNL     1       2.869   7.299  16.777  1.00  0.00     0.138 A 
ATOM      2  C   UNL     1       2.940   7.257  15.378  1.00  0.00     0.100 A 
ATOM      3  C   UNL     1       3.121   8.444  14.667  1.00  0.00     0.197 A 
ATOM      4  O   UNL     1       3.180   8.392  13.408  1.00  0.00    -0.289 OA
ATOM      5  C   UNL     1       3.223   9.668  15.363  1.00  0.00     0.115 A 
ATOM      6  C   UNL     1       3.134   9.630  16.770  1.00  0.00     0.188 A 
ATOM      7  O   UNL     1       2.962   8.471  17.400  1.00  0.00    -0.452 OA
ATOM      8  C   UNL     1       3.235  10.801  17.532  1.00  0.00     0.209 A 
ATOM      9  C   UNL     1       3.400  12.052  16.884  1.00  0.00     0.211 A 
ATOM     10  C   UNL     1       3.441  12.098  15.467  1.00  0.00     0.208 A 
ATOM     11  C   UNL     1       3.419  10.904  14.715  1.00  0.00     0.179 A 
ENDROOT
BRANCH   1  12
ATOM     12  C   UNL     1       2.675   6.072  17.592  1.00  0.00     0.018 A 
ATOM     13  C   UNL     1       2.366   3.740  19.157  1.00  0.00     0.118 A 
ATOM     14  C   UNL     1       1.548   3.961  18.043  1.00  0.00     0.047 A 
ATOM     15  C   UNL     1       3.351   4.691  19.481  1.00  0.00     0.047 A 
ATOM     16  C   UNL     1       1.700   5.111  17.264  1.00  0.00     0.016 A 
ATOM     17  C   UNL     1       3.506   5.841  18.702  1.00  0.00     0.016 A 
BRANCH  13  18
ATOM     18  O   UNL     1       2.172   2.570  19.905  1.00  0.00    -0.497 OA
ATOM     19  C   UNL     1       2.679   1.291  19.541  1.00  0.00     0.278 C 
ENDBRANCH  13  18
ENDBRANCH   1  12
BRANCH   8  20
ATOM     20  O   UNL     1       3.159  10.643  18.931  1.00  0.00    -0.490 OA
ATOM     21  C   UNL     1       4.099  11.098  19.898  1.00  0.00     0.278 C 
ENDBRANCH   8  20
BRANCH  11  22
ATOM     22  O   UNL     1       3.599  10.939  13.327  1.00  0.00    -0.492 OA
ATOM     23  C   UNL     1       4.885  10.848  12.720  1.00  0.00     0.278 C 
ENDBRANCH  11  22
BRANCH   9  24
ATOM     24  O   UNL     1       3.504  13.209  17.681  1.00  0.00    -0.490 OA
ATOM     25  C   UNL     1       2.440  14.031  18.149  1.00  0.00     0.279 C 
ENDBRANCH   9  24
BRANCH  10  26
ATOM     26  O   UNL     1       3.485  13.331  14.807  1.00  0.00    -0.490 OA
ATOM     27  C   UNL     1       2.326  13.943  14.253  1.00  0.00     0.278 C 
ENDBRANCH  10  26
TORSDOF 6
ENDMDL
