MODEL 1
REMARK VINA RESULT:    -7.657      0.000      0.000
REMARK INTER + INTRA:          -8.552
REMARK INTER:                  -8.329
REMARK INTRA:                  -0.223
REMARK UNBOUND:                -0.223
REMARK SMILES C[C@@H]1[C@H]2C3=CC[C@H]4[C@@]5(C)CC[C@@H](O)C(C)(C)[C@H]5CC[C@]4(C)[C@@]3(C)CC[C@@]2(C(=O)[O-])CC[C@@H]1C
REMARK SMILES IDX 26 1 30 2 25 3 3 4 31 5 24 6 4 7 2 8 32 9 22 10 5 11 1 12
REMARK SMILES IDX 33 13 23 14 20 15 6 16 7 17 19 18 21 19 8 20 18 21 17 22
REMARK SMILES IDX 10 23 9 24 14 25 11 26 12 27 15 28 16 29 27 30 28 31 29 32
REMARK SMILES IDX 13 33
REMARK H PARENT 13 34
REMARK Flexibility Score: inf
ROOT
ATOM      1  C   UNL     1     -21.338  -7.187  -1.247  1.00  0.00     0.017 C 
ATOM      2  C   UNL     1     -21.964  -7.875   0.001  1.00  0.00     0.014 C 
ATOM      3  C   UNL     1     -21.975  -5.761  -1.432  1.00  0.00     0.014 C 
ATOM      4  C   UNL     1     -21.505  -8.090  -2.530  1.00  0.00     0.030 C 
ATOM      5  C   UNL     1     -23.395  -8.374  -0.221  1.00  0.00     0.004 C 
ATOM      6  C   UNL     1     -22.236  -5.312  -2.886  1.00  0.00     0.013 C 
ATOM      7  C   UNL     1     -21.060  -7.340  -3.801  1.00  0.00    -0.063 C 
ATOM      8  C   UNL     1     -22.941  -8.705  -2.693  1.00  0.00    -0.003 C 
ATOM      9  C   UNL     1     -23.471  -9.362  -1.386  1.00  0.00    -0.011 C 
ATOM     10  C   UNL     1     -21.195  -5.812  -3.931  1.00  0.00    -0.006 C 
ATOM     11  C   UNL     1     -20.521  -8.055  -4.818  1.00  0.00    -0.027 C 
ATOM     12  C   UNL     1     -23.028  -9.724  -3.852  1.00  0.00     0.008 C 
ATOM     13  C   UNL     1     -22.792 -10.703  -1.031  1.00  0.00     0.008 C 
ATOM     14  C   UNL     1     -19.797  -5.194  -3.559  1.00  0.00     0.017 C 
ATOM     15  C   UNL     1     -21.640  -5.452  -5.444  1.00  0.00    -0.020 C 
ATOM     16  C   UNL     1     -20.435  -7.562  -6.245  1.00  0.00     0.032 C 
ATOM     17  C   UNL     1     -20.529  -6.016  -6.411  1.00  0.00     0.006 C 
ATOM     18  C   UNL     1     -21.775  -3.926  -5.672  1.00  0.00     0.008 C 
ATOM     19  C   UNL     1     -23.047  -6.079  -5.734  1.00  0.00     0.012 C 
ATOM     20  C   UNL     1     -20.462  -5.502  -7.936  1.00  0.00    -0.025 C 
ATOM     21  C   UNL     1     -22.057  -3.578  -7.131  1.00  0.00     0.005 C 
ATOM     22  C   UNL     1     -20.886  -3.968  -8.073  1.00  0.00     0.003 C 
ATOM     23  C   UNL     1     -21.304  -6.414  -8.887  1.00  0.00     0.010 C 
ATOM     24  C   UNL     1     -18.958  -5.646  -8.366  1.00  0.00     0.012 C 
ATOM     25  C   UNL     1     -21.110  -3.449  -9.570  1.00  0.00    -0.006 C 
ATOM     26  C   UNL     1     -21.442  -5.907 -10.330  1.00  0.00     0.033 C 
ATOM     27  C   UNL     1     -21.945  -4.455 -10.427  1.00  0.00     0.120 C 
ATOM     28  C   UNL     1     -19.740  -3.192 -10.272  1.00  0.00     0.014 C 
ATOM     29  C   UNL     1     -21.825  -2.064  -9.606  1.00  0.00     0.014 C 
ENDROOT
BRANCH   1  30
ATOM     30  C   UNL     1     -19.856  -7.025  -0.902  1.00  0.00     0.048 C 
ATOM     31  O   UNL     1     -19.007  -7.906  -1.207  1.00  0.00    -0.550 OA
ATOM     32  O   UNL     1     -19.427  -5.901  -0.205  1.00  0.00    -0.550 OA
ENDBRANCH   1  30
BRANCH  27  33
ATOM     33  O   UNL     1     -23.328  -4.364 -10.167  1.00  0.00    -0.393 OA
ATOM     34  H   UNL     1     -23.556  -3.430  -9.936  1.00  0.00     0.210 HD
ENDBRANCH  27  33
TORSDOF 2
ENDMDL
MODEL 2
REMARK VINA RESULT:    -7.032      1.923      3.646
REMARK INTER + INTRA:          -7.872
REMARK INTER:                  -7.653
REMARK INTRA:                  -0.219
REMARK UNBOUND:                -0.223
REMARK SMILES C[C@@H]1[C@H]2C3=CC[C@H]4[C@@]5(C)CC[C@@H](O)C(C)(C)[C@H]5CC[C@]4(C)[C@@]3(C)CC[C@@]2(C(=O)[O-])CC[C@@H]1C
REMARK SMILES IDX 26 1 30 2 25 3 3 4 31 5 24 6 4 7 2 8 32 9 22 10 5 11 1 12
REMARK SMILES IDX 33 13 23 14 20 15 6 16 7 17 19 18 21 19 8 20 18 21 17 22
REMARK SMILES IDX 10 23 9 24 14 25 11 26 12 27 15 28 16 29 27 30 28 31 29 32
REMARK SMILES IDX 13 33
REMARK H PARENT 13 34
REMARK Flexibility Score: inf
ROOT
ATOM      1  C   UNL     1     -22.120  -8.134  -1.099  1.00  0.00     0.017 C 
ATOM      2  C   UNL     1     -21.604  -8.733   0.242  1.00  0.00     0.014 C 
ATOM      3  C   UNL     1     -21.884  -9.171  -2.258  1.00  0.00     0.014 C 
ATOM      4  C   UNL     1     -21.442  -6.741  -1.393  1.00  0.00     0.030 C 
ATOM      5  C   UNL     1     -20.078  -8.752   0.362  1.00  0.00     0.004 C 
ATOM      6  C   UNL     1     -21.460  -8.586  -3.623  1.00  0.00     0.013 C 
ATOM      7  C   UNL     1     -21.802  -6.232  -2.803  1.00  0.00    -0.063 C 
ATOM      8  C   UNL     1     -19.890  -6.725  -1.150  1.00  0.00    -0.003 C 
ATOM      9  C   UNL     1     -19.484  -7.349   0.216  1.00  0.00    -0.011 C 
ATOM     10  C   UNL     1     -22.076  -7.198  -3.969  1.00  0.00    -0.006 C 
ATOM     11  C   UNL     1     -21.892  -4.895  -3.003  1.00  0.00    -0.027 C 
ATOM     12  C   UNL     1     -19.279  -5.310  -1.271  1.00  0.00     0.008 C 
ATOM     13  C   UNL     1     -19.819  -6.468   1.439  1.00  0.00     0.008 C 
ATOM     14  C   UNL     1     -23.637  -7.369  -4.067  1.00  0.00     0.017 C 
ATOM     15  C   UNL     1     -21.443  -6.579  -5.322  1.00  0.00    -0.020 C 
ATOM     16  C   UNL     1     -21.812  -4.237  -4.363  1.00  0.00     0.032 C 
ATOM     17  C   UNL     1     -22.122  -5.177  -5.566  1.00  0.00     0.006 C 
ATOM     18  C   UNL     1     -21.696  -7.479  -6.558  1.00  0.00     0.008 C 
ATOM     19  C   UNL     1     -19.888  -6.461  -5.160  1.00  0.00     0.012 C 
ATOM     20  C   UNL     1     -22.008  -4.474  -7.010  1.00  0.00    -0.025 C 
ATOM     21  C   UNL     1     -21.223  -6.832  -7.856  1.00  0.00     0.005 C 
ATOM     22  C   UNL     1     -22.012  -5.540  -8.200  1.00  0.00     0.003 C 
ATOM     23  C   UNL     1     -20.764  -3.530  -7.094  1.00  0.00     0.010 C 
ATOM     24  C   UNL     1     -23.286  -3.570  -7.143  1.00  0.00     0.012 C 
ATOM     25  C   UNL     1     -21.634  -4.960  -9.642  1.00  0.00    -0.006 C 
ATOM     26  C   UNL     1     -20.474  -2.949  -8.484  1.00  0.00     0.033 C 
ATOM     27  C   UNL     1     -20.390  -4.014  -9.592  1.00  0.00     0.120 C 
ATOM     28  C   UNL     1     -22.841  -4.185 -10.256  1.00  0.00     0.014 C 
ATOM     29  C   UNL     1     -21.344  -6.095 -10.670  1.00  0.00     0.014 C 
ENDROOT
BRANCH   1  30
ATOM     30  C   UNL     1     -23.626  -7.958  -0.894  1.00  0.00     0.048 C 
ATOM     31  O   UNL     1     -24.116  -6.864  -0.501  1.00  0.00    -0.550 OA
ATOM     32  O   UNL     1     -24.485  -9.031  -1.107  1.00  0.00    -0.550 OA
ENDBRANCH   1  30
BRANCH  27  33
ATOM     33  O   UNL     1     -19.174  -4.727  -9.537  1.00  0.00    -0.393 OA
ATOM     34  H   UNL     1     -18.543  -4.349 -10.198  1.00  0.00     0.210 HD
ENDBRANCH  27  33
TORSDOF 2
ENDMDL
MODEL 3
REMARK VINA RESULT:    -6.845      2.367      3.577
REMARK INTER + INTRA:          -7.668
REMARK INTER:                  -7.446
REMARK INTRA:                  -0.222
REMARK UNBOUND:                -0.223
REMARK SMILES C[C@@H]1[C@H]2C3=CC[C@H]4[C@@]5(C)CC[C@@H](O)C(C)(C)[C@H]5CC[C@]4(C)[C@@]3(C)CC[C@@]2(C(=O)[O-])CC[C@@H]1C
REMARK SMILES IDX 26 1 30 2 25 3 3 4 31 5 24 6 4 7 2 8 32 9 22 10 5 11 1 12
REMARK SMILES IDX 33 13 23 14 20 15 6 16 7 17 19 18 21 19 8 20 18 21 17 22
REMARK SMILES IDX 10 23 9 24 14 25 11 26 12 27 15 28 16 29 27 30 28 31 29 32
REMARK SMILES IDX 13 33
REMARK H PARENT 13 34
REMARK Flexibility Score: inf
ROOT
ATOM      1  C   UNL     1     -21.524 -11.747  -2.623  1.00  0.00     0.017 C 
ATOM      2  C   UNL     1     -21.999 -13.131  -2.091  1.00  0.00     0.014 C 
ATOM      3  C   UNL     1     -22.581 -10.648  -2.239  1.00  0.00     0.014 C 
ATOM      4  C   UNL     1     -21.254 -11.804  -4.177  1.00  0.00     0.030 C 
ATOM      5  C   UNL     1     -23.152 -13.738  -2.895  1.00  0.00     0.004 C 
ATOM      6  C   UNL     1     -22.836  -9.548  -3.292  1.00  0.00     0.013 C 
ATOM      7  C   UNL     1     -20.966 -10.400  -4.744  1.00  0.00    -0.063 C 
ATOM      8  C   UNL     1     -22.379 -12.539  -4.991  1.00  0.00    -0.003 C 
ATOM      9  C   UNL     1     -22.780 -13.908  -4.370  1.00  0.00    -0.011 C 
ATOM     10  C   UNL     1     -21.592  -9.134  -4.133  1.00  0.00    -0.006 C 
ATOM     11  C   UNL     1     -20.125 -10.290  -5.800  1.00  0.00    -0.027 C 
ATOM     12  C   UNL     1     -22.008 -12.739  -6.478  1.00  0.00     0.008 C 
ATOM     13  C   UNL     1     -21.729 -15.023  -4.560  1.00  0.00     0.008 C 
ATOM     14  C   UNL     1     -20.525  -8.520  -3.154  1.00  0.00     0.017 C 
ATOM     15  C   UNL     1     -21.985  -8.115  -5.326  1.00  0.00    -0.020 C 
ATOM     16  C   UNL     1     -20.072  -9.089  -6.717  1.00  0.00     0.032 C 
ATOM     17  C   UNL     1     -20.662  -7.778  -6.116  1.00  0.00     0.006 C 
ATOM     18  C   UNL     1     -22.601  -6.796  -4.798  1.00  0.00     0.008 C 
ATOM     19  C   UNL     1     -23.066  -8.783  -6.244  1.00  0.00     0.012 C 
ATOM     20  C   UNL     1     -20.626  -6.512  -7.110  1.00  0.00    -0.025 C 
ATOM     21  C   UNL     1     -22.842  -5.779  -5.909  1.00  0.00     0.005 C 
ATOM     22  C   UNL     1     -21.524  -5.303  -6.578  1.00  0.00     0.003 C 
ATOM     23  C   UNL     1     -21.018  -6.914  -8.569  1.00  0.00     0.010 C 
ATOM     24  C   UNL     1     -19.126  -6.043  -7.145  1.00  0.00     0.012 C 
ATOM     25  C   UNL     1     -21.764  -4.114  -7.621  1.00  0.00    -0.006 C 
ATOM     26  C   UNL     1     -21.179  -5.745  -9.552  1.00  0.00     0.033 C 
ATOM     27  C   UNL     1     -22.127  -4.642  -9.047  1.00  0.00     0.120 C 
ATOM     28  C   UNL     1     -20.499  -3.206  -7.718  1.00  0.00     0.014 C 
ATOM     29  C   UNL     1     -22.895  -3.148  -7.154  1.00  0.00     0.014 C 
ENDROOT
BRANCH   1  30
ATOM     30  C   UNL     1     -20.222 -11.465  -1.870  1.00  0.00     0.048 C 
ATOM     31  O   UNL     1     -19.101 -11.803  -2.338  1.00  0.00    -0.550 OA
ATOM     32  O   UNL     1     -20.263 -10.854  -0.621  1.00  0.00    -0.550 OA
ENDBRANCH   1  30
BRANCH  27  33
ATOM     33  O   UNL     1     -23.479  -5.032  -9.148  1.00  0.00    -0.393 OA
ATOM     34  H   UNL     1     -24.001  -4.587  -8.435  1.00  0.00     0.210 HD
ENDBRANCH  27  33
TORSDOF 2
ENDMDL
MODEL 4
REMARK VINA RESULT:    -6.544      1.836      8.079
REMARK INTER + INTRA:          -7.341
REMARK INTER:                  -7.147
REMARK INTRA:                  -0.194
REMARK UNBOUND:                -0.223
REMARK SMILES C[C@@H]1[C@H]2C3=CC[C@H]4[C@@]5(C)CC[C@@H](O)C(C)(C)[C@H]5CC[C@]4(C)[C@@]3(C)CC[C@@]2(C(=O)[O-])CC[C@@H]1C
REMARK SMILES IDX 26 1 30 2 25 3 3 4 31 5 24 6 4 7 2 8 32 9 22 10 5 11 1 12
REMARK SMILES IDX 33 13 23 14 20 15 6 16 7 17 19 18 21 19 8 20 18 21 17 22
REMARK SMILES IDX 10 23 9 24 14 25 11 26 12 27 15 28 16 29 27 30 28 31 29 32
REMARK SMILES IDX 13 33
REMARK H PARENT 13 34
REMARK Flexibility Score: inf
ROOT
ATOM      1  C   UNL     1     -21.583  -5.202  -6.875  1.00  0.00     0.017 C 
ATOM      2  C   UNL     1     -20.884  -4.823  -8.214  1.00  0.00     0.014 C 
ATOM      3  C   UNL     1     -20.750  -4.629  -5.671  1.00  0.00     0.014 C 
ATOM      4  C   UNL     1     -21.792  -6.762  -6.772  1.00  0.00     0.030 C 
ATOM      5  C   UNL     1     -19.618  -5.635  -8.501  1.00  0.00     0.004 C 
ATOM      6  C   UNL     1     -20.664  -5.520  -4.413  1.00  0.00     0.013 C 
ATOM      7  C   UNL     1     -22.308  -7.164  -5.376  1.00  0.00    -0.063 C 
ATOM      8  C   UNL     1     -20.530  -7.602  -7.187  1.00  0.00    -0.003 C 
ATOM      9  C   UNL     1     -19.910  -7.137  -8.535  1.00  0.00    -0.011 C 
ATOM     10  C   UNL     1     -21.936  -6.367  -4.113  1.00  0.00    -0.006 C 
ATOM     11  C   UNL     1     -23.124  -8.240  -5.274  1.00  0.00    -0.027 C 
ATOM     12  C   UNL     1     -20.816  -9.120  -7.248  1.00  0.00     0.008 C 
ATOM     13  C   UNL     1     -20.740  -7.520  -9.780  1.00  0.00     0.008 C 
ATOM     14  C   UNL     1     -23.124  -5.376  -3.828  1.00  0.00     0.017 C 
ATOM     15  C   UNL     1     -21.696  -7.401  -2.892  1.00  0.00    -0.020 C 
ATOM     16  C   UNL     1     -23.363  -9.002  -3.989  1.00  0.00     0.032 C 
ATOM     17  C   UNL     1     -23.034  -8.211  -2.688  1.00  0.00     0.006 C 
ATOM     18  C   UNL     1     -21.341  -6.680  -1.568  1.00  0.00     0.008 C 
ATOM     19  C   UNL     1     -20.487  -8.338  -3.236  1.00  0.00     0.012 C 
ATOM     20  C   UNL     1     -23.266  -9.039  -1.327  1.00  0.00    -0.025 C 
ATOM     21  C   UNL     1     -21.253  -7.641  -0.387  1.00  0.00     0.005 C 
ATOM     22  C   UNL     1     -22.614  -8.313  -0.062  1.00  0.00     0.003 C 
ATOM     23  C   UNL     1     -22.766 -10.515  -1.458  1.00  0.00     0.010 C 
ATOM     24  C   UNL     1     -24.823  -9.094  -1.124  1.00  0.00     0.012 C 
ATOM     25  C   UNL     1     -22.559  -9.185   1.278  1.00  0.00    -0.006 C 
ATOM     26  C   UNL     1     -22.787 -11.333  -0.159  1.00  0.00     0.033 C 
ATOM     27  C   UNL     1     -22.066 -10.646   1.014  1.00  0.00     0.120 C 
ATOM     28  C   UNL     1     -23.962  -9.235   1.959  1.00  0.00     0.014 C 
ATOM     29  C   UNL     1     -21.632  -8.543   2.355  1.00  0.00     0.014 C 
ENDROOT
BRANCH   1  30
ATOM     30  C   UNL     1     -22.935  -4.488  -6.925  1.00  0.00     0.048 C 
ATOM     31  O   UNL     1     -23.991  -5.096  -7.252  1.00  0.00    -0.550 OA
ATOM     32  O   UNL     1     -23.012  -3.129  -6.640  1.00  0.00    -0.550 OA
ENDBRANCH   1  30
BRANCH  27  33
ATOM     33  O   UNL     1     -20.664 -10.723   0.881  1.00  0.00    -0.393 OA
ATOM     34  H   UNL     1     -20.255 -10.807   1.778  1.00  0.00     0.210 HD
ENDBRANCH  27  33
TORSDOF 2
ENDMDL
MODEL 5
REMARK VINA RESULT:    -6.490      4.062      6.456
REMARK INTER + INTRA:          -7.281
REMARK INTER:                  -7.061
REMARK INTRA:                  -0.220
REMARK UNBOUND:                -0.223
REMARK SMILES C[C@@H]1[C@H]2C3=CC[C@H]4[C@@]5(C)CC[C@@H](O)C(C)(C)[C@H]5CC[C@]4(C)[C@@]3(C)CC[C@@]2(C(=O)[O-])CC[C@@H]1C
REMARK SMILES IDX 26 1 30 2 25 3 3 4 31 5 24 6 4 7 2 8 32 9 22 10 5 11 1 12
REMARK SMILES IDX 33 13 23 14 20 15 6 16 7 17 19 18 21 19 8 20 18 21 17 22
REMARK SMILES IDX 10 23 9 24 14 25 11 26 12 27 15 28 16 29 27 30 28 31 29 32
REMARK SMILES IDX 13 33
REMARK H PARENT 13 34
REMARK Flexibility Score: inf
ROOT
ATOM      1  C   UNL     1     -21.094 -14.234  -5.404  1.00  0.00     0.017 C 
ATOM      2  C   UNL     1     -20.492 -15.597  -4.950  1.00  0.00     0.014 C 
ATOM      3  C   UNL     1     -20.057 -13.483  -6.316  1.00  0.00     0.014 C 
ATOM      4  C   UNL     1     -21.535 -13.371  -4.159  1.00  0.00     0.030 C 
ATOM      5  C   UNL     1     -19.409 -15.466  -3.876  1.00  0.00     0.004 C 
ATOM      6  C   UNL     1     -19.977 -11.951  -6.143  1.00  0.00     0.013 C 
ATOM      7  C   UNL     1     -21.954 -11.951  -4.586  1.00  0.00    -0.063 C 
ATOM      8  C   UNL     1     -20.473 -13.338  -3.000  1.00  0.00    -0.003 C 
ATOM      9  C   UNL     1     -19.936 -14.750  -2.630  1.00  0.00    -0.011 C 
ATOM     10  C   UNL     1     -21.328 -11.252  -5.806  1.00  0.00    -0.006 C 
ATOM     11  C   UNL     1     -22.915 -11.318  -3.870  1.00  0.00    -0.027 C 
ATOM     12  C   UNL     1     -21.000 -12.638  -1.727  1.00  0.00     0.008 C 
ATOM     13  C   UNL     1     -20.945 -15.630  -1.861  1.00  0.00     0.008 C 
ATOM     14  C   UNL     1     -22.307 -11.474  -7.016  1.00  0.00     0.017 C 
ATOM     15  C   UNL     1     -21.124  -9.684  -5.464  1.00  0.00    -0.020 C 
ATOM     16  C   UNL     1     -23.131  -9.821  -3.883  1.00  0.00     0.032 C 
ATOM     17  C   UNL     1     -22.543  -9.085  -5.124  1.00  0.00     0.006 C 
ATOM     18  C   UNL     1     -20.519  -8.894  -6.651  1.00  0.00     0.008 C 
ATOM     19  C   UNL     1     -20.122  -9.540  -4.267  1.00  0.00     0.012 C 
ATOM     20  C   UNL     1     -22.755  -7.489  -5.116  1.00  0.00    -0.025 C 
ATOM     21  C   UNL     1     -20.457  -7.393  -6.381  1.00  0.00     0.005 C 
ATOM     22  C   UNL     1     -21.864  -6.758  -6.222  1.00  0.00     0.003 C 
ATOM     23  C   UNL     1     -22.511  -6.883  -3.695  1.00  0.00     0.010 C 
ATOM     24  C   UNL     1     -24.271  -7.261  -5.463  1.00  0.00     0.012 C 
ATOM     25  C   UNL     1     -21.803  -5.163  -6.111  1.00  0.00    -0.006 C 
ATOM     26  C   UNL     1     -22.521  -5.349  -3.625  1.00  0.00     0.033 C 
ATOM     27  C   UNL     1     -21.578  -4.679  -4.641  1.00  0.00     0.120 C 
ATOM     28  C   UNL     1     -23.115  -4.524  -6.664  1.00  0.00     0.014 C 
ATOM     29  C   UNL     1     -20.677  -4.558  -7.003  1.00  0.00     0.014 C 
ENDROOT
BRANCH   1  30
ATOM     30  C   UNL     1     -22.315 -14.608  -6.248  1.00  0.00     0.048 C 
ATOM     31  O   UNL     1     -23.457 -14.748  -5.731  1.00  0.00    -0.550 OA
ATOM     32  O   UNL     1     -22.170 -14.836  -7.612  1.00  0.00    -0.550 OA
ENDBRANCH   1  30
BRANCH  27  33
ATOM     33  O   UNL     1     -20.229  -4.779  -4.244  1.00  0.00    -0.393 OA
ATOM     34  H   UNL     1     -19.719  -4.021  -4.623  1.00  0.00     0.210 HD
ENDBRANCH  27  33
TORSDOF 2
ENDMDL
MODEL 6
REMARK VINA RESULT:    -6.332      3.150      4.974
REMARK INTER + INTRA:          -7.110
REMARK INTER:                  -6.889
REMARK INTRA:                  -0.221
REMARK UNBOUND:                -0.223
REMARK SMILES C[C@@H]1[C@H]2C3=CC[C@H]4[C@@]5(C)CC[C@@H](O)C(C)(C)[C@H]5CC[C@]4(C)[C@@]3(C)CC[C@@]2(C(=O)[O-])CC[C@@H]1C
REMARK SMILES IDX 26 1 30 2 25 3 3 4 31 5 24 6 4 7 2 8 32 9 22 10 5 11 1 12
REMARK SMILES IDX 33 13 23 14 20 15 6 16 7 17 19 18 21 19 8 20 18 21 17 22
REMARK SMILES IDX 10 23 9 24 14 25 11 26 12 27 15 28 16 29 27 30 28 31 29 32
REMARK SMILES IDX 13 33
REMARK H PARENT 13 34
REMARK Flexibility Score: inf
ROOT
ATOM      1  C   UNL     1     -20.917 -12.541  -4.184  1.00  0.00     0.017 C 
ATOM      2  C   UNL     1     -20.245 -13.664  -3.339  1.00  0.00     0.014 C 
ATOM      3  C   UNL     1     -20.183 -12.421  -5.569  1.00  0.00     0.014 C 
ATOM      4  C   UNL     1     -20.935 -11.177  -3.393  1.00  0.00     0.030 C 
ATOM      5  C   UNL     1     -18.885 -13.269  -2.759  1.00  0.00     0.004 C 
ATOM      6  C   UNL     1     -20.011 -10.993  -6.130  1.00  0.00     0.013 C 
ATOM      7  C   UNL     1     -21.423 -10.021  -4.288  1.00  0.00    -0.063 C 
ATOM      8  C   UNL     1     -19.572 -10.830  -2.691  1.00  0.00    -0.003 C 
ATOM      9  C   UNL     1     -18.989 -12.021  -1.879  1.00  0.00    -0.011 C 
ATOM     10  C   UNL     1     -21.175 -10.010  -5.807  1.00  0.00    -0.006 C 
ATOM     11  C   UNL     1     -22.103  -9.000  -3.712  1.00  0.00    -0.027 C 
ATOM     12  C   UNL     1     -19.668  -9.585  -1.780  1.00  0.00     0.008 C 
ATOM     13  C   UNL     1     -19.743 -12.322  -0.565  1.00  0.00     0.008 C 
ATOM     14  C   UNL     1     -22.481 -10.560  -6.490  1.00  0.00     0.017 C 
ATOM     15  C   UNL     1     -20.832  -8.498  -6.271  1.00  0.00    -0.020 C 
ATOM     16  C   UNL     1     -22.270  -7.634  -4.340  1.00  0.00     0.032 C 
ATOM     17  C   UNL     1     -22.064  -7.593  -5.883  1.00  0.00     0.006 C 
ATOM     18  C   UNL     1     -20.593  -8.390  -7.798  1.00  0.00     0.008 C 
ATOM     19  C   UNL     1     -19.511  -8.028  -5.572  1.00  0.00     0.012 C 
ATOM     20  C   UNL     1     -22.218  -6.130  -6.539  1.00  0.00    -0.025 C 
ATOM     21  C   UNL     1     -20.409  -6.946  -8.257  1.00  0.00     0.005 C 
ATOM     22  C   UNL     1     -21.683  -6.086  -8.044  1.00  0.00     0.003 C 
ATOM     23  C   UNL     1     -21.538  -5.031  -5.659  1.00  0.00     0.010 C 
ATOM     24  C   UNL     1     -23.760  -5.829  -6.547  1.00  0.00     0.012 C 
ATOM     25  C   UNL     1     -21.546  -4.625  -8.681  1.00  0.00    -0.006 C 
ATOM     26  C   UNL     1     -21.482  -3.630  -6.286  1.00  0.00     0.033 C 
ATOM     27  C   UNL     1     -20.872  -3.611  -7.699  1.00  0.00     0.120 C 
ATOM     28  C   UNL     1     -22.944  -4.076  -9.102  1.00  0.00     0.014 C 
ATOM     29  C   UNL     1     -20.725  -4.641 -10.006  1.00  0.00     0.014 C 
ENDROOT
BRANCH   1  30
ATOM     30  C   UNL     1     -22.346 -13.034  -4.422  1.00  0.00     0.048 C 
ATOM     31  O   UNL     1     -23.284 -12.752  -3.627  1.00  0.00    -0.550 OA
ATOM     32  O   UNL     1     -22.625 -13.843  -5.519  1.00  0.00    -0.550 OA
ENDBRANCH   1  30
BRANCH  27  33
ATOM     33  O   UNL     1     -19.469  -3.750  -7.663  1.00  0.00    -0.393 OA
ATOM     34  H   UNL     1     -19.050  -2.937  -8.038  1.00  0.00     0.210 HD
ENDBRANCH  27  33
TORSDOF 2
ENDMDL
MODEL 7
REMARK VINA RESULT:    -6.135      2.590      8.513
REMARK INTER + INTRA:          -6.896
REMARK INTER:                  -6.686
REMARK INTRA:                  -0.210
REMARK UNBOUND:                -0.223
REMARK SMILES C[C@@H]1[C@H]2C3=CC[C@H]4[C@@]5(C)CC[C@@H](O)C(C)(C)[C@H]5CC[C@]4(C)[C@@]3(C)CC[C@@]2(C(=O)[O-])CC[C@@H]1C
REMARK SMILES IDX 26 1 30 2 25 3 3 4 31 5 24 6 4 7 2 8 32 9 22 10 5 11 1 12
REMARK SMILES IDX 33 13 23 14 20 15 6 16 7 17 19 18 21 19 8 20 18 21 17 22
REMARK SMILES IDX 10 23 9 24 14 25 11 26 12 27 15 28 16 29 27 30 28 31 29 32
REMARK SMILES IDX 13 33
REMARK H PARENT 13 34
REMARK Flexibility Score: inf
ROOT
ATOM      1  C   UNL     1     -20.884  -5.922  -4.110  1.00  0.00     0.017 C 
ATOM      2  C   UNL     1     -20.394  -5.129  -5.357  1.00  0.00     0.014 C 
ATOM      3  C   UNL     1     -20.015  -7.222  -3.944  1.00  0.00     0.014 C 
ATOM      4  C   UNL     1     -22.426  -6.239  -4.215  1.00  0.00     0.030 C 
ATOM      5  C   UNL     1     -20.804  -5.759  -6.690  1.00  0.00     0.004 C 
ATOM      6  C   UNL     1     -20.762  -8.488  -3.470  1.00  0.00     0.013 C 
ATOM      7  C   UNL     1     -22.879  -7.183  -3.083  1.00  0.00    -0.063 C 
ATOM      8  C   UNL     1     -22.871  -6.770  -5.625  1.00  0.00    -0.003 C 
ATOM      9  C   UNL     1     -22.324  -5.907  -6.798  1.00  0.00    -0.011 C 
ATOM     10  C   UNL     1     -21.932  -8.233  -2.474  1.00  0.00    -0.006 C 
ATOM     11  C   UNL     1     -24.142  -7.064  -2.610  1.00  0.00    -0.027 C 
ATOM     12  C   UNL     1     -24.405  -6.903  -5.757  1.00  0.00     0.008 C 
ATOM     13  C   UNL     1     -23.013  -4.534  -6.949  1.00  0.00     0.008 C 
ATOM     14  C   UNL     1     -21.329  -7.603  -1.165  1.00  0.00     0.017 C 
ATOM     15  C   UNL     1     -22.771  -9.583  -2.173  1.00  0.00    -0.020 C 
ATOM     16  C   UNL     1     -24.861  -8.148  -1.837  1.00  0.00     0.032 C 
ATOM     17  C   UNL     1     -23.931  -9.206  -1.173  1.00  0.00     0.006 C 
ATOM     18  C   UNL     1     -21.897 -10.689  -1.531  1.00  0.00     0.008 C 
ATOM     19  C   UNL     1     -23.319 -10.165  -3.520  1.00  0.00     0.012 C 
ATOM     20  C   UNL     1     -24.707 -10.370  -0.375  1.00  0.00    -0.025 C 
ATOM     21  C   UNL     1     -22.714 -11.910  -1.117  1.00  0.00     0.005 C 
ATOM     22  C   UNL     1     -23.743 -11.588  -0.000  1.00  0.00     0.003 C 
ATOM     23  C   UNL     1     -25.969 -10.861  -1.156  1.00  0.00     0.010 C 
ATOM     24  C   UNL     1     -25.214  -9.706   0.955  1.00  0.00     0.012 C 
ATOM     25  C   UNL     1     -24.475 -12.899   0.550  1.00  0.00    -0.006 C 
ATOM     26  C   UNL     1     -26.675 -12.086  -0.559  1.00  0.00     0.033 C 
ATOM     27  C   UNL     1     -25.733 -13.275  -0.299  1.00  0.00     0.120 C 
ATOM     28  C   UNL     1     -24.903 -12.705   2.038  1.00  0.00     0.014 C 
ATOM     29  C   UNL     1     -23.521 -14.131   0.583  1.00  0.00     0.014 C 
ENDROOT
BRANCH   1  30
ATOM     30  C   UNL     1     -20.614  -4.993  -2.925  1.00  0.00     0.048 C 
ATOM     31  O   UNL     1     -21.515  -4.248  -2.450  1.00  0.00    -0.550 OA
ATOM     32  O   UNL     1     -19.341  -4.932  -2.369  1.00  0.00    -0.550 OA
ENDBRANCH   1  30
BRANCH  27  33
ATOM     33  O   UNL     1     -25.394 -13.942  -1.495  1.00  0.00    -0.393 OA
ATOM     34  H   UNL     1     -25.888 -14.797  -1.545  1.00  0.00     0.210 HD
ENDBRANCH  27  33
TORSDOF 2
ENDMDL
MODEL 8
REMARK VINA RESULT:    -6.029      3.788      5.451
REMARK INTER + INTRA:          -6.781
REMARK INTER:                  -6.560
REMARK INTRA:                  -0.221
REMARK UNBOUND:                -0.223
REMARK SMILES C[C@@H]1[C@H]2C3=CC[C@H]4[C@@]5(C)CC[C@@H](O)C(C)(C)[C@H]5CC[C@]4(C)[C@@]3(C)CC[C@@]2(C(=O)[O-])CC[C@@H]1C
REMARK SMILES IDX 26 1 30 2 25 3 3 4 31 5 24 6 4 7 2 8 32 9 22 10 5 11 1 12
REMARK SMILES IDX 33 13 23 14 20 15 6 16 7 17 19 18 21 19 8 20 18 21 17 22
REMARK SMILES IDX 10 23 9 24 14 25 11 26 12 27 15 28 16 29 27 30 28 31 29 32
REMARK SMILES IDX 13 33
REMARK H PARENT 13 34
REMARK Flexibility Score: inf
ROOT
ATOM      1  C   UNL     1     -21.189 -13.864  -3.466  1.00  0.00     0.017 C 
ATOM      2  C   UNL     1     -21.444 -15.398  -3.391  1.00  0.00     0.014 C 
ATOM      3  C   UNL     1     -22.565 -13.103  -3.414  1.00  0.00     0.014 C 
ATOM      4  C   UNL     1     -20.347 -13.495  -4.748  1.00  0.00     0.030 C 
ATOM      5  C   UNL     1     -21.999 -15.995  -4.687  1.00  0.00     0.004 C 
ATOM      6  C   UNL     1     -22.687 -11.849  -4.305  1.00  0.00     0.013 C 
ATOM      7  C   UNL     1     -20.252 -11.967  -4.931  1.00  0.00    -0.063 C 
ATOM      8  C   UNL     1     -20.840 -14.206  -6.060  1.00  0.00    -0.003 C 
ATOM      9  C   UNL     1     -21.066 -15.733  -5.872  1.00  0.00    -0.011 C 
ATOM     10  C   UNL     1     -21.376 -11.023  -4.469  1.00  0.00    -0.006 C 
ATOM     11  C   UNL     1     -19.136 -11.453  -5.501  1.00  0.00    -0.027 C 
ATOM     12  C   UNL     1     -19.896 -13.970  -7.260  1.00  0.00     0.008 C 
ATOM     13  C   UNL     1     -19.765 -16.557  -5.755  1.00  0.00     0.008 C 
ATOM     14  C   UNL     1     -20.964 -10.477  -3.052  1.00  0.00     0.017 C 
ATOM     15  C   UNL     1     -21.545  -9.837  -5.556  1.00  0.00    -0.020 C 
ATOM     16  C   UNL     1     -19.063 -10.078  -6.127  1.00  0.00     0.032 C 
ATOM     17  C   UNL     1     -20.163  -9.082  -5.652  1.00  0.00     0.006 C 
ATOM     18  C   UNL     1     -22.643  -8.820  -5.155  1.00  0.00     0.008 C 
ATOM     19  C   UNL     1     -21.977 -10.451  -6.931  1.00  0.00     0.012 C 
ATOM     20  C   UNL     1     -20.092  -7.629  -6.342  1.00  0.00    -0.025 C 
ATOM     21  C   UNL     1     -22.707  -7.627  -6.105  1.00  0.00     0.005 C 
ATOM     22  C   UNL     1     -21.413  -6.771  -6.074  1.00  0.00     0.003 C 
ATOM     23  C   UNL     1     -19.781  -7.733  -7.871  1.00  0.00     0.010 C 
ATOM     24  C   UNL     1     -18.875  -6.898  -5.669  1.00  0.00     0.012 C 
ATOM     25  C   UNL     1     -21.548  -5.431  -6.937  1.00  0.00    -0.006 C 
ATOM     26  C   UNL     1     -19.864  -6.412  -8.649  1.00  0.00     0.033 C 
ATOM     27  C   UNL     1     -21.189  -5.657  -8.442  1.00  0.00     0.120 C 
ATOM     28  C   UNL     1     -20.632  -4.309  -6.357  1.00  0.00     0.014 C 
ATOM     29  C   UNL     1     -22.985  -4.830  -6.862  1.00  0.00     0.014 C 
ENDROOT
BRANCH   1  30
ATOM     30  C   UNL     1     -20.396 -13.537  -2.199  1.00  0.00     0.048 C 
ATOM     31  O   UNL     1     -19.135 -13.576  -2.180  1.00  0.00    -0.550 OA
ATOM     32  O   UNL     1     -21.068 -13.222  -1.023  1.00  0.00    -0.550 OA
ENDBRANCH   1  30
BRANCH  27  33
ATOM     33  O   UNL     1     -22.245  -6.253  -9.162  1.00  0.00    -0.393 OA
ATOM     34  H   UNL     1     -23.108  -5.914  -8.817  1.00  0.00     0.210 HD
ENDBRANCH  27  33
TORSDOF 2
ENDMDL
