MODEL 1
REMARK VINA RESULT:    -6.815      0.000      0.000
REMARK INTER + INTRA:          -8.382
REMARK INTER:                  -8.209
REMARK INTRA:                  -0.173
REMARK UNBOUND:                -0.173
REMARK SMILES O=c1c(O)c(-c2ccc(O)c(O)c2)oc2cc(O)cc(O)c12
REMARK SMILES IDX 5 1 3 2 2 3 1 4 22 5 20 6 19 7 17 8 16 9 15 10 14 11 6 12
REMARK SMILES IDX 7 13 8 14 9 15 13 16 11 17 10 18 12 20 4 22 21 24 18 26
REMARK H PARENT 10 19 12 21 4 23 21 25 18 27
REMARK Flexibility Score: inf
ROOT
ATOM      1  C   UNL     1     -16.000  14.689  -8.405  1.00  0.00     0.180 A 
ATOM      2  C   UNL     1     -14.696  15.177  -8.617  1.00  0.00     0.208 A 
ATOM      3  C   UNL     1     -14.069  15.899  -7.590  1.00  0.00     0.238 A 
ATOM      4  O   UNL     1     -12.896  16.332  -7.764  1.00  0.00    -0.285 OA
ATOM      5  C   UNL     1     -14.757  16.138  -6.383  1.00  0.00     0.111 A 
ATOM      6  C   UNL     1     -14.197  16.859  -5.302  1.00  0.00     0.134 A 
ATOM      7  C   UNL     1     -14.950  17.062  -4.136  1.00  0.00     0.093 A 
ATOM      8  C   UNL     1     -16.252  16.559  -4.032  1.00  0.00     0.123 A 
ATOM      9  C   UNL     1     -16.809  15.847  -5.096  1.00  0.00     0.094 A 
ATOM     10  C   UNL     1     -16.073  15.632  -6.266  1.00  0.00     0.146 A 
ATOM     11  O   UNL     1     -16.625  14.946  -7.260  1.00  0.00    -0.452 OA
ENDROOT
BRANCH   1  12
ATOM     12  C   UNL     1     -16.722  13.903  -9.432  1.00  0.00     0.025 A 
ATOM     13  C   UNL     1     -17.936  14.387  -9.945  1.00  0.00     0.016 A 
ATOM     14  C   UNL     1     -18.644  13.653 -10.899  1.00  0.00     0.051 A 
ATOM     15  C   UNL     1     -18.161  12.419 -11.345  1.00  0.00     0.157 A 
ATOM     16  C   UNL     1     -16.248  12.652  -9.866  1.00  0.00     0.062 A 
ATOM     17  C   UNL     1     -16.958  11.913 -10.823  1.00  0.00     0.158 A 
BRANCH  15  18
ATOM     18  O   UNL     1     -18.888  11.710 -12.299  1.00  0.00    -0.504 OA
ATOM     19  H   UNL     1     -19.504  10.945 -12.047  1.00  0.00     0.293 HD
ENDBRANCH  15  18
BRANCH  17  20
ATOM     20  O   UNL     1     -16.478  10.677 -11.250  1.00  0.00    -0.504 OA
ATOM     21  H   UNL     1     -16.307   9.918 -10.599  1.00  0.00     0.293 HD
ENDBRANCH  17  20
ENDBRANCH   1  12
BRANCH   2  22
ATOM     22  O   UNL     1     -14.054  14.970  -9.841  1.00  0.00    -0.502 OA
ATOM     23  H   UNL     1     -13.088  15.231  -9.998  1.00  0.00     0.293 HD
ENDBRANCH   2  22
BRANCH   6  24
ATOM     24  O   UNL     1     -12.901  17.374  -5.376  1.00  0.00    -0.507 OA
ATOM     25  H   UNL     1     -12.319  17.474  -4.553  1.00  0.00     0.293 HD
ENDBRANCH   6  24
BRANCH   8  26
ATOM     26  O   UNL     1     -17.001  16.762  -2.876  1.00  0.00    -0.508 OA
ATOM     27  H   UNL     1     -16.575  16.732  -1.956  1.00  0.00     0.293 HD
ENDBRANCH   8  26
TORSDOF 6
ENDMDL
MODEL 2
REMARK VINA RESULT:    -6.721      2.322      3.863
REMARK INTER + INTRA:          -8.269
REMARK INTER:                  -7.982
REMARK INTRA:                  -0.287
REMARK UNBOUND:                -0.173
REMARK SMILES O=c1c(O)c(-c2ccc(O)c(O)c2)oc2cc(O)cc(O)c12
REMARK SMILES IDX 5 1 3 2 2 3 1 4 22 5 20 6 19 7 17 8 16 9 15 10 14 11 6 12
REMARK SMILES IDX 7 13 8 14 9 15 13 16 11 17 10 18 12 20 4 22 21 24 18 26
REMARK H PARENT 10 19 12 21 4 23 21 25 18 27
REMARK Flexibility Score: inf
ROOT
ATOM      1  C   UNL     1     -17.597  13.748  -8.208  1.00  0.00     0.180 A 
ATOM      2  C   UNL     1     -17.889  14.459  -7.028  1.00  0.00     0.208 A 
ATOM      3  C   UNL     1     -17.012  15.472  -6.613  1.00  0.00     0.238 A 
ATOM      4  O   UNL     1     -17.269  16.124  -5.563  1.00  0.00    -0.285 OA
ATOM      5  C   UNL     1     -15.853  15.746  -7.369  1.00  0.00     0.111 A 
ATOM      6  C   UNL     1     -14.918  16.747  -7.018  1.00  0.00     0.134 A 
ATOM      7  C   UNL     1     -13.784  16.952  -7.818  1.00  0.00     0.093 A 
ATOM      8  C   UNL     1     -13.568  16.174  -8.961  1.00  0.00     0.123 A 
ATOM      9  C   UNL     1     -14.488  15.184  -9.311  1.00  0.00     0.094 A 
ATOM     10  C   UNL     1     -15.626  14.966  -8.528  1.00  0.00     0.146 A 
ATOM     11  O   UNL     1     -16.488  14.022  -8.888  1.00  0.00    -0.452 OA
ENDROOT
BRANCH   1  12
ATOM     12  C   UNL     1     -18.483  12.678  -8.721  1.00  0.00     0.025 A 
ATOM     13  C   UNL     1     -19.390  12.968  -9.753  1.00  0.00     0.016 A 
ATOM     14  C   UNL     1     -20.249  11.980 -10.239  1.00  0.00     0.051 A 
ATOM     15  C   UNL     1     -20.229  10.693  -9.692  1.00  0.00     0.157 A 
ATOM     16  C   UNL     1     -18.479  11.389  -8.158  1.00  0.00     0.062 A 
ATOM     17  C   UNL     1     -19.343  10.397  -8.643  1.00  0.00     0.158 A 
BRANCH  15  18
ATOM     18  O   UNL     1     -21.098   9.727 -10.198  1.00  0.00    -0.504 OA
ATOM     19  H   UNL     1     -22.104   9.841 -10.169  1.00  0.00     0.293 HD
ENDBRANCH  15  18
BRANCH  17  20
ATOM     20  O   UNL     1     -19.328   9.121  -8.082  1.00  0.00    -0.504 OA
ATOM     21  H   UNL     1     -19.193   8.978  -7.088  1.00  0.00     0.293 HD
ENDBRANCH  17  20
ENDBRANCH   1  12
BRANCH   2  22
ATOM     22  O   UNL     1     -19.018  14.136  -6.270  1.00  0.00    -0.502 OA
ATOM     23  H   UNL     1     -19.064  14.294  -5.271  1.00  0.00     0.293 HD
ENDBRANCH   2  22
BRANCH   6  24
ATOM     24  O   UNL     1     -15.105  17.539  -5.883  1.00  0.00    -0.507 OA
ATOM     25  H   UNL     1     -14.599  18.407  -5.749  1.00  0.00     0.293 HD
ENDBRANCH   6  24
BRANCH   8  26
ATOM     26  O   UNL     1     -12.442  16.375  -9.754  1.00  0.00    -0.508 OA
ATOM     27  H   UNL     1     -11.605  15.815  -9.638  1.00  0.00     0.293 HD
ENDBRANCH   8  26
TORSDOF 6
ENDMDL
MODEL 3
REMARK VINA RESULT:    -6.586      1.953      7.304
REMARK INTER + INTRA:          -8.107
REMARK INTER:                  -7.792
REMARK INTRA:                  -0.316
REMARK UNBOUND:                -0.173
REMARK SMILES O=c1c(O)c(-c2ccc(O)c(O)c2)oc2cc(O)cc(O)c12
REMARK SMILES IDX 5 1 3 2 2 3 1 4 22 5 20 6 19 7 17 8 16 9 15 10 14 11 6 12
REMARK SMILES IDX 7 13 8 14 9 15 13 16 11 17 10 18 12 20 4 22 21 24 18 26
REMARK H PARENT 10 19 12 21 4 23 21 25 18 27
REMARK Flexibility Score: inf
ROOT
ATOM      1  C   UNL     1     -16.563  14.840  -7.113  1.00  0.00     0.180 A 
ATOM      2  C   UNL     1     -17.844  14.261  -7.027  1.00  0.00     0.208 A 
ATOM      3  C   UNL     1     -18.217  13.300  -7.979  1.00  0.00     0.238 A 
ATOM      4  O   UNL     1     -19.358  12.765  -7.906  1.00  0.00    -0.285 OA
ATOM      5  C   UNL     1     -17.318  12.949  -9.007  1.00  0.00     0.111 A 
ATOM      6  C   UNL     1     -17.619  11.993 -10.006  1.00  0.00     0.134 A 
ATOM      7  C   UNL     1     -16.674  11.706 -11.002  1.00  0.00     0.093 A 
ATOM      8  C   UNL     1     -15.435  12.357 -11.017  1.00  0.00     0.123 A 
ATOM      9  C   UNL     1     -15.134  13.301 -10.033  1.00  0.00     0.094 A 
ATOM     10  C   UNL     1     -16.062  13.599  -9.031  1.00  0.00     0.146 A 
ATOM     11  O   UNL     1     -15.747  14.497  -8.105  1.00  0.00    -0.452 OA
ENDROOT
BRANCH   1  12
ATOM     12  C   UNL     1     -16.089  15.847  -6.135  1.00  0.00     0.025 A 
ATOM     13  C   UNL     1     -15.359  15.427  -5.011  1.00  0.00     0.016 A 
ATOM     14  C   UNL     1     -14.919  16.356  -4.065  1.00  0.00     0.051 A 
ATOM     15  C   UNL     1     -15.213  17.714  -4.218  1.00  0.00     0.157 A 
ATOM     16  C   UNL     1     -16.401  17.210  -6.276  1.00  0.00     0.062 A 
ATOM     17  C   UNL     1     -15.961  18.144  -5.327  1.00  0.00     0.158 A 
BRANCH  15  18
ATOM     18  O   UNL     1     -14.759  18.618  -3.259  1.00  0.00    -0.504 OA
ATOM     19  H   UNL     1     -15.388  19.247  -2.773  1.00  0.00     0.293 HD
ENDBRANCH  15  18
BRANCH  17  20
ATOM     20  O   UNL     1     -16.271  19.495  -5.478  1.00  0.00    -0.504 OA
ATOM     21  H   UNL     1     -17.231  19.817  -5.533  1.00  0.00     0.293 HD
ENDBRANCH  17  20
ENDBRANCH   1  12
BRANCH   2  22
ATOM     22  O   UNL     1     -18.735  14.661  -6.027  1.00  0.00    -0.502 OA
ATOM     23  H   UNL     1     -18.430  14.895  -5.090  1.00  0.00     0.293 HD
ENDBRANCH   2  22
BRANCH   6  24
ATOM     24  O   UNL     1     -18.847  11.328 -10.018  1.00  0.00    -0.507 OA
ATOM     25  H   UNL     1     -19.023  10.546 -10.637  1.00  0.00     0.293 HD
ENDBRANCH   6  24
BRANCH   8  26
ATOM     26  O   UNL     1     -14.497  12.074 -12.006  1.00  0.00    -0.508 OA
ATOM     27  H   UNL     1     -14.742  12.088 -12.990  1.00  0.00     0.293 HD
ENDBRANCH   8  26
TORSDOF 6
ENDMDL
MODEL 4
REMARK VINA RESULT:    -6.437      1.140      1.141
REMARK INTER + INTRA:          -7.928
REMARK INTER:                  -7.714
REMARK INTRA:                  -0.214
REMARK UNBOUND:                -0.173
REMARK SMILES O=c1c(O)c(-c2ccc(O)c(O)c2)oc2cc(O)cc(O)c12
REMARK SMILES IDX 5 1 3 2 2 3 1 4 22 5 20 6 19 7 17 8 16 9 15 10 14 11 6 12
REMARK SMILES IDX 7 13 8 14 9 15 13 16 11 17 10 18 12 20 4 22 21 24 18 26
REMARK H PARENT 10 19 12 21 4 23 21 25 18 27
REMARK Flexibility Score: inf
ROOT
ATOM      1  C   UNL     1     -16.523  14.373  -8.183  1.00  0.00     0.180 A 
ATOM      2  C   UNL     1     -15.226  14.733  -8.595  1.00  0.00     0.208 A 
ATOM      3  C   UNL     1     -14.437  15.519  -7.740  1.00  0.00     0.238 A 
ATOM      4  O   UNL     1     -13.269  15.838  -8.093  1.00  0.00    -0.285 OA
ATOM      5  C   UNL     1     -14.962  15.947  -6.503  1.00  0.00     0.111 A 
ATOM      6  C   UNL     1     -14.235  16.744  -5.587  1.00  0.00     0.134 A 
ATOM      7  C   UNL     1     -14.831  17.137  -4.380  1.00  0.00     0.093 A 
ATOM      8  C   UNL     1     -16.140  16.749  -4.072  1.00  0.00     0.123 A 
ATOM      9  C   UNL     1     -16.862  15.963  -4.973  1.00  0.00     0.094 A 
ATOM     10  C   UNL     1     -16.284  15.559  -6.181  1.00  0.00     0.146 A 
ATOM     11  O   UNL     1     -16.991  14.807  -7.016  1.00  0.00    -0.452 OA
ENDROOT
BRANCH   1  12
ATOM     12  C   UNL     1     -17.408  13.530  -9.019  1.00  0.00     0.025 A 
ATOM     13  C   UNL     1     -17.968  14.068 -10.189  1.00  0.00     0.016 A 
ATOM     14  C   UNL     1     -18.822  13.298 -10.984  1.00  0.00     0.051 A 
ATOM     15  C   UNL     1     -19.142  11.989 -10.614  1.00  0.00     0.157 A 
ATOM     16  C   UNL     1     -17.748  12.220  -8.638  1.00  0.00     0.062 A 
ATOM     17  C   UNL     1     -18.607  11.447  -9.434  1.00  0.00     0.158 A 
BRANCH  15  18
ATOM     18  O   UNL     1     -19.996  11.244 -11.428  1.00  0.00    -0.504 OA
ATOM     19  H   UNL     1     -19.837  10.262 -11.617  1.00  0.00     0.293 HD
ENDBRANCH  15  18
BRANCH  17  20
ATOM     20  O   UNL     1     -18.934  10.147  -9.051  1.00  0.00    -0.504 OA
ATOM     21  H   UNL     1     -18.695   9.347  -9.627  1.00  0.00     0.293 HD
ENDBRANCH  17  20
ENDBRANCH   1  12
BRANCH   2  22
ATOM     22  O   UNL     1     -14.747  14.337  -9.846  1.00  0.00    -0.502 OA
ATOM     23  H   UNL     1     -15.192  13.609 -10.393  1.00  0.00     0.293 HD
ENDBRANCH   2  22
BRANCH   6  24
ATOM     24  O   UNL     1     -12.928  17.147  -5.866  1.00  0.00    -0.507 OA
ATOM     25  H   UNL     1     -12.476  16.922  -6.745  1.00  0.00     0.293 HD
ENDBRANCH   6  24
BRANCH   8  26
ATOM     26  O   UNL     1     -16.733  17.140  -2.875  1.00  0.00    -0.508 OA
ATOM     27  H   UNL     1     -16.725  18.107  -2.570  1.00  0.00     0.293 HD
ENDBRANCH   8  26
TORSDOF 6
ENDMDL
MODEL 5
REMARK VINA RESULT:    -6.419      2.033      6.747
REMARK INTER + INTRA:          -7.905
REMARK INTER:                  -7.577
REMARK INTRA:                  -0.329
REMARK UNBOUND:                -0.173
REMARK SMILES O=c1c(O)c(-c2ccc(O)c(O)c2)oc2cc(O)cc(O)c12
REMARK SMILES IDX 5 1 3 2 2 3 1 4 22 5 20 6 19 7 17 8 16 9 15 10 14 11 6 12
REMARK SMILES IDX 7 13 8 14 9 15 13 16 11 17 10 18 12 20 4 22 21 24 18 26
REMARK H PARENT 10 19 12 21 4 23 21 25 18 27
REMARK Flexibility Score: inf
ROOT
ATOM      1  C   UNL     1     -16.371  14.814  -7.429  1.00  0.00     0.180 A 
ATOM      2  C   UNL     1     -15.493  14.517  -8.490  1.00  0.00     0.208 A 
ATOM      3  C   UNL     1     -15.858  13.526  -9.414  1.00  0.00     0.238 A 
ATOM      4  O   UNL     1     -15.084  13.259 -10.374  1.00  0.00    -0.285 OA
ATOM      5  C   UNL     1     -17.078  12.836  -9.254  1.00  0.00     0.111 A 
ATOM      6  C   UNL     1     -17.516  11.822 -10.138  1.00  0.00     0.134 A 
ATOM      7  C   UNL     1     -18.739  11.177  -9.904  1.00  0.00     0.093 A 
ATOM      8  C   UNL     1     -19.531  11.525  -8.804  1.00  0.00     0.123 A 
ATOM      9  C   UNL     1     -19.102  12.525  -7.929  1.00  0.00     0.094 A 
ATOM     10  C   UNL     1     -17.887  13.182  -8.145  1.00  0.00     0.146 A 
ATOM     11  O   UNL     1     -17.507  14.133  -7.301  1.00  0.00    -0.452 OA
ENDROOT
BRANCH   1  12
ATOM     12  C   UNL     1     -16.067  15.859  -6.426  1.00  0.00     0.025 A 
ATOM     13  C   UNL     1     -15.520  15.488  -5.187  1.00  0.00     0.016 A 
ATOM     14  C   UNL     1     -15.244  16.454  -4.217  1.00  0.00     0.051 A 
ATOM     15  C   UNL     1     -15.523  17.802  -4.461  1.00  0.00     0.157 A 
ATOM     16  C   UNL     1     -16.367  17.212  -6.662  1.00  0.00     0.062 A 
ATOM     17  C   UNL     1     -16.091  18.184  -5.688  1.00  0.00     0.158 A 
BRANCH  15  18
ATOM     18  O   UNL     1     -15.235  18.744  -3.475  1.00  0.00    -0.504 OA
ATOM     19  H   UNL     1     -14.374  18.717  -2.941  1.00  0.00     0.293 HD
ENDBRANCH  15  18
BRANCH  17  20
ATOM     20  O   UNL     1     -16.386  19.524  -5.934  1.00  0.00    -0.504 OA
ATOM     21  H   UNL     1     -17.173  19.985  -5.490  1.00  0.00     0.293 HD
ENDBRANCH  17  20
ENDBRANCH   1  12
BRANCH   2  22
ATOM     22  O   UNL     1     -14.268  15.180  -8.599  1.00  0.00    -0.502 OA
ATOM     23  H   UNL     1     -14.140  15.991  -9.192  1.00  0.00     0.293 HD
ENDBRANCH   2  22
BRANCH   6  24
ATOM     24  O   UNL     1     -16.748  11.452 -11.243  1.00  0.00    -0.507 OA
ATOM     25  H   UNL     1     -15.747  11.312 -11.175  1.00  0.00     0.293 HD
ENDBRANCH   6  24
BRANCH   8  26
ATOM     26  O   UNL     1     -20.744  10.883  -8.571  1.00  0.00    -0.508 OA
ATOM     27  H   UNL     1     -21.179  10.887  -7.655  1.00  0.00     0.293 HD
ENDBRANCH   8  26
TORSDOF 6
ENDMDL
MODEL 6
REMARK VINA RESULT:    -6.174      2.066      7.253
REMARK INTER + INTRA:          -7.611
REMARK INTER:                  -7.429
REMARK INTRA:                  -0.182
REMARK UNBOUND:                -0.173
REMARK SMILES O=c1c(O)c(-c2ccc(O)c(O)c2)oc2cc(O)cc(O)c12
REMARK SMILES IDX 5 1 3 2 2 3 1 4 22 5 20 6 19 7 17 8 16 9 15 10 14 11 6 12
REMARK SMILES IDX 7 13 8 14 9 15 13 16 11 17 10 18 12 20 4 22 21 24 18 26
REMARK H PARENT 10 19 12 21 4 23 21 25 18 27
REMARK Flexibility Score: inf
ROOT
ATOM      1  C   UNL     1     -16.806  14.535  -7.185  1.00  0.00     0.180 A 
ATOM      2  C   UNL     1     -17.746  13.849  -6.391  1.00  0.00     0.208 A 
ATOM      3  C   UNL     1     -18.785  13.150  -7.024  1.00  0.00     0.238 A 
ATOM      4  O   UNL     1     -19.627  12.523  -6.324  1.00  0.00    -0.285 OA
ATOM      5  C   UNL     1     -18.880  13.164  -8.431  1.00  0.00     0.111 A 
ATOM      6  C   UNL     1     -19.899  12.489  -9.145  1.00  0.00     0.134 A 
ATOM      7  C   UNL     1     -19.930  12.559 -10.545  1.00  0.00     0.093 A 
ATOM      8  C   UNL     1     -18.964  13.291 -11.244  1.00  0.00     0.123 A 
ATOM      9  C   UNL     1     -17.957  13.958 -10.544  1.00  0.00     0.094 A 
ATOM     10  C   UNL     1     -17.907  13.900  -9.148  1.00  0.00     0.146 A 
ATOM     11  O   UNL     1     -16.935  14.539  -8.508  1.00  0.00    -0.452 OA
ENDROOT
BRANCH   1  12
ATOM     12  C   UNL     1     -15.671  15.279  -6.592  1.00  0.00     0.025 A 
ATOM     13  C   UNL     1     -14.363  14.799  -6.769  1.00  0.00     0.016 A 
ATOM     14  C   UNL     1     -13.279  15.472  -6.202  1.00  0.00     0.051 A 
ATOM     15  C   UNL     1     -13.483  16.626  -5.439  1.00  0.00     0.157 A 
ATOM     16  C   UNL     1     -15.876  16.427  -5.806  1.00  0.00     0.062 A 
ATOM     17  C   UNL     1     -14.788  17.104  -5.235  1.00  0.00     0.158 A 
BRANCH  15  18
ATOM     18  O   UNL     1     -12.381  17.278  -4.887  1.00  0.00    -0.504 OA
ATOM     19  H   UNL     1     -11.768  17.861  -5.443  1.00  0.00     0.293 HD
ENDBRANCH  15  18
BRANCH  17  20
ATOM     20  O   UNL     1     -15.001  18.244  -4.462  1.00  0.00    -0.504 OA
ATOM     21  H   UNL     1     -15.387  19.093  -4.861  1.00  0.00     0.293 HD
ENDBRANCH  17  20
ENDBRANCH   1  12
BRANCH   2  22
ATOM     22  O   UNL     1     -17.658  13.892  -4.997  1.00  0.00    -0.502 OA
ATOM     23  H   UNL     1     -18.472  13.815  -4.399  1.00  0.00     0.293 HD
ENDBRANCH   2  22
BRANCH   6  24
ATOM     24  O   UNL     1     -20.877  11.751  -8.476  1.00  0.00    -0.507 OA
ATOM     25  H   UNL     1     -21.470  11.088  -8.961  1.00  0.00     0.293 HD
ENDBRANCH   6  24
BRANCH   8  26
ATOM     26  O   UNL     1     -18.995  13.362 -12.635  1.00  0.00    -0.508 OA
ATOM     27  H   UNL     1     -19.239  12.557 -13.201  1.00  0.00     0.293 HD
ENDBRANCH   8  26
TORSDOF 6
ENDMDL
MODEL 7
REMARK VINA RESULT:    -6.073      1.270      3.066
REMARK INTER + INTRA:          -7.489
REMARK INTER:                  -7.390
REMARK INTRA:                  -0.099
REMARK UNBOUND:                -0.173
REMARK SMILES O=c1c(O)c(-c2ccc(O)c(O)c2)oc2cc(O)cc(O)c12
REMARK SMILES IDX 5 1 3 2 2 3 1 4 22 5 20 6 19 7 17 8 16 9 15 10 14 11 6 12
REMARK SMILES IDX 7 13 8 14 9 15 13 16 11 17 10 18 12 20 4 22 21 24 18 26
REMARK H PARENT 10 19 12 21 4 23 21 25 18 27
REMARK Flexibility Score: inf
ROOT
ATOM      1  C   UNL     1     -17.365  14.346  -7.518  1.00  0.00     0.180 A 
ATOM      2  C   UNL     1     -18.174  14.359  -6.366  1.00  0.00     0.208 A 
ATOM      3  C   UNL     1     -17.686  14.974  -5.203  1.00  0.00     0.238 A 
ATOM      4  O   UNL     1     -18.406  15.002  -4.167  1.00  0.00    -0.285 OA
ATOM      5  C   UNL     1     -16.397  15.546  -5.204  1.00  0.00     0.111 A 
ATOM      6  C   UNL     1     -15.830  16.181  -4.073  1.00  0.00     0.134 A 
ATOM      7  C   UNL     1     -14.536  16.718  -4.152  1.00  0.00     0.093 A 
ATOM      8  C   UNL     1     -13.800  16.631  -5.339  1.00  0.00     0.123 A 
ATOM      9  C   UNL     1     -14.355  16.005  -6.457  1.00  0.00     0.094 A 
ATOM     10  C   UNL     1     -15.643  15.466  -6.399  1.00  0.00     0.146 A 
ATOM     11  O   UNL     1     -16.149  14.882  -7.479  1.00  0.00    -0.452 OA
ENDROOT
BRANCH   1  12
ATOM     12  C   UNL     1     -17.817  13.733  -8.789  1.00  0.00     0.025 A 
ATOM     13  C   UNL     1     -18.989  14.203  -9.403  1.00  0.00     0.016 A 
ATOM     14  C   UNL     1     -19.446  13.627 -10.590  1.00  0.00     0.051 A 
ATOM     15  C   UNL     1     -18.751  12.565 -11.175  1.00  0.00     0.157 A 
ATOM     16  C   UNL     1     -17.131  12.651  -9.366  1.00  0.00     0.062 A 
ATOM     17  C   UNL     1     -17.589  12.070 -10.558  1.00  0.00     0.158 A 
BRANCH  15  18
ATOM     18  O   UNL     1     -19.230  12.011 -12.361  1.00  0.00    -0.504 OA
ATOM     19  H   UNL     1     -20.201  12.089 -12.637  1.00  0.00     0.293 HD
ENDBRANCH  15  18
BRANCH  17  20
ATOM     20  O   UNL     1     -16.898  11.001 -11.127  1.00  0.00    -0.504 OA
ATOM     21  H   UNL     1     -16.641  10.995 -12.107  1.00  0.00     0.293 HD
ENDBRANCH  17  20
ENDBRANCH   1  12
BRANCH   2  22
ATOM     22  O   UNL     1     -19.428  13.742  -6.375  1.00  0.00    -0.502 OA
ATOM     23  H   UNL     1     -20.138  13.967  -7.062  1.00  0.00     0.293 HD
ENDBRANCH   2  22
BRANCH   6  24
ATOM     24  O   UNL     1     -16.540  16.283  -2.876  1.00  0.00    -0.507 OA
ATOM     25  H   UNL     1     -17.552  16.331  -2.858  1.00  0.00     0.293 HD
ENDBRANCH   6  24
BRANCH   8  26
ATOM     26  O   UNL     1     -12.515  17.162  -5.417  1.00  0.00    -0.508 OA
ATOM     27  H   UNL     1     -12.143  17.526  -6.287  1.00  0.00     0.293 HD
ENDBRANCH   8  26
TORSDOF 6
ENDMDL
MODEL 8
REMARK VINA RESULT:    -5.915     15.244     17.520
REMARK INTER + INTRA:          -7.299
REMARK INTER:                  -7.186
REMARK INTRA:                  -0.113
REMARK UNBOUND:                -0.173
REMARK SMILES O=c1c(O)c(-c2ccc(O)c(O)c2)oc2cc(O)cc(O)c12
REMARK SMILES IDX 5 1 3 2 2 3 1 4 22 5 20 6 19 7 17 8 16 9 15 10 14 11 6 12
REMARK SMILES IDX 7 13 8 14 9 15 13 16 11 17 10 18 12 20 4 22 21 24 18 26
REMARK H PARENT 10 19 12 21 4 23 21 25 18 27
REMARK Flexibility Score: inf
ROOT
ATOM      1  C   UNL     1      -5.161   5.158 -18.165  1.00  0.00     0.180 A 
ATOM      2  C   UNL     1      -3.816   4.743 -18.184  1.00  0.00     0.208 A 
ATOM      3  C   UNL     1      -3.116   4.658 -16.970  1.00  0.00     0.238 A 
ATOM      4  O   UNL     1      -1.913   4.276 -16.974  1.00  0.00    -0.285 OA
ATOM      5  C   UNL     1      -3.762   5.006 -15.766  1.00  0.00     0.111 A 
ATOM      6  C   UNL     1      -3.127   4.952 -14.503  1.00  0.00     0.134 A 
ATOM      7  C   UNL     1      -3.835   5.324 -13.351  1.00  0.00     0.093 A 
ATOM      8  C   UNL     1      -5.165   5.750 -13.439  1.00  0.00     0.123 A 
ATOM      9  C   UNL     1      -5.796   5.806 -14.683  1.00  0.00     0.094 A 
ATOM     10  C   UNL     1      -5.108   5.437 -15.843  1.00  0.00     0.146 A 
ATOM     11  O   UNL     1      -5.734   5.493 -17.013  1.00  0.00    -0.452 OA
ENDROOT
BRANCH   1  12
ATOM     12  C   UNL     1      -5.972   5.254 -19.401  1.00  0.00     0.025 A 
ATOM     13  C   UNL     1      -5.589   6.153 -20.409  1.00  0.00     0.016 A 
ATOM     14  C   UNL     1      -6.349   6.276 -21.574  1.00  0.00     0.051 A 
ATOM     15  C   UNL     1      -7.510   5.516 -21.745  1.00  0.00     0.157 A 
ATOM     16  C   UNL     1      -7.151   4.506 -19.565  1.00  0.00     0.062 A 
ATOM     17  C   UNL     1      -7.917   4.630 -20.734  1.00  0.00     0.158 A 
BRANCH  15  18
ATOM     18  O   UNL     1      -8.248   5.659 -22.919  1.00  0.00    -0.504 OA
ATOM     19  H   UNL     1      -8.461   4.871 -23.519  1.00  0.00     0.293 HD
ENDBRANCH  15  18
BRANCH  17  20
ATOM     20  O   UNL     1      -9.081   3.880 -20.890  1.00  0.00    -0.504 OA
ATOM     21  H   UNL     1      -9.285   3.084 -20.295  1.00  0.00     0.293 HD
ENDBRANCH  17  20
ENDBRANCH   1  12
BRANCH   2  22
ATOM     22  O   UNL     1      -3.184   4.450 -19.396  1.00  0.00    -0.502 OA
ATOM     23  H   UNL     1      -2.925   3.507 -19.658  1.00  0.00     0.293 HD
ENDBRANCH   2  22
BRANCH   6  24
ATOM     24  O   UNL     1      -1.801   4.532 -14.383  1.00  0.00    -0.507 OA
ATOM     25  H   UNL     1      -1.275   4.193 -15.180  1.00  0.00     0.293 HD
ENDBRANCH   6  24
BRANCH   8  26
ATOM     26  O   UNL     1      -5.869   6.122 -12.296  1.00  0.00    -0.508 OA
ATOM     27  H   UNL     1      -5.593   5.800 -11.376  1.00  0.00     0.293 HD
ENDBRANCH   8  26
TORSDOF 6
ENDMDL
MODEL 9
REMARK VINA RESULT:    -5.818     15.369     18.619
REMARK INTER + INTRA:          -7.181
REMARK INTER:                  -7.004
REMARK INTRA:                  -0.178
REMARK UNBOUND:                -0.173
REMARK SMILES O=c1c(O)c(-c2ccc(O)c(O)c2)oc2cc(O)cc(O)c12
REMARK SMILES IDX 5 1 3 2 2 3 1 4 22 5 20 6 19 7 17 8 16 9 15 10 14 11 6 12
REMARK SMILES IDX 7 13 8 14 9 15 13 16 11 17 10 18 12 20 4 22 21 24 18 26
REMARK H PARENT 10 19 12 21 4 23 21 25 18 27
REMARK Flexibility Score: inf
ROOT
ATOM      1  C   UNL     1      -4.713   5.313 -17.403  1.00  0.00     0.180 A 
ATOM      2  C   UNL     1      -3.638   5.784 -18.180  1.00  0.00     0.208 A 
ATOM      3  C   UNL     1      -3.812   5.921 -19.566  1.00  0.00     0.238 A 
ATOM      4  O   UNL     1      -2.859   6.353 -20.271  1.00  0.00    -0.285 OA
ATOM      5  C   UNL     1      -5.045   5.568 -20.152  1.00  0.00     0.111 A 
ATOM      6  C   UNL     1      -5.301   5.673 -21.540  1.00  0.00     0.134 A 
ATOM      7  C   UNL     1      -6.552   5.292 -22.048  1.00  0.00     0.093 A 
ATOM      8  C   UNL     1      -7.550   4.809 -21.195  1.00  0.00     0.123 A 
ATOM      9  C   UNL     1      -7.303   4.704 -19.825  1.00  0.00     0.094 A 
ATOM     10  C   UNL     1      -6.063   5.080 -19.299  1.00  0.00     0.146 A 
ATOM     11  O   UNL     1      -5.857   4.976 -17.991  1.00  0.00    -0.452 OA
ENDROOT
BRANCH   1  12
ATOM     12  C   UNL     1      -4.613   5.160 -15.933  1.00  0.00     0.025 A 
ATOM     13  C   UNL     1      -3.764   4.178 -15.398  1.00  0.00     0.016 A 
ATOM     14  C   UNL     1      -3.669   4.001 -14.016  1.00  0.00     0.051 A 
ATOM     15  C   UNL     1      -4.430   4.790 -13.148  1.00  0.00     0.157 A 
ATOM     16  C   UNL     1      -5.394   5.937 -15.060  1.00  0.00     0.062 A 
ATOM     17  C   UNL     1      -5.301   5.760 -13.671  1.00  0.00     0.158 A 
BRANCH  15  18
ATOM     18  O   UNL     1      -4.313   4.592 -11.773  1.00  0.00    -0.504 OA
ATOM     19  H   UNL     1      -4.326   5.363 -11.115  1.00  0.00     0.293 HD
ENDBRANCH  15  18
BRANCH  17  20
ATOM     20  O   UNL     1      -6.074   6.540 -12.813  1.00  0.00    -0.504 OA
ATOM     21  H   UNL     1      -6.421   6.177 -11.932  1.00  0.00     0.293 HD
ENDBRANCH  17  20
ENDBRANCH   1  12
BRANCH   2  22
ATOM     22  O   UNL     1      -2.410   6.081 -17.582  1.00  0.00    -0.502 OA
ATOM     23  H   UNL     1      -2.056   7.027 -17.509  1.00  0.00     0.293 HD
ENDBRANCH   2  22
BRANCH   6  24
ATOM     24  O   UNL     1      -4.324   6.150 -22.416  1.00  0.00    -0.507 OA
ATOM     25  H   UNL     1      -4.558   6.483 -23.344  1.00  0.00     0.293 HD
ENDBRANCH   6  24
BRANCH   8  26
ATOM     26  O   UNL     1      -8.792   4.430 -21.699  1.00  0.00    -0.508 OA
ATOM     27  H   UNL     1      -9.348   3.709 -21.252  1.00  0.00     0.293 HD
ENDBRANCH   8  26
TORSDOF 6
ENDMDL
