MODEL 1
REMARK VINA RESULT:    -3.878      0.000      0.000
REMARK INTER + INTRA:          -7.452
REMARK INTER:                  -6.145
REMARK INTRA:                  -1.307
REMARK UNBOUND:                -1.307
REMARK SMILES CCCCCCCCCCCC(=O)[O-]
REMARK SMILES IDX 7 1 8 2 9 3 10 4 11 5 12 6 13 7 14 8 6 9 5 10 4 11 3 12 2 13
REMARK SMILES IDX 1 14
REMARK H PARENT
REMARK Flexibility Score: inf
ROOT
ATOM      1  C   UNL     1     -33.876  12.612  13.329  1.00  0.00     0.000 C 
ENDROOT
BRANCH   1   2
ATOM      2  C   UNL     1     -32.999  11.528  13.981  1.00  0.00     0.000 C 
BRANCH   2   3
ATOM      3  C   UNL     1     -32.666  10.378  13.016  1.00  0.00     0.000 C 
BRANCH   3   4
ATOM      4  C   UNL     1     -31.172  10.318  12.658  1.00  0.00     0.006 C 
BRANCH   4   5
ATOM      5  C   UNL     1     -30.297  11.021  13.704  1.00  0.00     0.053 C 
BRANCH   5   6
ATOM      6  C   UNL     1     -28.984  11.458  13.131  1.00  0.00     0.041 C 
ATOM      7  O   UNL     1     -28.491  12.572  13.449  1.00  0.00    -0.550 OA
ATOM      8  O   UNL     1     -28.289  10.620  12.268  1.00  0.00    -0.550 OA
ENDBRANCH   5   6
ENDBRANCH   4   5
ENDBRANCH   3   4
ENDBRANCH   2   3
ENDBRANCH   1   2
BRANCH   1   9
ATOM      9  C   UNL     1     -33.359  14.033  13.603  1.00  0.00     0.000 C 
BRANCH   9  10
ATOM     10  C   UNL     1     -31.925  14.253  13.096  1.00  0.00    -0.000 C 
BRANCH  10  11
ATOM     11  C   UNL     1     -31.083  14.998  14.142  1.00  0.00    -0.000 C 
BRANCH  11  12
ATOM     12  C   UNL     1     -30.762  14.138  15.379  1.00  0.00    -0.000 C 
BRANCH  12  13
ATOM     13  C   UNL     1     -31.278  14.707  16.713  1.00  0.00    -0.003 C 
ATOM     14  C   UNL     1     -32.434  13.899  17.299  1.00  0.00     0.004 C 
ENDBRANCH  12  13
ENDBRANCH  11  12
ENDBRANCH  10  11
ENDBRANCH   9  10
ENDBRANCH   1   9
TORSDOF 10
ENDMDL
MODEL 2
REMARK VINA RESULT:    -3.804      0.893      1.430
REMARK INTER + INTRA:          -7.334
REMARK INTER:                  -6.169
REMARK INTRA:                  -1.165
REMARK UNBOUND:                -1.307
REMARK SMILES CCCCCCCCCCCC(=O)[O-]
REMARK SMILES IDX 7 1 8 2 9 3 10 4 11 5 12 6 13 7 14 8 6 9 5 10 4 11 3 12 2 13
REMARK SMILES IDX 1 14
REMARK H PARENT
REMARK Flexibility Score: inf
ROOT
ATOM      1  C   UNL     1     -33.957  12.150  14.332  1.00  0.00     0.000 C 
ENDROOT
BRANCH   1   2
ATOM      2  C   UNL     1     -32.958  10.980  14.324  1.00  0.00     0.000 C 
BRANCH   2   3
ATOM      3  C   UNL     1     -32.473  10.628  12.908  1.00  0.00     0.000 C 
BRANCH   3   4
ATOM      4  C   UNL     1     -31.058  10.023  12.899  1.00  0.00     0.006 C 
BRANCH   4   5
ATOM      5  C   UNL     1     -30.047  10.930  12.184  1.00  0.00     0.053 C 
BRANCH   5   6
ATOM      6  C   UNL     1     -28.775  11.070  12.963  1.00  0.00     0.041 C 
ATOM      7  O   UNL     1     -28.086  10.053  13.242  1.00  0.00    -0.550 OA
ATOM      8  O   UNL     1     -28.335  12.328  13.354  1.00  0.00    -0.550 OA
ENDBRANCH   5   6
ENDBRANCH   4   5
ENDBRANCH   3   4
ENDBRANCH   2   3
ENDBRANCH   1   2
BRANCH   1   9
ATOM      9  C   UNL     1     -33.814  13.057  13.099  1.00  0.00     0.000 C 
BRANCH   9  10
ATOM     10  C   UNL     1     -33.104  14.383  13.415  1.00  0.00    -0.000 C 
BRANCH  10  11
ATOM     11  C   UNL     1     -31.624  14.321  13.009  1.00  0.00    -0.000 C 
BRANCH  11  12
ATOM     12  C   UNL     1     -30.667  14.555  14.192  1.00  0.00    -0.000 C 
BRANCH  12  13
ATOM     13  C   UNL     1     -31.314  14.429  15.583  1.00  0.00    -0.003 C 
ATOM     14  C   UNL     1     -30.478  15.069  16.690  1.00  0.00     0.004 C 
ENDBRANCH  12  13
ENDBRANCH  11  12
ENDBRANCH  10  11
ENDBRANCH   9  10
ENDBRANCH   1   9
TORSDOF 10
ENDMDL
MODEL 3
REMARK VINA RESULT:    -3.772      1.957      4.319
REMARK INTER + INTRA:          -7.284
REMARK INTER:                  -5.969
REMARK INTRA:                  -1.314
REMARK UNBOUND:                -1.307
REMARK SMILES CCCCCCCCCCCC(=O)[O-]
REMARK SMILES IDX 7 1 8 2 9 3 10 4 11 5 12 6 13 7 14 8 6 9 5 10 4 11 3 12 2 13
REMARK SMILES IDX 1 14
REMARK H PARENT
REMARK Flexibility Score: inf
ROOT
ATOM      1  C   UNL     1     -32.503  11.684  14.308  1.00  0.00     0.000 C 
ENDROOT
BRANCH   1   2
ATOM      2  C   UNL     1     -33.306  12.545  13.316  1.00  0.00     0.000 C 
BRANCH   2   3
ATOM      3  C   UNL     1     -32.811  13.999  13.261  1.00  0.00     0.000 C 
BRANCH   3   4
ATOM      4  C   UNL     1     -31.277  14.101  13.192  1.00  0.00     0.006 C 
BRANCH   4   5
ATOM      5  C   UNL     1     -30.706  14.988  14.307  1.00  0.00     0.053 C 
BRANCH   5   6
ATOM      6  C   UNL     1     -29.497  14.374  14.943  1.00  0.00     0.041 C 
ATOM      7  O   UNL     1     -29.600  13.312  15.610  1.00  0.00    -0.550 OA
ATOM      8  O   UNL     1     -28.248  14.960  14.772  1.00  0.00    -0.550 OA
ENDBRANCH   5   6
ENDBRANCH   4   5
ENDBRANCH   3   4
ENDBRANCH   2   3
ENDBRANCH   1   2
BRANCH   1   9
ATOM      9  C   UNL     1     -32.600  10.182  13.996  1.00  0.00     0.000 C 
BRANCH   9  10
ATOM     10  C   UNL     1     -32.311   9.860  12.522  1.00  0.00    -0.000 C 
BRANCH  10  11
ATOM     11  C   UNL     1     -30.844   9.451  12.328  1.00  0.00    -0.000 C 
BRANCH  11  12
ATOM     12  C   UNL     1     -29.957  10.610  11.838  1.00  0.00    -0.000 C 
BRANCH  12  13
ATOM     13  C   UNL     1     -28.993  11.178  12.894  1.00  0.00    -0.003 C 
ATOM     14  C   UNL     1     -28.542  10.133  13.914  1.00  0.00     0.004 C 
ENDBRANCH  12  13
ENDBRANCH  11  12
ENDBRANCH  10  11
ENDBRANCH   9  10
ENDBRANCH   1   9
TORSDOF 10
ENDMDL
MODEL 4
REMARK VINA RESULT:    -3.770      1.644      2.270
REMARK INTER + INTRA:          -7.281
REMARK INTER:                  -6.366
REMARK INTRA:                  -0.916
REMARK UNBOUND:                -1.307
REMARK SMILES CCCCCCCCCCCC(=O)[O-]
REMARK SMILES IDX 7 1 8 2 9 3 10 4 11 5 12 6 13 7 14 8 6 9 5 10 4 11 3 12 2 13
REMARK SMILES IDX 1 14
REMARK H PARENT
REMARK Flexibility Score: inf
ROOT
ATOM      1  C   UNL     1     -32.446  14.336  13.365  1.00  0.00     0.000 C 
ENDROOT
BRANCH   1   2
ATOM      2  C   UNL     1     -32.939  13.389  14.473  1.00  0.00     0.000 C 
BRANCH   2   3
ATOM      3  C   UNL     1     -33.096  11.939  13.984  1.00  0.00     0.000 C 
BRANCH   3   4
ATOM      4  C   UNL     1     -31.972  11.512  13.024  1.00  0.00     0.006 C 
BRANCH   4   5
ATOM      5  C   UNL     1     -30.661  11.213  13.765  1.00  0.00     0.053 C 
BRANCH   5   6
ATOM      6  C   UNL     1     -29.506  11.079  12.822  1.00  0.00     0.041 C 
ATOM      7  O   UNL     1     -28.425  11.685  13.051  1.00  0.00    -0.550 OA
ATOM      8  O   UNL     1     -29.611  10.260  11.705  1.00  0.00    -0.550 OA
ENDBRANCH   5   6
ENDBRANCH   4   5
ENDBRANCH   3   4
ENDBRANCH   2   3
ENDBRANCH   1   2
BRANCH   1   9
ATOM      9  C   UNL     1     -31.154  15.074  13.752  1.00  0.00     0.000 C 
BRANCH   9  10
ATOM     10  C   UNL     1     -30.717  14.791  15.198  1.00  0.00    -0.000 C 
BRANCH  10  11
ATOM     11  C   UNL     1     -29.268  14.287  15.243  1.00  0.00    -0.000 C 
BRANCH  11  12
ATOM     12  C   UNL     1     -28.305  15.288  15.907  1.00  0.00    -0.000 C 
BRANCH  12  13
ATOM     13  C   UNL     1     -28.367  15.323  17.445  1.00  0.00    -0.003 C 
ATOM     14  C   UNL     1     -28.995  16.605  17.989  1.00  0.00     0.004 C 
ENDBRANCH  12  13
ENDBRANCH  11  12
ENDBRANCH  10  11
ENDBRANCH   9  10
ENDBRANCH   1   9
TORSDOF 10
ENDMDL
MODEL 5
REMARK VINA RESULT:    -3.762      2.426      3.645
REMARK INTER + INTRA:          -7.268
REMARK INTER:                  -6.550
REMARK INTRA:                  -0.717
REMARK UNBOUND:                -1.307
REMARK SMILES CCCCCCCCCCCC(=O)[O-]
REMARK SMILES IDX 7 1 8 2 9 3 10 4 11 5 12 6 13 7 14 8 6 9 5 10 4 11 3 12 2 13
REMARK SMILES IDX 1 14
REMARK H PARENT
REMARK Flexibility Score: inf
ROOT
ATOM      1  C   UNL     1     -31.409  14.438  15.403  1.00  0.00     0.000 C 
ENDROOT
BRANCH   1   2
ATOM      2  C   UNL     1     -30.824  14.792  14.025  1.00  0.00     0.000 C 
BRANCH   2   3
ATOM      3  C   UNL     1     -31.196  13.764  12.944  1.00  0.00     0.000 C 
BRANCH   3   4
ATOM      4  C   UNL     1     -30.807  12.327  13.333  1.00  0.00     0.006 C 
BRANCH   4   5
ATOM      5  C   UNL     1     -29.290  12.161  13.489  1.00  0.00     0.053 C 
BRANCH   5   6
ATOM      6  C   UNL     1     -28.809  10.865  12.910  1.00  0.00     0.041 C 
ATOM      7  O   UNL     1     -29.310  10.420  11.844  1.00  0.00    -0.550 OA
ATOM      8  O   UNL     1     -27.784  10.163  13.533  1.00  0.00    -0.550 OA
ENDBRANCH   5   6
ENDBRANCH   4   5
ENDBRANCH   3   4
ENDBRANCH   2   3
ENDBRANCH   1   2
BRANCH   1   9
ATOM      9  C   UNL     1     -30.457  14.794  16.557  1.00  0.00     0.000 C 
BRANCH   9  10
ATOM     10  C   UNL     1     -28.991  14.902  16.107  1.00  0.00    -0.000 C 
BRANCH  10  11
ATOM     11  C   UNL     1     -28.133  15.567  17.193  1.00  0.00    -0.000 C 
BRANCH  11  12
ATOM     12  C   UNL     1     -28.912  16.601  18.025  1.00  0.00    -0.000 C 
BRANCH  12  13
ATOM     13  C   UNL     1     -28.221  17.036  19.329  1.00  0.00    -0.003 C 
ATOM     14  C   UNL     1     -29.192  17.618  20.355  1.00  0.00     0.004 C 
ENDBRANCH  12  13
ENDBRANCH  11  12
ENDBRANCH  10  11
ENDBRANCH   9  10
ENDBRANCH   1   9
TORSDOF 10
ENDMDL
MODEL 6
REMARK VINA RESULT:    -3.686      2.137      2.957
REMARK INTER + INTRA:          -7.148
REMARK INTER:                  -6.358
REMARK INTRA:                  -0.790
REMARK UNBOUND:                -1.307
REMARK SMILES CCCCCCCCCCCC(=O)[O-]
REMARK SMILES IDX 7 1 8 2 9 3 10 4 11 5 12 6 13 7 14 8 6 9 5 10 4 11 3 12 2 13
REMARK SMILES IDX 1 14
REMARK H PARENT
REMARK Flexibility Score: inf
ROOT
ATOM      1  C   UNL     1     -32.406  14.314  13.684  1.00  0.00     0.000 C 
ENDROOT
BRANCH   1   2
ATOM      2  C   UNL     1     -32.112  12.872  13.236  1.00  0.00     0.000 C 
BRANCH   2   3
ATOM      3  C   UNL     1     -30.840  12.767  12.378  1.00  0.00     0.000 C 
BRANCH   3   4
ATOM      4  C   UNL     1     -29.828  11.754  12.938  1.00  0.00     0.006 C 
BRANCH   4   5
ATOM      5  C   UNL     1     -30.503  10.453  13.392  1.00  0.00     0.053 C 
BRANCH   5   6
ATOM      6  C   UNL     1     -30.894   9.592  12.230  1.00  0.00     0.041 C 
ATOM      7  O   UNL     1     -30.010   9.065  11.504  1.00  0.00    -0.550 OA
ATOM      8  O   UNL     1     -32.235   9.347  11.965  1.00  0.00    -0.550 OA
ENDBRANCH   5   6
ENDBRANCH   4   5
ENDBRANCH   3   4
ENDBRANCH   2   3
ENDBRANCH   1   2
BRANCH   1   9
ATOM      9  C   UNL     1     -31.125  15.115  13.972  1.00  0.00     0.000 C 
BRANCH   9  10
ATOM     10  C   UNL     1     -30.501  14.770  15.333  1.00  0.00    -0.000 C 
BRANCH  10  11
ATOM     11  C   UNL     1     -28.979  14.971  15.304  1.00  0.00    -0.000 C 
BRANCH  11  12
ATOM     12  C   UNL     1     -28.381  15.236  16.697  1.00  0.00    -0.000 C 
BRANCH  12  13
ATOM     13  C   UNL     1     -29.388  15.736  17.749  1.00  0.00    -0.003 C 
ATOM     14  C   UNL     1     -29.020  17.102  18.326  1.00  0.00     0.004 C 
ENDBRANCH  12  13
ENDBRANCH  11  12
ENDBRANCH  10  11
ENDBRANCH   9  10
ENDBRANCH   1   9
TORSDOF 10
ENDMDL
MODEL 7
REMARK VINA RESULT:    -3.671      3.640      5.647
REMARK INTER + INTRA:          -7.124
REMARK INTER:                  -6.290
REMARK INTRA:                  -0.834
REMARK UNBOUND:                -1.307
REMARK SMILES CCCCCCCCCCCC(=O)[O-]
REMARK SMILES IDX 7 1 8 2 9 3 10 4 11 5 12 6 13 7 14 8 6 9 5 10 4 11 3 12 2 13
REMARK SMILES IDX 1 14
REMARK H PARENT
REMARK Flexibility Score: inf
ROOT
ATOM      1  C   UNL     1     -28.742  14.520  17.387  1.00  0.00     0.000 C 
ENDROOT
BRANCH   1   2
ATOM      2  C   UNL     1     -30.112  15.220  17.429  1.00  0.00     0.000 C 
BRANCH   2   3
ATOM      3  C   UNL     1     -31.095  14.655  16.390  1.00  0.00     0.000 C 
BRANCH   3   4
ATOM      4  C   UNL     1     -30.535  14.699  14.958  1.00  0.00     0.006 C 
BRANCH   4   5
ATOM      5  C   UNL     1     -31.646  14.832  13.907  1.00  0.00     0.053 C 
BRANCH   5   6
ATOM      6  C   UNL     1     -31.665  13.667  12.966  1.00  0.00     0.041 C 
ATOM      7  O   UNL     1     -30.790  13.561  12.067  1.00  0.00    -0.550 OA
ATOM      8  O   UNL     1     -32.634  12.680  13.102  1.00  0.00    -0.550 OA
ENDBRANCH   5   6
ENDBRANCH   4   5
ENDBRANCH   3   4
ENDBRANCH   2   3
ENDBRANCH   1   2
BRANCH   1   9
ATOM      9  C   UNL     1     -27.613  15.460  16.933  1.00  0.00     0.000 C 
BRANCH   9  10
ATOM     10  C   UNL     1     -26.430  15.486  17.913  1.00  0.00    -0.000 C 
BRANCH  10  11
ATOM     11  C   UNL     1     -26.904  15.226  19.350  1.00  0.00    -0.000 C 
BRANCH  11  12
ATOM     12  C   UNL     1     -27.015  16.513  20.188  1.00  0.00    -0.000 C 
BRANCH  12  13
ATOM     13  C   UNL     1     -28.450  17.033  20.388  1.00  0.00    -0.003 C 
ATOM     14  C   UNL     1     -28.897  17.991  19.285  1.00  0.00     0.004 C 
ENDBRANCH  12  13
ENDBRANCH  11  12
ENDBRANCH  10  11
ENDBRANCH   9  10
ENDBRANCH   1   9
TORSDOF 10
ENDMDL
MODEL 8
REMARK VINA RESULT:    -3.661      3.219      5.622
REMARK INTER + INTRA:          -7.109
REMARK INTER:                  -6.070
REMARK INTRA:                  -1.039
REMARK UNBOUND:                -1.307
REMARK SMILES CCCCCCCCCCCC(=O)[O-]
REMARK SMILES IDX 7 1 8 2 9 3 10 4 11 5 12 6 13 7 14 8 6 9 5 10 4 11 3 12 2 13
REMARK SMILES IDX 1 14
REMARK H PARENT
REMARK Flexibility Score: inf
ROOT
ATOM      1  C   UNL     1     -31.074  15.003  13.813  1.00  0.00     0.000 C 
ENDROOT
BRANCH   1   2
ATOM      2  C   UNL     1     -30.531  14.787  15.236  1.00  0.00     0.000 C 
BRANCH   2   3
ATOM      3  C   UNL     1     -29.004  14.951  15.317  1.00  0.00     0.000 C 
BRANCH   3   4
ATOM      4  C   UNL     1     -28.499  15.109  16.761  1.00  0.00     0.006 C 
BRANCH   4   5
ATOM      5  C   UNL     1     -29.386  16.053  17.583  1.00  0.00     0.053 C 
BRANCH   5   6
ATOM      6  C   UNL     1     -28.594  16.822  18.595  1.00  0.00     0.041 C 
ATOM      7  O   UNL     1     -29.045  17.897  19.072  1.00  0.00    -0.550 OA
ATOM      8  O   UNL     1     -27.369  16.336  19.035  1.00  0.00    -0.550 OA
ENDBRANCH   5   6
ENDBRANCH   4   5
ENDBRANCH   3   4
ENDBRANCH   2   3
ENDBRANCH   1   2
BRANCH   1   9
ATOM      9  C   UNL     1     -32.458  14.365  13.607  1.00  0.00     0.000 C 
BRANCH   9  10
ATOM     10  C   UNL     1     -32.603  13.015  14.326  1.00  0.00    -0.000 C 
BRANCH  10  11
ATOM     11  C   UNL     1     -32.807  11.876  13.316  1.00  0.00    -0.000 C 
BRANCH  11  12
ATOM     12  C   UNL     1     -31.494  11.170  12.935  1.00  0.00    -0.000 C 
BRANCH  12  13
ATOM     13  C   UNL     1     -30.373  11.277  13.984  1.00  0.00    -0.003 C 
ATOM     14  C   UNL     1     -29.055  11.784  13.400  1.00  0.00     0.004 C 
ENDBRANCH  12  13
ENDBRANCH  11  12
ENDBRANCH  10  11
ENDBRANCH   9  10
ENDBRANCH   1   9
TORSDOF 10
ENDMDL
MODEL 9
REMARK VINA RESULT:    -3.643      2.684      4.497
REMARK INTER + INTRA:          -7.080
REMARK INTER:                  -5.328
REMARK INTRA:                  -1.752
REMARK UNBOUND:                -1.307
REMARK SMILES CCCCCCCCCCCC(=O)[O-]
REMARK SMILES IDX 7 1 8 2 9 3 10 4 11 5 12 6 13 7 14 8 6 9 5 10 4 11 3 12 2 13
REMARK SMILES IDX 1 14
REMARK H PARENT
REMARK Flexibility Score: inf
ROOT
ATOM      1  C   UNL     1     -32.351  11.871  15.843  1.00  0.00     0.000 C 
ENDROOT
BRANCH   1   2
ATOM      2  C   UNL     1     -31.252  12.581  16.654  1.00  0.00     0.000 C 
BRANCH   2   3
ATOM      3  C   UNL     1     -31.682  13.976  17.137  1.00  0.00     0.000 C 
BRANCH   3   4
ATOM      4  C   UNL     1     -30.690  15.078  16.726  1.00  0.00     0.006 C 
BRANCH   4   5
ATOM      5  C   UNL     1     -29.310  14.509  16.368  1.00  0.00     0.053 C 
BRANCH   5   6
ATOM      6  C   UNL     1     -28.287  14.827  17.414  1.00  0.00     0.041 C 
ATOM      7  O   UNL     1     -28.457  14.451  18.604  1.00  0.00    -0.550 OA
ATOM      8  O   UNL     1     -27.130  15.514  17.069  1.00  0.00    -0.550 OA
ENDBRANCH   5   6
ENDBRANCH   4   5
ENDBRANCH   3   4
ENDBRANCH   2   3
ENDBRANCH   1   2
BRANCH   1   9
ATOM      9  C   UNL     1     -33.421  12.845  15.323  1.00  0.00     0.000 C 
BRANCH   9  10
ATOM     10  C   UNL     1     -33.311  13.098  13.812  1.00  0.00    -0.000 C 
BRANCH  10  11
ATOM     11  C   UNL     1     -32.640  14.449  13.530  1.00  0.00    -0.000 C 
BRANCH  11  12
ATOM     12  C   UNL     1     -31.174  14.310  13.081  1.00  0.00    -0.000 C 
BRANCH  12  13
ATOM     13  C   UNL     1     -30.776  12.904  12.598  1.00  0.00    -0.003 C 
ATOM     14  C   UNL     1     -29.567  12.338  13.341  1.00  0.00     0.004 C 
ENDBRANCH  12  13
ENDBRANCH  11  12
ENDBRANCH  10  11
ENDBRANCH   9  10
ENDBRANCH   1   9
TORSDOF 10
ENDMDL
