MODEL 1
REMARK VINA RESULT:    -4.548      0.000      0.000
REMARK INTER + INTRA:          -7.822
REMARK INTER:                  -6.941
REMARK INTRA:                  -0.882
REMARK UNBOUND:                -0.882
REMARK SMILES O=C([O-])CCCCCCCCC(=O)[O-]
REMARK SMILES IDX 7 1 6 2 5 3 4 4 2 5 1 6 3 7 8 8 9 9 10 10 11 11 12 12 13 13
REMARK SMILES IDX 14 14
REMARK H PARENT
REMARK Flexibility Score: inf
ROOT
ATOM      1  C   UNL     1      10.821 -15.969 -24.460  1.00  0.00     0.000 C 
ENDROOT
BRANCH   1   2
ATOM      2  C   UNL     1       9.557 -15.602 -25.251  1.00  0.00     0.000 C 
BRANCH   2   3
ATOM      3  C   UNL     1       9.046 -14.209 -24.854  1.00  0.00     0.006 C 
BRANCH   3   4
ATOM      4  C   UNL     1      10.119 -13.380 -24.136  1.00  0.00     0.053 C 
BRANCH   4   5
ATOM      5  C   UNL     1       9.514 -12.313 -23.276  1.00  0.00     0.041 C 
ATOM      6  O   UNL     1      10.060 -11.991 -22.187  1.00  0.00    -0.550 OA
ATOM      7  O   UNL     1       8.329 -11.699 -23.659  1.00  0.00    -0.550 OA
ENDBRANCH   4   5
ENDBRANCH   3   4
ENDBRANCH   2   3
ENDBRANCH   1   2
BRANCH   1   8
ATOM      8  C   UNL     1      10.703 -17.329 -23.754  1.00  0.00     0.000 C 
BRANCH   8   9
ATOM      9  C   UNL     1      10.137 -17.209 -22.328  1.00  0.00     0.000 C 
BRANCH   9  10
ATOM     10  C   UNL     1      10.922 -16.210 -21.464  1.00  0.00     0.006 C 
BRANCH  10  11
ATOM     11  C   UNL     1      10.011 -15.197 -20.757  1.00  0.00     0.053 C 
BRANCH  11  12
ATOM     12  C   UNL     1      10.652 -14.708 -19.498  1.00  0.00     0.041 C 
ATOM     13  O   UNL     1      11.201 -15.521 -18.708  1.00  0.00    -0.550 OA
ATOM     14  O   UNL     1      10.686 -13.347 -19.218  1.00  0.00    -0.550 OA
ENDBRANCH  11  12
ENDBRANCH  10  11
ENDBRANCH   9  10
ENDBRANCH   8   9
ENDBRANCH   1   8
TORSDOF 9
ENDMDL
MODEL 2
REMARK VINA RESULT:    -4.490      3.021      4.639
REMARK INTER + INTRA:          -7.734
REMARK INTER:                  -6.887
REMARK INTRA:                  -0.847
REMARK UNBOUND:                -0.882
REMARK SMILES O=C([O-])CCCCCCCCC(=O)[O-]
REMARK SMILES IDX 7 1 6 2 5 3 4 4 2 5 1 6 3 7 8 8 9 9 10 10 11 11 12 12 13 13
REMARK SMILES IDX 14 14
REMARK H PARENT
REMARK Flexibility Score: inf
ROOT
ATOM      1  C   UNL     1       9.289 -15.373 -23.794  1.00  0.00     0.000 C 
ENDROOT
BRANCH   1   2
ATOM      2  C   UNL     1       8.811 -16.759 -23.334  1.00  0.00     0.000 C 
BRANCH   2   3
ATOM      3  C   UNL     1       9.950 -17.537 -22.660  1.00  0.00     0.006 C 
BRANCH   3   4
ATOM      4  C   UNL     1       9.861 -19.045 -22.925  1.00  0.00     0.053 C 
BRANCH   4   5
ATOM      5  C   UNL     1      11.101 -19.568 -23.583  1.00  0.00     0.041 C 
ATOM      6  O   UNL     1      12.085 -18.806 -23.778  1.00  0.00    -0.550 OA
ATOM      7  O   UNL     1      11.158 -20.887 -24.013  1.00  0.00    -0.550 OA
ENDBRANCH   4   5
ENDBRANCH   3   4
ENDBRANCH   2   3
ENDBRANCH   1   2
BRANCH   1   8
ATOM      8  C   UNL     1      10.806 -15.188 -23.633  1.00  0.00     0.000 C 
BRANCH   8   9
ATOM      9  C   UNL     1      11.168 -13.899 -22.874  1.00  0.00     0.000 C 
BRANCH   9  10
ATOM     10  C   UNL     1       9.951 -13.255 -22.192  1.00  0.00     0.006 C 
BRANCH  10  11
ATOM     11  C   UNL     1      10.153 -13.066 -20.682  1.00  0.00     0.053 C 
BRANCH  11  12
ATOM     12  C   UNL     1      10.061 -14.380 -19.974  1.00  0.00     0.041 C 
ATOM     13  O   UNL     1       9.103 -15.163 -20.211  1.00  0.00    -0.550 OA
ATOM     14  O   UNL     1      11.060 -14.764 -19.088  1.00  0.00    -0.550 OA
ENDBRANCH  11  12
ENDBRANCH  10  11
ENDBRANCH   9  10
ENDBRANCH   8   9
ENDBRANCH   1   8
TORSDOF 9
ENDMDL
MODEL 3
REMARK VINA RESULT:    -4.470      1.880      5.301
REMARK INTER + INTRA:          -7.703
REMARK INTER:                  -7.057
REMARK INTRA:                  -0.646
REMARK UNBOUND:                -0.882
REMARK SMILES O=C([O-])CCCCCCCCC(=O)[O-]
REMARK SMILES IDX 7 1 6 2 5 3 4 4 2 5 1 6 3 7 8 8 9 9 10 10 11 11 12 12 13 13
REMARK SMILES IDX 14 14
REMARK H PARENT
REMARK Flexibility Score: inf
ROOT
ATOM      1  C   UNL     1      10.039 -14.857 -24.093  1.00  0.00     0.000 C 
ENDROOT
BRANCH   1   2
ATOM      2  C   UNL     1      10.904 -13.953 -23.202  1.00  0.00     0.000 C 
BRANCH   2   3
ATOM      3  C   UNL     1      10.176 -13.614 -21.892  1.00  0.00     0.006 C 
BRANCH   3   4
ATOM      4  C   UNL     1      10.139 -14.803 -20.924  1.00  0.00     0.053 C 
BRANCH   4   5
ATOM      5  C   UNL     1      10.682 -14.439 -19.575  1.00  0.00     0.041 C 
ATOM      6  O   UNL     1      10.724 -13.233 -19.214  1.00  0.00    -0.550 OA
ATOM      7  O   UNL     1      11.173 -15.428 -18.733  1.00  0.00    -0.550 OA
ENDBRANCH   4   5
ENDBRANCH   3   4
ENDBRANCH   2   3
ENDBRANCH   1   2
BRANCH   1   8
ATOM      8  C   UNL     1       8.593 -14.352 -24.220  1.00  0.00     0.000 C 
BRANCH   8   9
ATOM      9  C   UNL     1       8.422 -13.323 -25.352  1.00  0.00     0.000 C 
BRANCH   9  10
ATOM     10  C   UNL     1       8.274 -11.887 -24.827  1.00  0.00     0.006 C 
BRANCH  10  11
ATOM     11  C   UNL     1       9.095 -10.875 -25.638  1.00  0.00     0.053 C 
BRANCH  11  12
ATOM     12  C   UNL     1       9.763  -9.896 -24.727  1.00  0.00     0.041 C 
ATOM     13  O   UNL     1      10.204 -10.269 -23.607  1.00  0.00    -0.550 OA
ATOM     14  O   UNL     1       9.945  -8.580 -25.133  1.00  0.00    -0.550 OA
ENDBRANCH  11  12
ENDBRANCH  10  11
ENDBRANCH   9  10
ENDBRANCH   8   9
ENDBRANCH   1   8
TORSDOF 9
ENDMDL
MODEL 4
REMARK VINA RESULT:    -4.456      2.136      2.927
REMARK INTER + INTRA:          -7.682
REMARK INTER:                  -6.958
REMARK INTRA:                  -0.724
REMARK UNBOUND:                -0.882
REMARK SMILES O=C([O-])CCCCCCCCC(=O)[O-]
REMARK SMILES IDX 7 1 6 2 5 3 4 4 2 5 1 6 3 7 8 8 9 9 10 10 11 11 12 12 13 13
REMARK SMILES IDX 14 14
REMARK H PARENT
REMARK Flexibility Score: inf
ROOT
ATOM      1  C   UNL     1       8.666 -13.524 -24.990  1.00  0.00     0.000 C 
ENDROOT
BRANCH   1   2
ATOM      2  C   UNL     1       8.269 -12.245 -24.238  1.00  0.00     0.000 C 
BRANCH   2   3
ATOM      3  C   UNL     1       9.506 -11.402 -23.896  1.00  0.00     0.006 C 
BRANCH   3   4
ATOM      4  C   UNL     1       9.970 -10.544 -25.081  1.00  0.00     0.053 C 
BRANCH   4   5
ATOM      5  C   UNL     1       9.451  -9.142 -24.988  1.00  0.00     0.041 C 
ATOM      6  O   UNL     1       9.002  -8.703 -23.896  1.00  0.00    -0.550 OA
ATOM      7  O   UNL     1       9.431  -8.331 -26.116  1.00  0.00    -0.550 OA
ENDBRANCH   4   5
ENDBRANCH   3   4
ENDBRANCH   2   3
ENDBRANCH   1   2
BRANCH   1   8
ATOM      8  C   UNL     1       9.054 -14.671 -24.043  1.00  0.00     0.000 C 
BRANCH   8   9
ATOM      9  C   UNL     1      10.578 -14.812 -23.877  1.00  0.00     0.000 C 
BRANCH   9  10
ATOM     10  C   UNL     1      11.022 -14.727 -22.409  1.00  0.00     0.006 C 
BRANCH  10  11
ATOM     11  C   UNL     1       9.839 -14.579 -21.442  1.00  0.00     0.053 C 
BRANCH  11  12
ATOM     12  C   UNL     1      10.173 -13.611 -20.352  1.00  0.00     0.041 C 
ATOM     13  O   UNL     1      10.583 -14.029 -19.237  1.00  0.00    -0.550 OA
ATOM     14  O   UNL     1      10.080 -12.244 -20.583  1.00  0.00    -0.550 OA
ENDBRANCH  11  12
ENDBRANCH  10  11
ENDBRANCH   9  10
ENDBRANCH   8   9
ENDBRANCH   1   8
TORSDOF 9
ENDMDL
MODEL 5
REMARK VINA RESULT:    -4.354      3.067      4.768
REMARK INTER + INTRA:          -7.526
REMARK INTER:                  -6.782
REMARK INTRA:                  -0.744
REMARK UNBOUND:                -0.882
REMARK SMILES O=C([O-])CCCCCCCCC(=O)[O-]
REMARK SMILES IDX 7 1 6 2 5 3 4 4 2 5 1 6 3 7 8 8 9 9 10 10 11 11 12 12 13 13
REMARK SMILES IDX 14 14
REMARK H PARENT
REMARK Flexibility Score: inf
ROOT
ATOM      1  C   UNL     1      10.623 -16.001 -23.200  1.00  0.00     0.000 C 
ENDROOT
BRANCH   1   2
ATOM      2  C   UNL     1      10.940 -14.502 -23.087  1.00  0.00     0.000 C 
BRANCH   2   3
ATOM      3  C   UNL     1      10.211 -13.876 -21.890  1.00  0.00     0.006 C 
BRANCH   3   4
ATOM      4  C   UNL     1       9.953 -14.892 -20.769  1.00  0.00     0.053 C 
BRANCH   4   5
ATOM      5  C   UNL     1      10.705 -14.545 -19.520  1.00  0.00     0.041 C 
ATOM      6  O   UNL     1      11.149 -15.458 -18.774  1.00  0.00    -0.550 OA
ATOM      7  O   UNL     1      10.885 -13.216 -19.163  1.00  0.00    -0.550 OA
ENDBRANCH   4   5
ENDBRANCH   3   4
ENDBRANCH   2   3
ENDBRANCH   1   2
BRANCH   1   8
ATOM      8  C   UNL     1       9.536 -16.298 -24.246  1.00  0.00     0.000 C 
BRANCH   8   9
ATOM      9  C   UNL     1       8.817 -17.635 -23.990  1.00  0.00     0.000 C 
BRANCH   9  10
ATOM     10  C   UNL     1       9.334 -18.351 -22.733  1.00  0.00     0.006 C 
BRANCH  10  11
ATOM     11  C   UNL     1       9.800 -19.784 -23.021  1.00  0.00     0.053 C 
BRANCH  11  12
ATOM     12  C   UNL     1      11.003 -19.774 -23.910  1.00  0.00     0.041 C 
ATOM     13  O   UNL     1      12.059 -19.193 -23.543  1.00  0.00    -0.550 OA
ATOM     14  O   UNL     1      10.974 -20.446 -25.126  1.00  0.00    -0.550 OA
ENDBRANCH  11  12
ENDBRANCH  10  11
ENDBRANCH   9  10
ENDBRANCH   8   9
ENDBRANCH   1   8
TORSDOF 9
ENDMDL
MODEL 6
REMARK VINA RESULT:    -4.316      2.686      6.432
REMARK INTER + INTRA:          -7.469
REMARK INTER:                  -7.088
REMARK INTRA:                  -0.381
REMARK UNBOUND:                -0.882
REMARK SMILES O=C([O-])CCCCCCCCC(=O)[O-]
REMARK SMILES IDX 7 1 6 2 5 3 4 4 2 5 1 6 3 7 8 8 9 9 10 10 11 11 12 12 13 13
REMARK SMILES IDX 14 14
REMARK H PARENT
REMARK Flexibility Score: inf
ROOT
ATOM      1  C   UNL     1       9.931 -12.877 -22.913  1.00  0.00     0.000 C 
ENDROOT
BRANCH   1   2
ATOM      2  C   UNL     1      11.056 -13.912 -22.768  1.00  0.00     0.000 C 
BRANCH   2   3
ATOM      3  C   UNL     1      10.572 -15.143 -21.988  1.00  0.00     0.006 C 
BRANCH   3   4
ATOM      4  C   UNL     1       9.734 -14.762 -20.760  1.00  0.00     0.053 C 
BRANCH   4   5
ATOM      5  C   UNL     1      10.595 -14.438 -19.578  1.00  0.00     0.041 C 
ATOM      6  O   UNL     1      10.809 -13.239 -19.258  1.00  0.00    -0.550 OA
ATOM      7  O   UNL     1      11.190 -15.461 -18.849  1.00  0.00    -0.550 OA
ENDBRANCH   4   5
ENDBRANCH   3   4
ENDBRANCH   2   3
ENDBRANCH   1   2
BRANCH   1   8
ATOM      8  C   UNL     1       9.425 -12.754 -24.359  1.00  0.00     0.000 C 
BRANCH   8   9
ATOM      9  C   UNL     1       8.712 -11.415 -24.626  1.00  0.00     0.000 C 
BRANCH   9  10
ATOM     10  C   UNL     1       9.620 -10.202 -24.370  1.00  0.00     0.006 C 
BRANCH  10  11
ATOM     11  C   UNL     1       8.912  -8.868 -24.640  1.00  0.00     0.053 C 
BRANCH  11  12
ATOM     12  C   UNL     1       9.254  -8.362 -26.005  1.00  0.00     0.041 C 
ATOM     13  O   UNL     1       8.956  -9.038 -27.025  1.00  0.00    -0.550 OA
ATOM     14  O   UNL     1       9.858  -7.121 -26.156  1.00  0.00    -0.550 OA
ENDBRANCH  11  12
ENDBRANCH  10  11
ENDBRANCH   9  10
ENDBRANCH   8   9
ENDBRANCH   1   8
TORSDOF 9
ENDMDL
MODEL 7
REMARK VINA RESULT:    -4.241      2.750      4.874
REMARK INTER + INTRA:          -7.353
REMARK INTER:                  -6.528
REMARK INTRA:                  -0.825
REMARK UNBOUND:                -0.882
REMARK SMILES O=C([O-])CCCCCCCCC(=O)[O-]
REMARK SMILES IDX 7 1 6 2 5 3 4 4 2 5 1 6 3 7 8 8 9 9 10 10 11 11 12 12 13 13
REMARK SMILES IDX 14 14
REMARK H PARENT
REMARK Flexibility Score: inf
ROOT
ATOM      1  C   UNL     1      10.086 -13.174 -24.074  1.00  0.00     0.000 C 
ENDROOT
BRANCH   1   2
ATOM      2  C   UNL     1      10.727 -13.286 -22.683  1.00  0.00     0.000 C 
BRANCH   2   3
ATOM      3  C   UNL     1       9.720 -13.827 -21.657  1.00  0.00     0.006 C 
BRANCH   3   4
ATOM      4  C   UNL     1      10.261 -15.044 -20.896  1.00  0.00     0.053 C 
BRANCH   4   5
ATOM      5  C   UNL     1      10.778 -14.669 -19.541  1.00  0.00     0.041 C 
ATOM      6  O   UNL     1      11.217 -15.556 -18.762  1.00  0.00    -0.550 OA
ATOM      7  O   UNL     1      10.742 -13.344 -19.125  1.00  0.00    -0.550 OA
ENDBRANCH   4   5
ENDBRANCH   3   4
ENDBRANCH   2   3
ENDBRANCH   1   2
BRANCH   1   8
ATOM      8  C   UNL     1       8.876 -14.106 -24.244  1.00  0.00     0.000 C 
BRANCH   8   9
ATOM      9  C   UNL     1       9.145 -15.252 -25.237  1.00  0.00     0.000 C 
BRANCH   9  10
ATOM     10  C   UNL     1       9.580 -16.549 -24.537  1.00  0.00     0.006 C 
BRANCH  10  11
ATOM     11  C   UNL     1      11.101 -16.637 -24.351  1.00  0.00     0.053 C 
BRANCH  11  12
ATOM     12  C   UNL     1      11.607 -17.965 -24.818  1.00  0.00     0.041 C 
ATOM     13  O   UNL     1      11.860 -18.154 -26.038  1.00  0.00    -0.550 OA
ATOM     14  O   UNL     1      11.848 -18.979 -23.900  1.00  0.00    -0.550 OA
ENDBRANCH  11  12
ENDBRANCH  10  11
ENDBRANCH   9  10
ENDBRANCH   8   9
ENDBRANCH   1   8
TORSDOF 9
ENDMDL
MODEL 8
REMARK VINA RESULT:    -4.150      2.351      3.715
REMARK INTER + INTRA:          -7.215
REMARK INTER:                  -6.169
REMARK INTRA:                  -1.046
REMARK UNBOUND:                -0.882
REMARK SMILES O=C([O-])CCCCCCCCC(=O)[O-]
REMARK SMILES IDX 7 1 6 2 5 3 4 4 2 5 1 6 3 7 8 8 9 9 10 10 11 11 12 12 13 13
REMARK SMILES IDX 14 14
REMARK H PARENT
REMARK Flexibility Score: inf
ROOT
ATOM      1  C   UNL     1      10.783 -15.297 -23.878  1.00  0.00     0.000 C 
ENDROOT
BRANCH   1   2
ATOM      2  C   UNL     1       9.406 -14.694 -23.561  1.00  0.00     0.000 C 
BRANCH   2   3
ATOM      3  C   UNL     1       9.047 -14.894 -22.081  1.00  0.00     0.006 C 
BRANCH   3   4
ATOM      4  C   UNL     1      10.287 -14.897 -21.177  1.00  0.00     0.053 C 
BRANCH   4   5
ATOM      5  C   UNL     1      10.318 -13.704 -20.271  1.00  0.00     0.041 C 
ATOM      6  O   UNL     1      10.722 -13.821 -19.084  1.00  0.00    -0.550 OA
ATOM      7  O   UNL     1       9.867 -12.472 -20.727  1.00  0.00    -0.550 OA
ENDBRANCH   4   5
ENDBRANCH   3   4
ENDBRANCH   2   3
ENDBRANCH   1   2
BRANCH   1   8
ATOM      8  C   UNL     1      10.784 -16.114 -25.180  1.00  0.00     0.000 C 
BRANCH   8   9
ATOM      9  C   UNL     1      11.403 -17.512 -25.001  1.00  0.00     0.000 C 
BRANCH   9  10
ATOM     10  C   UNL     1      11.530 -17.916 -23.524  1.00  0.00     0.006 C 
BRANCH  10  11
ATOM     11  C   UNL     1      10.576 -19.054 -23.139  1.00  0.00     0.053 C 
BRANCH  11  12
ATOM     12  C   UNL     1       9.289 -18.502 -22.614  1.00  0.00     0.041 C 
ATOM     13  O   UNL     1       9.126 -18.340 -21.376  1.00  0.00    -0.550 OA
ATOM     14  O   UNL     1       8.286 -18.119 -23.496  1.00  0.00    -0.550 OA
ENDBRANCH  11  12
ENDBRANCH  10  11
ENDBRANCH   9  10
ENDBRANCH   8   9
ENDBRANCH   1   8
TORSDOF 9
ENDMDL
MODEL 9
REMARK VINA RESULT:    -4.098      2.476      4.251
REMARK INTER + INTRA:          -7.136
REMARK INTER:                  -6.374
REMARK INTRA:                  -0.762
REMARK UNBOUND:                -0.882
REMARK SMILES O=C([O-])CCCCCCCCC(=O)[O-]
REMARK SMILES IDX 7 1 6 2 5 3 4 4 2 5 1 6 3 7 8 8 9 9 10 10 11 11 12 12 13 13
REMARK SMILES IDX 14 14
REMARK H PARENT
REMARK Flexibility Score: inf
ROOT
ATOM      1  C   UNL     1      10.389 -16.653 -24.615  1.00  0.00     0.000 C 
ENDROOT
BRANCH   1   2
ATOM      2  C   UNL     1      11.642 -17.010 -23.801  1.00  0.00     0.000 C 
BRANCH   2   3
ATOM      3  C   UNL     1      11.337 -18.117 -22.781  1.00  0.00     0.006 C 
BRANCH   3   4
ATOM      4  C   UNL     1      10.207 -19.044 -23.249  1.00  0.00     0.053 C 
BRANCH   4   5
ATOM      5  C   UNL     1       9.041 -19.020 -22.308  1.00  0.00     0.041 C 
ATOM      6  O   UNL     1       9.056 -18.263 -21.301  1.00  0.00    -0.550 OA
ATOM      7  O   UNL     1       7.955 -19.857 -22.523  1.00  0.00    -0.550 OA
ENDBRANCH   4   5
ENDBRANCH   3   4
ENDBRANCH   2   3
ENDBRANCH   1   2
BRANCH   1   8
ATOM      8  C   UNL     1      10.182 -15.136 -24.745  1.00  0.00     0.000 C 
BRANCH   8   9
ATOM      9  C   UNL     1      10.556 -14.374 -23.461  1.00  0.00     0.000 C 
BRANCH   9  10
ATOM     10  C   UNL     1       9.398 -14.313 -22.453  1.00  0.00     0.006 C 
BRANCH  10  11
ATOM     11  C   UNL     1       9.802 -14.811 -21.059  1.00  0.00     0.053 C 
BRANCH  11  12
ATOM     12  C   UNL     1      10.212 -13.663 -20.192  1.00  0.00     0.041 C 
ATOM     13  O   UNL     1      10.804 -13.872 -19.100  1.00  0.00    -0.550 OA
ATOM     14  O   UNL     1       9.985 -12.358 -20.613  1.00  0.00    -0.550 OA
ENDBRANCH  11  12
ENDBRANCH  10  11
ENDBRANCH   9  10
ENDBRANCH   8   9
ENDBRANCH   1   8
TORSDOF 9
ENDMDL
