MODEL 1
REMARK VINA RESULT:    -5.033      0.000      0.000
REMARK INTER + INTRA:         -10.393
REMARK INTER:                  -9.152
REMARK INTRA:                  -1.242
REMARK UNBOUND:                -1.242
REMARK SMILES CCCCCCCCCCCCCCCC(=O)[O-]
REMARK SMILES IDX 9 1 10 2 11 3 12 4 13 5 14 6 15 7 16 8 17 9 18 10 8 11 7 12
REMARK SMILES IDX 6 13 5 14 4 15 3 16 2 17 1 18
REMARK H PARENT
REMARK Flexibility Score: inf
ROOT
ATOM      1  C   UNL     1       6.166  41.299  48.965  1.00  0.00     0.000 C 
ENDROOT
BRANCH   1   2
ATOM      2  C   UNL     1       5.153  42.318  48.431  1.00  0.00     0.000 C 
BRANCH   2   3
ATOM      3  C   UNL     1       4.670  41.930  47.028  1.00  0.00     0.000 C 
BRANCH   3   4
ATOM      4  C   UNL     1       5.414  42.727  45.949  1.00  0.00     0.000 C 
BRANCH   4   5
ATOM      5  C   UNL     1       6.078  41.792  44.933  1.00  0.00     0.000 C 
BRANCH   5   6
ATOM      6  C   UNL     1       6.260  42.492  43.578  1.00  0.00     0.006 C 
BRANCH   6   7
ATOM      7  C   UNL     1       6.595  43.982  43.733  1.00  0.00     0.053 C 
BRANCH   7   8
ATOM      8  C   UNL     1       7.669  44.412  42.782  1.00  0.00     0.041 C 
ATOM      9  O   UNL     1       7.458  45.351  41.970  1.00  0.00    -0.550 OA
ATOM     10  O   UNL     1       8.915  43.798  42.814  1.00  0.00    -0.550 OA
ENDBRANCH   7   8
ENDBRANCH   6   7
ENDBRANCH   5   6
ENDBRANCH   4   5
ENDBRANCH   3   4
ENDBRANCH   2   3
ENDBRANCH   1   2
BRANCH   1  11
ATOM     11  C   UNL     1       6.050  39.964  48.220  1.00  0.00     0.000 C 
BRANCH  11  12
ATOM     12  C   UNL     1       7.409  39.250  48.156  1.00  0.00    -0.000 C 
BRANCH  12  13
ATOM     13  C   UNL     1       8.372  39.896  47.146  1.00  0.00    -0.000 C 
BRANCH  13  14
ATOM     14  C   UNL     1       9.844  39.793  47.584  1.00  0.00    -0.000 C 
BRANCH  14  15
ATOM     15  C   UNL     1      10.037  40.108  49.076  1.00  0.00    -0.000 C 
BRANCH  15  16
ATOM     16  C   UNL     1      11.509  40.364  49.444  1.00  0.00    -0.000 C 
BRANCH  16  17
ATOM     17  C   UNL     1      12.343  40.831  48.242  1.00  0.00    -0.003 C 
ATOM     18  C   UNL     1      13.415  39.819  47.838  1.00  0.00     0.004 C 
ENDBRANCH  16  17
ENDBRANCH  15  16
ENDBRANCH  14  15
ENDBRANCH  13  14
ENDBRANCH  12  13
ENDBRANCH  11  12
ENDBRANCH   1  11
TORSDOF 14
ENDMDL
MODEL 2
REMARK VINA RESULT:    -4.959      2.676      7.076
REMARK INTER + INTRA:         -10.259
REMARK INTER:                  -9.337
REMARK INTRA:                  -0.921
REMARK UNBOUND:                -1.242
REMARK SMILES CCCCCCCCCCCCCCCC(=O)[O-]
REMARK SMILES IDX 9 1 10 2 11 3 12 4 13 5 14 6 15 7 16 8 17 9 18 10 8 11 7 12
REMARK SMILES IDX 6 13 5 14 4 15 3 16 2 17 1 18
REMARK H PARENT
REMARK Flexibility Score: inf
ROOT
ATOM      1  C   UNL     1       5.448  42.563  45.817  1.00  0.00     0.000 C 
ENDROOT
BRANCH   1   2
ATOM      2  C   UNL     1       5.328  41.851  47.168  1.00  0.00     0.000 C 
BRANCH   2   3
ATOM      3  C   UNL     1       5.654  40.358  47.034  1.00  0.00     0.000 C 
BRANCH   3   4
ATOM      4  C   UNL     1       6.334  39.826  48.302  1.00  0.00     0.000 C 
BRANCH   4   5
ATOM      5  C   UNL     1       7.618  40.605  48.607  1.00  0.00     0.000 C 
BRANCH   5   6
ATOM      6  C   UNL     1       8.823  39.986  47.883  1.00  0.00     0.006 C 
BRANCH   6   7
ATOM      7  C   UNL     1      10.089  39.996  48.749  1.00  0.00     0.053 C 
BRANCH   7   8
ATOM      8  C   UNL     1      11.307  40.348  47.950  1.00  0.00     0.041 C 
ATOM      9  O   UNL     1      12.358  40.726  48.530  1.00  0.00    -0.550 OA
ATOM     10  O   UNL     1      11.290  40.226  46.566  1.00  0.00    -0.550 OA
ENDBRANCH   7   8
ENDBRANCH   6   7
ENDBRANCH   5   6
ENDBRANCH   4   5
ENDBRANCH   3   4
ENDBRANCH   2   3
ENDBRANCH   1   2
BRANCH   1  11
ATOM     11  C   UNL     1       6.175  41.684  44.793  1.00  0.00     0.000 C 
BRANCH  11  12
ATOM     12  C   UNL     1       6.412  42.448  43.481  1.00  0.00    -0.000 C 
BRANCH  12  13
ATOM     13  C   UNL     1       6.381  43.974  43.669  1.00  0.00    -0.000 C 
BRANCH  13  14
ATOM     14  C   UNL     1       7.610  44.670  43.056  1.00  0.00    -0.000 C 
BRANCH  14  15
ATOM     15  C   UNL     1       7.553  44.722  41.521  1.00  0.00    -0.000 C 
BRANCH  15  16
ATOM     16  C   UNL     1       8.504  45.775  40.925  1.00  0.00    -0.000 C 
BRANCH  16  17
ATOM     17  C   UNL     1       7.756  47.002  40.381  1.00  0.00    -0.003 C 
ATOM     18  C   UNL     1       7.560  48.090  41.436  1.00  0.00     0.004 C 
ENDBRANCH  16  17
ENDBRANCH  15  16
ENDBRANCH  14  15
ENDBRANCH  13  14
ENDBRANCH  12  13
ENDBRANCH  11  12
ENDBRANCH   1  11
TORSDOF 14
ENDMDL
MODEL 3
REMARK VINA RESULT:    -4.934      1.451      2.572
REMARK INTER + INTRA:         -10.213
REMARK INTER:                  -8.733
REMARK INTRA:                  -1.480
REMARK UNBOUND:                -1.242
REMARK SMILES CCCCCCCCCCCCCCCC(=O)[O-]
REMARK SMILES IDX 9 1 10 2 11 3 12 4 13 5 14 6 15 7 16 8 17 9 18 10 8 11 7 12
REMARK SMILES IDX 6 13 5 14 4 15 3 16 2 17 1 18
REMARK H PARENT
REMARK Flexibility Score: inf
ROOT
ATOM      1  C   UNL     1       7.981  40.662  48.658  1.00  0.00     0.000 C 
ENDROOT
BRANCH   1   2
ATOM      2  C   UNL     1       7.092  39.513  48.170  1.00  0.00     0.000 C 
BRANCH   2   3
ATOM      3  C   UNL     1       5.964  40.034  47.271  1.00  0.00     0.000 C 
BRANCH   3   4
ATOM      4  C   UNL     1       5.476  41.409  47.742  1.00  0.00     0.000 C 
BRANCH   4   5
ATOM      5  C   UNL     1       5.035  42.273  46.556  1.00  0.00     0.000 C 
BRANCH   5   6
ATOM      6  C   UNL     1       5.856  41.944  45.300  1.00  0.00     0.006 C 
BRANCH   6   7
ATOM      7  C   UNL     1       6.032  43.163  44.384  1.00  0.00     0.053 C 
BRANCH   7   8
ATOM      8  C   UNL     1       6.820  42.827  43.155  1.00  0.00     0.041 C 
ATOM      9  O   UNL     1       7.158  41.636  42.926  1.00  0.00    -0.550 OA
ATOM     10  O   UNL     1       7.153  43.824  42.247  1.00  0.00    -0.550 OA
ENDBRANCH   7   8
ENDBRANCH   6   7
ENDBRANCH   5   6
ENDBRANCH   4   5
ENDBRANCH   3   4
ENDBRANCH   2   3
ENDBRANCH   1   2
BRANCH   1  11
ATOM     11  C   UNL     1       9.444  40.215  48.776  1.00  0.00     0.000 C 
BRANCH  11  12
ATOM     12  C   UNL     1       9.668  38.875  48.057  1.00  0.00    -0.000 C 
BRANCH  12  13
ATOM     13  C   UNL     1      10.921  38.137  48.554  1.00  0.00    -0.000 C 
BRANCH  13  14
ATOM     14  C   UNL     1      11.983  39.094  49.126  1.00  0.00    -0.000 C 
BRANCH  14  15
ATOM     15  C   UNL     1      13.038  39.495  48.083  1.00  0.00    -0.000 C 
BRANCH  15  16
ATOM     16  C   UNL     1      12.939  40.975  47.675  1.00  0.00    -0.000 C 
BRANCH  16  17
ATOM     17  C   UNL     1      12.270  41.165  46.306  1.00  0.00    -0.003 C 
ATOM     18  C   UNL     1      12.246  39.881  45.478  1.00  0.00     0.004 C 
ENDBRANCH  16  17
ENDBRANCH  15  16
ENDBRANCH  14  15
ENDBRANCH  13  14
ENDBRANCH  12  13
ENDBRANCH  11  12
ENDBRANCH   1  11
TORSDOF 14
ENDMDL
MODEL 4
REMARK VINA RESULT:    -4.905      2.867      6.482
REMARK INTER + INTRA:         -10.161
REMARK INTER:                  -8.773
REMARK INTRA:                  -1.388
REMARK UNBOUND:                -1.242
REMARK SMILES CCCCCCCCCCCCCCCC(=O)[O-]
REMARK SMILES IDX 9 1 10 2 11 3 12 4 13 5 14 6 15 7 16 8 17 9 18 10 8 11 7 12
REMARK SMILES IDX 6 13 5 14 4 15 3 16 2 17 1 18
REMARK H PARENT
REMARK Flexibility Score: inf
ROOT
ATOM      1  C   UNL     1       5.706  42.849  45.052  1.00  0.00     0.000 C 
ENDROOT
BRANCH   1   2
ATOM      2  C   UNL     1       6.022  41.397  45.430  1.00  0.00     0.000 C 
BRANCH   2   3
ATOM      3  C   UNL     1       6.042  41.217  46.953  1.00  0.00     0.000 C 
BRANCH   3   4
ATOM      4  C   UNL     1       7.171  40.272  47.381  1.00  0.00     0.000 C 
BRANCH   4   5
ATOM      5  C   UNL     1       7.866  40.783  48.648  1.00  0.00     0.000 C 
BRANCH   5   6
ATOM      6  C   UNL     1       9.296  40.231  48.753  1.00  0.00     0.006 C 
BRANCH   6   7
ATOM      7  C   UNL     1       9.903  39.925  47.377  1.00  0.00     0.053 C 
BRANCH   7   8
ATOM      8  C   UNL     1      11.398  40.008  47.398  1.00  0.00     0.041 C 
ATOM      9  O   UNL     1      12.076  39.480  46.477  1.00  0.00    -0.550 OA
ATOM     10  O   UNL     1      12.043  40.697  48.418  1.00  0.00    -0.550 OA
ENDBRANCH   7   8
ENDBRANCH   6   7
ENDBRANCH   5   6
ENDBRANCH   4   5
ENDBRANCH   3   4
ENDBRANCH   2   3
ENDBRANCH   1   2
BRANCH   1  11
ATOM     11  C   UNL     1       6.239  43.182  43.653  1.00  0.00     0.000 C 
BRANCH  11  12
ATOM     12  C   UNL     1       7.095  44.458  43.682  1.00  0.00    -0.000 C 
BRANCH  12  13
ATOM     13  C   UNL     1       7.445  44.970  42.275  1.00  0.00    -0.000 C 
BRANCH  13  14
ATOM     14  C   UNL     1       7.809  43.831  41.306  1.00  0.00    -0.000 C 
BRANCH  14  15
ATOM     15  C   UNL     1       9.281  43.404  41.426  1.00  0.00    -0.000 C 
BRANCH  15  16
ATOM     16  C   UNL     1       9.498  41.916  41.098  1.00  0.00    -0.000 C 
BRANCH  16  17
ATOM     17  C   UNL     1       8.492  41.003  41.815  1.00  0.00    -0.003 C 
ATOM     18  C   UNL     1       8.945  40.615  43.222  1.00  0.00     0.004 C 
ENDBRANCH  16  17
ENDBRANCH  15  16
ENDBRANCH  14  15
ENDBRANCH  13  14
ENDBRANCH  12  13
ENDBRANCH  11  12
ENDBRANCH   1  11
TORSDOF 14
ENDMDL
MODEL 5
REMARK VINA RESULT:    -4.899      4.213      7.584
REMARK INTER + INTRA:         -10.151
REMARK INTER:                  -8.910
REMARK INTRA:                  -1.240
REMARK UNBOUND:                -1.242
REMARK SMILES CCCCCCCCCCCCCCCC(=O)[O-]
REMARK SMILES IDX 9 1 10 2 11 3 12 4 13 5 14 6 15 7 16 8 17 9 18 10 8 11 7 12
REMARK SMILES IDX 6 13 5 14 4 15 3 16 2 17 1 18
REMARK H PARENT
REMARK Flexibility Score: inf
ROOT
ATOM      1  C   UNL     1       8.612  40.746  42.220  1.00  0.00     0.000 C 
ENDROOT
BRANCH   1   2
ATOM      2  C   UNL     1       7.956  41.325  43.478  1.00  0.00     0.000 C 
BRANCH   2   3
ATOM      3  C   UNL     1       6.672  42.087  43.127  1.00  0.00     0.000 C 
BRANCH   3   4
ATOM      4  C   UNL     1       6.381  43.181  44.162  1.00  0.00     0.000 C 
BRANCH   4   5
ATOM      5  C   UNL     1       5.262  42.752  45.117  1.00  0.00     0.000 C 
BRANCH   5   6
ATOM      6  C   UNL     1       5.808  41.850  46.235  1.00  0.00     0.006 C 
BRANCH   6   7
ATOM      7  C   UNL     1       5.078  42.068  47.567  1.00  0.00     0.053 C 
BRANCH   7   8
ATOM      8  C   UNL     1       5.849  41.507  48.722  1.00  0.00     0.041 C 
ATOM      9  O   UNL     1       6.380  40.369  48.636  1.00  0.00    -0.550 OA
ATOM     10  O   UNL     1       6.009  42.255  49.882  1.00  0.00    -0.550 OA
ENDBRANCH   7   8
ENDBRANCH   6   7
ENDBRANCH   5   6
ENDBRANCH   4   5
ENDBRANCH   3   4
ENDBRANCH   2   3
ENDBRANCH   1   2
BRANCH   1  11
ATOM     11  C   UNL     1       8.820  41.833  41.158  1.00  0.00     0.000 C 
BRANCH  11  12
ATOM     12  C   UNL     1      10.003  42.742  41.526  1.00  0.00    -0.000 C 
BRANCH  12  13
ATOM     13  C   UNL     1       9.668  44.236  41.394  1.00  0.00    -0.000 C 
BRANCH  13  14
ATOM     14  C   UNL     1       8.178  44.483  41.096  1.00  0.00    -0.000 C 
BRANCH  14  15
ATOM     15  C   UNL     1       7.669  45.805  41.695  1.00  0.00    -0.000 C 
BRANCH  15  16
ATOM     16  C   UNL     1       7.454  46.896  40.631  1.00  0.00    -0.000 C 
BRANCH  16  17
ATOM     17  C   UNL     1       8.747  47.655  40.298  1.00  0.00    -0.003 C 
ATOM     18  C   UNL     1       9.550  48.029  41.543  1.00  0.00     0.004 C 
ENDBRANCH  16  17
ENDBRANCH  15  16
ENDBRANCH  14  15
ENDBRANCH  13  14
ENDBRANCH  12  13
ENDBRANCH  11  12
ENDBRANCH   1  11
TORSDOF 14
ENDMDL
MODEL 6
REMARK VINA RESULT:    -4.857      1.167      2.169
REMARK INTER + INTRA:         -10.074
REMARK INTER:                  -9.182
REMARK INTRA:                  -0.893
REMARK UNBOUND:                -1.242
REMARK SMILES CCCCCCCCCCCCCCCC(=O)[O-]
REMARK SMILES IDX 9 1 10 2 11 3 12 4 13 5 14 6 15 7 16 8 17 9 18 10 8 11 7 12
REMARK SMILES IDX 6 13 5 14 4 15 3 16 2 17 1 18
REMARK H PARENT
REMARK Flexibility Score: inf
ROOT
ATOM      1  C   UNL     1       4.930  41.579  47.217  1.00  0.00     0.000 C 
ENDROOT
BRANCH   1   2
ATOM      2  C   UNL     1       5.585  42.486  46.169  1.00  0.00     0.000 C 
BRANCH   2   3
ATOM      3  C   UNL     1       6.009  41.682  44.934  1.00  0.00     0.000 C 
BRANCH   3   4
ATOM      4  C   UNL     1       6.105  42.583  43.697  1.00  0.00     0.000 C 
BRANCH   4   5
ATOM      5  C   UNL     1       6.619  43.977  44.070  1.00  0.00     0.000 C 
BRANCH   5   6
ATOM      6  C   UNL     1       7.251  44.674  42.855  1.00  0.00     0.006 C 
BRANCH   6   7
ATOM      7  C   UNL     1       7.563  43.691  41.718  1.00  0.00     0.053 C 
BRANCH   7   8
ATOM      8  C   UNL     1       8.909  43.949  41.114  1.00  0.00     0.041 C 
ATOM      9  O   UNL     1       9.087  44.942  40.361  1.00  0.00    -0.550 OA
ATOM     10  O   UNL     1       9.977  43.110  41.410  1.00  0.00    -0.550 OA
ENDBRANCH   7   8
ENDBRANCH   6   7
ENDBRANCH   5   6
ENDBRANCH   4   5
ENDBRANCH   3   4
ENDBRANCH   2   3
ENDBRANCH   1   2
BRANCH   1  11
ATOM     11  C   UNL     1       5.600  41.745  48.586  1.00  0.00     0.000 C 
BRANCH  11  12
ATOM     12  C   UNL     1       6.935  40.987  48.640  1.00  0.00    -0.000 C 
BRANCH  12  13
ATOM     13  C   UNL     1       6.835  39.567  48.060  1.00  0.00    -0.000 C 
BRANCH  13  14
ATOM     14  C   UNL     1       8.102  38.732  48.321  1.00  0.00    -0.000 C 
BRANCH  14  15
ATOM     15  C   UNL     1       9.305  39.598  48.728  1.00  0.00    -0.000 C 
BRANCH  15  16
ATOM     16  C   UNL     1      10.654  38.909  48.457  1.00  0.00    -0.000 C 
BRANCH  16  17
ATOM     17  C   UNL     1      11.839  39.681  49.054  1.00  0.00    -0.003 C 
ATOM     18  C   UNL     1      11.444  40.528  50.263  1.00  0.00     0.004 C 
ENDBRANCH  16  17
ENDBRANCH  15  16
ENDBRANCH  14  15
ENDBRANCH  13  14
ENDBRANCH  12  13
ENDBRANCH  11  12
ENDBRANCH   1  11
TORSDOF 14
ENDMDL
MODEL 7
REMARK VINA RESULT:    -4.844      3.161      5.927
REMARK INTER + INTRA:         -10.049
REMARK INTER:                  -8.308
REMARK INTRA:                  -1.741
REMARK UNBOUND:                -1.242
REMARK SMILES CCCCCCCCCCCCCCCC(=O)[O-]
REMARK SMILES IDX 9 1 10 2 11 3 12 4 13 5 14 6 15 7 16 8 17 9 18 10 8 11 7 12
REMARK SMILES IDX 6 13 5 14 4 15 3 16 2 17 1 18
REMARK H PARENT
REMARK Flexibility Score: inf
ROOT
ATOM      1  C   UNL     1       7.577  44.338  43.071  1.00  0.00     0.000 C 
ENDROOT
BRANCH   1   2
ATOM      2  C   UNL     1       7.565  43.376  41.878  1.00  0.00     0.000 C 
BRANCH   2   3
ATOM      3  C   UNL     1       8.956  43.274  41.240  1.00  0.00     0.000 C 
BRANCH   3   4
ATOM      4  C   UNL     1       9.435  41.818  41.192  1.00  0.00     0.000 C 
BRANCH   4   5
ATOM      5  C   UNL     1       8.740  40.974  42.266  1.00  0.00     0.000 C 
BRANCH   5   6
ATOM      6  C   UNL     1       9.721  40.590  43.384  1.00  0.00     0.006 C 
BRANCH   6   7
ATOM      7  C   UNL     1       9.039  39.805  44.512  1.00  0.00     0.053 C 
BRANCH   7   8
ATOM      8  C   UNL     1       9.888  38.668  44.992  1.00  0.00     0.041 C 
ATOM      9  O   UNL     1       9.970  37.609  44.316  1.00  0.00    -0.550 OA
ATOM     10  O   UNL     1      10.617  38.792  46.168  1.00  0.00    -0.550 OA
ENDBRANCH   7   8
ENDBRANCH   6   7
ENDBRANCH   5   6
ENDBRANCH   4   5
ENDBRANCH   3   4
ENDBRANCH   2   3
ENDBRANCH   1   2
BRANCH   1  11
ATOM     11  C   UNL     1       6.421  44.036  44.033  1.00  0.00     0.000 C 
BRANCH  11  12
ATOM     12  C   UNL     1       5.866  42.622  43.798  1.00  0.00    -0.000 C 
BRANCH  12  13
ATOM     13  C   UNL     1       5.931  41.742  45.057  1.00  0.00    -0.000 C 
BRANCH  13  14
ATOM     14  C   UNL     1       5.246  42.396  46.271  1.00  0.00    -0.000 C 
BRANCH  14  15
ATOM     15  C   UNL     1       5.482  41.612  47.572  1.00  0.00    -0.000 C 
BRANCH  15  16
ATOM     16  C   UNL     1       5.702  40.108  47.330  1.00  0.00    -0.000 C 
BRANCH  16  17
ATOM     17  C   UNL     1       6.813  39.526  48.216  1.00  0.00    -0.003 C 
ATOM     18  C   UNL     1       8.095  40.357  48.178  1.00  0.00     0.004 C 
ENDBRANCH  16  17
ENDBRANCH  15  16
ENDBRANCH  14  15
ENDBRANCH  13  14
ENDBRANCH  12  13
ENDBRANCH  11  12
ENDBRANCH   1  11
TORSDOF 14
ENDMDL
MODEL 8
REMARK VINA RESULT:    -4.832      3.337      7.411
REMARK INTER + INTRA:         -10.027
REMARK INTER:                  -9.363
REMARK INTRA:                  -0.665
REMARK UNBOUND:                -1.242
REMARK SMILES CCCCCCCCCCCCCCCC(=O)[O-]
REMARK SMILES IDX 9 1 10 2 11 3 12 4 13 5 14 6 15 7 16 8 17 9 18 10 8 11 7 12
REMARK SMILES IDX 6 13 5 14 4 15 3 16 2 17 1 18
REMARK H PARENT
REMARK Flexibility Score: inf
ROOT
ATOM      1  C   UNL     1       5.737  41.437  47.587  1.00  0.00     0.000 C 
ENDROOT
BRANCH   1   2
ATOM      2  C   UNL     1       6.869  41.025  48.534  1.00  0.00     0.000 C 
BRANCH   2   3
ATOM      3  C   UNL     1       7.625  39.806  47.990  1.00  0.00     0.000 C 
BRANCH   3   4
ATOM      4  C   UNL     1       9.139  40.054  47.986  1.00  0.00     0.000 C 
BRANCH   4   5
ATOM      5  C   UNL     1       9.641  40.416  49.387  1.00  0.00     0.000 C 
BRANCH   5   6
ATOM      6  C   UNL     1      11.155  40.678  49.379  1.00  0.00     0.006 C 
BRANCH   6   7
ATOM      7  C   UNL     1      11.832  40.132  48.114  1.00  0.00     0.053 C 
BRANCH   7   8
ATOM      8  C   UNL     1      12.864  39.095  48.441  1.00  0.00     0.041 C 
ATOM      9  O   UNL     1      13.908  38.998  47.743  1.00  0.00    -0.550 OA
ATOM     10  O   UNL     1      12.687  38.258  49.535  1.00  0.00    -0.550 OA
ENDBRANCH   7   8
ENDBRANCH   6   7
ENDBRANCH   5   6
ENDBRANCH   4   5
ENDBRANCH   3   4
ENDBRANCH   2   3
ENDBRANCH   1   2
BRANCH   1  11
ATOM     11  C   UNL     1       6.212  41.444  46.129  1.00  0.00     0.000 C 
BRANCH  11  12
ATOM     12  C   UNL     1       5.466  42.511  45.313  1.00  0.00    -0.000 C 
BRANCH  12  13
ATOM     13  C   UNL     1       6.084  42.737  43.923  1.00  0.00    -0.000 C 
BRANCH  13  14
ATOM     14  C   UNL     1       6.717  44.133  43.778  1.00  0.00    -0.000 C 
BRANCH  14  15
ATOM     15  C   UNL     1       7.773  44.187  42.661  1.00  0.00    -0.000 C 
BRANCH  15  16
ATOM     16  C   UNL     1       7.420  45.200  41.558  1.00  0.00    -0.000 C 
BRANCH  16  17
ATOM     17  C   UNL     1       8.330  46.437  41.582  1.00  0.00    -0.003 C 
ATOM     18  C   UNL     1       7.586  47.725  41.232  1.00  0.00     0.004 C 
ENDBRANCH  16  17
ENDBRANCH  15  16
ENDBRANCH  14  15
ENDBRANCH  13  14
ENDBRANCH  12  13
ENDBRANCH  11  12
ENDBRANCH   1  11
TORSDOF 14
ENDMDL
MODEL 9
REMARK VINA RESULT:    -4.815      1.899      3.851
REMARK INTER + INTRA:          -9.997
REMARK INTER:                  -8.411
REMARK INTRA:                  -1.586
REMARK UNBOUND:                -1.242
REMARK SMILES CCCCCCCCCCCCCCCC(=O)[O-]
REMARK SMILES IDX 9 1 10 2 11 3 12 4 13 5 14 6 15 7 16 8 17 9 18 10 8 11 7 12
REMARK SMILES IDX 6 13 5 14 4 15 3 16 2 17 1 18
REMARK H PARENT
REMARK Flexibility Score: inf
ROOT
ATOM      1  C   UNL     1       9.099  40.606  48.910  1.00  0.00     0.000 C 
ENDROOT
BRANCH   1   2
ATOM      2  C   UNL     1       8.226  39.597  48.156  1.00  0.00     0.000 C 
BRANCH   2   3
ATOM      3  C   UNL     1       6.745  39.992  48.223  1.00  0.00     0.000 C 
BRANCH   3   4
ATOM      4  C   UNL     1       6.563  41.318  48.971  1.00  0.00     0.000 C 
BRANCH   4   5
ATOM      5  C   UNL     1       5.467  42.171  48.321  1.00  0.00     0.000 C 
BRANCH   5   6
ATOM      6  C   UNL     1       5.008  41.556  46.990  1.00  0.00     0.006 C 
BRANCH   6   7
ATOM      7  C   UNL     1       5.096  42.555  45.828  1.00  0.00     0.053 C 
BRANCH   7   8
ATOM      8  C   UNL     1       5.881  42.003  44.678  1.00  0.00     0.041 C 
ATOM      9  O   UNL     1       6.574  40.962  44.825  1.00  0.00    -0.550 OA
ATOM     10  O   UNL     1       5.821  42.620  43.435  1.00  0.00    -0.550 OA
ENDBRANCH   7   8
ENDBRANCH   6   7
ENDBRANCH   5   6
ENDBRANCH   4   5
ENDBRANCH   3   4
ENDBRANCH   2   3
ENDBRANCH   1   2
BRANCH   1  11
ATOM     11  C   UNL     1      10.359  39.935  49.469  1.00  0.00     0.000 C 
BRANCH  11  12
ATOM     12  C   UNL     1      11.627  40.640  48.963  1.00  0.00    -0.000 C 
BRANCH  12  13
ATOM     13  C   UNL     1      11.917  40.351  47.481  1.00  0.00    -0.000 C 
BRANCH  13  14
ATOM     14  C   UNL     1      13.317  39.752  47.259  1.00  0.00    -0.000 C 
BRANCH  14  15
ATOM     15  C   UNL     1      13.595  38.550  48.176  1.00  0.00    -0.000 C 
BRANCH  15  16
ATOM     16  C   UNL     1      13.095  37.220  47.584  1.00  0.00    -0.000 C 
BRANCH  16  17
ATOM     17  C   UNL     1      11.868  36.671  48.326  1.00  0.00    -0.003 C 
ATOM     18  C   UNL     1      10.580  36.798  47.513  1.00  0.00     0.004 C 
ENDBRANCH  16  17
ENDBRANCH  15  16
ENDBRANCH  14  15
ENDBRANCH  13  14
ENDBRANCH  12  13
ENDBRANCH  11  12
ENDBRANCH   1  11
TORSDOF 14
ENDMDL
