MODEL 1
REMARK VINA RESULT:    -4.231      0.000      0.000
REMARK INTER + INTRA:          -8.734
REMARK INTER:                  -6.581
REMARK INTRA:                  -2.153
REMARK UNBOUND:                -2.153
REMARK SMILES COc1cc(CNC(=O)CCCCC=CC(C)C)ccc1O
REMARK SMILES IDX 11 1 12 2 13 3 14 4 15 5 16 6 17 7 18 8 10 9 8 10 9 11 7 12
REMARK SMILES IDX 6 14 5 15 4 16 19 17 3 18 20 19 21 20 2 21 1 22 22 23
REMARK H PARENT 7 13 22 24
REMARK Flexibility Score: inf
ROOT
ATOM      1  C   UNL     1     114.542 107.789  96.376  1.00  0.00     0.010 C 
ENDROOT
BRANCH   1   2
ATOM      2  C   UNL     1     113.661 108.869  95.730  1.00  0.00     0.005 C 
BRANCH   2   3
ATOM      3  C   UNL     1     112.183 108.465  95.683  1.00  0.00     0.027 C 
BRANCH   3   4
ATOM      4  C   UNL     1     111.946 107.143  96.365  1.00  0.00    -0.031 C 
ATOM      5  C   UNL     1     111.000 106.292  95.938  1.00  0.00    -0.028 C 
BRANCH   5   6
ATOM      6  C   UNL     1     110.713 105.003  96.671  1.00  0.00     0.005 C 
ATOM      7  C   UNL     1     110.639 105.250  98.182  1.00  0.00     0.012 C 
ATOM      8  C   UNL     1     111.790 103.958  96.353  1.00  0.00     0.012 C 
ENDBRANCH   5   6
ENDBRANCH   3   4
ENDBRANCH   2   3
ENDBRANCH   1   2
BRANCH   1   9
ATOM      9  C   UNL     1     115.543 107.219  95.368  1.00  0.00     0.100 C 
BRANCH   9  10
ATOM     10  C   UNL     1     114.907 106.129  94.558  1.00  0.00     0.220 C 
ATOM     11  O   UNL     1     114.742 104.989  95.071  1.00  0.00    -0.275 OA
ATOM     12  N   UNL     1     114.447 106.399  93.226  1.00  0.00    -0.352 N 
ATOM     13  H   UNL     1     114.505 107.375  92.858  1.00  0.00     0.163 HD
BRANCH  12  14
ATOM     14  C   UNL     1     113.857 105.369  92.375  1.00  0.00     0.151 C 
BRANCH  14  15
ATOM     15  C   UNL     1     112.356 105.399  92.479  1.00  0.00    -0.025 A 
ATOM     16  C   UNL     1     111.665 106.613  92.331  1.00  0.00     0.056 A 
ATOM     17  C   UNL     1     111.634 104.220  92.713  1.00  0.00     0.009 A 
ATOM     18  C   UNL     1     110.258 106.654  92.415  1.00  0.00     0.160 A 
ATOM     19  C   UNL     1     110.240 104.253  92.802  1.00  0.00     0.050 A 
ATOM     20  C   UNL     1     109.549 105.461  92.653  1.00  0.00     0.157 A 
BRANCH  18  21
ATOM     21  O   UNL     1     109.539 107.852  92.268  1.00  0.00    -0.493 OA
ATOM     22  C   UNL     1     109.117 108.393  91.019  1.00  0.00     0.278 C 
ENDBRANCH  18  21
BRANCH  20  23
ATOM     23  O   UNL     1     108.158 105.456  92.746  1.00  0.00    -0.504 OA
ATOM     24  H   UNL     1     107.563 105.361  91.932  1.00  0.00     0.293 HD
ENDBRANCH  20  23
ENDBRANCH  14  15
ENDBRANCH  12  14
ENDBRANCH   9  10
ENDBRANCH   1   9
TORSDOF 10
ENDMDL
MODEL 2
REMARK VINA RESULT:    -4.212      1.558      2.425
REMARK INTER + INTRA:          -8.704
REMARK INTER:                  -6.544
REMARK INTRA:                  -2.160
REMARK UNBOUND:                -2.153
REMARK SMILES COc1cc(CNC(=O)CCCCC=CC(C)C)ccc1O
REMARK SMILES IDX 11 1 12 2 13 3 14 4 15 5 16 6 17 7 18 8 10 9 8 10 9 11 7 12
REMARK SMILES IDX 6 14 5 15 4 16 19 17 3 18 20 19 21 20 2 21 1 22 22 23
REMARK H PARENT 7 13 22 24
REMARK Flexibility Score: inf
ROOT
ATOM      1  C   UNL     1     115.044 106.030  95.190  1.00  0.00     0.010 C 
ENDROOT
BRANCH   1   2
ATOM      2  C   UNL     1     114.492 104.663  95.623  1.00  0.00     0.005 C 
BRANCH   2   3
ATOM      3  C   UNL     1     112.995 104.517  95.326  1.00  0.00     0.027 C 
BRANCH   3   4
ATOM      4  C   UNL     1     112.358 105.846  95.017  1.00  0.00    -0.031 C 
ATOM      5  C   UNL     1     111.254 106.261  95.656  1.00  0.00    -0.028 C 
BRANCH   5   6
ATOM      6  C   UNL     1     110.573 107.559  95.289  1.00  0.00     0.005 C 
ATOM      7  C   UNL     1     111.513 108.441  94.459  1.00  0.00     0.012 C 
ATOM      8  C   UNL     1     110.123 108.301  96.554  1.00  0.00     0.012 C 
ENDBRANCH   5   6
ENDBRANCH   3   4
ENDBRANCH   2   3
ENDBRANCH   1   2
BRANCH   1   9
ATOM      9  C   UNL     1     115.787 105.926  93.856  1.00  0.00     0.100 C 
BRANCH   9  10
ATOM     10  C   UNL     1     114.843 106.146  92.712  1.00  0.00     0.220 C 
ATOM     11  O   UNL     1     114.507 107.322  92.401  1.00  0.00    -0.275 OA
ATOM     12  N   UNL     1     114.366 105.029  91.949  1.00  0.00    -0.352 N 
ATOM     13  H   UNL     1     114.733 104.075  92.164  1.00  0.00     0.163 HD
BRANCH  12  14
ATOM     14  C   UNL     1     113.414 105.177  90.851  1.00  0.00     0.151 C 
BRANCH  14  15
ATOM     15  C   UNL     1     112.006 105.222  91.381  1.00  0.00    -0.025 A 
ATOM     16  C   UNL     1     111.257 106.407  91.287  1.00  0.00     0.056 A 
ATOM     17  C   UNL     1     111.425 104.085  91.960  1.00  0.00     0.009 A 
ATOM     18  C   UNL     1     109.933 106.460  91.769  1.00  0.00     0.160 A 
ATOM     19  C   UNL     1     110.115 104.131  92.443  1.00  0.00     0.050 A 
ATOM     20  C   UNL     1     109.366 105.310  92.349  1.00  0.00     0.157 A 
BRANCH  18  21
ATOM     21  O   UNL     1     109.158 107.630  91.686  1.00  0.00    -0.493 OA
ATOM     22  C   UNL     1     109.165 108.526  90.578  1.00  0.00     0.278 C 
ENDBRANCH  18  21
BRANCH  20  23
ATOM     23  O   UNL     1     108.061 105.319  92.841  1.00  0.00    -0.504 OA
ATOM     24  H   UNL     1     107.376 104.625  92.566  1.00  0.00     0.293 HD
ENDBRANCH  20  23
ENDBRANCH  14  15
ENDBRANCH  12  14
ENDBRANCH   9  10
ENDBRANCH   1   9
TORSDOF 10
ENDMDL
MODEL 3
REMARK VINA RESULT:    -4.197      2.999      5.178
REMARK INTER + INTRA:          -8.681
REMARK INTER:                  -7.293
REMARK INTRA:                  -1.388
REMARK UNBOUND:                -2.153
REMARK SMILES COc1cc(CNC(=O)CCCCC=CC(C)C)ccc1O
REMARK SMILES IDX 11 1 12 2 13 3 14 4 15 5 16 6 17 7 18 8 10 9 8 10 9 11 7 12
REMARK SMILES IDX 6 14 5 15 4 16 19 17 3 18 20 19 21 20 2 21 1 22 22 23
REMARK H PARENT 7 13 22 24
REMARK Flexibility Score: inf
ROOT
ATOM      1  C   UNL     1     109.881 104.333  93.807  1.00  0.00     0.010 C 
ENDROOT
BRANCH   1   2
ATOM      2  C   UNL     1     111.407 104.160  93.861  1.00  0.00     0.005 C 
BRANCH   2   3
ATOM      3  C   UNL     1     112.018 104.758  95.134  1.00  0.00     0.027 C 
BRANCH   3   4
ATOM      4  C   UNL     1     111.044 104.731  96.282  1.00  0.00    -0.031 C 
ATOM      5  C   UNL     1     110.720 105.846  96.955  1.00  0.00    -0.028 C 
BRANCH   5   6
ATOM      6  C   UNL     1     109.804 105.804  98.155  1.00  0.00     0.005 C 
ATOM      7  C   UNL     1     109.550 107.219  98.687  1.00  0.00     0.012 C 
ATOM      8  C   UNL     1     110.406 104.920  99.255  1.00  0.00     0.012 C 
ENDBRANCH   5   6
ENDBRANCH   3   4
ENDBRANCH   2   3
ENDBRANCH   1   2
BRANCH   1   9
ATOM      9  C   UNL     1     109.403 104.560  92.371  1.00  0.00     0.100 C 
BRANCH   9  10
ATOM     10  C   UNL     1     109.637 105.984  91.961  1.00  0.00     0.220 C 
ATOM     11  O   UNL     1     110.515 106.244  91.093  1.00  0.00    -0.275 OA
ATOM     12  N   UNL     1     108.833 107.033  92.518  1.00  0.00    -0.352 N 
ATOM     13  H   UNL     1     108.049 106.783  93.160  1.00  0.00     0.163 HD
BRANCH  12  14
ATOM     14  C   UNL     1     109.041 108.441  92.189  1.00  0.00     0.151 C 
BRANCH  14  15
ATOM     15  C   UNL     1     109.612 109.177  93.371  1.00  0.00    -0.025 A 
ATOM     16  C   UNL     1     109.694 110.579  93.353  1.00  0.00     0.056 A 
ATOM     17  C   UNL     1     110.056 108.476  94.501  1.00  0.00     0.009 A 
ATOM     18  C   UNL     1     110.217 111.283  94.457  1.00  0.00     0.160 A 
ATOM     19  C   UNL     1     110.578 109.166  95.598  1.00  0.00     0.050 A 
ATOM     20  C   UNL     1     110.659 110.563  95.583  1.00  0.00     0.157 A 
BRANCH  18  21
ATOM     21  O   UNL     1     110.308 112.685  94.470  1.00  0.00    -0.493 OA
ATOM     22  C   UNL     1     109.221 113.563  94.748  1.00  0.00     0.278 C 
ENDBRANCH  18  21
BRANCH  20  23
ATOM     23  O   UNL     1     111.184 111.218  96.696  1.00  0.00    -0.504 OA
ATOM     24  H   UNL     1     110.732 111.191  97.602  1.00  0.00     0.293 HD
ENDBRANCH  20  23
ENDBRANCH  14  15
ENDBRANCH  12  14
ENDBRANCH   9  10
ENDBRANCH   1   9
TORSDOF 10
ENDMDL
MODEL 4
REMARK VINA RESULT:    -4.171      2.540      4.122
REMARK INTER + INTRA:          -8.642
REMARK INTER:                  -6.276
REMARK INTRA:                  -2.366
REMARK UNBOUND:                -2.153
REMARK SMILES COc1cc(CNC(=O)CCCCC=CC(C)C)ccc1O
REMARK SMILES IDX 11 1 12 2 13 3 14 4 15 5 16 6 17 7 18 8 10 9 8 10 9 11 7 12
REMARK SMILES IDX 6 14 5 15 4 16 19 17 3 18 20 19 21 20 2 21 1 22 22 23
REMARK H PARENT 7 13 22 24
REMARK Flexibility Score: inf
ROOT
ATOM      1  C   UNL     1     110.195 105.876  97.120  1.00  0.00     0.010 C 
ENDROOT
BRANCH   1   2
ATOM      2  C   UNL     1     111.460 105.003  97.125  1.00  0.00     0.005 C 
BRANCH   2   3
ATOM      3  C   UNL     1     111.500 104.027  95.943  1.00  0.00     0.027 C 
BRANCH   3   4
ATOM      4  C   UNL     1     112.350 104.553  94.817  1.00  0.00    -0.031 C 
ATOM      5  C   UNL     1     113.181 105.592  94.991  1.00  0.00    -0.028 C 
BRANCH   5   6
ATOM      6  C   UNL     1     113.974 106.167  93.840  1.00  0.00     0.005 C 
ATOM      7  C   UNL     1     113.587 107.632  93.602  1.00  0.00     0.012 C 
ATOM      8  C   UNL     1     113.744 105.340  92.569  1.00  0.00     0.012 C 
ENDBRANCH   5   6
ENDBRANCH   3   4
ENDBRANCH   2   3
ENDBRANCH   1   2
BRANCH   1   9
ATOM      9  C   UNL     1     110.551 107.362  97.211  1.00  0.00     0.100 C 
BRANCH   9  10
ATOM     10  C   UNL     1     110.412 108.017  95.870  1.00  0.00     0.220 C 
ATOM     11  O   UNL     1     110.735 109.229  95.733  1.00  0.00    -0.275 OA
ATOM     12  N   UNL     1     109.960 107.255  94.742  1.00  0.00    -0.352 N 
ATOM     13  H   UNL     1     109.792 106.230  94.857  1.00  0.00     0.163 HD
BRANCH  12  14
ATOM     14  C   UNL     1     109.765 107.847  93.420  1.00  0.00     0.151 C 
BRANCH  14  15
ATOM     15  C   UNL     1     110.094 106.848  92.344  1.00  0.00    -0.025 A 
ATOM     16  C   UNL     1     110.731 107.269  91.165  1.00  0.00     0.056 A 
ATOM     17  C   UNL     1     109.779 105.492  92.511  1.00  0.00     0.009 A 
ATOM     18  C   UNL     1     111.054 106.342  90.153  1.00  0.00     0.160 A 
ATOM     19  C   UNL     1     110.094 104.568  91.511  1.00  0.00     0.050 A 
ATOM     20  C   UNL     1     110.730 104.984  90.336  1.00  0.00     0.157 A 
BRANCH  18  21
ATOM     21  O   UNL     1     111.694 106.733  88.964  1.00  0.00    -0.493 OA
ATOM     22  C   UNL     1     111.072 107.474  87.918  1.00  0.00     0.278 C 
ENDBRANCH  18  21
BRANCH  20  23
ATOM     23  O   UNL     1     111.030 104.035  89.360  1.00  0.00    -0.504 OA
ATOM     24  H   UNL     1     110.788 103.057  89.466  1.00  0.00     0.293 HD
ENDBRANCH  20  23
ENDBRANCH  14  15
ENDBRANCH  12  14
ENDBRANCH   9  10
ENDBRANCH   1   9
TORSDOF 10
ENDMDL
MODEL 5
REMARK VINA RESULT:    -4.114      2.394      5.270
REMARK INTER + INTRA:          -8.552
REMARK INTER:                  -6.880
REMARK INTRA:                  -1.672
REMARK UNBOUND:                -2.153
REMARK SMILES COc1cc(CNC(=O)CCCCC=CC(C)C)ccc1O
REMARK SMILES IDX 11 1 12 2 13 3 14 4 15 5 16 6 17 7 18 8 10 9 8 10 9 11 7 12
REMARK SMILES IDX 6 14 5 15 4 16 19 17 3 18 20 19 21 20 2 21 1 22 22 23
REMARK H PARENT 7 13 22 24
REMARK Flexibility Score: inf
ROOT
ATOM      1  C   UNL     1     109.768 104.142  93.626  1.00  0.00     0.010 C 
ENDROOT
BRANCH   1   2
ATOM      2  C   UNL     1     111.301 104.041  93.663  1.00  0.00     0.005 C 
BRANCH   2   3
ATOM      3  C   UNL     1     111.890 104.562  94.979  1.00  0.00     0.027 C 
BRANCH   3   4
ATOM      4  C   UNL     1     110.835 104.693  96.045  1.00  0.00    -0.031 C 
ATOM      5  C   UNL     1     110.782 105.763  96.854  1.00  0.00    -0.028 C 
BRANCH   5   6
ATOM      6  C   UNL     1     109.772 105.855  97.973  1.00  0.00     0.005 C 
ATOM      7  C   UNL     1     109.530 107.319  98.358  1.00  0.00     0.012 C 
ATOM      8  C   UNL     1     110.251 105.054  99.191  1.00  0.00     0.012 C 
ENDBRANCH   5   6
ENDBRANCH   3   4
ENDBRANCH   2   3
ENDBRANCH   1   2
BRANCH   1   9
ATOM      9  C   UNL     1     109.280 104.618  92.256  1.00  0.00     0.100 C 
BRANCH   9  10
ATOM     10  C   UNL     1     109.510 106.092  92.101  1.00  0.00     0.220 C 
ATOM     11  O   UNL     1     110.177 106.517  91.118  1.00  0.00    -0.275 OA
ATOM     12  N   UNL     1     108.932 107.011  93.039  1.00  0.00    -0.352 N 
ATOM     13  H   UNL     1     108.304 106.642  93.788  1.00  0.00     0.163 HD
BRANCH  12  14
ATOM     14  C   UNL     1     109.154 108.453  92.965  1.00  0.00     0.151 C 
BRANCH  14  15
ATOM     15  C   UNL     1     110.114 108.892  94.037  1.00  0.00    -0.025 A 
ATOM     16  C   UNL     1     111.300 108.171  94.256  1.00  0.00     0.056 A 
ATOM     17  C   UNL     1     109.843 110.025  94.817  1.00  0.00     0.009 A 
ATOM     18  C   UNL     1     112.214 108.577  95.250  1.00  0.00     0.160 A 
ATOM     19  C   UNL     1     110.742 110.431  95.806  1.00  0.00     0.050 A 
ATOM     20  C   UNL     1     111.925 109.716  96.025  1.00  0.00     0.157 A 
BRANCH  18  21
ATOM     21  O   UNL     1     113.410 107.878  95.491  1.00  0.00    -0.493 OA
ATOM     22  C   UNL     1     114.620 108.074  94.765  1.00  0.00     0.278 C 
ENDBRANCH  18  21
BRANCH  20  23
ATOM     23  O   UNL     1     112.800 110.151  97.020  1.00  0.00    -0.504 OA
ATOM     24  H   UNL     1     113.473 109.533  97.455  1.00  0.00     0.293 HD
ENDBRANCH  20  23
ENDBRANCH  14  15
ENDBRANCH  12  14
ENDBRANCH   9  10
ENDBRANCH   1   9
TORSDOF 10
ENDMDL
MODEL 6
REMARK VINA RESULT:    -4.086      2.141      4.659
REMARK INTER + INTRA:          -8.508
REMARK INTER:                  -6.595
REMARK INTRA:                  -1.913
REMARK UNBOUND:                -2.153
REMARK SMILES COc1cc(CNC(=O)CCCCC=CC(C)C)ccc1O
REMARK SMILES IDX 11 1 12 2 13 3 14 4 15 5 16 6 17 7 18 8 10 9 8 10 9 11 7 12
REMARK SMILES IDX 6 14 5 15 4 16 19 17 3 18 20 19 21 20 2 21 1 22 22 23
REMARK H PARENT 7 13 22 24
REMARK Flexibility Score: inf
ROOT
ATOM      1  C   UNL     1     109.990 109.738  91.150  1.00  0.00     0.010 C 
ENDROOT
BRANCH   1   2
ATOM      2  C   UNL     1     111.044 109.836  92.264  1.00  0.00     0.005 C 
BRANCH   2   3
ATOM      3  C   UNL     1     110.413 109.986  93.653  1.00  0.00     0.027 C 
BRANCH   3   4
ATOM      4  C   UNL     1     110.897 108.921  94.601  1.00  0.00    -0.031 C 
ATOM      5  C   UNL     1     110.067 108.326  95.472  1.00  0.00    -0.028 C 
BRANCH   5   6
ATOM      6  C   UNL     1     110.572 107.313  96.474  1.00  0.00     0.005 C 
ATOM      7  C   UNL     1     109.759 107.393  97.771  1.00  0.00     0.012 C 
ATOM      8  C   UNL     1     112.060 107.544  96.761  1.00  0.00     0.012 C 
ENDBRANCH   5   6
ENDBRANCH   3   4
ENDBRANCH   2   3
ENDBRANCH   1   2
BRANCH   1   9
ATOM      9  C   UNL     1     108.835 108.823  91.565  1.00  0.00     0.100 C 
BRANCH   9  10
ATOM     10  C   UNL     1     109.269 107.387  91.537  1.00  0.00     0.220 C 
ATOM     11  O   UNL     1     110.012 106.980  90.602  1.00  0.00    -0.275 OA
ATOM     12  N   UNL     1     108.880 106.500  92.595  1.00  0.00    -0.352 N 
ATOM     13  H   UNL     1     108.347 106.883  93.407  1.00  0.00     0.163 HD
BRANCH  12  14
ATOM     14  C   UNL     1     109.237 105.083  92.602  1.00  0.00     0.151 C 
BRANCH  14  15
ATOM     15  C   UNL     1     110.469 104.858  93.436  1.00  0.00    -0.025 A 
ATOM     16  C   UNL     1     111.694 105.426  93.049  1.00  0.00     0.056 A 
ATOM     17  C   UNL     1     110.406 104.091  94.609  1.00  0.00     0.009 A 
ATOM     18  C   UNL     1     112.854 105.232  93.826  1.00  0.00     0.160 A 
ATOM     19  C   UNL     1     111.552 103.892  95.382  1.00  0.00     0.050 A 
ATOM     20  C   UNL     1     112.773 104.458  94.999  1.00  0.00     0.157 A 
BRANCH  18  21
ATOM     21  O   UNL     1     114.093 105.790  93.465  1.00  0.00    -0.493 OA
ATOM     22  C   UNL     1     114.601 105.835  92.135  1.00  0.00     0.278 C 
ENDBRANCH  18  21
BRANCH  20  23
ATOM     23  O   UNL     1     113.896 104.239  95.797  1.00  0.00    -0.504 OA
ATOM     24  H   UNL     1     114.782 104.696  95.618  1.00  0.00     0.293 HD
ENDBRANCH  20  23
ENDBRANCH  14  15
ENDBRANCH  12  14
ENDBRANCH   9  10
ENDBRANCH   1   9
TORSDOF 10
ENDMDL
MODEL 7
REMARK VINA RESULT:    -4.048      2.731      5.537
REMARK INTER + INTRA:          -8.449
REMARK INTER:                  -6.377
REMARK INTRA:                  -2.072
REMARK UNBOUND:                -2.153
REMARK SMILES COc1cc(CNC(=O)CCCCC=CC(C)C)ccc1O
REMARK SMILES IDX 11 1 12 2 13 3 14 4 15 5 16 6 17 7 18 8 10 9 8 10 9 11 7 12
REMARK SMILES IDX 6 14 5 15 4 16 19 17 3 18 20 19 21 20 2 21 1 22 22 23
REMARK H PARENT 7 13 22 24
REMARK Flexibility Score: inf
ROOT
ATOM      1  C   UNL     1     110.601 103.942  93.108  1.00  0.00     0.010 C 
ENDROOT
BRANCH   1   2
ATOM      2  C   UNL     1     110.419 104.151  94.619  1.00  0.00     0.005 C 
BRANCH   2   3
ATOM      3  C   UNL     1     111.721 103.933  95.400  1.00  0.00     0.027 C 
BRANCH   3   4
ATOM      4  C   UNL     1     112.763 104.957  95.039  1.00  0.00    -0.031 C 
ATOM      5  C   UNL     1     112.955 106.057  95.784  1.00  0.00    -0.028 C 
BRANCH   5   6
ATOM      6  C   UNL     1     113.948 107.121  95.376  1.00  0.00     0.005 C 
ATOM      7  C   UNL     1     114.224 108.073  96.546  1.00  0.00     0.012 C 
ATOM      8  C   UNL     1     113.424 107.901  94.164  1.00  0.00     0.012 C 
ENDBRANCH   5   6
ENDBRANCH   3   4
ENDBRANCH   2   3
ENDBRANCH   1   2
BRANCH   1   9
ATOM      9  C   UNL     1     109.497 104.647  92.318  1.00  0.00     0.100 C 
BRANCH   9  10
ATOM     10  C   UNL     1     109.785 106.115  92.212  1.00  0.00     0.220 C 
ATOM     11  O   UNL     1     110.661 106.520  91.399  1.00  0.00    -0.275 OA
ATOM     12  N   UNL     1     109.033 107.053  92.995  1.00  0.00    -0.352 N 
ATOM     13  H   UNL     1     108.247 106.703  93.587  1.00  0.00     0.163 HD
BRANCH  12  14
ATOM     14  C   UNL     1     109.295 108.489  92.965  1.00  0.00     0.151 C 
BRANCH  14  15
ATOM     15  C   UNL     1     109.871 108.944  94.279  1.00  0.00    -0.025 A 
ATOM     16  C   UNL     1     109.847 108.087  95.391  1.00  0.00     0.056 A 
ATOM     17  C   UNL     1     110.445 110.218  94.403  1.00  0.00     0.009 A 
ATOM     18  C   UNL     1     110.394 108.496  96.625  1.00  0.00     0.160 A 
ATOM     19  C   UNL     1     110.985 110.631  95.624  1.00  0.00     0.050 A 
ATOM     20  C   UNL     1     110.964 109.778  96.733  1.00  0.00     0.157 A 
BRANCH  18  21
ATOM     21  O   UNL     1     110.387 107.659  97.755  1.00  0.00    -0.493 OA
ATOM     22  C   UNL     1     109.840 106.343  97.782  1.00  0.00     0.278 C 
ENDBRANCH  18  21
BRANCH  20  23
ATOM     23  O   UNL     1     111.514 110.224  97.934  1.00  0.00    -0.504 OA
ATOM     24  H   UNL     1     112.512 110.218  98.107  1.00  0.00     0.293 HD
ENDBRANCH  20  23
ENDBRANCH  14  15
ENDBRANCH  12  14
ENDBRANCH   9  10
ENDBRANCH   1   9
TORSDOF 10
ENDMDL
MODEL 8
REMARK VINA RESULT:    -4.009      2.330      4.402
REMARK INTER + INTRA:          -8.388
REMARK INTER:                  -6.034
REMARK INTRA:                  -2.355
REMARK UNBOUND:                -2.153
REMARK SMILES COc1cc(CNC(=O)CCCCC=CC(C)C)ccc1O
REMARK SMILES IDX 11 1 12 2 13 3 14 4 15 5 16 6 17 7 18 8 10 9 8 10 9 11 7 12
REMARK SMILES IDX 6 14 5 15 4 16 19 17 3 18 20 19 21 20 2 21 1 22 22 23
REMARK H PARENT 7 13 22 24
REMARK Flexibility Score: inf
ROOT
ATOM      1  C   UNL     1     109.596 105.871  97.863  1.00  0.00     0.010 C 
ENDROOT
BRANCH   1   2
ATOM      2  C   UNL     1     110.986 105.298  97.544  1.00  0.00     0.005 C 
BRANCH   2   3
ATOM      3  C   UNL     1     111.050 104.661  96.151  1.00  0.00     0.027 C 
BRANCH   3   4
ATOM      4  C   UNL     1     112.377 104.913  95.486  1.00  0.00    -0.031 C 
ATOM      5  C   UNL     1     113.001 106.097  95.590  1.00  0.00    -0.028 C 
BRANCH   5   6
ATOM      6  C   UNL     1     114.294 106.372  94.859  1.00  0.00     0.005 C 
ATOM      7  C   UNL     1     114.532 107.882  94.739  1.00  0.00     0.012 C 
ATOM      8  C   UNL     1     114.268 105.724  93.469  1.00  0.00     0.012 C 
ENDBRANCH   5   6
ENDBRANCH   3   4
ENDBRANCH   2   3
ENDBRANCH   1   2
BRANCH   1   9
ATOM      9  C   UNL     1     109.691 107.336  98.295  1.00  0.00     0.100 C 
BRANCH   9  10
ATOM     10  C   UNL     1     110.307 108.164  97.206  1.00  0.00     0.220 C 
ATOM     11  O   UNL     1     111.384 108.782  97.429  1.00  0.00    -0.275 OA
ATOM     12  N   UNL     1     109.698 108.210  95.908  1.00  0.00    -0.352 N 
ATOM     13  H   UNL     1     108.862 107.613  95.719  1.00  0.00     0.163 HD
BRANCH  12  14
ATOM     14  C   UNL     1     110.228 109.029  94.821  1.00  0.00     0.151 C 
BRANCH  14  15
ATOM     15  C   UNL     1     110.568 108.169  93.634  1.00  0.00    -0.025 A 
ATOM     16  C   UNL     1     109.891 106.955  93.428  1.00  0.00     0.056 A 
ATOM     17  C   UNL     1     111.551 108.573  92.719  1.00  0.00     0.009 A 
ATOM     18  C   UNL     1     110.192 106.145  92.314  1.00  0.00     0.160 A 
ATOM     19  C   UNL     1     111.857 107.773  91.614  1.00  0.00     0.050 A 
ATOM     20  C   UNL     1     111.183 106.564  91.407  1.00  0.00     0.157 A 
BRANCH  18  21
ATOM     21  O   UNL     1     109.530 104.927  92.081  1.00  0.00    -0.493 OA
ATOM     22  C   UNL     1     108.746 104.235  93.049  1.00  0.00     0.278 C 
ENDBRANCH  18  21
BRANCH  20  23
ATOM     23  O   UNL     1     111.513 105.793  90.293  1.00  0.00    -0.504 OA
ATOM     24  H   UNL     1     110.811 105.319  89.737  1.00  0.00     0.293 HD
ENDBRANCH  20  23
ENDBRANCH  14  15
ENDBRANCH  12  14
ENDBRANCH   9  10
ENDBRANCH   1   9
TORSDOF 10
ENDMDL
MODEL 9
REMARK VINA RESULT:    -3.995      2.278      5.011
REMARK INTER + INTRA:          -8.367
REMARK INTER:                  -6.382
REMARK INTRA:                  -1.985
REMARK UNBOUND:                -2.153
REMARK SMILES COc1cc(CNC(=O)CCCCC=CC(C)C)ccc1O
REMARK SMILES IDX 11 1 12 2 13 3 14 4 15 5 16 6 17 7 18 8 10 9 8 10 9 11 7 12
REMARK SMILES IDX 6 14 5 15 4 16 19 17 3 18 20 19 21 20 2 21 1 22 22 23
REMARK H PARENT 7 13 22 24
REMARK Flexibility Score: inf
ROOT
ATOM      1  C   UNL     1     111.598 103.896  91.556  1.00  0.00     0.010 C 
ENDROOT
BRANCH   1   2
ATOM      2  C   UNL     1     110.230 104.577  91.394  1.00  0.00     0.005 C 
BRANCH   2   3
ATOM      3  C   UNL     1     109.561 104.872  92.742  1.00  0.00     0.027 C 
BRANCH   3   4
ATOM      4  C   UNL     1     109.670 106.329  93.108  1.00  0.00    -0.031 C 
ATOM      5  C   UNL     1     109.613 107.293  92.176  1.00  0.00    -0.028 C 
BRANCH   5   6
ATOM      6  C   UNL     1     109.801 108.748  92.537  1.00  0.00     0.005 C 
ATOM      7  C   UNL     1     111.254 109.017  92.944  1.00  0.00     0.012 C 
ATOM      8  C   UNL     1     108.847 109.143  93.671  1.00  0.00     0.012 C 
ENDBRANCH   5   6
ENDBRANCH   3   4
ENDBRANCH   2   3
ENDBRANCH   1   2
BRANCH   1   9
ATOM      9  C   UNL     1     112.739 104.894  91.345  1.00  0.00     0.100 C 
BRANCH   9  10
ATOM     10  C   UNL     1     113.212 105.434  92.661  1.00  0.00     0.220 C 
ATOM     11  O   UNL     1     113.811 106.544  92.698  1.00  0.00    -0.275 OA
ATOM     12  N   UNL     1     112.940 104.714  93.872  1.00  0.00    -0.352 N 
ATOM     13  H   UNL     1     112.359 103.848  93.827  1.00  0.00     0.163 HD
BRANCH  12  14
ATOM     14  C   UNL     1     113.411 105.169  95.178  1.00  0.00     0.151 C 
BRANCH  14  15
ATOM     15  C   UNL     1     112.275 105.759  95.969  1.00  0.00    -0.025 A 
ATOM     16  C   UNL     1     112.070 107.148  95.976  1.00  0.00     0.056 A 
ATOM     17  C   UNL     1     111.407 104.931  96.695  1.00  0.00     0.009 A 
ATOM     18  C   UNL     1     111.002 107.714  96.703  1.00  0.00     0.160 A 
ATOM     19  C   UNL     1     110.349 105.484  97.421  1.00  0.00     0.050 A 
ATOM     20  C   UNL     1     110.141 106.868  97.428  1.00  0.00     0.157 A 
BRANCH  18  21
ATOM     21  O   UNL     1     110.770 109.100  96.726  1.00  0.00    -0.493 OA
ATOM     22  C   UNL     1     111.422 110.013  97.605  1.00  0.00     0.278 C 
ENDBRANCH  18  21
BRANCH  20  23
ATOM     23  O   UNL     1     109.075 107.385  98.163  1.00  0.00    -0.504 OA
ATOM     24  H   UNL     1     108.953 107.188  99.149  1.00  0.00     0.293 HD
ENDBRANCH  20  23
ENDBRANCH  14  15
ENDBRANCH  12  14
ENDBRANCH   9  10
ENDBRANCH   1   9
TORSDOF 10
ENDMDL
