MODEL 1
REMARK VINA RESULT:    -4.966      0.000      0.000
REMARK INTER + INTRA:          -4.966
REMARK INTER:                  -4.966
REMARK INTRA:                   0.000
REMARK UNBOUND:                 0.000
REMARK SMILES C=C1CCC[C@]2(C)CC(=O)C(=C(C)C)C[C@@H]12
REMARK SMILES IDX 13 1 12 2 11 3 15 4 16 5 2 6 1 7 3 8 4 9 5 10 6 11 8 12 9 13
REMARK SMILES IDX 10 14 7 15 14 16
REMARK H PARENT
REMARK Flexibility Score: inf
ROOT
ATOM      1  C   UNL     1      24.290  44.913  87.175  1.00  0.00     0.039 C 
ATOM      2  C   UNL     1      25.763  44.781  87.487  1.00  0.00    -0.070 C 
ATOM      3  C   UNL     1      26.710  44.931  86.515  1.00  0.00    -0.006 C 
ATOM      4  C   UNL     1      26.320  45.215  85.070  1.00  0.00     0.047 C 
ATOM      5  C   UNL     1      27.332  44.637  84.050  1.00  0.00     0.025 C 
ATOM      6  C   UNL     1      27.013  44.925  82.583  1.00  0.00    -0.073 C 
ATOM      7  C   UNL     1      25.945  45.636  82.169  1.00  0.00     0.008 C 
ATOM      8  C   UNL     1      27.951  44.323  81.565  1.00  0.00     0.031 C 
ATOM      9  C   UNL     1      29.400  44.705  81.883  1.00  0.00     0.005 C 
ATOM     10  C   UNL     1      29.764  44.385  83.343  1.00  0.00     0.008 C 
ATOM     11  C   UNL     1      28.803  45.051  84.373  1.00  0.00    -0.018 C 
ATOM     12  C   UNL     1      29.167  44.524  85.782  1.00  0.00     0.088 C 
ATOM     13  C   UNL     1      28.171  44.951  86.821  1.00  0.00     0.159 C 
ATOM     14  O   UNL     1      28.598  45.335  87.943  1.00  0.00    -0.295 OA
ATOM     15  C   UNL     1      28.990  46.593  84.337  1.00  0.00     0.012 C 
ATOM     16  C   UNL     1      26.132  44.440  88.913  1.00  0.00     0.039 C 
ENDROOT
TORSDOF 0
ENDMDL
MODEL 2
REMARK VINA RESULT:    -4.796     16.628     18.654
REMARK INTER + INTRA:          -4.796
REMARK INTER:                  -4.796
REMARK INTRA:                   0.000
REMARK UNBOUND:                 0.000
REMARK SMILES C=C1CCC[C@]2(C)CC(=O)C(=C(C)C)C[C@@H]12
REMARK SMILES IDX 13 1 12 2 11 3 15 4 16 5 2 6 1 7 3 8 4 9 5 10 6 11 8 12 9 13
REMARK SMILES IDX 10 14 7 15 14 16
REMARK H PARENT
REMARK Flexibility Score: inf
ROOT
ATOM      1  C   UNL     1      24.253  34.145  72.069  1.00  0.00     0.039 C 
ATOM      2  C   UNL     1      25.753  34.272  71.923  1.00  0.00    -0.070 C 
ATOM      3  C   UNL     1      26.572  33.186  72.047  1.00  0.00    -0.006 C 
ATOM      4  C   UNL     1      26.009  31.805  72.358  1.00  0.00     0.047 C 
ATOM      5  C   UNL     1      26.994  30.924  73.164  1.00  0.00     0.025 C 
ATOM      6  C   UNL     1      26.499  29.511  73.473  1.00  0.00    -0.073 C 
ATOM      7  C   UNL     1      25.305  29.028  73.079  1.00  0.00     0.008 C 
ATOM      8  C   UNL     1      27.416  28.650  74.308  1.00  0.00     0.031 C 
ATOM      9  C   UNL     1      28.816  28.603  73.689  1.00  0.00     0.005 C 
ATOM     10  C   UNL     1      29.360  30.015  73.408  1.00  0.00     0.008 C 
ATOM     11  C   UNL     1      28.412  30.868  72.512  1.00  0.00    -0.018 C 
ATOM     12  C   UNL     1      28.981  32.305  72.440  1.00  0.00     0.088 C 
ATOM     13  C   UNL     1      28.035  33.256  71.765  1.00  0.00     0.159 C 
ATOM     14  O   UNL     1      28.505  34.097  70.951  1.00  0.00    -0.295 OA
ATOM     15  C   UNL     1      28.366  30.262  71.081  1.00  0.00     0.012 C 
ATOM     16  C   UNL     1      26.301  35.659  71.674  1.00  0.00     0.039 C 
ENDROOT
TORSDOF 0
ENDMDL
MODEL 3
REMARK VINA RESULT:    -4.681      8.046      9.949
REMARK INTER + INTRA:          -4.681
REMARK INTER:                  -4.681
REMARK INTRA:                   0.000
REMARK UNBOUND:                 0.000
REMARK SMILES C=C1CCC[C@]2(C)CC(=O)C(=C(C)C)C[C@@H]12
REMARK SMILES IDX 13 1 12 2 11 3 15 4 16 5 2 6 1 7 3 8 4 9 5 10 6 11 8 12 9 13
REMARK SMILES IDX 10 14 7 15 14 16
REMARK H PARENT
REMARK Flexibility Score: inf
ROOT
ATOM      1  C   UNL     1      21.487  39.541  83.771  1.00  0.00     0.039 C 
ATOM      2  C   UNL     1      21.479  39.916  85.236  1.00  0.00    -0.070 C 
ATOM      3  C   UNL     1      21.995  39.079  86.184  1.00  0.00    -0.006 C 
ATOM      4  C   UNL     1      22.581  37.724  85.807  1.00  0.00     0.047 C 
ATOM      5  C   UNL     1      22.421  36.669  86.928  1.00  0.00     0.025 C 
ATOM      6  C   UNL     1      23.025  35.298  86.622  1.00  0.00    -0.073 C 
ATOM      7  C   UNL     1      23.668  34.996  85.477  1.00  0.00     0.008 C 
ATOM      8  C   UNL     1      22.832  34.233  87.674  1.00  0.00     0.031 C 
ATOM      9  C   UNL     1      23.312  34.736  89.039  1.00  0.00     0.005 C 
ATOM     10  C   UNL     1      22.684  36.095  89.395  1.00  0.00     0.008 C 
ATOM     11  C   UNL     1      22.932  37.186  88.310  1.00  0.00    -0.018 C 
ATOM     12  C   UNL     1      22.120  38.445  88.698  1.00  0.00     0.088 C 
ATOM     13  C   UNL     1      22.133  39.484  87.614  1.00  0.00     0.159 C 
ATOM     14  O   UNL     1      22.275  40.693  87.940  1.00  0.00    -0.295 OA
ATOM     15  C   UNL     1      24.445  37.543  88.269  1.00  0.00     0.012 C 
ATOM     16  C   UNL     1      20.841  41.236  85.600  1.00  0.00     0.039 C 
ENDROOT
TORSDOF 0
ENDMDL
MODEL 4
REMARK VINA RESULT:    -4.648     10.780     12.143
REMARK INTER + INTRA:          -4.648
REMARK INTER:                  -4.648
REMARK INTRA:                   0.000
REMARK UNBOUND:                 0.000
REMARK SMILES C=C1CCC[C@]2(C)CC(=O)C(=C(C)C)C[C@@H]12
REMARK SMILES IDX 13 1 12 2 11 3 15 4 16 5 2 6 1 7 3 8 4 9 5 10 6 11 8 12 9 13
REMARK SMILES IDX 10 14 7 15 14 16
REMARK H PARENT
REMARK Flexibility Score: inf
ROOT
ATOM      1  C   UNL     1      22.522  31.029  89.242  1.00  0.00     0.039 C 
ATOM      2  C   UNL     1      23.363  32.272  89.424  1.00  0.00    -0.070 C 
ATOM      3  C   UNL     1      23.050  33.439  88.788  1.00  0.00    -0.006 C 
ATOM      4  C   UNL     1      21.852  33.531  87.851  1.00  0.00     0.047 C 
ATOM      5  C   UNL     1      22.057  34.563  86.715  1.00  0.00     0.025 C 
ATOM      6  C   UNL     1      20.871  34.727  85.765  1.00  0.00    -0.073 C 
ATOM      7  C   UNL     1      19.712  34.050  85.881  1.00  0.00     0.008 C 
ATOM      8  C   UNL     1      21.065  35.685  84.613  1.00  0.00     0.031 C 
ATOM      9  C   UNL     1      21.532  37.050  85.127  1.00  0.00     0.005 C 
ATOM     10  C   UNL     1      22.755  36.920  86.052  1.00  0.00     0.008 C 
ATOM     11  C   UNL     1      22.513  35.956  87.253  1.00  0.00    -0.018 C 
ATOM     12  C   UNL     1      23.852  35.781  88.008  1.00  0.00     0.088 C 
ATOM     13  C   UNL     1      23.773  34.715  89.062  1.00  0.00     0.159 C 
ATOM     14  O   UNL     1      24.318  34.931  90.179  1.00  0.00    -0.295 OA
ATOM     15  C   UNL     1      21.460  36.577  88.213  1.00  0.00     0.012 C 
ATOM     16  C   UNL     1      24.581  32.150  90.310  1.00  0.00     0.039 C 
ENDROOT
TORSDOF 0
ENDMDL
MODEL 5
REMARK VINA RESULT:    -4.627      2.209      4.117
REMARK INTER + INTRA:          -4.627
REMARK INTER:                  -4.627
REMARK INTRA:                   0.000
REMARK UNBOUND:                 0.000
REMARK SMILES C=C1CCC[C@]2(C)CC(=O)C(=C(C)C)C[C@@H]12
REMARK SMILES IDX 13 1 12 2 11 3 15 4 16 5 2 6 1 7 3 8 4 9 5 10 6 11 8 12 9 13
REMARK SMILES IDX 10 14 7 15 14 16
REMARK H PARENT
REMARK Flexibility Score: inf
ROOT
ATOM      1  C   UNL     1      31.002  43.829  84.709  1.00  0.00     0.039 C 
ATOM      2  C   UNL     1      29.579  44.247  85.001  1.00  0.00    -0.070 C 
ATOM      3  C   UNL     1      28.739  44.650  84.002  1.00  0.00    -0.006 C 
ATOM      4  C   UNL     1      29.209  44.714  82.554  1.00  0.00     0.047 C 
ATOM      5  C   UNL     1      28.488  45.815  81.738  1.00  0.00     0.025 C 
ATOM      6  C   UNL     1      28.891  45.901  80.266  1.00  0.00    -0.073 C 
ATOM      7  C   UNL     1      29.794  45.089  79.682  1.00  0.00     0.008 C 
ATOM      8  C   UNL     1      28.247  47.004  79.460  1.00  0.00     0.031 C 
ATOM      9  C   UNL     1      26.722  46.943  79.596  1.00  0.00     0.005 C 
ATOM     10  C   UNL     1      26.285  46.901  81.070  1.00  0.00     0.008 C 
ATOM     11  C   UNL     1      26.935  45.730  81.867  1.00  0.00    -0.018 C 
ATOM     12  C   UNL     1      26.553  45.891  83.358  1.00  0.00     0.088 C 
ATOM     13  C   UNL     1      27.293  44.927  84.240  1.00  0.00     0.159 C 
ATOM     14  O   UNL     1      26.662  44.355  85.170  1.00  0.00    -0.295 OA
ATOM     15  C   UNL     1      26.385  44.375  81.340  1.00  0.00     0.012 C 
ATOM     16  C   UNL     1      29.146  44.235  86.449  1.00  0.00     0.039 C 
ENDROOT
TORSDOF 0
ENDMDL
MODEL 6
REMARK VINA RESULT:    -4.545      1.799      5.477
REMARK INTER + INTRA:          -4.545
REMARK INTER:                  -4.545
REMARK INTRA:                   0.000
REMARK UNBOUND:                 0.000
REMARK SMILES C=C1CCC[C@]2(C)CC(=O)C(=C(C)C)C[C@@H]12
REMARK SMILES IDX 13 1 12 2 11 3 15 4 16 5 2 6 1 7 3 8 4 9 5 10 6 11 8 12 9 13
REMARK SMILES IDX 10 14 7 15 14 16
REMARK H PARENT
REMARK Flexibility Score: inf
ROOT
ATOM      1  C   UNL     1      30.822  43.939  84.709  1.00  0.00     0.039 C 
ATOM      2  C   UNL     1      29.571  44.481  84.053  1.00  0.00    -0.070 C 
ATOM      3  C   UNL     1      28.548  44.996  84.796  1.00  0.00    -0.006 C 
ATOM      4  C   UNL     1      28.615  45.026  86.318  1.00  0.00     0.047 C 
ATOM      5  C   UNL     1      27.220  44.916  86.982  1.00  0.00     0.025 C 
ATOM      6  C   UNL     1      27.221  44.981  88.509  1.00  0.00    -0.073 C 
ATOM      7  C   UNL     1      28.331  45.133  89.257  1.00  0.00     0.008 C 
ATOM      8  C   UNL     1      25.881  44.816  89.185  1.00  0.00     0.031 C 
ATOM      9  C   UNL     1      24.866  45.808  88.608  1.00  0.00     0.005 C 
ATOM     10  C   UNL     1      24.811  45.734  87.072  1.00  0.00     0.008 C 
ATOM     11  C   UNL     1      26.201  45.946  86.400  1.00  0.00    -0.018 C 
ATOM     12  C   UNL     1      26.047  45.686  84.882  1.00  0.00     0.088 C 
ATOM     13  C   UNL     1      27.370  45.668  84.173  1.00  0.00     0.159 C 
ATOM     14  O   UNL     1      27.462  46.242  83.054  1.00  0.00    -0.295 OA
ATOM     15  C   UNL     1      26.669  47.411  86.624  1.00  0.00     0.012 C 
ATOM     16  C   UNL     1      29.494  44.390  82.546  1.00  0.00     0.039 C 
ENDROOT
TORSDOF 0
ENDMDL
MODEL 7
REMARK VINA RESULT:    -4.509      1.293      1.844
REMARK INTER + INTRA:          -4.509
REMARK INTER:                  -4.509
REMARK INTRA:                   0.000
REMARK UNBOUND:                 0.000
REMARK SMILES C=C1CCC[C@]2(C)CC(=O)C(=C(C)C)C[C@@H]12
REMARK SMILES IDX 13 1 12 2 11 3 15 4 16 5 2 6 1 7 3 8 4 9 5 10 6 11 8 12 9 13
REMARK SMILES IDX 10 14 7 15 14 16
REMARK H PARENT
REMARK Flexibility Score: inf
ROOT
ATOM      1  C   UNL     1      23.369  43.794  87.937  1.00  0.00     0.039 C 
ATOM      2  C   UNL     1      24.719  44.044  88.569  1.00  0.00    -0.070 C 
ATOM      3  C   UNL     1      25.775  44.499  87.831  1.00  0.00    -0.006 C 
ATOM      4  C   UNL     1      25.640  44.752  86.335  1.00  0.00     0.047 C 
ATOM      5  C   UNL     1      26.966  44.528  85.567  1.00  0.00     0.025 C 
ATOM      6  C   UNL     1      26.902  44.805  84.065  1.00  0.00    -0.073 C 
ATOM      7  C   UNL     1      25.795  45.227  83.422  1.00  0.00     0.008 C 
ATOM      8  C   UNL     1      28.165  44.538  83.282  1.00  0.00     0.031 C 
ATOM      9  C   UNL     1      29.350  45.275  83.913  1.00  0.00     0.005 C 
ATOM     10  C   UNL     1      29.467  44.979  85.418  1.00  0.00     0.008 C 
ATOM     11  C   UNL     1      28.162  45.301  86.207  1.00  0.00    -0.018 C 
ATOM     12  C   UNL     1      28.346  44.810  87.663  1.00  0.00     0.088 C 
ATOM     13  C   UNL     1      27.072  44.892  88.454  1.00  0.00     0.159 C 
ATOM     14  O   UNL     1      27.127  45.311  89.642  1.00  0.00    -0.295 OA
ATOM     15  C   UNL     1      27.922  46.837  86.210  1.00  0.00     0.012 C 
ATOM     16  C   UNL     1      24.853  43.732  90.042  1.00  0.00     0.039 C 
ENDROOT
TORSDOF 0
ENDMDL
MODEL 8
REMARK VINA RESULT:    -4.421      7.378      9.393
REMARK INTER + INTRA:          -4.421
REMARK INTER:                  -4.421
REMARK INTRA:                   0.000
REMARK UNBOUND:                 0.000
REMARK SMILES C=C1CCC[C@]2(C)CC(=O)C(=C(C)C)C[C@@H]12
REMARK SMILES IDX 13 1 12 2 11 3 15 4 16 5 2 6 1 7 3 8 4 9 5 10 6 11 8 12 9 13
REMARK SMILES IDX 10 14 7 15 14 16
REMARK H PARENT
REMARK Flexibility Score: inf
ROOT
ATOM      1  C   UNL     1      22.847  41.754  89.295  1.00  0.00     0.039 C 
ATOM      2  C   UNL     1      22.398  41.483  87.876  1.00  0.00    -0.070 C 
ATOM      3  C   UNL     1      22.288  40.208  87.399  1.00  0.00    -0.006 C 
ATOM      4  C   UNL     1      22.633  39.007  88.269  1.00  0.00     0.047 C 
ATOM      5  C   UNL     1      23.165  37.806  87.450  1.00  0.00     0.025 C 
ATOM      6  C   UNL     1      23.491  36.555  88.267  1.00  0.00    -0.073 C 
ATOM      7  C   UNL     1      23.330  36.463  89.602  1.00  0.00     0.008 C 
ATOM      8  C   UNL     1      24.067  35.389  87.501  1.00  0.00     0.031 C 
ATOM      9  C   UNL     1      23.167  35.032  86.314  1.00  0.00     0.005 C 
ATOM     10  C   UNL     1      22.858  36.265  85.447  1.00  0.00     0.008 C 
ATOM     11  C   UNL     1      22.228  37.439  86.256  1.00  0.00    -0.018 C 
ATOM     12  C   UNL     1      22.119  38.666  85.318  1.00  0.00     0.088 C 
ATOM     13  C   UNL     1      21.710  39.908  86.056  1.00  0.00     0.159 C 
ATOM     14  O   UNL     1      20.864  40.675  85.522  1.00  0.00    -0.295 OA
ATOM     15  C   UNL     1      20.808  37.034  86.738  1.00  0.00     0.012 C 
ATOM     16  C   UNL     1      22.117  42.687  87.006  1.00  0.00     0.039 C 
ENDROOT
TORSDOF 0
ENDMDL
MODEL 9
REMARK VINA RESULT:    -4.227     10.666     12.398
REMARK INTER + INTRA:          -4.227
REMARK INTER:                  -4.227
REMARK INTRA:                   0.000
REMARK UNBOUND:                 0.000
REMARK SMILES C=C1CCC[C@]2(C)CC(=O)C(=C(C)C)C[C@@H]12
REMARK SMILES IDX 13 1 12 2 11 3 15 4 16 5 2 6 1 7 3 8 4 9 5 10 6 11 8 12 9 13
REMARK SMILES IDX 10 14 7 15 14 16
REMARK H PARENT
REMARK Flexibility Score: inf
ROOT
ATOM      1  C   UNL     1      18.542  32.638  87.349  1.00  0.00     0.039 C 
ATOM      2  C   UNL     1      18.961  33.528  86.201  1.00  0.00    -0.070 C 
ATOM      3  C   UNL     1      20.106  34.270  86.261  1.00  0.00    -0.006 C 
ATOM      4  C   UNL     1      20.997  34.249  87.496  1.00  0.00     0.047 C 
ATOM      5  C   UNL     1      21.746  35.585  87.718  1.00  0.00     0.025 C 
ATOM      6  C   UNL     1      22.687  35.609  88.923  1.00  0.00    -0.073 C 
ATOM      7  C   UNL     1      22.885  34.562  89.747  1.00  0.00     0.008 C 
ATOM      8  C   UNL     1      23.387  36.919  89.198  1.00  0.00     0.031 C 
ATOM      9  C   UNL     1      24.112  37.411  87.941  1.00  0.00     0.005 C 
ATOM     10  C   UNL     1      23.177  37.439  86.720  1.00  0.00     0.008 C 
ATOM     11  C   UNL     1      22.499  36.064  86.437  1.00  0.00    -0.018 C 
ATOM     12  C   UNL     1      21.467  36.261  85.301  1.00  0.00     0.088 C 
ATOM     13  C   UNL     1      20.618  35.041  85.090  1.00  0.00     0.159 C 
ATOM     14  O   UNL     1      20.363  34.681  83.909  1.00  0.00    -0.295 OA
ATOM     15  C   UNL     1      23.575  35.039  85.981  1.00  0.00     0.012 C 
ATOM     16  C   UNL     1      18.036  33.584  85.007  1.00  0.00     0.039 C 
ENDROOT
TORSDOF 0
ENDMDL
