MODEL 1
REMARK VINA RESULT:    -7.996      0.000      0.000
REMARK INTER + INTRA:         -11.509
REMARK INTER:                 -10.568
REMARK INTRA:                  -0.941
REMARK UNBOUND:                -0.941
REMARK SMILES CC[C@@H](C=C[C@@H](C)[C@H]1CC[C@@H]2[C@H]3CC=C4C[C@@H](O)CC[C@@]4(C)[C@@H]3CC[C@@]21C)C(C)C
REMARK SMILES IDX 6 1 7 2 5 3 4 4 3 5 2 6 1 7 28 8 29 9 30 10 8 11 9 12 26 13
REMARK SMILES IDX 10 14 11 15 25 16 27 17 12 18 24 19 23 20 13 21 21 22 14 23
REMARK SMILES IDX 15 24 20 25 22 26 16 27 19 28 17 29 18 30
REMARK H PARENT 18 31
REMARK Flexibility Score: inf
ROOT
ATOM      1  C   UNL     1     115.356 124.953 128.102  1.00  0.00     0.012 C 
ATOM      2  C   UNL     1     114.418 125.371 129.256  1.00  0.00     0.012 C 
ENDROOT
BRANCH   1   3
ATOM      3  C   UNL     1     116.119 126.113 127.490  1.00  0.00    -0.028 C 
ATOM      4  C   UNL     1     117.352 126.497 127.878  1.00  0.00    -0.027 C 
BRANCH   4   5
ATOM      5  C   UNL     1     118.148 127.548 127.119  1.00  0.00     0.014 C 
BRANCH   5   6
ATOM      6  C   UNL     1     117.198 128.469 126.298  1.00  0.00     0.004 C 
ATOM      7  C   UNL     1     117.620 129.937 126.353  1.00  0.00     0.004 C 
ENDBRANCH   5   6
BRANCH   5   8
ATOM      8  C   UNL     1     119.260 126.884 126.243  1.00  0.00    -0.011 C 
ATOM      9  C   UNL     1     118.670 125.950 125.174  1.00  0.00     0.008 C 
ATOM     10  C   UNL     1     120.139 127.943 125.548  1.00  0.00     0.008 C 
ENDBRANCH   5   8
ENDBRANCH   4   5
ENDBRANCH   1   3
BRANCH   1  11
ATOM     11  C   UNL     1     114.805 123.948 127.032  1.00  0.00     0.002 C 
ATOM     12  C   UNL     1     115.141 124.348 125.600  1.00  0.00     0.005 C 
ATOM     13  C   UNL     1     115.093 122.411 127.097  1.00  0.00    -0.026 C 
ATOM     14  C   UNL     1     114.647 123.185 124.765  1.00  0.00     0.005 C 
ATOM     15  C   UNL     1     114.846 121.926 125.624  1.00  0.00    -0.001 C 
ATOM     16  C   UNL     1     114.135 121.711 128.102  1.00  0.00     0.007 C 
ATOM     17  C   UNL     1     116.560 122.091 127.480  1.00  0.00     0.012 C 
ATOM     18  C   UNL     1     113.669 120.921 125.470  1.00  0.00     0.000 C 
ATOM     19  C   UNL     1     114.089 120.188 127.920  1.00  0.00     0.005 C 
ATOM     20  C   UNL     1     113.856 119.729 126.444  1.00  0.00     0.003 C 
ATOM     21  C   UNL     1     113.575 120.434 124.006  1.00  0.00     0.031 C 
ATOM     22  C   UNL     1     112.722 118.648 126.279  1.00  0.00    -0.008 C 
ATOM     23  C   UNL     1     112.891 119.110 123.812  1.00  0.00    -0.027 C 
ATOM     24  C   UNL     1     112.614 118.240 124.805  1.00  0.00    -0.065 C 
ATOM     25  C   UNL     1     113.090 117.400 127.146  1.00  0.00     0.014 C 
ATOM     26  C   UNL     1     111.332 119.194 126.706  1.00  0.00     0.016 C 
ATOM     27  C   UNL     1     111.922 116.940 124.435  1.00  0.00     0.063 C 
ATOM     28  C   UNL     1     112.286 116.133 126.810  1.00  0.00     0.033 C 
ATOM     29  C   UNL     1     112.372 115.773 125.323  1.00  0.00     0.118 C 
BRANCH  29  30
ATOM     30  O   UNL     1     113.661 115.323 124.978  1.00  0.00    -0.393 OA
ATOM     31  H   UNL     1     113.837 114.471 125.457  1.00  0.00     0.210 HD
ENDBRANCH  29  30
ENDBRANCH   1  11
TORSDOF 6
ENDMDL
MODEL 2
REMARK VINA RESULT:    -7.360      3.406      9.105
REMARK INTER + INTRA:         -10.668
REMARK INTER:                  -9.449
REMARK INTRA:                  -1.219
REMARK UNBOUND:                -0.941
REMARK SMILES CC[C@@H](C=C[C@@H](C)[C@H]1CC[C@@H]2[C@H]3CC=C4C[C@@H](O)CC[C@@]4(C)[C@@H]3CC[C@@]21C)C(C)C
REMARK SMILES IDX 6 1 7 2 5 3 4 4 3 5 2 6 1 7 28 8 29 9 30 10 8 11 9 12 26 13
REMARK SMILES IDX 10 14 11 15 25 16 27 17 12 18 24 19 23 20 13 21 21 22 14 23
REMARK SMILES IDX 15 24 20 25 22 26 16 27 19 28 17 29 18 30
REMARK H PARENT 18 31
REMARK Flexibility Score: inf
ROOT
ATOM      1  C   UNL     1     114.831 117.621 126.204  1.00  0.00     0.012 C 
ATOM      2  C   UNL     1     114.374 117.171 124.799  1.00  0.00     0.012 C 
ENDROOT
BRANCH   1   3
ATOM      3  C   UNL     1     114.468 116.641 127.304  1.00  0.00    -0.028 C 
ATOM      4  C   UNL     1     115.257 116.363 128.361  1.00  0.00    -0.027 C 
BRANCH   4   5
ATOM      5  C   UNL     1     114.778 115.511 129.527  1.00  0.00     0.014 C 
BRANCH   5   6
ATOM      6  C   UNL     1     113.460 116.089 130.123  1.00  0.00     0.004 C 
ATOM      7  C   UNL     1     113.675 117.437 130.812  1.00  0.00     0.004 C 
ENDBRANCH   5   6
BRANCH   5   8
ATOM      8  C   UNL     1     115.905 115.339 130.596  1.00  0.00    -0.011 C 
ATOM      9  C   UNL     1     116.556 113.949 130.529  1.00  0.00     0.008 C 
ATOM     10  C   UNL     1     117.003 116.410 130.436  1.00  0.00     0.008 C 
ENDBRANCH   5   8
ENDBRANCH   4   5
ENDBRANCH   1   3
BRANCH   1  11
ATOM     11  C   UNL     1     114.592 119.116 126.612  1.00  0.00     0.002 C 
ATOM     12  C   UNL     1     113.477 119.292 127.636  1.00  0.00     0.005 C 
ATOM     13  C   UNL     1     115.748 120.044 127.115  1.00  0.00    -0.026 C 
ATOM     14  C   UNL     1     113.520 120.765 127.982  1.00  0.00     0.005 C 
ATOM     15  C   UNL     1     114.997 121.184 127.891  1.00  0.00    -0.001 C 
ATOM     16  C   UNL     1     116.567 120.605 125.919  1.00  0.00     0.007 C 
ATOM     17  C   UNL     1     116.706 119.328 128.101  1.00  0.00     0.012 C 
ATOM     18  C   UNL     1     115.165 122.600 127.270  1.00  0.00     0.000 C 
ATOM     19  C   UNL     1     117.437 121.810 126.304  1.00  0.00     0.005 C 
ATOM     20  C   UNL     1     116.671 122.924 127.086  1.00  0.00     0.003 C 
ATOM     21  C   UNL     1     114.472 123.656 128.159  1.00  0.00     0.031 C 
ATOM     22  C   UNL     1     116.896 124.378 126.521  1.00  0.00    -0.008 C 
ATOM     23  C   UNL     1     114.989 125.060 128.012  1.00  0.00    -0.027 C 
ATOM     24  C   UNL     1     116.139 125.389 127.391  1.00  0.00    -0.065 C 
ATOM     25  C   UNL     1     118.427 124.695 126.554  1.00  0.00     0.014 C 
ATOM     26  C   UNL     1     116.359 124.527 125.071  1.00  0.00     0.016 C 
ATOM     27  C   UNL     1     116.520 126.858 127.335  1.00  0.00     0.063 C 
ATOM     28  C   UNL     1     118.771 126.184 126.386  1.00  0.00     0.033 C 
ATOM     29  C   UNL     1     118.038 127.065 127.404  1.00  0.00     0.118 C 
BRANCH  29  30
ATOM     30  O   UNL     1     118.534 126.863 128.707  1.00  0.00    -0.393 OA
ATOM     31  H   UNL     1     119.317 127.457 128.843  1.00  0.00     0.210 HD
ENDBRANCH  29  30
ENDBRANCH   1  11
TORSDOF 6
ENDMDL
MODEL 3
REMARK VINA RESULT:    -7.344      3.022      8.930
REMARK INTER + INTRA:         -10.647
REMARK INTER:                  -9.537
REMARK INTRA:                  -1.109
REMARK UNBOUND:                -0.941
REMARK SMILES CC[C@@H](C=C[C@@H](C)[C@H]1CC[C@@H]2[C@H]3CC=C4C[C@@H](O)CC[C@@]4(C)[C@@H]3CC[C@@]21C)C(C)C
REMARK SMILES IDX 6 1 7 2 5 3 4 4 3 5 2 6 1 7 28 8 29 9 30 10 8 11 9 12 26 13
REMARK SMILES IDX 10 14 11 15 25 16 27 17 12 18 24 19 23 20 13 21 21 22 14 23
REMARK SMILES IDX 15 24 20 25 22 26 16 27 19 28 17 29 18 30
REMARK H PARENT 18 31
REMARK Flexibility Score: inf
ROOT
ATOM      1  C   UNL     1     112.386 117.145 125.868  1.00  0.00     0.012 C 
ATOM      2  C   UNL     1     112.385 115.987 126.890  1.00  0.00     0.012 C 
ENDROOT
BRANCH   1   3
ATOM      3  C   UNL     1     113.116 116.818 124.579  1.00  0.00    -0.028 C 
ATOM      4  C   UNL     1     114.144 115.950 124.490  1.00  0.00    -0.027 C 
BRANCH   4   5
ATOM      5  C   UNL     1     114.727 115.520 123.152  1.00  0.00     0.014 C 
BRANCH   5   6
ATOM      6  C   UNL     1     114.234 114.092 122.772  1.00  0.00     0.004 C 
ATOM      7  C   UNL     1     114.219 113.144 123.971  1.00  0.00     0.004 C 
ENDBRANCH   5   6
BRANCH   5   8
ATOM      8  C   UNL     1     116.285 115.646 123.154  1.00  0.00    -0.011 C 
ATOM      9  C   UNL     1     116.873 115.544 121.737  1.00  0.00     0.008 C 
ATOM     10  C   UNL     1     116.744 116.973 123.789  1.00  0.00     0.008 C 
ENDBRANCH   5   8
ENDBRANCH   4   5
ENDBRANCH   1   3
BRANCH   1  11
ATOM     11  C   UNL     1     112.689 118.591 126.395  1.00  0.00     0.002 C 
ATOM     12  C   UNL     1     112.128 118.856 127.787  1.00  0.00     0.005 C 
ATOM     13  C   UNL     1     114.136 119.186 126.428  1.00  0.00    -0.026 C 
ATOM     14  C   UNL     1     112.653 120.230 128.144  1.00  0.00     0.005 C 
ATOM     15  C   UNL     1     114.037 120.344 127.484  1.00  0.00    -0.001 C 
ATOM     16  C   UNL     1     114.546 119.719 125.026  1.00  0.00     0.007 C 
ATOM     17  C   UNL     1     115.195 118.166 126.917  1.00  0.00     0.012 C 
ATOM     18  C   UNL     1     114.291 121.764 126.902  1.00  0.00     0.000 C 
ATOM     19  C   UNL     1     115.760 120.657 125.075  1.00  0.00     0.005 C 
ATOM     20  C   UNL     1     115.643 121.794 126.142  1.00  0.00     0.003 C 
ATOM     21  C   UNL     1     114.267 122.814 128.036  1.00  0.00     0.031 C 
ATOM     22  C   UNL     1     115.979 123.231 125.591  1.00  0.00    -0.008 C 
ATOM     23  C   UNL     1     115.011 124.088 127.747  1.00  0.00    -0.027 C 
ATOM     24  C   UNL     1     115.879 124.253 126.729  1.00  0.00    -0.065 C 
ATOM     25  C   UNL     1     117.434 123.219 125.018  1.00  0.00     0.014 C 
ATOM     26  C   UNL     1     114.982 123.676 124.486  1.00  0.00     0.016 C 
ATOM     27  C   UNL     1     116.551 125.607 126.583  1.00  0.00     0.063 C 
ATOM     28  C   UNL     1     118.036 124.615 124.783  1.00  0.00     0.033 C 
ATOM     29  C   UNL     1     117.983 125.485 126.044  1.00  0.00     0.118 C 
BRANCH  29  30
ATOM     30  O   UNL     1     118.873 125.016 127.029  1.00  0.00    -0.393 OA
ATOM     31  H   UNL     1     118.729 125.539 127.860  1.00  0.00     0.210 HD
ENDBRANCH  29  30
ENDBRANCH   1  11
TORSDOF 6
ENDMDL
MODEL 4
REMARK VINA RESULT:    -7.316      3.251      6.453
REMARK INTER + INTRA:         -10.610
REMARK INTER:                  -9.370
REMARK INTRA:                  -1.240
REMARK UNBOUND:                -0.941
REMARK SMILES CC[C@@H](C=C[C@@H](C)[C@H]1CC[C@@H]2[C@H]3CC=C4C[C@@H](O)CC[C@@]4(C)[C@@H]3CC[C@@]21C)C(C)C
REMARK SMILES IDX 6 1 7 2 5 3 4 4 3 5 2 6 1 7 28 8 29 9 30 10 8 11 9 12 26 13
REMARK SMILES IDX 10 14 11 15 25 16 27 17 12 18 24 19 23 20 13 21 21 22 14 23
REMARK SMILES IDX 15 24 20 25 22 26 16 27 19 28 17 29 18 30
REMARK H PARENT 18 31
REMARK Flexibility Score: inf
ROOT
ATOM      1  C   UNL     1     111.856 120.124 124.997  1.00  0.00     0.012 C 
ATOM      2  C   UNL     1     110.875 119.575 123.939  1.00  0.00     0.012 C 
ENDROOT
BRANCH   1   3
ATOM      3  C   UNL     1     113.095 120.767 124.402  1.00  0.00    -0.028 C 
ATOM      4  C   UNL     1     113.680 121.879 124.890  1.00  0.00    -0.027 C 
BRANCH   4   5
ATOM      5  C   UNL     1     115.018 122.384 124.371  1.00  0.00     0.014 C 
BRANCH   5   6
ATOM      6  C   UNL     1     115.781 121.249 123.625  1.00  0.00     0.004 C 
ATOM      7  C   UNL     1     117.018 121.766 122.890  1.00  0.00     0.004 C 
ENDBRANCH   5   6
BRANCH   5   8
ATOM      8  C   UNL     1     115.858 123.029 125.520  1.00  0.00    -0.011 C 
ATOM      9  C   UNL     1     115.159 124.256 126.128  1.00  0.00     0.008 C 
ATOM     10  C   UNL     1     116.148 122.015 126.645  1.00  0.00     0.008 C 
ENDBRANCH   5   8
ENDBRANCH   4   5
ENDBRANCH   1   3
BRANCH   1  11
ATOM     11  C   UNL     1     112.170 119.228 126.245  1.00  0.00     0.002 C 
ATOM     12  C   UNL     1     110.924 118.626 126.884  1.00  0.00     0.005 C 
ATOM     13  C   UNL     1     113.203 118.053 126.197  1.00  0.00    -0.026 C 
ATOM     14  C   UNL     1     111.465 117.704 127.957  1.00  0.00     0.005 C 
ATOM     15  C   UNL     1     112.793 117.149 127.414  1.00  0.00    -0.001 C 
ATOM     16  C   UNL     1     114.656 118.588 126.341  1.00  0.00     0.007 C 
ATOM     17  C   UNL     1     113.094 117.210 124.902  1.00  0.00     0.012 C 
ATOM     18  C   UNL     1     113.877 117.040 128.524  1.00  0.00     0.000 C 
ATOM     19  C   UNL     1     115.664 117.488 126.700  1.00  0.00     0.005 C 
ATOM     20  C   UNL     1     115.228 116.594 127.906  1.00  0.00     0.003 C 
ATOM     21  C   UNL     1     113.415 116.056 129.622  1.00  0.00     0.031 C 
ATOM     22  C   UNL     1     116.344 116.403 129.002  1.00  0.00    -0.008 C 
ATOM     23  C   UNL     1     114.518 115.437 130.436  1.00  0.00    -0.027 C 
ATOM     24  C   UNL     1     115.824 115.474 130.106  1.00  0.00    -0.065 C 
ATOM     25  C   UNL     1     117.604 115.767 128.328  1.00  0.00     0.014 C 
ATOM     26  C   UNL     1     116.730 117.747 129.677  1.00  0.00     0.016 C 
ATOM     27  C   UNL     1     116.811 114.793 131.039  1.00  0.00     0.063 C 
ATOM     28  C   UNL     1     118.628 115.186 129.316  1.00  0.00     0.033 C 
ATOM     29  C   UNL     1     117.992 114.177 130.279  1.00  0.00     0.118 C 
BRANCH  29  30
ATOM     30  O   UNL     1     117.623 112.993 129.611  1.00  0.00    -0.393 OA
ATOM     31  H   UNL     1     116.645 112.862 129.719  1.00  0.00     0.210 HD
ENDBRANCH  29  30
ENDBRANCH   1  11
TORSDOF 6
ENDMDL
MODEL 5
REMARK VINA RESULT:    -7.171      1.781      2.528
REMARK INTER + INTRA:         -10.417
REMARK INTER:                  -9.549
REMARK INTRA:                  -0.869
REMARK UNBOUND:                -0.941
REMARK SMILES CC[C@@H](C=C[C@@H](C)[C@H]1CC[C@@H]2[C@H]3CC=C4C[C@@H](O)CC[C@@]4(C)[C@@H]3CC[C@@]21C)C(C)C
REMARK SMILES IDX 6 1 7 2 5 3 4 4 3 5 2 6 1 7 28 8 29 9 30 10 8 11 9 12 26 13
REMARK SMILES IDX 10 14 11 15 25 16 27 17 12 18 24 19 23 20 13 21 21 22 14 23
REMARK SMILES IDX 15 24 20 25 22 26 16 27 19 28 17 29 18 30
REMARK H PARENT 18 31
REMARK Flexibility Score: inf
ROOT
ATOM      1  C   UNL     1     117.830 124.589 126.058  1.00  0.00     0.012 C 
ATOM      2  C   UNL     1     118.937 123.989 126.953  1.00  0.00     0.012 C 
ENDROOT
BRANCH   1   3
ATOM      3  C   UNL     1     117.595 126.069 126.293  1.00  0.00    -0.028 C 
ATOM      4  C   UNL     1     118.557 126.941 126.658  1.00  0.00    -0.027 C 
BRANCH   4   5
ATOM      5  C   UNL     1     118.313 128.441 126.708  1.00  0.00     0.014 C 
BRANCH   5   6
ATOM      6  C   UNL     1     116.849 128.773 126.292  1.00  0.00     0.004 C 
ATOM      7  C   UNL     1     116.581 130.278 126.258  1.00  0.00     0.004 C 
ENDBRANCH   5   6
BRANCH   5   8
ATOM      8  C   UNL     1     119.377 129.211 125.859  1.00  0.00    -0.011 C 
ATOM      9  C   UNL     1     119.957 130.416 126.616  1.00  0.00     0.008 C 
ATOM     10  C   UNL     1     120.535 128.286 125.432  1.00  0.00     0.008 C 
ENDBRANCH   5   8
ENDBRANCH   4   5
ENDBRANCH   1   3
BRANCH   1  11
ATOM     11  C   UNL     1     116.500 123.776 125.887  1.00  0.00     0.002 C 
ATOM     12  C   UNL     1     115.298 124.650 125.550  1.00  0.00     0.005 C 
ATOM     13  C   UNL     1     116.385 122.549 124.922  1.00  0.00    -0.026 C 
ATOM     14  C   UNL     1     114.180 123.662 125.293  1.00  0.00     0.005 C 
ATOM     15  C   UNL     1     114.841 122.423 124.667  1.00  0.00    -0.001 C 
ATOM     16  C   UNL     1     116.965 121.268 125.586  1.00  0.00     0.007 C 
ATOM     17  C   UNL     1     117.090 122.784 123.563  1.00  0.00     0.012 C 
ATOM     18  C   UNL     1     114.212 121.099 125.188  1.00  0.00     0.000 C 
ATOM     19  C   UNL     1     116.528 119.978 124.878  1.00  0.00     0.005 C 
ATOM     20  C   UNL     1     114.989 119.882 124.623  1.00  0.00     0.003 C 
ATOM     21  C   UNL     1     112.717 121.033 124.801  1.00  0.00     0.031 C 
ATOM     22  C   UNL     1     114.348 118.513 125.068  1.00  0.00    -0.008 C 
ATOM     23  C   UNL     1     112.130 119.651 124.737  1.00  0.00    -0.027 C 
ATOM     24  C   UNL     1     112.853 118.513 124.728  1.00  0.00    -0.065 C 
ATOM     25  C   UNL     1     115.063 117.353 124.302  1.00  0.00     0.014 C 
ATOM     26  C   UNL     1     114.470 118.287 126.600  1.00  0.00     0.016 C 
ATOM     27  C   UNL     1     112.101 117.196 124.655  1.00  0.00     0.063 C 
ATOM     28  C   UNL     1     114.319 116.008 124.347  1.00  0.00     0.033 C 
ATOM     29  C   UNL     1     112.871 116.134 123.859  1.00  0.00     0.118 C 
BRANCH  29  30
ATOM     30  O   UNL     1     112.816 116.380 122.473  1.00  0.00    -0.393 OA
ATOM     31  H   UNL     1     111.912 116.136 122.145  1.00  0.00     0.210 HD
ENDBRANCH  29  30
ENDBRANCH   1  11
TORSDOF 6
ENDMDL
MODEL 6
REMARK VINA RESULT:    -7.004      3.055      9.022
REMARK INTER + INTRA:         -10.198
REMARK INTER:                  -9.520
REMARK INTRA:                  -0.677
REMARK UNBOUND:                -0.941
REMARK SMILES CC[C@@H](C=C[C@@H](C)[C@H]1CC[C@@H]2[C@H]3CC=C4C[C@@H](O)CC[C@@]4(C)[C@@H]3CC[C@@]21C)C(C)C
REMARK SMILES IDX 6 1 7 2 5 3 4 4 3 5 2 6 1 7 28 8 29 9 30 10 8 11 9 12 26 13
REMARK SMILES IDX 10 14 11 15 25 16 27 17 12 18 24 19 23 20 13 21 21 22 14 23
REMARK SMILES IDX 15 24 20 25 22 26 16 27 19 28 17 29 18 30
REMARK H PARENT 18 31
REMARK Flexibility Score: inf
ROOT
ATOM      1  C   UNL     1     112.206 116.394 125.974  1.00  0.00     0.012 C 
ATOM      2  C   UNL     1     112.200 116.051 127.480  1.00  0.00     0.012 C 
ENDROOT
BRANCH   1   3
ATOM      3  C   UNL     1     112.917 115.362 125.119  1.00  0.00    -0.028 C 
ATOM      4  C   UNL     1     113.704 115.663 124.067  1.00  0.00    -0.027 C 
BRANCH   4   5
ATOM      5  C   UNL     1     114.536 114.609 123.351  1.00  0.00     0.014 C 
BRANCH   5   6
ATOM      6  C   UNL     1     114.320 113.208 123.998  1.00  0.00     0.004 C 
ATOM      7  C   UNL     1     114.872 112.076 123.130  1.00  0.00     0.004 C 
ENDBRANCH   5   6
BRANCH   5   8
ATOM      8  C   UNL     1     116.041 115.027 123.292  1.00  0.00    -0.011 C 
ATOM      9  C   UNL     1     116.577 115.051 121.852  1.00  0.00     0.008 C 
ATOM     10  C   UNL     1     116.267 116.412 123.931  1.00  0.00     0.008 C 
ENDBRANCH   5   8
ENDBRANCH   4   5
ENDBRANCH   1   3
BRANCH   1  11
ATOM     11  C   UNL     1     112.536 117.869 125.557  1.00  0.00     0.002 C 
ATOM     12  C   UNL     1     111.309 118.661 125.120  1.00  0.00     0.005 C 
ATOM     13  C   UNL     1     113.334 118.846 126.483  1.00  0.00    -0.026 C 
ATOM     14  C   UNL     1     111.831 120.066 124.906  1.00  0.00     0.005 C 
ATOM     15  C   UNL     1     112.952 120.269 125.938  1.00  0.00    -0.001 C 
ATOM     16  C   UNL     1     114.862 118.581 126.380  1.00  0.00     0.007 C 
ATOM     17  C   UNL     1     112.898 118.756 127.967  1.00  0.00     0.012 C 
ATOM     18  C   UNL     1     114.149 121.071 125.352  1.00  0.00     0.000 C 
ATOM     19  C   UNL     1     115.708 119.736 126.935  1.00  0.00     0.005 C 
ATOM     20  C   UNL     1     115.301 121.142 126.387  1.00  0.00     0.003 C 
ATOM     21  C   UNL     1     113.686 122.485 124.935  1.00  0.00     0.031 C 
ATOM     22  C   UNL     1     116.512 122.004 125.865  1.00  0.00    -0.008 C 
ATOM     23  C   UNL     1     114.770 123.525 124.876  1.00  0.00    -0.027 C 
ATOM     24  C   UNL     1     116.003 123.374 125.400  1.00  0.00    -0.065 C 
ATOM     25  C   UNL     1     117.534 122.190 127.034  1.00  0.00     0.014 C 
ATOM     26  C   UNL     1     117.216 121.340 124.650  1.00  0.00     0.016 C 
ATOM     27  C   UNL     1     116.980 124.527 125.257  1.00  0.00     0.063 C 
ATOM     28  C   UNL     1     118.574 123.298 126.798  1.00  0.00     0.033 C 
ATOM     29  C   UNL     1     117.918 124.643 126.466  1.00  0.00     0.118 C 
BRANCH  29  30
ATOM     30  O   UNL     1     117.259 125.183 127.587  1.00  0.00    -0.393 OA
ATOM     31  H   UNL     1     117.385 124.567 128.355  1.00  0.00     0.210 HD
ENDBRANCH  29  30
ENDBRANCH   1  11
TORSDOF 6
ENDMDL
MODEL 7
REMARK VINA RESULT:    -6.968      3.177      5.438
REMARK INTER + INTRA:         -10.150
REMARK INTER:                  -9.028
REMARK INTRA:                  -1.122
REMARK UNBOUND:                -0.941
REMARK SMILES CC[C@@H](C=C[C@@H](C)[C@H]1CC[C@@H]2[C@H]3CC=C4C[C@@H](O)CC[C@@]4(C)[C@@H]3CC[C@@]21C)C(C)C
REMARK SMILES IDX 6 1 7 2 5 3 4 4 3 5 2 6 1 7 28 8 29 9 30 10 8 11 9 12 26 13
REMARK SMILES IDX 10 14 11 15 25 16 27 17 12 18 24 19 23 20 13 21 21 22 14 23
REMARK SMILES IDX 15 24 20 25 22 26 16 27 19 28 17 29 18 30
REMARK H PARENT 18 31
REMARK Flexibility Score: inf
ROOT
ATOM      1  C   UNL     1     115.041 120.640 127.389  1.00  0.00     0.012 C 
ATOM      2  C   UNL     1     113.982 121.749 127.565  1.00  0.00     0.012 C 
ENDROOT
BRANCH   1   3
ATOM      3  C   UNL     1     116.267 121.088 126.615  1.00  0.00    -0.028 C 
ATOM      4  C   UNL     1     116.307 122.179 125.824  1.00  0.00    -0.027 C 
BRANCH   4   5
ATOM      5  C   UNL     1     117.603 122.688 125.212  1.00  0.00     0.014 C 
BRANCH   5   6
ATOM      6  C   UNL     1     117.730 124.229 125.399  1.00  0.00     0.004 C 
ATOM      7  C   UNL     1     116.471 124.847 126.008  1.00  0.00     0.004 C 
ENDBRANCH   5   6
BRANCH   5   8
ATOM      8  C   UNL     1     117.729 122.244 123.718  1.00  0.00    -0.011 C 
ATOM      9  C   UNL     1     118.425 120.881 123.578  1.00  0.00     0.008 C 
ATOM     10  C   UNL     1     116.349 122.171 123.033  1.00  0.00     0.008 C 
ENDBRANCH   5   8
ENDBRANCH   4   5
ENDBRANCH   1   3
BRANCH   1  11
ATOM     11  C   UNL     1     114.548 119.208 126.981  1.00  0.00     0.002 C 
ATOM     12  C   UNL     1     113.113 118.920 127.407  1.00  0.00     0.005 C 
ATOM     13  C   UNL     1     114.645 118.673 125.513  1.00  0.00    -0.026 C 
ATOM     14  C   UNL     1     112.808 117.569 126.796  1.00  0.00     0.005 C 
ATOM     15  C   UNL     1     113.588 117.512 125.472  1.00  0.00    -0.001 C 
ATOM     16  C   UNL     1     116.079 118.157 125.207  1.00  0.00     0.007 C 
ATOM     17  C   UNL     1     114.247 119.736 124.459  1.00  0.00     0.012 C 
ATOM     18  C   UNL     1     114.195 116.103 125.211  1.00  0.00     0.000 C 
ATOM     19  C   UNL     1     116.140 117.270 123.956  1.00  0.00     0.005 C 
ATOM     20  C   UNL     1     115.070 116.130 123.932  1.00  0.00     0.003 C 
ATOM     21  C   UNL     1     113.067 115.054 125.093  1.00  0.00     0.031 C 
ATOM     22  C   UNL     1     115.654 114.708 123.587  1.00  0.00    -0.008 C 
ATOM     23  C   UNL     1     113.423 113.811 124.326  1.00  0.00    -0.027 C 
ATOM     24  C   UNL     1     114.514 113.683 123.544  1.00  0.00    -0.065 C 
ATOM     25  C   UNL     1     116.352 114.779 122.189  1.00  0.00     0.014 C 
ATOM     26  C   UNL     1     116.668 114.221 124.657  1.00  0.00     0.016 C 
ATOM     27  C   UNL     1     114.724 112.358 122.832  1.00  0.00     0.063 C 
ATOM     28  C   UNL     1     116.643 113.409 121.554  1.00  0.00     0.033 C 
ATOM     29  C   UNL     1     115.386 112.538 121.460  1.00  0.00     0.118 C 
BRANCH  29  30
ATOM     30  O   UNL     1     114.482 113.044 120.506  1.00  0.00    -0.393 OA
ATOM     31  H   UNL     1     113.673 113.371 120.980  1.00  0.00     0.210 HD
ENDBRANCH  29  30
ENDBRANCH   1  11
TORSDOF 6
ENDMDL
MODEL 8
REMARK VINA RESULT:    -6.926      3.262      5.531
REMARK INTER + INTRA:         -10.094
REMARK INTER:                  -8.824
REMARK INTRA:                  -1.271
REMARK UNBOUND:                -0.941
REMARK SMILES CC[C@@H](C=C[C@@H](C)[C@H]1CC[C@@H]2[C@H]3CC=C4C[C@@H](O)CC[C@@]4(C)[C@@H]3CC[C@@]21C)C(C)C
REMARK SMILES IDX 6 1 7 2 5 3 4 4 3 5 2 6 1 7 28 8 29 9 30 10 8 11 9 12 26 13
REMARK SMILES IDX 10 14 11 15 25 16 27 17 12 18 24 19 23 20 13 21 21 22 14 23
REMARK SMILES IDX 15 24 20 25 22 26 16 27 19 28 17 29 18 30
REMARK H PARENT 18 31
REMARK Flexibility Score: inf
ROOT
ATOM      1  C   UNL     1     116.996 120.440 127.304  1.00  0.00     0.012 C 
ATOM      2  C   UNL     1     118.027 120.309 128.446  1.00  0.00     0.012 C 
ENDROOT
BRANCH   1   3
ATOM      3  C   UNL     1     116.172 121.712 127.371  1.00  0.00    -0.028 C 
ATOM      4  C   UNL     1     116.470 122.844 126.701  1.00  0.00    -0.027 C 
BRANCH   4   5
ATOM      5  C   UNL     1     115.522 124.033 126.658  1.00  0.00     0.014 C 
BRANCH   5   6
ATOM      6  C   UNL     1     114.411 123.887 127.741  1.00  0.00     0.004 C 
ATOM      7  C   UNL     1     114.714 124.700 128.999  1.00  0.00     0.004 C 
ENDBRANCH   5   6
BRANCH   5   8
ATOM      8  C   UNL     1     114.946 124.239 125.219  1.00  0.00    -0.011 C 
ATOM      9  C   UNL     1     115.711 123.416 124.170  1.00  0.00     0.008 C 
ATOM     10  C   UNL     1     113.452 123.867 125.151  1.00  0.00     0.008 C 
ENDBRANCH   5   8
ENDBRANCH   4   5
ENDBRANCH   1   3
BRANCH   1  11
ATOM     11  C   UNL     1     116.145 119.176 126.932  1.00  0.00     0.002 C 
ATOM     12  C   UNL     1     114.681 119.293 127.342  1.00  0.00     0.005 C 
ATOM     13  C   UNL     1     116.109 118.584 125.484  1.00  0.00    -0.026 C 
ATOM     14  C   UNL     1     114.035 118.050 126.768  1.00  0.00     0.005 C 
ATOM     15  C   UNL     1     114.782 117.743 125.461  1.00  0.00    -0.001 C 
ATOM     16  C   UNL     1     117.357 117.697 125.219  1.00  0.00     0.007 C 
ATOM     17  C   UNL     1     116.016 119.677 124.390  1.00  0.00     0.012 C 
ATOM     18  C   UNL     1     114.997 116.216 125.255  1.00  0.00     0.000 C 
ATOM     19  C   UNL     1     117.191 116.782 123.997  1.00  0.00     0.005 C 
ATOM     20  C   UNL     1     115.859 115.966 123.990  1.00  0.00     0.003 C 
ATOM     21  C   UNL     1     113.632 115.499 125.150  1.00  0.00     0.031 C 
ATOM     22  C   UNL     1     116.047 114.428 123.700  1.00  0.00    -0.008 C 
ATOM     23  C   UNL     1     113.653 114.180 124.428  1.00  0.00    -0.027 C 
ATOM     24  C   UNL     1     114.678 113.740 123.669  1.00  0.00    -0.065 C 
ATOM     25  C   UNL     1     116.751 114.264 122.313  1.00  0.00     0.014 C 
ATOM     26  C   UNL     1     116.888 113.728 124.803  1.00  0.00     0.016 C 
ATOM     27  C   UNL     1     114.535 112.383 123.003  1.00  0.00     0.063 C 
ATOM     28  C   UNL     1     116.675 112.845 121.726  1.00  0.00     0.033 C 
ATOM     29  C   UNL     1     115.233 112.334 121.637  1.00  0.00     0.118 C 
BRANCH  29  30
ATOM     30  O   UNL     1     114.502 113.028 120.653  1.00  0.00    -0.393 OA
ATOM     31  H   UNL     1     113.795 112.426 120.302  1.00  0.00     0.210 HD
ENDBRANCH  29  30
ENDBRANCH   1  11
TORSDOF 6
ENDMDL
MODEL 9
REMARK VINA RESULT:    -6.918      3.944      6.609
REMARK INTER + INTRA:         -10.083
REMARK INTER:                  -8.763
REMARK INTRA:                  -1.320
REMARK UNBOUND:                -0.941
REMARK SMILES CC[C@@H](C=C[C@@H](C)[C@H]1CC[C@@H]2[C@H]3CC=C4C[C@@H](O)CC[C@@]4(C)[C@@H]3CC[C@@]21C)C(C)C
REMARK SMILES IDX 6 1 7 2 5 3 4 4 3 5 2 6 1 7 28 8 29 9 30 10 8 11 9 12 26 13
REMARK SMILES IDX 10 14 11 15 25 16 27 17 12 18 24 19 23 20 13 21 21 22 14 23
REMARK SMILES IDX 15 24 20 25 22 26 16 27 19 28 17 29 18 30
REMARK H PARENT 18 31
REMARK Flexibility Score: inf
ROOT
ATOM      1  C   UNL     1     118.637 117.561 121.954  1.00  0.00     0.012 C 
ATOM      2  C   UNL     1     119.800 116.557 121.804  1.00  0.00     0.012 C 
ENDROOT
BRANCH   1   3
ATOM      3  C   UNL     1     119.066 118.913 122.493  1.00  0.00    -0.028 C 
ATOM      4  C   UNL     1     118.266 119.998 122.541  1.00  0.00    -0.027 C 
BRANCH   4   5
ATOM      5  C   UNL     1     118.681 121.278 123.250  1.00  0.00     0.014 C 
BRANCH   5   6
ATOM      6  C   UNL     1     119.779 120.984 124.315  1.00  0.00     0.004 C 
ATOM      7  C   UNL     1     119.205 120.874 125.728  1.00  0.00     0.004 C 
ENDBRANCH   5   6
BRANCH   5   8
ATOM      8  C   UNL     1     117.438 122.016 123.846  1.00  0.00    -0.011 C 
ATOM      9  C   UNL     1     117.557 123.543 123.715  1.00  0.00     0.008 C 
ATOM     10  C   UNL     1     116.131 121.559 123.167  1.00  0.00     0.008 C 
ENDBRANCH   5   8
ENDBRANCH   4   5
ENDBRANCH   1   3
BRANCH   1  11
ATOM     11  C   UNL     1     117.297 117.045 122.586  1.00  0.00     0.002 C 
ATOM     12  C   UNL     1     116.765 115.781 121.923  1.00  0.00     0.005 C 
ATOM     13  C   UNL     1     117.137 116.790 124.122  1.00  0.00    -0.026 C 
ATOM     14  C   UNL     1     115.571 115.392 122.769  1.00  0.00     0.005 C 
ATOM     15  C   UNL     1     115.912 115.811 124.209  1.00  0.00    -0.001 C 
ATOM     16  C   UNL     1     116.865 118.121 124.878  1.00  0.00     0.007 C 
ATOM     17  C   UNL     1     118.370 116.090 124.746  1.00  0.00     0.012 C 
ATOM     18  C   UNL     1     114.678 116.395 124.955  1.00  0.00     0.000 C 
ATOM     19  C   UNL     1     116.309 117.902 126.292  1.00  0.00     0.005 C 
ATOM     20  C   UNL     1     115.100 116.914 126.354  1.00  0.00     0.003 C 
ATOM     21  C   UNL     1     113.571 115.322 125.069  1.00  0.00     0.031 C 
ATOM     22  C   UNL     1     113.870 117.454 127.178  1.00  0.00    -0.008 C 
ATOM     23  C   UNL     1     112.591 115.528 126.190  1.00  0.00    -0.027 C 
ATOM     24  C   UNL     1     112.768 116.389 127.212  1.00  0.00    -0.065 C 
ATOM     25  C   UNL     1     114.343 117.770 128.635  1.00  0.00     0.014 C 
ATOM     26  C   UNL     1     113.256 118.729 126.536  1.00  0.00     0.016 C 
ATOM     27  C   UNL     1     111.679 116.470 128.267  1.00  0.00     0.063 C 
ATOM     28  C   UNL     1     113.202 117.952 129.648  1.00  0.00     0.033 C 
ATOM     29  C   UNL     1     112.247 116.753 129.664  1.00  0.00     0.118 C 
BRANCH  29  30
ATOM     30  O   UNL     1     112.864 115.614 130.216  1.00  0.00    -0.393 OA
ATOM     31  H   UNL     1     112.163 115.043 130.626  1.00  0.00     0.210 HD
ENDBRANCH  29  30
ENDBRANCH   1  11
TORSDOF 6
ENDMDL
