MODEL 1
REMARK VINA RESULT:     1.367      0.000      0.000
REMARK INTER + INTRA:           1.407
REMARK INTER:                   1.407
REMARK INTRA:                   0.000
REMARK UNBOUND:                 0.000
REMARK SMILES O=c1ccc2cc(O)ccc2o1
REMARK SMILES IDX 9 1 10 2 11 3 5 4 4 5 3 6 2 7 1 8 12 9 6 10 7 11 8 12
REMARK H PARENT 8 13
REMARK Flexibility Score: inf
ROOT
ATOM      1  C   UNL     1      -1.012  -2.877   0.310  1.00  0.00     0.050 A 
ATOM      2  C   UNL     1      -0.244  -2.378   1.367  1.00  0.00     0.052 A 
ATOM      3  C   UNL     1       0.901  -1.618   1.104  1.00  0.00     0.138 A 
ATOM      4  C   UNL     1       1.277  -1.356  -0.232  1.00  0.00     0.021 A 
ATOM      5  C   UNL     1       2.426  -0.593  -0.463  1.00  0.00     0.019 A 
ATOM      6  C   UNL     1       3.161  -0.116   0.622  1.00  0.00     0.094 A 
ATOM      7  C   UNL     1       2.728  -0.415   1.919  1.00  0.00     0.336 A 
ATOM      8  O   UNL     1       3.378   0.006   2.910  1.00  0.00    -0.246 OA
ATOM      9  O   UNL     1       1.630  -1.144   2.111  1.00  0.00    -0.423 OA
ATOM     10  C   UNL     1       0.504  -1.858  -1.288  1.00  0.00     0.058 A 
ATOM     11  C   UNL     1      -0.643  -2.620  -1.016  1.00  0.00     0.116 A 
ENDROOT
BRANCH  11  12
ATOM     12  O   UNL     1      -1.422  -3.125  -2.054  1.00  0.00    -0.508 OA
ATOM     13  H   UNL     1      -1.488  -4.122  -2.229  1.00  0.00     0.293 HD
ENDBRANCH  11  12
TORSDOF 1
ENDMDL
MODEL 2
REMARK VINA RESULT:     2.590      1.200      4.338
REMARK INTER + INTRA:           2.666
REMARK INTER:                   2.666
REMARK INTRA:                   0.000
REMARK UNBOUND:                 0.000
REMARK SMILES O=c1ccc2cc(O)ccc2o1
REMARK SMILES IDX 9 1 10 2 11 3 5 4 4 5 3 6 2 7 1 8 12 9 6 10 7 11 8 12
REMARK H PARENT 8 13
REMARK Flexibility Score: inf
ROOT
ATOM      1  C   UNL     1       1.807  -0.873   2.451  1.00  0.00     0.050 A 
ATOM      2  C   UNL     1       0.554  -1.420   2.156  1.00  0.00     0.052 A 
ATOM      3  C   UNL     1       0.233  -1.768   0.839  1.00  0.00     0.138 A 
ATOM      4  C   UNL     1       1.180  -1.565  -0.190  1.00  0.00     0.021 A 
ATOM      5  C   UNL     1       0.830  -1.923  -1.496  1.00  0.00     0.019 A 
ATOM      6  C   UNL     1      -0.431  -2.465  -1.743  1.00  0.00     0.094 A 
ATOM      7  C   UNL     1      -1.317  -2.637  -0.674  1.00  0.00     0.336 A 
ATOM      8  O   UNL     1      -2.458  -3.125  -0.877  1.00  0.00    -0.246 OA
ATOM      9  O   UNL     1      -0.959  -2.289   0.560  1.00  0.00    -0.423 OA
ATOM     10  C   UNL     1       2.434  -1.016   0.111  1.00  0.00     0.058 A 
ATOM     11  C   UNL     1       2.748  -0.670   1.434  1.00  0.00     0.116 A 
ENDROOT
BRANCH  11  12
ATOM     12  O   UNL     1       3.990  -0.125   1.750  1.00  0.00    -0.508 OA
ATOM     13  H   UNL     1       4.428   0.572   1.157  1.00  0.00     0.293 HD
ENDBRANCH  11  12
TORSDOF 1
ENDMDL
