MODEL 1
REMARK VINA RESULT:    -4.249      0.000      0.000
REMARK INTER + INTRA:          -5.648
REMARK INTER:                  -5.490
REMARK INTRA:                  -0.157
REMARK UNBOUND:                -0.157
REMARK SMILES CCO[C@@H]1O[C@H](CO)[C@@H](O)[C@H](O)[C@H]1O
REMARK SMILES IDX 4 1 13 2 11 3 9 4 6 5 5 6 3 7 2 8 1 9 14 10 12 12 7 14 8 15
REMARK SMILES IDX 10 17
REMARK H PARENT 14 11 12 13 8 16 10 18
REMARK Flexibility Score: inf
ROOT
ATOM      1  C   UNL     1      12.405  42.311  18.931  1.00  0.00     0.281 C 
ATOM      2  C   UNL     1      12.560  40.769  19.031  1.00  0.00     0.202 C 
ATOM      3  C   UNL     1      12.084  40.271  20.402  1.00  0.00     0.179 C 
ATOM      4  C   UNL     1      12.931  40.943  21.497  1.00  0.00     0.177 C 
ATOM      5  C   UNL     1      13.201  42.449  21.189  1.00  0.00     0.178 C 
ATOM      6  O   UNL     1      12.324  42.968  20.196  1.00  0.00    -0.341 OA
ENDROOT
BRANCH   1   7
ATOM      7  O   UNL     1      13.469  42.843  18.159  1.00  0.00    -0.350 OA
BRANCH   7   8
ATOM      8  C   UNL     1      13.264  44.216  17.875  1.00  0.00     0.160 C 
ATOM      9  C   UNL     1      14.539  45.006  18.146  1.00  0.00     0.035 C 
ENDBRANCH   7   8
ENDBRANCH   1   7
BRANCH   2  10
ATOM     10  O   UNL     1      11.875  40.127  17.983  1.00  0.00    -0.385 OA
ATOM     11  H   UNL     1      11.194  40.760  17.633  1.00  0.00     0.211 HD
ENDBRANCH   2  10
BRANCH   3  12
ATOM     12  O   UNL     1      12.228  38.877  20.493  1.00  0.00    -0.387 OA
ATOM     13  H   UNL     1      12.807  38.596  19.737  1.00  0.00     0.211 HD
ENDBRANCH   3  12
BRANCH   5  14
ATOM     14  C   UNL     1      14.681  42.750  20.868  1.00  0.00     0.191 C 
BRANCH  14  15
ATOM     15  O   UNL     1      15.266  43.500  21.898  1.00  0.00    -0.394 OA
ATOM     16  H   UNL     1      14.596  43.558  22.627  1.00  0.00     0.210 HD
ENDBRANCH  14  15
ENDBRANCH   5  14
BRANCH   4  17
ATOM     17  O   UNL     1      12.316  40.785  22.752  1.00  0.00    -0.387 OA
ATOM     18  H   UNL     1      11.760  39.963  22.713  1.00  0.00     0.211 HD
ENDBRANCH   4  17
TORSDOF 7
ENDMDL
MODEL 2
REMARK VINA RESULT:    -3.951      1.355      3.135
REMARK INTER + INTRA:          -5.263
REMARK INTER:                  -5.103
REMARK INTRA:                  -0.160
REMARK UNBOUND:                -0.157
REMARK SMILES CCO[C@@H]1O[C@H](CO)[C@@H](O)[C@H](O)[C@H]1O
REMARK SMILES IDX 4 1 13 2 11 3 9 4 6 5 5 6 3 7 2 8 1 9 14 10 12 12 7 14 8 15
REMARK SMILES IDX 10 17
REMARK H PARENT 14 11 12 13 8 16 10 18
REMARK Flexibility Score: inf
ROOT
ATOM      1  C   UNL     1      14.478  42.163  20.232  1.00  0.00     0.281 C 
ATOM      2  C   UNL     1      13.563  41.226  21.066  1.00  0.00     0.202 C 
ATOM      3  C   UNL     1      12.970  40.126  20.177  1.00  0.00     0.179 C 
ATOM      4  C   UNL     1      12.144  40.783  19.056  1.00  0.00     0.177 C 
ATOM      5  C   UNL     1      12.844  42.054  18.480  1.00  0.00     0.178 C 
ATOM      6  O   UNL     1      14.222  42.123  18.828  1.00  0.00    -0.341 OA
ENDROOT
BRANCH   1   7
ATOM      7  O   UNL     1      14.368  43.489  20.721  1.00  0.00    -0.350 OA
BRANCH   7   8
ATOM      8  C   UNL     1      15.635  44.117  20.801  1.00  0.00     0.160 C 
ATOM      9  C   UNL     1      16.247  44.248  19.412  1.00  0.00     0.035 C 
ENDBRANCH   7   8
ENDBRANCH   1   7
BRANCH   2  10
ATOM     10  O   UNL     1      14.263  40.684  22.159  1.00  0.00    -0.385 OA
ATOM     11  H   UNL     1      15.213  40.962  22.079  1.00  0.00     0.211 HD
ENDBRANCH   2  10
BRANCH   3  12
ATOM     12  O   UNL     1      12.139  39.281  20.931  1.00  0.00    -0.387 OA
ATOM     13  H   UNL     1      12.631  39.062  21.765  1.00  0.00     0.211 HD
ENDBRANCH   3  12
BRANCH   5  14
ATOM     14  C   UNL     1      12.097  43.364  18.812  1.00  0.00     0.191 C 
BRANCH  14  15
ATOM     15  O   UNL     1      12.820  44.474  18.350  1.00  0.00    -0.394 OA
ATOM     16  H   UNL     1      13.671  44.126  17.977  1.00  0.00     0.210 HD
ENDBRANCH  14  15
ENDBRANCH   5  14
BRANCH   4  17
ATOM     17  O   UNL     1      11.875  39.849  18.040  1.00  0.00    -0.387 OA
ATOM     18  H   UNL     1      12.390  39.025  18.245  1.00  0.00     0.211 HD
ENDBRANCH   4  17
TORSDOF 7
ENDMDL
MODEL 3
REMARK VINA RESULT:    -3.796      1.431      4.887
REMARK INTER + INTRA:          -5.063
REMARK INTER:                  -4.708
REMARK INTRA:                  -0.355
REMARK UNBOUND:                -0.157
REMARK SMILES CCO[C@@H]1O[C@H](CO)[C@@H](O)[C@H](O)[C@H]1O
REMARK SMILES IDX 4 1 13 2 11 3 9 4 6 5 5 6 3 7 2 8 1 9 14 10 12 12 7 14 8 15
REMARK SMILES IDX 10 17
REMARK H PARENT 14 11 12 13 8 16 10 18
REMARK Flexibility Score: inf
ROOT
ATOM      1  C   UNL     1      13.436  42.403  20.852  1.00  0.00     0.281 C 
ATOM      2  C   UNL     1      14.806  43.060  20.530  1.00  0.00     0.202 C 
ATOM      3  C   UNL     1      14.603  44.368  19.754  1.00  0.00     0.179 C 
ATOM      4  C   UNL     1      13.862  44.058  18.440  1.00  0.00     0.177 C 
ATOM      5  C   UNL     1      12.726  43.007  18.642  1.00  0.00     0.178 C 
ATOM      6  O   UNL     1      12.370  42.844  20.010  1.00  0.00    -0.341 OA
ENDROOT
BRANCH   1   7
ATOM      7  O   UNL     1      13.565  40.992  20.797  1.00  0.00    -0.350 OA
BRANCH   7   8
ATOM      8  C   UNL     1      12.647  40.356  21.669  1.00  0.00     0.160 C 
ATOM      9  C   UNL     1      11.875  39.275  20.923  1.00  0.00     0.035 C 
ENDBRANCH   7   8
ENDBRANCH   1   7
BRANCH   2  10
ATOM     10  O   UNL     1      15.552  43.269  21.705  1.00  0.00    -0.385 OA
ATOM     11  H   UNL     1      16.501  43.054  21.503  1.00  0.00     0.211 HD
ENDBRANCH   2  10
BRANCH   3  12
ATOM     12  O   UNL     1      15.843  44.960  19.459  1.00  0.00    -0.387 OA
ATOM     13  H   UNL     1      15.654  45.778  18.930  1.00  0.00     0.211 HD
ENDBRANCH   3  12
BRANCH   5  14
ATOM     14  C   UNL     1      13.018  41.655  17.956  1.00  0.00     0.191 C 
BRANCH  14  15
ATOM     15  O   UNL     1      11.912  40.799  18.061  1.00  0.00    -0.394 OA
ATOM     16  H   UNL     1      12.257  39.921  18.368  1.00  0.00     0.210 HD
ENDBRANCH  14  15
ENDBRANCH   5  14
BRANCH   4  17
ATOM     17  O   UNL     1      13.360  45.244  17.875  1.00  0.00    -0.387 OA
ATOM     18  H   UNL     1      14.014  45.967  18.064  1.00  0.00     0.211 HD
ENDBRANCH   4  17
TORSDOF 7
ENDMDL
MODEL 4
REMARK VINA RESULT:    -2.774      1.412      2.252
REMARK INTER + INTRA:          -3.742
REMARK INTER:                  -3.999
REMARK INTRA:                   0.257
REMARK UNBOUND:                -0.157
REMARK SMILES CCO[C@@H]1O[C@H](CO)[C@@H](O)[C@H](O)[C@H]1O
REMARK SMILES IDX 4 1 13 2 11 3 9 4 6 5 5 6 3 7 2 8 1 9 14 10 12 12 7 14 8 15
REMARK SMILES IDX 10 17
REMARK H PARENT 14 11 12 13 8 16 10 18
REMARK Flexibility Score: inf
ROOT
ATOM      1  C   UNL     1      13.075  42.936  20.390  1.00  0.00     0.281 C 
ATOM      2  C   UNL     1      13.138  42.141  19.057  1.00  0.00     0.202 C 
ATOM      3  C   UNL     1      12.283  40.871  19.151  1.00  0.00     0.179 C 
ATOM      4  C   UNL     1      12.819  39.994  20.297  1.00  0.00     0.177 C 
ATOM      5  C   UNL     1      13.220  40.840  21.546  1.00  0.00     0.178 C 
ATOM      6  O   UNL     1      12.672  42.153  21.513  1.00  0.00    -0.341 OA
ENDROOT
BRANCH   1   7
ATOM      7  O   UNL     1      14.330  43.550  20.633  1.00  0.00    -0.350 OA
BRANCH   7   8
ATOM      8  C   UNL     1      14.883  44.084  19.444  1.00  0.00     0.160 C 
ATOM      9  C   UNL     1      16.383  43.821  19.396  1.00  0.00     0.035 C 
ENDBRANCH   7   8
ENDBRANCH   1   7
BRANCH   2  10
ATOM     10  O   UNL     1      12.746  42.947  17.973  1.00  0.00    -0.385 OA
ATOM     11  H   UNL     1      13.322  42.714  17.198  1.00  0.00     0.211 HD
ENDBRANCH   2  10
BRANCH   3  12
ATOM     12  O   UNL     1      12.343  40.150  17.947  1.00  0.00    -0.387 OA
ATOM     13  H   UNL     1      12.409  40.817  17.215  1.00  0.00     0.211 HD
ENDBRANCH   3  12
BRANCH   5  14
ATOM     14  C   UNL     1      14.741  40.855  21.809  1.00  0.00     0.191 C 
BRANCH  14  15
ATOM     15  O   UNL     1      15.003  40.943  23.184  1.00  0.00    -0.394 OA
ATOM     16  H   UNL     1      15.769  41.565  23.291  1.00  0.00     0.210 HD
ENDBRANCH  14  15
ENDBRANCH   5  14
BRANCH   4  17
ATOM     17  O   UNL     1      11.875  39.008  20.636  1.00  0.00    -0.387 OA
ATOM     18  H   UNL     1      11.807  38.985  21.627  1.00  0.00     0.211 HD
ENDBRANCH   4  17
TORSDOF 7
ENDMDL
MODEL 5
REMARK VINA RESULT:    -2.069      1.625      3.053
REMARK INTER + INTRA:          -2.831
REMARK INTER:                  -3.884
REMARK INTRA:                   1.052
REMARK UNBOUND:                -0.157
REMARK SMILES CCO[C@@H]1O[C@H](CO)[C@@H](O)[C@H](O)[C@H]1O
REMARK SMILES IDX 4 1 13 2 11 3 9 4 6 5 5 6 3 7 2 8 1 9 14 10 12 12 7 14 8 15
REMARK SMILES IDX 10 17
REMARK H PARENT 14 11 12 13 8 16 10 18
REMARK Flexibility Score: inf
ROOT
ATOM      1  C   UNL     1      12.915  42.647  19.539  1.00  0.00     0.281 C 
ATOM      2  C   UNL     1      13.555  41.491  20.355  1.00  0.00     0.202 C 
ATOM      3  C   UNL     1      14.169  42.028  21.654  1.00  0.00     0.179 C 
ATOM      4  C   UNL     1      15.251  43.065  21.301  1.00  0.00     0.177 C 
ATOM      5  C   UNL     1      14.813  43.992  20.124  1.00  0.00     0.178 C 
ATOM      6  O   UNL     1      13.412  43.941  19.882  1.00  0.00    -0.341 OA
ENDROOT
BRANCH   1   7
ATOM      7  O   UNL     1      13.085  42.398  18.154  1.00  0.00    -0.350 OA
BRANCH   7   8
ATOM      8  C   UNL     1      13.236  41.015  17.893  1.00  0.00     0.160 C 
ATOM      9  C   UNL     1      11.875  40.329  17.876  1.00  0.00     0.035 C 
ENDBRANCH   7   8
ENDBRANCH   1   7
BRANCH   2  10
ATOM     10  O   UNL     1      12.613  40.477  20.611  1.00  0.00    -0.385 OA
ATOM     11  H   UNL     1      12.913  39.981  21.418  1.00  0.00     0.211 HD
ENDBRANCH   2  10
BRANCH   3  12
ATOM     12  O   UNL     1      14.751  40.982  22.389  1.00  0.00    -0.387 OA
ATOM     13  H   UNL     1      15.578  41.343  22.801  1.00  0.00     0.211 HD
ENDBRANCH   3  12
BRANCH   5  14
ATOM     14  C   UNL     1      15.631  43.765  18.834  1.00  0.00     0.191 C 
BRANCH  14  15
ATOM     15  O   UNL     1      16.971  44.132  19.029  1.00  0.00    -0.394 OA
ATOM     16  H   UNL     1      17.415  44.076  18.143  1.00  0.00     0.210 HD
ENDBRANCH  14  15
ENDBRANCH   5  14
BRANCH   4  17
ATOM     17  O   UNL     1      15.590  43.818  22.439  1.00  0.00    -0.387 OA
ATOM     18  H   UNL     1      16.571  43.974  22.415  1.00  0.00     0.211 HD
ENDBRANCH   4  17
TORSDOF 7
ENDMDL
MODEL 6
REMARK VINA RESULT:    -1.713      1.522      4.529
REMARK INTER + INTRA:          -2.371
REMARK INTER:                  -2.424
REMARK INTRA:                   0.053
REMARK UNBOUND:                -0.157
REMARK SMILES CCO[C@@H]1O[C@H](CO)[C@@H](O)[C@H](O)[C@H]1O
REMARK SMILES IDX 4 1 13 2 11 3 9 4 6 5 5 6 3 7 2 8 1 9 14 10 12 12 7 14 8 15
REMARK SMILES IDX 10 17
REMARK H PARENT 14 11 12 13 8 16 10 18
REMARK Flexibility Score: inf
ROOT
ATOM      1  C   UNL     1      12.492  42.029  20.884  1.00  0.00     0.281 C 
ATOM      2  C   UNL     1      14.040  41.934  20.810  1.00  0.00     0.202 C 
ATOM      3  C   UNL     1      14.639  43.277  20.375  1.00  0.00     0.179 C 
ATOM      4  C   UNL     1      14.081  43.646  18.988  1.00  0.00     0.177 C 
ATOM      5  C   UNL     1      12.561  43.314  18.861  1.00  0.00     0.178 C 
ATOM      6  O   UNL     1      11.941  43.104  20.124  1.00  0.00    -0.341 OA
ENDROOT
BRANCH   1   7
ATOM      7  O   UNL     1      11.922  40.793  20.487  1.00  0.00    -0.350 OA
BRANCH   7   8
ATOM      8  C   UNL     1      11.875  39.876  21.564  1.00  0.00     0.160 C 
ATOM      9  C   UNL     1      12.358  38.504  21.110  1.00  0.00     0.035 C 
ENDBRANCH   7   8
ENDBRANCH   1   7
BRANCH   2  10
ATOM     10  O   UNL     1      14.576  41.503  22.037  1.00  0.00    -0.385 OA
ATOM     11  H   UNL     1      13.904  41.691  22.744  1.00  0.00     0.211 HD
ENDBRANCH   2  10
BRANCH   3  12
ATOM     12  O   UNL     1      16.039  43.189  20.304  1.00  0.00    -0.387 OA
ATOM     13  H   UNL     1      16.402  44.019  20.708  1.00  0.00     0.211 HD
ENDBRANCH   3  12
BRANCH   5  14
ATOM     14  C   UNL     1      12.270  42.162  17.875  1.00  0.00     0.191 C 
BRANCH  14  15
ATOM     15  O   UNL     1      13.299  41.210  17.912  1.00  0.00    -0.394 OA
ATOM     16  H   UNL     1      12.967  40.410  17.428  1.00  0.00     0.210 HD
ENDBRANCH  14  15
ENDBRANCH   5  14
BRANCH   4  17
ATOM     17  O   UNL     1      14.328  45.002  18.711  1.00  0.00    -0.387 OA
ATOM     18  H   UNL     1      14.730  45.055  17.804  1.00  0.00     0.211 HD
ENDBRANCH   4  17
TORSDOF 7
ENDMDL
