MODEL 1
REMARK VINA RESULT:    -4.157      0.000      0.000
REMARK INTER + INTRA:          -6.891
REMARK INTER:                  -6.344
REMARK INTRA:                  -0.547
REMARK UNBOUND:                -0.547
REMARK SMILES CC1=CCC[C@@H](C)C(=O)C[C@@H](C(C)C)C(=O)C1
REMARK SMILES IDX 8 1 9 2 6 3 7 4 5 5 4 6 3 7 2 8 1 9 10 11 11 12 15 13 16 14
REMARK SMILES IDX 17 15 12 17 13 18 14 19
REMARK H PARENT
REMARK Flexibility Score: 70.00
ROOT
ATOM      1  C   UNL     1      10.867 -18.213 -20.269  1.00  0.00     0.136 C 
ATOM      2  O   UNL     1      10.817 -17.869 -19.098  1.00  0.00    -0.299 OA
ENDROOT
BRANCH   1   3
ATOM      3  C   UNL     1       9.645 -17.952 -21.163  1.00  0.00     0.053 C 
ATOM      4  C   UNL     1       8.619 -19.079 -21.020  1.00  0.00     0.016 C 
BRANCH   3   5
ATOM      5  C   UNL     1      10.167 -17.837 -22.581  1.00  0.00     0.015 C 
BRANCH   5   6
ATOM      6  C   UNL     1      10.525 -16.561 -23.298  1.00  0.00     0.028 C 
BRANCH   6   7
ATOM      7  C   UNL     1      11.510 -16.899 -24.419  1.00  0.00    -0.028 C 
ATOM      8  C   UNL     1      12.879 -17.040 -24.356  1.00  0.00    -0.070 CG0
ATOM      9  C   UNL     1      13.560 -17.525 -25.615  1.00  0.00     0.039 C 
ATOM     10  G   UNL     1      13.789 -16.722 -23.148  1.00  0.00     0.000 G0
ENDBRANCH   6   7
ENDBRANCH   5   6
ENDBRANCH   3   5
ENDBRANCH   1   3
BRANCH   1  11
ATOM     11  C   UNL     1      12.155 -18.882 -20.787  1.00  0.00     0.087 C 
BRANCH  11  12
ATOM     12  C   UNL     1      13.445 -17.963 -20.776  1.00  0.00     0.066 C 
BRANCH  12  13
ATOM     13  C   UNL     1      14.089 -17.872 -22.180  1.00  0.00     0.140 C 
ATOM     14  O   UNL     1      14.888 -18.733 -22.520  1.00  0.00    -0.299 OA
BRANCH  13  15
ATOM     15  C   UNL     1      13.808 -16.710 -23.142  1.00  0.00     0.106 CG0
ATOM     16  G   UNL     1      12.883 -17.059 -24.329  1.00  0.00     0.000 G0
ENDBRANCH  13  15
ENDBRANCH  12  13
BRANCH  12  17
ATOM     17  C   UNL     1      14.486 -18.449 -19.716  1.00  0.00    -0.006 C 
ATOM     18  C   UNL     1      14.182 -19.886 -19.246  1.00  0.00     0.008 C 
ATOM     19  C   UNL     1      14.529 -17.536 -18.474  1.00  0.00     0.008 C 
ENDBRANCH  12  17
ENDBRANCH  11  12
ENDBRANCH   1  11
TORSDOF 1
ENDMDL
MODEL 2
REMARK VINA RESULT:    -3.923      2.342      4.776
REMARK INTER + INTRA:          -6.533
REMARK INTER:                  -5.925
REMARK INTRA:                  -0.608
REMARK UNBOUND:                -0.547
REMARK SMILES CC1=CCC[C@@H](C)C(=O)C[C@@H](C(C)C)C(=O)C1
REMARK SMILES IDX 8 1 9 2 6 3 7 4 5 5 4 6 3 7 2 8 1 9 10 11 11 12 15 13 16 14
REMARK SMILES IDX 17 15 12 17 13 18 14 19
REMARK H PARENT
REMARK Flexibility Score: 70.00
ROOT
ATOM      1  C   UNL     1      14.116 -17.695 -21.365  1.00  0.00     0.136 C 
ATOM      2  O   UNL     1      15.304 -17.650 -21.642  1.00  0.00    -0.299 OA
ENDROOT
BRANCH   1   3
ATOM      3  C   UNL     1      13.698 -18.324 -20.026  1.00  0.00     0.053 C 
ATOM      4  C   UNL     1      14.265 -17.524 -18.852  1.00  0.00     0.016 C 
BRANCH   3   5
ATOM      5  C   UNL     1      14.211 -19.750 -20.043  1.00  0.00     0.015 C 
BRANCH   5   6
ATOM      6  C   UNL     1      13.758 -20.850 -20.967  1.00  0.00     0.028 C 
BRANCH   6   7
ATOM      7  C   UNL     1      14.860 -21.096 -21.999  1.00  0.00    -0.028 C 
ATOM      8  C   UNL     1      14.854 -20.835 -23.352  1.00  0.00    -0.070 CG0
ATOM      9  C   UNL     1      16.158 -21.057 -24.081  1.00  0.00     0.039 C 
ATOM     10  G   UNL     1      13.648 -20.374 -24.202  1.00  0.00     0.000 G0
ENDBRANCH   6   7
ENDBRANCH   5   6
ENDBRANCH   3   5
ENDBRANCH   1   3
BRANCH   1  11
ATOM     11  C   UNL     1      13.101 -17.111 -22.367  1.00  0.00     0.087 C 
BRANCH  11  12
ATOM     12  C   UNL     1      12.387 -18.171 -23.302  1.00  0.00     0.066 C 
BRANCH  12  13
ATOM     13  C   UNL     1      13.395 -18.860 -24.251  1.00  0.00     0.140 C 
ATOM     14  O   UNL     1      13.975 -18.185 -25.089  1.00  0.00    -0.299 OA
BRANCH  13  15
ATOM     15  C   UNL     1      13.653 -20.373 -24.222  1.00  0.00     0.106 CG0
ATOM     16  G   UNL     1      14.848 -20.811 -23.345  1.00  0.00     0.000 G0
ENDBRANCH  13  15
ENDBRANCH  12  13
BRANCH  12  17
ATOM     17  C   UNL     1      11.213 -17.526 -24.108  1.00  0.00    -0.006 C 
ATOM     18  C   UNL     1      11.279 -15.986 -24.062  1.00  0.00     0.008 C 
ATOM     19  C   UNL     1       9.831 -17.964 -23.585  1.00  0.00     0.008 C 
ENDBRANCH  12  17
ENDBRANCH  11  12
ENDBRANCH   1  11
TORSDOF 1
ENDMDL
MODEL 3
REMARK VINA RESULT:    -3.886      1.860      2.566
REMARK INTER + INTRA:          -6.477
REMARK INTER:                  -6.076
REMARK INTRA:                  -0.401
REMARK UNBOUND:                -0.547
REMARK SMILES CC1=CCC[C@@H](C)C(=O)C[C@@H](C(C)C)C(=O)C1
REMARK SMILES IDX 8 1 9 2 6 3 7 4 5 5 4 6 3 7 2 8 1 9 10 11 11 12 15 13 16 14
REMARK SMILES IDX 17 15 12 17 13 18 14 19
REMARK H PARENT
REMARK Flexibility Score: 70.00
ROOT
ATOM      1  C   UNL     1      11.277 -17.679 -22.623  1.00  0.00     0.136 C 
ATOM      2  O   UNL     1      10.592 -17.893 -21.635  1.00  0.00    -0.299 OA
ENDROOT
BRANCH   1   3
ATOM      3  C   UNL     1      10.636 -16.955 -23.817  1.00  0.00     0.053 C 
ATOM      4  C   UNL     1      10.662 -17.841 -25.064  1.00  0.00     0.016 C 
BRANCH   3   5
ATOM      5  C   UNL     1      11.420 -15.674 -24.015  1.00  0.00     0.015 C 
BRANCH   5   6
ATOM      6  C   UNL     1      12.027 -15.190 -25.306  1.00  0.00     0.028 C 
BRANCH   6   7
ATOM      7  C   UNL     1      13.348 -14.488 -24.983  1.00  0.00    -0.028 C 
ATOM      8  C   UNL     1      14.540 -15.036 -24.565  1.00  0.00    -0.070 CG0
ATOM      9  C   UNL     1      15.714 -14.089 -24.469  1.00  0.00     0.039 C 
ATOM     10  G   UNL     1      14.792 -16.504 -24.152  1.00  0.00     0.000 G0
ENDBRANCH   6   7
ENDBRANCH   5   6
ENDBRANCH   3   5
ENDBRANCH   1   3
BRANCH   1  11
ATOM     11  C   UNL     1      12.748 -18.137 -22.614  1.00  0.00     0.087 C 
BRANCH  11  12
ATOM     12  C   UNL     1      13.738 -17.215 -21.790  1.00  0.00     0.066 C 
BRANCH  12  13
ATOM     13  C   UNL     1      14.938 -16.757 -22.653  1.00  0.00     0.140 C 
ATOM     14  O   UNL     1      16.009 -16.538 -22.107  1.00  0.00    -0.299 OA
BRANCH  13  15
ATOM     15  C   UNL     1      14.820 -16.511 -24.164  1.00  0.00     0.106 CG0
ATOM     16  G   UNL     1      14.530 -15.046 -24.562  1.00  0.00     0.000 G0
ENDBRANCH  13  15
ENDBRANCH  12  13
BRANCH  12  17
ATOM     17  C   UNL     1      14.229 -17.923 -20.485  1.00  0.00    -0.006 C 
ATOM     18  C   UNL     1      14.418 -19.438 -20.704  1.00  0.00     0.008 C 
ATOM     19  C   UNL     1      13.253 -17.725 -19.308  1.00  0.00     0.008 C 
ENDBRANCH  12  17
ENDBRANCH  11  12
ENDBRANCH   1  11
TORSDOF 1
ENDMDL
MODEL 4
REMARK VINA RESULT:    -3.872      4.986      6.366
REMARK INTER + INTRA:          -6.455
REMARK INTER:                  -5.810
REMARK INTRA:                  -0.646
REMARK UNBOUND:                -0.547
REMARK SMILES CC1=CCC[C@@H](C)C(=O)C[C@@H](C(C)C)C(=O)C1
REMARK SMILES IDX 8 1 9 2 6 3 7 4 5 5 4 6 3 7 2 8 1 9 10 11 11 12 15 13 16 14
REMARK SMILES IDX 17 15 12 17 13 18 14 19
REMARK H PARENT
REMARK Flexibility Score: 70.00
ROOT
ATOM      1  C   UNL     1      15.023 -21.458 -22.591  1.00  0.00     0.136 C 
ATOM      2  O   UNL     1      14.426 -20.883 -23.488  1.00  0.00    -0.299 OA
ENDROOT
BRANCH   1   3
ATOM      3  C   UNL     1      15.089 -20.790 -21.208  1.00  0.00     0.053 C 
ATOM      4  C   UNL     1      13.683 -20.536 -20.662  1.00  0.00     0.016 C 
BRANCH   3   5
ATOM      5  C   UNL     1      15.869 -19.503 -21.390  1.00  0.00     0.015 C 
BRANCH   5   6
ATOM      6  C   UNL     1      17.355 -19.385 -21.607  1.00  0.00     0.028 C 
BRANCH   6   7
ATOM      7  C   UNL     1      17.593 -18.781 -22.992  1.00  0.00    -0.028 C 
ATOM      8  C   UNL     1      18.069 -19.390 -24.132  1.00  0.00    -0.070 CG0
ATOM      9  C   UNL     1      18.053 -18.556 -25.392  1.00  0.00     0.039 C 
ATOM     10  G   UNL     1      18.648 -20.819 -24.249  1.00  0.00     0.000 G0
ENDBRANCH   6   7
ENDBRANCH   5   6
ENDBRANCH   3   5
ENDBRANCH   1   3
BRANCH   1  11
ATOM     11  C   UNL     1      15.668 -22.825 -22.891  1.00  0.00     0.087 C 
BRANCH  11  12
ATOM     12  C   UNL     1      17.238 -22.801 -23.099  1.00  0.00     0.066 C 
BRANCH  12  13
ATOM     13  C   UNL     1      17.634 -21.957 -24.333  1.00  0.00     0.140 C 
ATOM     14  O   UNL     1      17.151 -22.238 -25.421  1.00  0.00    -0.299 OA
BRANCH  13  15
ATOM     15  C   UNL     1      18.656 -20.814 -24.257  1.00  0.00     0.106 CG0
ATOM     16  G   UNL     1      18.043 -19.403 -24.113  1.00  0.00     0.000 G0
ENDBRANCH  13  15
ENDBRANCH  12  13
BRANCH  12  17
ATOM     17  C   UNL     1      17.825 -24.247 -23.200  1.00  0.00    -0.006 C 
ATOM     18  C   UNL     1      16.790 -25.305 -22.770  1.00  0.00     0.008 C 
ATOM     19  C   UNL     1      19.088 -24.428 -22.335  1.00  0.00     0.008 C 
ENDBRANCH  12  17
ENDBRANCH  11  12
ENDBRANCH   1  11
TORSDOF 1
ENDMDL
MODEL 5
REMARK VINA RESULT:    -3.696      5.919      7.869
REMARK INTER + INTRA:          -6.187
REMARK INTER:                  -5.619
REMARK INTRA:                  -0.568
REMARK UNBOUND:                -0.547
REMARK SMILES CC1=CCC[C@@H](C)C(=O)C[C@@H](C(C)C)C(=O)C1
REMARK SMILES IDX 8 1 9 2 6 3 7 4 5 5 4 6 3 7 2 8 1 9 10 11 11 12 15 13 16 14
REMARK SMILES IDX 17 15 12 17 13 18 14 19
REMARK H PARENT
REMARK Flexibility Score: 70.00
ROOT
ATOM      1  C   UNL     1      16.165 -22.674 -23.169  1.00  0.00     0.136 C 
ATOM      2  O   UNL     1      15.369 -22.761 -22.247  1.00  0.00    -0.299 OA
ENDROOT
BRANCH   1   3
ATOM      3  C   UNL     1      17.049 -23.889 -23.492  1.00  0.00     0.053 C 
ATOM      4  C   UNL     1      17.232 -24.769 -22.253  1.00  0.00     0.016 C 
BRANCH   3   5
ATOM      5  C   UNL     1      18.368 -23.339 -23.997  1.00  0.00     0.015 C 
BRANCH   5   6
ATOM      6  C   UNL     1      19.022 -23.663 -25.315  1.00  0.00     0.028 C 
BRANCH   6   7
ATOM      7  C   UNL     1      19.643 -22.380 -25.871  1.00  0.00    -0.028 C 
ATOM      8  C   UNL     1      19.052 -21.385 -26.619  1.00  0.00    -0.070 CG0
ATOM      9  C   UNL     1      19.899 -20.164 -26.895  1.00  0.00     0.039 C 
ATOM     10  G   UNL     1      17.633 -21.403 -27.230  1.00  0.00     0.000 G0
ENDBRANCH   6   7
ENDBRANCH   5   6
ENDBRANCH   3   5
ENDBRANCH   1   3
BRANCH   1  11
ATOM     11  C   UNL     1      16.233 -21.356 -23.965  1.00  0.00     0.087 C 
BRANCH  11  12
ATOM     12  C   UNL     1      15.642 -21.421 -25.433  1.00  0.00     0.066 C 
BRANCH  12  13
ATOM     13  C   UNL     1      16.546 -20.673 -26.442  1.00  0.00     0.140 C 
ATOM     14  O   UNL     1      16.357 -19.481 -26.632  1.00  0.00    -0.299 OA
BRANCH  13  15
ATOM     15  C   UNL     1      17.634 -21.384 -27.258  1.00  0.00     0.106 CG0
ATOM     16  G   UNL     1      19.037 -21.380 -26.612  1.00  0.00     0.000 G0
ENDBRANCH  13  15
ENDBRANCH  12  13
BRANCH  12  17
ATOM     17  C   UNL     1      14.177 -20.877 -25.486  1.00  0.00    -0.006 C 
ATOM     18  C   UNL     1      13.918 -19.852 -24.363  1.00  0.00     0.008 C 
ATOM     19  C   UNL     1      13.129 -22.000 -25.363  1.00  0.00     0.008 C 
ENDBRANCH  12  17
ENDBRANCH  11  12
ENDBRANCH   1  11
TORSDOF 1
ENDMDL
MODEL 6
REMARK VINA RESULT:    -3.676      6.545      8.620
REMARK INTER + INTRA:          -6.157
REMARK INTER:                  -5.877
REMARK INTRA:                  -0.280
REMARK UNBOUND:                -0.547
REMARK SMILES CC1=CCC[C@@H](C)C(=O)C[C@@H](C(C)C)C(=O)C1
REMARK SMILES IDX 8 1 9 2 6 3 7 4 5 5 4 6 3 7 2 8 1 9 10 11 11 12 15 13 16 14
REMARK SMILES IDX 17 15 12 17 13 18 14 19
REMARK H PARENT
REMARK Flexibility Score: 70.00
ROOT
ATOM      1  C   UNL     1      19.711 -23.817 -22.626  1.00  0.00     0.136 C 
ATOM      2  O   UNL     1      19.993 -23.245 -21.584  1.00  0.00    -0.299 OA
ENDROOT
BRANCH   1   3
ATOM      3  C   UNL     1      19.197 -25.264 -22.552  1.00  0.00     0.053 C 
ATOM      4  C   UNL     1      19.379 -25.971 -23.896  1.00  0.00     0.016 C 
BRANCH   3   5
ATOM      5  C   UNL     1      17.739 -25.181 -22.147  1.00  0.00     0.015 C 
BRANCH   5   6
ATOM      6  C   UNL     1      16.603 -24.683 -23.003  1.00  0.00     0.028 C 
BRANCH   6   7
ATOM      7  C   UNL     1      16.055 -23.399 -22.375  1.00  0.00    -0.028 C 
ATOM      8  C   UNL     1      15.832 -22.174 -22.965  1.00  0.00    -0.070 CG0
ATOM      9  C   UNL     1      15.141 -21.137 -22.109  1.00  0.00     0.039 C 
ATOM     10  G   UNL     1      16.243 -21.741 -24.390  1.00  0.00     0.000 G0
ENDBRANCH   6   7
ENDBRANCH   5   6
ENDBRANCH   3   5
ENDBRANCH   1   3
BRANCH   1  11
ATOM     11  C   UNL     1      19.877 -23.055 -23.955  1.00  0.00     0.087 C 
BRANCH  11  12
ATOM     12  C   UNL     1      18.926 -21.803 -24.140  1.00  0.00     0.066 C 
BRANCH  12  13
ATOM     13  C   UNL     1      17.616 -22.188 -24.868  1.00  0.00     0.140 C 
ATOM     14  O   UNL     1      17.683 -22.853 -25.891  1.00  0.00    -0.299 OA
BRANCH  13  15
ATOM     15  C   UNL     1      16.237 -21.717 -24.387  1.00  0.00     0.106 CG0
ATOM     16  G   UNL     1      15.851 -22.181 -22.965  1.00  0.00     0.000 G0
ENDBRANCH  13  15
ENDBRANCH  12  13
BRANCH  12  17
ATOM     17  C   UNL     1      19.653 -20.634 -24.881  1.00  0.00    -0.006 C 
ATOM     18  C   UNL     1      21.041 -20.357 -24.269  1.00  0.00     0.008 C 
ATOM     19  C   UNL     1      18.842 -19.324 -24.848  1.00  0.00     0.008 C 
ENDBRANCH  12  17
ENDBRANCH  11  12
ENDBRANCH   1  11
TORSDOF 1
ENDMDL
MODEL 7
REMARK VINA RESULT:    -3.658      2.919      4.163
REMARK INTER + INTRA:          -6.129
REMARK INTER:                  -5.506
REMARK INTRA:                  -0.623
REMARK UNBOUND:                -0.547
REMARK SMILES CC1=CCC[C@@H](C)C(=O)C[C@@H](C(C)C)C(=O)C1
REMARK SMILES IDX 8 1 9 2 6 3 7 4 5 5 4 6 3 7 2 8 1 9 10 11 11 12 15 13 16 14
REMARK SMILES IDX 17 15 12 17 13 18 14 19
REMARK H PARENT
REMARK Flexibility Score: 70.00
ROOT
ATOM      1  C   UNL     1      13.420 -17.316 -22.327  1.00  0.00     0.136 C 
ATOM      2  O   UNL     1      12.377 -17.688 -22.841  1.00  0.00    -0.299 OA
ENDROOT
BRANCH   1   3
ATOM      3  C   UNL     1      14.350 -16.398 -23.137  1.00  0.00     0.053 C 
ATOM      4  C   UNL     1      13.611 -15.135 -23.582  1.00  0.00     0.016 C 
BRANCH   3   5
ATOM      5  C   UNL     1      14.839 -17.215 -24.316  1.00  0.00     0.015 C 
BRANCH   5   6
ATOM      6  C   UNL     1      16.071 -18.082 -24.350  1.00  0.00     0.028 C 
BRANCH   6   7
ATOM      7  C   UNL     1      15.629 -19.539 -24.498  1.00  0.00    -0.028 C 
ATOM      8  C   UNL     1      15.598 -20.536 -23.547  1.00  0.00    -0.070 CG0
ATOM      9  C   UNL     1      14.968 -21.843 -23.970  1.00  0.00     0.039 C 
ATOM     10  G   UNL     1      16.168 -20.468 -22.113  1.00  0.00     0.000 G0
ENDBRANCH   6   7
ENDBRANCH   5   6
ENDBRANCH   3   5
ENDBRANCH   1   3
BRANCH   1  11
ATOM     11  C   UNL     1      13.742 -17.777 -20.893  1.00  0.00     0.087 C 
BRANCH  11  12
ATOM     12  C   UNL     1      15.188 -18.390 -20.688  1.00  0.00     0.066 C 
BRANCH  12  13
ATOM     13  C   UNL     1      15.223 -19.895 -21.044  1.00  0.00     0.140 C 
ATOM     14  O   UNL     1      14.498 -20.664 -20.429  1.00  0.00    -0.299 OA
BRANCH  13  15
ATOM     15  C   UNL     1      16.176 -20.471 -22.099  1.00  0.00     0.106 CG0
ATOM     16  G   UNL     1      15.599 -20.531 -23.532  1.00  0.00     0.000 G0
ENDBRANCH  13  15
ENDBRANCH  12  13
BRANCH  12  17
ATOM     17  C   UNL     1      15.714 -18.148 -19.235  1.00  0.00    -0.006 C 
ATOM     18  C   UNL     1      14.639 -17.481 -18.353  1.00  0.00     0.008 C 
ATOM     19  C   UNL     1      16.976 -17.263 -19.208  1.00  0.00     0.008 C 
ENDBRANCH  12  17
ENDBRANCH  11  12
ENDBRANCH   1  11
TORSDOF 1
ENDMDL
MODEL 8
REMARK VINA RESULT:    -3.657      2.899      4.807
REMARK INTER + INTRA:          -6.127
REMARK INTER:                  -5.572
REMARK INTRA:                  -0.556
REMARK UNBOUND:                -0.547
REMARK SMILES CC1=CCC[C@@H](C)C(=O)C[C@@H](C(C)C)C(=O)C1
REMARK SMILES IDX 8 1 9 2 6 3 7 4 5 5 4 6 3 7 2 8 1 9 10 11 11 12 15 13 16 14
REMARK SMILES IDX 17 15 12 17 13 18 14 19
REMARK H PARENT
REMARK Flexibility Score: 70.00
ROOT
ATOM      1  C   UNL     1      15.316 -17.542 -20.541  1.00  0.00     0.136 C 
ATOM      2  O   UNL     1      16.149 -17.555 -19.648  1.00  0.00    -0.299 OA
ENDROOT
BRANCH   1   3
ATOM      3  C   UNL     1      13.953 -18.204 -20.282  1.00  0.00     0.053 C 
ATOM      4  C   UNL     1      13.236 -17.525 -19.113  1.00  0.00     0.016 C 
BRANCH   3   5
ATOM      5  C   UNL     1      14.231 -19.667 -20.005  1.00  0.00     0.015 C 
BRANCH   5   6
ATOM      6  C   UNL     1      13.801 -20.833 -20.856  1.00  0.00     0.028 C 
BRANCH   6   7
ATOM      7  C   UNL     1      15.005 -21.300 -21.676  1.00  0.00    -0.028 C 
ATOM      8  C   UNL     1      15.448 -20.846 -22.899  1.00  0.00    -0.070 CG0
ATOM      9  C   UNL     1      16.762 -21.412 -23.387  1.00  0.00     0.039 C 
ATOM     10  G   UNL     1      14.728 -19.849 -23.835  1.00  0.00     0.000 G0
ENDBRANCH   6   7
ENDBRANCH   5   6
ENDBRANCH   3   5
ENDBRANCH   1   3
BRANCH   1  11
ATOM     11  C   UNL     1      15.673 -16.856 -21.873  1.00  0.00     0.087 C 
BRANCH  11  12
ATOM     12  C   UNL     1      14.750 -17.242 -23.101  1.00  0.00     0.066 C 
BRANCH  12  13
ATOM     13  C   UNL     1      15.334 -18.432 -23.899  1.00  0.00     0.140 C 
ATOM     14  O   UNL     1      16.291 -18.237 -24.635  1.00  0.00    -0.299 OA
BRANCH  13  15
ATOM     15  C   UNL     1      14.724 -19.839 -23.847  1.00  0.00     0.106 CG0
ATOM     16  G   UNL     1      15.446 -20.826 -22.903  1.00  0.00     0.000 G0
ENDBRANCH  13  15
ENDBRANCH  12  13
BRANCH  12  17
ATOM     17  C   UNL     1      14.496 -16.015 -24.036  1.00  0.00    -0.006 C 
ATOM     18  C   UNL     1      15.576 -14.931 -23.847  1.00  0.00     0.008 C 
ATOM     19  C   UNL     1      13.117 -15.369 -23.795  1.00  0.00     0.008 C 
ENDBRANCH  12  17
ENDBRANCH  11  12
ENDBRANCH   1  11
TORSDOF 1
ENDMDL
MODEL 9
REMARK VINA RESULT:    -3.583      2.359      3.871
REMARK INTER + INTRA:          -6.015
REMARK INTER:                  -5.429
REMARK INTRA:                  -0.587
REMARK UNBOUND:                -0.547
REMARK SMILES CC1=CCC[C@@H](C)C(=O)C[C@@H](C(C)C)C(=O)C1
REMARK SMILES IDX 8 1 9 2 6 3 7 4 5 5 4 6 3 7 2 8 1 9 10 11 11 12 15 13 16 14
REMARK SMILES IDX 17 15 12 17 13 18 14 19
REMARK H PARENT
REMARK Flexibility Score: 70.00
ROOT
ATOM      1  C   UNL     1      14.357 -20.635 -21.278  1.00  0.00     0.136 C 
ATOM      2  O   UNL     1      13.544 -21.113 -20.503  1.00  0.00    -0.299 OA
ENDROOT
BRANCH   1   3
ATOM      3  C   UNL     1      15.111 -21.582 -22.226  1.00  0.00     0.053 C 
ATOM      4  C   UNL     1      16.578 -21.166 -22.353  1.00  0.00     0.016 C 
BRANCH   3   5
ATOM      5  C   UNL     1      14.387 -21.523 -23.556  1.00  0.00     0.015 C 
BRANCH   5   6
ATOM      6  C   UNL     1      14.798 -20.715 -24.760  1.00  0.00     0.028 C 
BRANCH   6   7
ATOM      7  C   UNL     1      13.613 -19.845 -25.183  1.00  0.00    -0.028 C 
ATOM      8  C   UNL     1      13.372 -18.517 -24.908  1.00  0.00    -0.070 CG0
ATOM      9  C   UNL     1      12.177 -17.898 -25.596  1.00  0.00     0.039 C 
ATOM     10  G   UNL     1      14.173 -17.608 -23.948  1.00  0.00     0.000 G0
ENDBRANCH   6   7
ENDBRANCH   5   6
ENDBRANCH   3   5
ENDBRANCH   1   3
BRANCH   1  11
ATOM     11  C   UNL     1      14.578 -19.110 -21.270  1.00  0.00     0.087 C 
BRANCH  11  12
ATOM     12  C   UNL     1      13.274 -18.237 -21.480  1.00  0.00     0.066 C 
BRANCH  12  13
ATOM     13  C   UNL     1      13.443 -17.236 -22.647  1.00  0.00     0.140 C 
ATOM     14  O   UNL     1      12.939 -16.126 -22.551  1.00  0.00    -0.299 OA
BRANCH  13  15
ATOM     15  C   UNL     1      14.171 -17.601 -23.948  1.00  0.00     0.106 CG0
ATOM     16  G   UNL     1      13.364 -18.498 -24.913  1.00  0.00     0.000 G0
ENDBRANCH  13  15
ENDBRANCH  12  13
BRANCH  12  17
ATOM     17  C   UNL     1      12.861 -17.497 -20.166  1.00  0.00    -0.006 C 
ATOM     18  C   UNL     1      13.981 -17.564 -19.108  1.00  0.00     0.008 C 
ATOM     19  C   UNL     1      11.576 -18.078 -19.544  1.00  0.00     0.008 C 
ENDBRANCH  12  17
ENDBRANCH  11  12
ENDBRANCH   1  11
TORSDOF 1
ENDMDL
