MODEL 1
REMARK VINA RESULT:    -6.429      0.000      0.000
REMARK INTER + INTRA:          -9.375
REMARK INTER:                  -8.684
REMARK INTRA:                  -0.691
REMARK UNBOUND:                -0.691
REMARK SMILES O=c1c(-c2ccc(O)cc2)coc2c([C@H]3O[C@@H](CO)[C@@H](O)[C@H](O)[C@H]3O)c(O)ccc12
REMARK SMILES IDX 3 1 11 2 12 3 13 4 30 5 2 6 1 7 29 8 28 9 26 10 14 11 4 12
REMARK SMILES IDX 5 13 6 14 7 15 10 16 9 17 8 18 15 20 24 21 16 22 22 23 17 24
REMARK SMILES IDX 20 25 25 26 23 28 18 30 19 31 21 33 27 35
REMARK H PARENT 8 19 25 27 23 29 19 32 21 34 27 36
REMARK Flexibility Score: inf
ROOT
ATOM      1  C   UNL     1       6.968  -6.125   6.781  1.00  0.00     0.065 A 
ATOM      2  C   UNL     1       8.210  -5.811   7.353  1.00  0.00     0.208 A 
ATOM      3  O   UNL     1       8.987  -4.873   6.825  1.00  0.00    -0.463 OA
ATOM      4  C   UNL     1       8.654  -4.179   5.739  1.00  0.00     0.147 A 
ATOM      5  C   UNL     1       7.419  -4.431   5.098  1.00  0.00     0.066 A 
ATOM      6  C   UNL     1       6.575  -5.424   5.626  1.00  0.00     0.200 A 
ATOM      7  O   UNL     1       5.480  -5.698   5.060  1.00  0.00    -0.288 OA
ATOM      8  C   UNL     1       7.064  -3.689   3.961  1.00  0.00     0.020 A 
ATOM      9  C   UNL     1       7.915  -2.698   3.476  1.00  0.00     0.047 A 
ATOM     10  C   UNL     1       9.138  -2.436   4.105  1.00  0.00     0.125 A 
ATOM     11  C   UNL     1       9.535  -3.194   5.232  1.00  0.00     0.069 A 
ENDROOT
BRANCH   1  12
ATOM     12  C   UNL     1       6.116  -7.174   7.394  1.00  0.00    -0.011 A 
ATOM     13  C   UNL     1       5.137  -6.829   8.342  1.00  0.00     0.013 A 
ATOM     14  C   UNL     1       4.327  -7.813   8.915  1.00  0.00     0.047 A 
ATOM     15  C   UNL     1       4.480  -9.153   8.545  1.00  0.00     0.115 A 
ATOM     16  C   UNL     1       6.259  -8.523   7.021  1.00  0.00     0.013 A 
ATOM     17  C   UNL     1       5.447  -9.505   7.595  1.00  0.00     0.047 A 
BRANCH  15  18
ATOM     18  O   UNL     1       3.666 -10.124   9.124  1.00  0.00    -0.508 OA
ATOM     19  H   UNL     1       3.980 -11.081   9.236  1.00  0.00     0.293 HD
ENDBRANCH  15  18
ENDBRANCH   1  12
BRANCH  11  20
ATOM     20  C   UNL     1      10.850  -2.916   5.952  1.00  0.00     0.188 C 
ATOM     21  C   UNL     1      10.603  -2.079   7.228  1.00  0.00     0.179 C 
ATOM     22  O   UNL     1      11.761  -2.261   5.082  1.00  0.00    -0.362 OA
ATOM     23  C   UNL     1      11.947  -1.785   7.933  1.00  0.00     0.177 C 
ATOM     24  C   UNL     1      13.040  -2.152   5.684  1.00  0.00     0.176 C 
ATOM     25  C   UNL     1      12.978  -1.235   6.927  1.00  0.00     0.177 C 
BRANCH  21  26
ATOM     26  O   UNL     1       9.962  -0.873   6.896  1.00  0.00    -0.387 OA
ATOM     27  H   UNL     1       9.769  -0.909   5.922  1.00  0.00     0.211 HD
ENDBRANCH  21  26
BRANCH  23  28
ATOM     28  O   UNL     1      12.451  -2.959   8.517  1.00  0.00    -0.387 OA
ATOM     29  H   UNL     1      11.682  -3.424   8.942  1.00  0.00     0.211 HD
ENDBRANCH  23  28
BRANCH  24  30
ATOM     30  C   UNL     1      14.037  -1.611   4.649  1.00  0.00     0.191 C 
BRANCH  30  31
ATOM     31  O   UNL     1      13.812  -2.202   3.398  1.00  0.00    -0.394 OA
ATOM     32  H   UNL     1      12.895  -2.581   3.421  1.00  0.00     0.210 HD
ENDBRANCH  30  31
ENDBRANCH  24  30
BRANCH  25  33
ATOM     33  O   UNL     1      12.626   0.070   6.542  1.00  0.00    -0.388 OA
ATOM     34  H   UNL     1      13.096   0.255   5.687  1.00  0.00     0.211 HD
ENDBRANCH  25  33
ENDBRANCH  11  20
BRANCH  10  35
ATOM     35  O   UNL     1       9.952  -1.416   3.611  1.00  0.00    -0.507 OA
ATOM     36  H   UNL     1      10.735  -1.608   2.997  1.00  0.00     0.293 HD
ENDBRANCH  10  35
TORSDOF 9
ENDMDL
MODEL 2
REMARK VINA RESULT:    -5.971      1.880      3.500
REMARK INTER + INTRA:          -8.756
REMARK INTER:                  -8.773
REMARK INTRA:                   0.017
REMARK UNBOUND:                -0.691
REMARK SMILES O=c1c(-c2ccc(O)cc2)coc2c([C@H]3O[C@@H](CO)[C@@H](O)[C@H](O)[C@H]3O)c(O)ccc12
REMARK SMILES IDX 3 1 11 2 12 3 13 4 30 5 2 6 1 7 29 8 28 9 26 10 14 11 4 12
REMARK SMILES IDX 5 13 6 14 7 15 10 16 9 17 8 18 15 20 24 21 16 22 22 23 17 24
REMARK SMILES IDX 20 25 25 26 23 28 18 30 19 31 21 33 27 35
REMARK H PARENT 8 19 25 27 23 29 19 32 21 34 27 36
REMARK Flexibility Score: inf
ROOT
ATOM      1  C   UNL     1       6.919  -6.115   6.886  1.00  0.00     0.065 A 
ATOM      2  C   UNL     1       7.304  -5.286   5.822  1.00  0.00     0.208 A 
ATOM      3  O   UNL     1       8.434  -4.592   5.872  1.00  0.00    -0.463 OA
ATOM      4  C   UNL     1       9.267  -4.632   6.910  1.00  0.00     0.147 A 
ATOM      5  C   UNL     1       8.957  -5.443   8.025  1.00  0.00     0.066 A 
ATOM      6  C   UNL     1       7.763  -6.185   8.010  1.00  0.00     0.200 A 
ATOM      7  O   UNL     1       7.438  -6.894   9.003  1.00  0.00    -0.288 OA
ATOM      8  C   UNL     1       9.843  -5.494   9.113  1.00  0.00     0.020 A 
ATOM      9  C   UNL     1      11.028  -4.761   9.087  1.00  0.00     0.047 A 
ATOM     10  C   UNL     1      11.348  -3.958   7.986  1.00  0.00     0.125 A 
ATOM     11  C   UNL     1      10.455  -3.863   6.892  1.00  0.00     0.069 A 
ENDROOT
BRANCH   1  12
ATOM     12  C   UNL     1       5.653  -6.885   6.803  1.00  0.00    -0.011 A 
ATOM     13  C   UNL     1       4.452  -6.328   7.277  1.00  0.00     0.013 A 
ATOM     14  C   UNL     1       3.256  -7.047   7.192  1.00  0.00     0.047 A 
ATOM     15  C   UNL     1       3.243  -8.327   6.630  1.00  0.00     0.115 A 
ATOM     16  C   UNL     1       5.630  -8.170   6.232  1.00  0.00     0.013 A 
ATOM     17  C   UNL     1       4.433  -8.886   6.149  1.00  0.00     0.047 A 
BRANCH  15  18
ATOM     18  O   UNL     1       2.043  -9.032   6.553  1.00  0.00    -0.508 OA
ATOM     19  H   UNL     1       2.006  -9.975   6.185  1.00  0.00     0.293 HD
ENDBRANCH  15  18
ENDBRANCH   1  12
BRANCH  11  20
ATOM     20  C   UNL     1      10.787  -3.014   5.669  1.00  0.00     0.188 C 
ATOM     21  C   UNL     1      10.818  -1.514   6.044  1.00  0.00     0.179 C 
ATOM     22  O   UNL     1       9.853  -3.259   4.629  1.00  0.00    -0.362 OA
ATOM     23  C   UNL     1      11.132  -0.665   4.791  1.00  0.00     0.177 C 
ATOM     24  C   UNL     1      10.251  -2.606   3.434  1.00  0.00     0.176 C 
ATOM     25  C   UNL     1      10.217  -1.072   3.618  1.00  0.00     0.177 C 
BRANCH  21  26
ATOM     26  O   UNL     1       9.581  -1.128   6.588  1.00  0.00    -0.387 OA
ATOM     27  H   UNL     1       9.378  -0.225   6.227  1.00  0.00     0.211 HD
ENDBRANCH  21  26
BRANCH  23  28
ATOM     28  O   UNL     1      12.474  -0.840   4.415  1.00  0.00    -0.387 OA
ATOM     29  H   UNL     1      12.474  -1.096   3.455  1.00  0.00     0.211 HD
ENDBRANCH  23  28
BRANCH  24  30
ATOM     30  C   UNL     1       9.323  -3.044   2.291  1.00  0.00     0.191 C 
BRANCH  30  31
ATOM     31  O   UNL     1       8.767  -4.302   2.568  1.00  0.00    -0.394 OA
ATOM     32  H   UNL     1       9.418  -4.782   3.142  1.00  0.00     0.210 HD
ENDBRANCH  30  31
ENDBRANCH  24  30
BRANCH  25  33
ATOM     33  O   UNL     1       8.900  -0.647   3.865  1.00  0.00    -0.388 OA
ATOM     34  H   UNL     1       8.559  -1.192   4.621  1.00  0.00     0.211 HD
ENDBRANCH  25  33
ENDBRANCH  11  20
BRANCH  10  35
ATOM     35  O   UNL     1      12.557  -3.263   7.980  1.00  0.00    -0.507 OA
ATOM     36  H   UNL     1      12.676  -2.404   7.456  1.00  0.00     0.293 HD
ENDBRANCH  10  35
TORSDOF 9
ENDMDL
MODEL 3
REMARK VINA RESULT:    -4.270      2.166      8.725
REMARK INTER + INTRA:          -6.459
REMARK INTER:                  -5.820
REMARK INTRA:                  -0.639
REMARK UNBOUND:                -0.691
REMARK SMILES O=c1c(-c2ccc(O)cc2)coc2c([C@H]3O[C@@H](CO)[C@@H](O)[C@H](O)[C@H]3O)c(O)ccc12
REMARK SMILES IDX 3 1 11 2 12 3 13 4 30 5 2 6 1 7 29 8 28 9 26 10 14 11 4 12
REMARK SMILES IDX 5 13 6 14 7 15 10 16 9 17 8 18 15 20 24 21 16 22 22 23 17 24
REMARK SMILES IDX 20 25 25 26 23 28 18 30 19 31 21 33 27 35
REMARK H PARENT 8 19 25 27 23 29 19 32 21 34 27 36
REMARK Flexibility Score: inf
ROOT
ATOM      1  C   UNL     1      10.452  -3.382   5.974  1.00  0.00     0.065 A 
ATOM      2  C   UNL     1       9.267  -3.699   5.293  1.00  0.00     0.208 A 
ATOM      3  O   UNL     1       8.470  -4.668   5.725  1.00  0.00    -0.463 OA
ATOM      4  C   UNL     1       8.729  -5.393   6.811  1.00  0.00     0.147 A 
ATOM      5  C   UNL     1       9.902  -5.140   7.559  1.00  0.00     0.066 A 
ATOM      6  C   UNL     1      10.774  -4.126   7.123  1.00  0.00     0.200 A 
ATOM      7  O   UNL     1      11.847  -3.896   7.748  1.00  0.00    -0.288 OA
ATOM      8  C   UNL     1      10.167  -5.896   8.710  1.00  0.00     0.020 A 
ATOM      9  C   UNL     1       9.272  -6.880   9.125  1.00  0.00     0.047 A 
ATOM     10  C   UNL     1       8.104  -7.137   8.396  1.00  0.00     0.125 A 
ATOM     11  C   UNL     1       7.831  -6.411   7.211  1.00  0.00     0.069 A 
ENDROOT
BRANCH   1  12
ATOM     12  C   UNL     1      11.324  -2.290   5.472  1.00  0.00    -0.011 A 
ATOM     13  C   UNL     1      11.862  -2.352   4.175  1.00  0.00     0.013 A 
ATOM     14  C   UNL     1      12.677  -1.320   3.697  1.00  0.00     0.047 A 
ATOM     15  C   UNL     1      12.960  -0.215   4.505  1.00  0.00     0.115 A 
ATOM     16  C   UNL     1      11.606  -1.172   6.277  1.00  0.00     0.013 A 
ATOM     17  C   UNL     1      12.421  -0.142   5.796  1.00  0.00     0.047 A 
BRANCH  15  18
ATOM     18  O   UNL     1      13.773   0.805   4.016  1.00  0.00    -0.508 OA
ATOM     19  H   UNL     1      13.512   1.347   3.201  1.00  0.00     0.293 HD
ENDBRANCH  15  18
ENDBRANCH   1  12
BRANCH  11  20
ATOM     20  C   UNL     1       6.557  -6.653   6.409  1.00  0.00     0.188 C 
ATOM     21  C   UNL     1       5.358  -5.933   7.069  1.00  0.00     0.179 C 
ATOM     22  O   UNL     1       6.309  -8.045   6.283  1.00  0.00    -0.362 OA
ATOM     23  C   UNL     1       4.070  -6.207   6.258  1.00  0.00     0.177 C 
ATOM     24  C   UNL     1       5.227  -8.282   5.398  1.00  0.00     0.176 C 
ATOM     25  C   UNL     1       3.913  -7.715   5.983  1.00  0.00     0.177 C 
BRANCH  21  26
ATOM     26  O   UNL     1       5.196  -6.380   8.391  1.00  0.00    -0.387 OA
ATOM     27  H   UNL     1       5.692  -5.744   8.972  1.00  0.00     0.211 HD
ENDBRANCH  21  26
BRANCH  23  28
ATOM     28  O   UNL     1       4.115  -5.515   5.036  1.00  0.00    -0.387 OA
ATOM     29  H   UNL     1       4.271  -4.558   5.250  1.00  0.00     0.211 HD
ENDBRANCH  23  28
BRANCH  24  30
ATOM     30  C   UNL     1       5.109  -9.793   5.143  1.00  0.00     0.191 C 
BRANCH  30  31
ATOM     31  O   UNL     1       5.554 -10.106   3.850  1.00  0.00    -0.394 OA
ATOM     32  H   UNL     1       5.969 -11.006   3.901  1.00  0.00     0.210 HD
ENDBRANCH  30  31
ENDBRANCH  24  30
BRANCH  25  33
ATOM     33  O   UNL     1       3.588  -8.390   7.173  1.00  0.00    -0.388 OA
ATOM     34  H   UNL     1       4.096  -9.243   7.167  1.00  0.00     0.211 HD
ENDBRANCH  25  33
ENDBRANCH  11  20
BRANCH  10  35
ATOM     35  O   UNL     1       7.214  -8.108   8.856  1.00  0.00    -0.507 OA
ATOM     36  H   UNL     1       7.161  -9.026   8.432  1.00  0.00     0.293 HD
ENDBRANCH  10  35
TORSDOF 9
ENDMDL
MODEL 4
REMARK VINA RESULT:    -4.234      1.041      2.345
REMARK INTER + INTRA:          -6.410
REMARK INTER:                  -6.836
REMARK INTRA:                   0.426
REMARK UNBOUND:                -0.691
REMARK SMILES O=c1c(-c2ccc(O)cc2)coc2c([C@H]3O[C@@H](CO)[C@@H](O)[C@H](O)[C@H]3O)c(O)ccc12
REMARK SMILES IDX 3 1 11 2 12 3 13 4 30 5 2 6 1 7 29 8 28 9 26 10 14 11 4 12
REMARK SMILES IDX 5 13 6 14 7 15 10 16 9 17 8 18 15 20 24 21 16 22 22 23 17 24
REMARK SMILES IDX 20 25 25 26 23 28 18 30 19 31 21 33 27 35
REMARK H PARENT 8 19 25 27 23 29 19 32 21 34 27 36
REMARK Flexibility Score: inf
ROOT
ATOM      1  C   UNL     1       7.001  -6.012   6.500  1.00  0.00     0.065 A 
ATOM      2  C   UNL     1       7.965  -5.298   7.226  1.00  0.00     0.208 A 
ATOM      3  O   UNL     1       8.675  -4.334   6.654  1.00  0.00    -0.463 OA
ATOM      4  C   UNL     1       8.528  -3.981   5.378  1.00  0.00     0.147 A 
ATOM      5  C   UNL     1       7.577  -4.649   4.572  1.00  0.00     0.066 A 
ATOM      6  C   UNL     1       6.814  -5.682   5.145  1.00  0.00     0.200 A 
ATOM      7  O   UNL     1       5.979  -6.322   4.445  1.00  0.00    -0.288 OA
ATOM      8  C   UNL     1       7.414  -4.268   3.232  1.00  0.00     0.020 A 
ATOM      9  C   UNL     1       8.173  -3.226   2.702  1.00  0.00     0.047 A 
ATOM     10  C   UNL     1       9.114  -2.554   3.491  1.00  0.00     0.125 A 
ATOM     11  C   UNL     1       9.322  -2.943   4.836  1.00  0.00     0.069 A 
ENDROOT
BRANCH   1  12
ATOM     12  C   UNL     1       6.217  -7.083   7.165  1.00  0.00    -0.011 A 
ATOM     13  C   UNL     1       6.857  -8.239   7.642  1.00  0.00     0.013 A 
ATOM     14  C   UNL     1       6.122  -9.245   8.277  1.00  0.00     0.047 A 
ATOM     15  C   UNL     1       4.741  -9.107   8.447  1.00  0.00     0.115 A 
ATOM     16  C   UNL     1       4.828  -6.947   7.346  1.00  0.00     0.013 A 
ATOM     17  C   UNL     1       4.096  -7.954   7.981  1.00  0.00     0.047 A 
BRANCH  15  18
ATOM     18  O   UNL     1       4.021 -10.118   9.081  1.00  0.00    -0.508 OA
ATOM     19  H   UNL     1       3.710 -10.025  10.040  1.00  0.00     0.293 HD
ENDBRANCH  15  18
ENDBRANCH   1  12
BRANCH  11  20
ATOM     20  C   UNL     1      10.323  -2.215   5.726  1.00  0.00     0.188 C 
ATOM     21  C   UNL     1      11.626  -1.921   4.947  1.00  0.00     0.179 C 
ATOM     22  O   UNL     1      10.590  -2.976   6.895  1.00  0.00    -0.362 OA
ATOM     23  C   UNL     1      12.640  -1.205   5.868  1.00  0.00     0.177 C 
ATOM     24  C   UNL     1      11.385  -2.234   7.805  1.00  0.00     0.176 C 
ATOM     25  C   UNL     1      12.783  -1.959   7.206  1.00  0.00     0.177 C 
BRANCH  21  26
ATOM     26  O   UNL     1      12.180  -3.120   4.464  1.00  0.00    -0.387 OA
ATOM     27  H   UNL     1      12.356  -3.693   5.256  1.00  0.00     0.211 HD
ENDBRANCH  21  26
BRANCH  23  28
ATOM     28  O   UNL     1      12.216   0.110   6.120  1.00  0.00    -0.387 OA
ATOM     29  H   UNL     1      13.003   0.700   5.980  1.00  0.00     0.211 HD
ENDBRANCH  23  28
BRANCH  24  30
ATOM     30  C   UNL     1      11.495  -3.012   9.125  1.00  0.00     0.191 C 
BRANCH  30  31
ATOM     31  O   UNL     1      11.111  -4.348   8.937  1.00  0.00    -0.394 OA
ATOM     32  H   UNL     1      11.556  -4.877   9.649  1.00  0.00     0.210 HD
ENDBRANCH  30  31
ENDBRANCH  24  30
BRANCH  25  33
ATOM     33  O   UNL     1      13.465  -3.171   7.005  1.00  0.00    -0.388 OA
ATOM     34  H   UNL     1      14.153  -3.236   7.718  1.00  0.00     0.211 HD
ENDBRANCH  25  33
ENDBRANCH  11  20
BRANCH  10  35
ATOM     35  O   UNL     1       9.835  -1.496   2.937  1.00  0.00    -0.507 OA
ATOM     36  H   UNL     1      10.649  -1.652   2.356  1.00  0.00     0.293 HD
ENDBRANCH  10  35
TORSDOF 9
ENDMDL
MODEL 5
REMARK VINA RESULT:    -3.899      1.831      3.482
REMARK INTER + INTRA:          -5.958
REMARK INTER:                  -6.773
REMARK INTRA:                   0.815
REMARK UNBOUND:                -0.691
REMARK SMILES O=c1c(-c2ccc(O)cc2)coc2c([C@H]3O[C@@H](CO)[C@@H](O)[C@H](O)[C@H]3O)c(O)ccc12
REMARK SMILES IDX 3 1 11 2 12 3 13 4 30 5 2 6 1 7 29 8 28 9 26 10 14 11 4 12
REMARK SMILES IDX 5 13 6 14 7 15 10 16 9 17 8 18 15 20 24 21 16 22 22 23 17 24
REMARK SMILES IDX 20 25 25 26 23 28 18 30 19 31 21 33 27 35
REMARK H PARENT 8 19 25 27 23 29 19 32 21 34 27 36
REMARK Flexibility Score: inf
ROOT
ATOM      1  C   UNL     1       6.341  -6.365   7.182  1.00  0.00     0.065 A 
ATOM      2  C   UNL     1       6.474  -5.353   6.220  1.00  0.00     0.208 A 
ATOM      3  O   UNL     1       7.506  -4.519   6.244  1.00  0.00    -0.463 OA
ATOM      4  C   UNL     1       8.470  -4.581   7.161  1.00  0.00     0.147 A 
ATOM      5  C   UNL     1       8.416  -5.572   8.168  1.00  0.00     0.066 A 
ATOM      6  C   UNL     1       7.331  -6.466   8.177  1.00  0.00     0.200 A 
ATOM      7  O   UNL     1       7.233  -7.342   9.081  1.00  0.00    -0.288 OA
ATOM      8  C   UNL     1       9.439  -5.644   9.125  1.00  0.00     0.020 A 
ATOM      9  C   UNL     1      10.511  -4.755   9.075  1.00  0.00     0.047 A 
ATOM     10  C   UNL     1      10.578  -3.772   8.079  1.00  0.00     0.125 A 
ATOM     11  C   UNL     1       9.541  -3.657   7.123  1.00  0.00     0.069 A 
ENDROOT
BRANCH   1  12
ATOM     12  C   UNL     1       5.180  -7.287   7.130  1.00  0.00    -0.011 A 
ATOM     13  C   UNL     1       3.966  -6.869   6.556  1.00  0.00     0.013 A 
ATOM     14  C   UNL     1       2.873  -7.739   6.498  1.00  0.00     0.047 A 
ATOM     15  C   UNL     1       2.979  -9.036   7.007  1.00  0.00     0.115 A 
ATOM     16  C   UNL     1       5.281  -8.597   7.632  1.00  0.00     0.013 A 
ATOM     17  C   UNL     1       4.186  -9.465   7.572  1.00  0.00     0.047 A 
BRANCH  15  18
ATOM     18  O   UNL     1       1.881  -9.893   6.943  1.00  0.00    -0.508 OA
ATOM     19  H   UNL     1       1.011  -9.607   6.509  1.00  0.00     0.293 HD
ENDBRANCH  15  18
ENDBRANCH   1  12
BRANCH  11  20
ATOM     20  C   UNL     1       9.598  -2.612   6.014  1.00  0.00     0.188 C 
ATOM     21  C   UNL     1       8.833  -3.107   4.764  1.00  0.00     0.179 C 
ATOM     22  O   UNL     1      10.946  -2.301   5.696  1.00  0.00    -0.362 OA
ATOM     23  C   UNL     1       8.919  -2.048   3.641  1.00  0.00     0.177 C 
ATOM     24  C   UNL     1      11.008  -1.211   4.791  1.00  0.00     0.176 C 
ATOM     25  C   UNL     1      10.378  -1.597   3.432  1.00  0.00     0.177 C 
BRANCH  21  26
ATOM     26  O   UNL     1       9.376  -4.324   4.318  1.00  0.00    -0.387 OA
ATOM     27  H   UNL     1      10.055  -4.100   3.628  1.00  0.00     0.211 HD
ENDBRANCH  21  26
BRANCH  23  28
ATOM     28  O   UNL     1       8.132  -0.932   3.971  1.00  0.00    -0.387 OA
ATOM     29  H   UNL     1       7.646  -1.157   4.808  1.00  0.00     0.211 HD
ENDBRANCH  23  28
BRANCH  24  30
ATOM     30  C   UNL     1      12.474  -0.787   4.617  1.00  0.00     0.191 C 
BRANCH  30  31
ATOM     31  O   UNL     1      13.310  -1.913   4.602  1.00  0.00    -0.394 OA
ATOM     32  H   UNL     1      13.420  -2.175   3.651  1.00  0.00     0.210 HD
ENDBRANCH  30  31
ENDBRANCH  24  30
BRANCH  25  33
ATOM     33  O   UNL     1      11.121  -2.631   2.836  1.00  0.00    -0.388 OA
ATOM     34  H   UNL     1      10.671  -2.852   1.980  1.00  0.00     0.211 HD
ENDBRANCH  25  33
ENDBRANCH  11  20
BRANCH  10  35
ATOM     35  O   UNL     1      11.681  -2.918   8.040  1.00  0.00    -0.507 OA
ATOM     36  H   UNL     1      12.204  -2.762   7.187  1.00  0.00     0.293 HD
ENDBRANCH  10  35
TORSDOF 9
ENDMDL
