MODEL 1
REMARK VINA RESULT:    -4.178      0.000      0.000
REMARK INTER + INTRA:          -7.322
REMARK INTER:                  -6.621
REMARK INTRA:                  -0.701
REMARK UNBOUND:                -0.701
REMARK SMILES CCCCCCCCCCCC(=O)[O-]
REMARK SMILES IDX 7 1 8 2 9 3 10 4 11 5 12 6 13 7 14 8 6 9 5 10 4 11 3 12 2 13
REMARK SMILES IDX 1 14
REMARK H PARENT
REMARK Flexibility Score: inf
ROOT
ATOM      1  C   UNL     1       5.737  -4.753  -6.077  1.00  0.00     0.000 C 
ENDROOT
BRANCH   1   2
ATOM      2  C   UNL     1       7.237  -4.425  -5.987  1.00  0.00     0.000 C 
BRANCH   2   3
ATOM      3  C   UNL     1       7.590  -3.084  -6.652  1.00  0.00     0.000 C 
BRANCH   3   4
ATOM      4  C   UNL     1       8.880  -3.159  -7.483  1.00  0.00     0.006 C 
BRANCH   4   5
ATOM      5  C   UNL     1       8.626  -2.962  -8.984  1.00  0.00     0.053 C 
BRANCH   5   6
ATOM      6  C   UNL     1       7.896  -1.680  -9.226  1.00  0.00     0.041 C 
ATOM      7  O   UNL     1       8.465  -0.577  -9.014  1.00  0.00    -0.550 OA
ATOM      8  O   UNL     1       6.569  -1.702  -9.640  1.00  0.00    -0.550 OA
ENDBRANCH   5   6
ENDBRANCH   4   5
ENDBRANCH   3   4
ENDBRANCH   2   3
ENDBRANCH   1   2
BRANCH   1   9
ATOM      9  C   UNL     1       5.049  -4.052  -7.257  1.00  0.00     0.000 C 
BRANCH   9  10
ATOM     10  C   UNL     1       3.794  -3.303  -6.795  1.00  0.00    -0.000 C 
BRANCH  10  11
ATOM     11  C   UNL     1       3.497  -3.585  -5.315  1.00  0.00    -0.000 C 
BRANCH  11  12
ATOM     12  C   UNL     1       2.643  -2.488  -4.661  1.00  0.00    -0.000 C 
BRANCH  12  13
ATOM     13  C   UNL     1       1.805  -3.013  -3.486  1.00  0.00    -0.003 C 
ATOM     14  C   UNL     1       2.386  -2.557  -2.151  1.00  0.00     0.004 C 
ENDBRANCH  12  13
ENDBRANCH  11  12
ENDBRANCH  10  11
ENDBRANCH   9  10
ENDBRANCH   1   9
TORSDOF 10
ENDMDL
MODEL 2
REMARK VINA RESULT:    -3.981      2.903      3.660
REMARK INTER + INTRA:          -7.009
REMARK INTER:                  -6.310
REMARK INTRA:                  -0.698
REMARK UNBOUND:                -0.701
REMARK SMILES CCCCCCCCCCCC(=O)[O-]
REMARK SMILES IDX 7 1 8 2 9 3 10 4 11 5 12 6 13 7 14 8 6 9 5 10 4 11 3 12 2 13
REMARK SMILES IDX 1 14
REMARK H PARENT
REMARK Flexibility Score: inf
ROOT
ATOM      1  C   UNL     1       6.113  -2.675  -8.364  1.00  0.00     0.000 C 
ENDROOT
BRANCH   1   2
ATOM      2  C   UNL     1       6.907  -3.256  -7.183  1.00  0.00     0.000 C 
BRANCH   2   3
ATOM      3  C   UNL     1       7.705  -4.513  -7.569  1.00  0.00     0.000 C 
BRANCH   3   4
ATOM      4  C   UNL     1       8.258  -5.259  -6.344  1.00  0.00     0.006 C 
BRANCH   4   5
ATOM      5  C   UNL     1       7.702  -6.685  -6.222  1.00  0.00     0.053 C 
BRANCH   5   6
ATOM      6  C   UNL     1       6.274  -6.652  -5.780  1.00  0.00     0.041 C 
ATOM      7  O   UNL     1       5.932  -5.945  -4.795  1.00  0.00    -0.550 OA
ATOM      8  O   UNL     1       5.328  -7.440  -6.423  1.00  0.00    -0.550 OA
ENDBRANCH   5   6
ENDBRANCH   4   5
ENDBRANCH   3   4
ENDBRANCH   2   3
ENDBRANCH   1   2
BRANCH   1   9
ATOM      9  C   UNL     1       4.595  -2.830  -8.189  1.00  0.00     0.000 C 
BRANCH   9  10
ATOM     10  C   UNL     1       4.271  -3.889  -7.128  1.00  0.00    -0.000 C 
BRANCH  10  11
ATOM     11  C   UNL     1       3.026  -3.494  -6.318  1.00  0.00    -0.000 C 
BRANCH  11  12
ATOM     12  C   UNL     1       3.309  -3.385  -4.812  1.00  0.00    -0.000 C 
BRANCH  12  13
ATOM     13  C   UNL     1       2.190  -2.659  -4.051  1.00  0.00    -0.003 C 
ATOM     14  C   UNL     1       2.445  -2.683  -2.547  1.00  0.00     0.004 C 
ENDBRANCH  12  13
ENDBRANCH  11  12
ENDBRANCH  10  11
ENDBRANCH   9  10
ENDBRANCH   1   9
TORSDOF 10
ENDMDL
MODEL 3
REMARK VINA RESULT:    -3.946      3.664      5.648
REMARK INTER + INTRA:          -6.954
REMARK INTER:                  -5.578
REMARK INTRA:                  -1.376
REMARK UNBOUND:                -0.701
REMARK SMILES CCCCCCCCCCCC(=O)[O-]
REMARK SMILES IDX 7 1 8 2 9 3 10 4 11 5 12 6 13 7 14 8 6 9 5 10 4 11 3 12 2 13
REMARK SMILES IDX 1 14
REMARK H PARENT
REMARK Flexibility Score: inf
ROOT
ATOM      1  C   UNL     1       6.516  -2.613  -8.496  1.00  0.00     0.000 C 
ENDROOT
BRANCH   1   2
ATOM      2  C   UNL     1       4.983  -2.663  -8.394  1.00  0.00     0.000 C 
BRANCH   2   3
ATOM      3  C   UNL     1       4.497  -3.467  -7.177  1.00  0.00     0.000 C 
BRANCH   3   4
ATOM      4  C   UNL     1       3.609  -4.657  -7.572  1.00  0.00     0.006 C 
BRANCH   4   5
ATOM      5  C   UNL     1       4.345  -5.672  -8.458  1.00  0.00     0.053 C 
BRANCH   5   6
ATOM      6  C   UNL     1       4.225  -7.048  -7.886  1.00  0.00     0.041 C 
ATOM      7  O   UNL     1       5.177  -7.866  -7.998  1.00  0.00    -0.550 OA
ATOM      8  O   UNL     1       3.045  -7.447  -7.272  1.00  0.00    -0.550 OA
ENDBRANCH   5   6
ENDBRANCH   4   5
ENDBRANCH   3   4
ENDBRANCH   2   3
ENDBRANCH   1   2
BRANCH   1   9
ATOM      9  C   UNL     1       7.208  -2.955  -7.168  1.00  0.00     0.000 C 
BRANCH   9  10
ATOM     10  C   UNL     1       8.706  -3.205  -7.378  1.00  0.00    -0.000 C 
BRANCH  10  11
ATOM     11  C   UNL     1       9.073  -4.660  -7.049  1.00  0.00    -0.000 C 
BRANCH  11  12
ATOM     12  C   UNL     1       7.863  -5.605  -7.112  1.00  0.00    -0.000 C 
BRANCH  12  13
ATOM     13  C   UNL     1       7.643  -6.374  -5.800  1.00  0.00    -0.003 C 
ATOM     14  C   UNL     1       6.320  -5.982  -5.150  1.00  0.00     0.004 C 
ENDBRANCH  12  13
ENDBRANCH  11  12
ENDBRANCH  10  11
ENDBRANCH   9  10
ENDBRANCH   1   9
TORSDOF 10
ENDMDL
MODEL 4
REMARK VINA RESULT:    -3.916      3.217      4.522
REMARK INTER + INTRA:          -6.907
REMARK INTER:                  -5.788
REMARK INTRA:                  -1.119
REMARK UNBOUND:                -0.701
REMARK SMILES CCCCCCCCCCCC(=O)[O-]
REMARK SMILES IDX 7 1 8 2 9 3 10 4 11 5 12 6 13 7 14 8 6 9 5 10 4 11 3 12 2 13
REMARK SMILES IDX 1 14
REMARK H PARENT
REMARK Flexibility Score: inf
ROOT
ATOM      1  C   UNL     1       7.550  -2.430  -8.290  1.00  0.00     0.000 C 
ENDROOT
BRANCH   1   2
ATOM      2  C   UNL     1       7.460  -2.918  -6.835  1.00  0.00     0.000 C 
BRANCH   2   3
ATOM      3  C   UNL     1       8.098  -4.303  -6.635  1.00  0.00     0.000 C 
BRANCH   3   4
ATOM      4  C   UNL     1       7.148  -5.296  -5.947  1.00  0.00     0.006 C 
BRANCH   4   5
ATOM      5  C   UNL     1       7.647  -6.745  -6.031  1.00  0.00     0.053 C 
BRANCH   5   6
ATOM      6  C   UNL     1       6.498  -7.698  -5.956  1.00  0.00     0.041 C 
ATOM      7  O   UNL     1       5.316  -7.275  -6.056  1.00  0.00    -0.550 OA
ATOM      8  O   UNL     1       6.728  -9.049  -5.727  1.00  0.00    -0.550 OA
ENDBRANCH   5   6
ENDBRANCH   4   5
ENDBRANCH   3   4
ENDBRANCH   2   3
ENDBRANCH   1   2
BRANCH   1   9
ATOM      9  C   UNL     1       6.266  -2.707  -9.086  1.00  0.00     0.000 C 
BRANCH   9  10
ATOM     10  C   UNL     1       5.033  -2.658  -8.175  1.00  0.00    -0.000 C 
BRANCH  10  11
ATOM     11  C   UNL     1       4.082  -3.827  -8.474  1.00  0.00    -0.000 C 
BRANCH  11  12
ATOM     12  C   UNL     1       3.457  -4.422  -7.203  1.00  0.00    -0.000 C 
BRANCH  12  13
ATOM     13  C   UNL     1       3.891  -3.683  -5.928  1.00  0.00    -0.003 C 
ATOM     14  C   UNL     1       2.691  -3.070  -5.213  1.00  0.00     0.004 C 
ENDBRANCH  12  13
ENDBRANCH  11  12
ENDBRANCH  10  11
ENDBRANCH   9  10
ENDBRANCH   1   9
TORSDOF 10
ENDMDL
MODEL 5
REMARK VINA RESULT:    -3.878      2.423      3.991
REMARK INTER + INTRA:          -6.846
REMARK INTER:                  -5.310
REMARK INTRA:                  -1.536
REMARK UNBOUND:                -0.701
REMARK SMILES CCCCCCCCCCCC(=O)[O-]
REMARK SMILES IDX 7 1 8 2 9 3 10 4 11 5 12 6 13 7 14 8 6 9 5 10 4 11 3 12 2 13
REMARK SMILES IDX 1 14
REMARK H PARENT
REMARK Flexibility Score: inf
ROOT
ATOM      1  C   UNL     1       3.952  -4.204  -7.145  1.00  0.00     0.000 C 
ENDROOT
BRANCH   1   2
ATOM      2  C   UNL     1       4.731  -2.911  -7.437  1.00  0.00     0.000 C 
BRANCH   2   3
ATOM      3  C   UNL     1       5.278  -2.862  -8.874  1.00  0.00     0.000 C 
BRANCH   3   4
ATOM      4  C   UNL     1       6.752  -3.288  -8.958  1.00  0.00     0.006 C 
BRANCH   4   5
ATOM      5  C   UNL     1       7.598  -2.710  -7.815  1.00  0.00     0.053 C 
BRANCH   5   6
ATOM      6  C   UNL     1       8.667  -1.816  -8.358  1.00  0.00     0.041 C 
ATOM      7  O   UNL     1       8.358  -0.780  -9.005  1.00  0.00    -0.550 OA
ATOM      8  O   UNL     1      10.005  -2.150  -8.192  1.00  0.00    -0.550 OA
ENDBRANCH   5   6
ENDBRANCH   4   5
ENDBRANCH   3   4
ENDBRANCH   2   3
ENDBRANCH   1   2
BRANCH   1   9
ATOM      9  C   UNL     1       3.402  -4.863  -8.418  1.00  0.00     0.000 C 
BRANCH   9  10
ATOM     10  C   UNL     1       4.043  -6.238  -8.644  1.00  0.00    -0.000 C 
BRANCH  10  11
ATOM     11  C   UNL     1       4.967  -6.614  -7.477  1.00  0.00    -0.000 C 
BRANCH  11  12
ATOM     12  C   UNL     1       6.424  -6.825  -7.918  1.00  0.00    -0.000 C 
BRANCH  12  13
ATOM     13  C   UNL     1       7.435  -6.416  -6.837  1.00  0.00    -0.003 C 
ATOM     14  C   UNL     1       6.729  -5.826  -5.620  1.00  0.00     0.004 C 
ENDBRANCH  12  13
ENDBRANCH  11  12
ENDBRANCH  10  11
ENDBRANCH   9  10
ENDBRANCH   1   9
TORSDOF 10
ENDMDL
MODEL 6
REMARK VINA RESULT:    -3.776      2.144      4.092
REMARK INTER + INTRA:          -6.685
REMARK INTER:                  -5.315
REMARK INTRA:                  -1.370
REMARK UNBOUND:                -0.701
REMARK SMILES CCCCCCCCCCCC(=O)[O-]
REMARK SMILES IDX 7 1 8 2 9 3 10 4 11 5 12 6 13 7 14 8 6 9 5 10 4 11 3 12 2 13
REMARK SMILES IDX 1 14
REMARK H PARENT
REMARK Flexibility Score: inf
ROOT
ATOM      1  C   UNL     1       4.126  -3.760  -7.926  1.00  0.00     0.000 C 
ENDROOT
BRANCH   1   2
ATOM      2  C   UNL     1       4.928  -2.619  -8.573  1.00  0.00     0.000 C 
BRANCH   2   3
ATOM      3  C   UNL     1       5.909  -3.120  -9.647  1.00  0.00     0.000 C 
BRANCH   3   4
ATOM      4  C   UNL     1       7.232  -3.622  -9.047  1.00  0.00     0.006 C 
BRANCH   4   5
ATOM      5  C   UNL     1       7.769  -2.696  -7.947  1.00  0.00     0.053 C 
BRANCH   5   6
ATOM      6  C   UNL     1       8.765  -1.735  -8.512  1.00  0.00     0.041 C 
ATOM      7  O   UNL     1       9.999  -1.937  -8.358  1.00  0.00    -0.550 OA
ATOM      8  O   UNL     1       8.331  -0.589  -9.167  1.00  0.00    -0.550 OA
ENDBRANCH   5   6
ENDBRANCH   4   5
ENDBRANCH   3   4
ENDBRANCH   2   3
ENDBRANCH   1   2
BRANCH   1   9
ATOM      9  C   UNL     1       4.278  -3.796  -6.398  1.00  0.00     0.000 C 
BRANCH   9  10
ATOM     10  C   UNL     1       5.411  -4.742  -5.981  1.00  0.00    -0.000 C 
BRANCH  10  11
ATOM     11  C   UNL     1       5.479  -5.964  -6.910  1.00  0.00    -0.000 C 
BRANCH  11  12
ATOM     12  C   UNL     1       6.577  -6.958  -6.504  1.00  0.00    -0.000 C 
BRANCH  12  13
ATOM     13  C   UNL     1       7.711  -6.294  -5.709  1.00  0.00    -0.003 C 
ATOM     14  C   UNL     1       8.911  -6.000  -6.605  1.00  0.00     0.004 C 
ENDBRANCH  12  13
ENDBRANCH  11  12
ENDBRANCH  10  11
ENDBRANCH   9  10
ENDBRANCH   1   9
TORSDOF 10
ENDMDL
MODEL 7
REMARK VINA RESULT:    -3.774      3.678      5.009
REMARK INTER + INTRA:          -6.682
REMARK INTER:                  -5.190
REMARK INTRA:                  -1.492
REMARK UNBOUND:                -0.701
REMARK SMILES CCCCCCCCCCCC(=O)[O-]
REMARK SMILES IDX 7 1 8 2 9 3 10 4 11 5 12 6 13 7 14 8 6 9 5 10 4 11 3 12 2 13
REMARK SMILES IDX 1 14
REMARK H PARENT
REMARK Flexibility Score: inf
ROOT
ATOM      1  C   UNL     1       6.277  -2.611  -8.558  1.00  0.00     0.000 C 
ENDROOT
BRANCH   1   2
ATOM      2  C   UNL     1       7.006  -3.080  -7.288  1.00  0.00     0.000 C 
BRANCH   2   3
ATOM      3  C   UNL     1       7.992  -4.229  -7.563  1.00  0.00     0.000 C 
BRANCH   3   4
ATOM      4  C   UNL     1       8.115  -5.197  -6.376  1.00  0.00     0.006 C 
BRANCH   4   5
ATOM      5  C   UNL     1       6.758  -5.513  -5.731  1.00  0.00     0.053 C 
BRANCH   5   6
ATOM      6  C   UNL     1       6.492  -6.984  -5.770  1.00  0.00     0.041 C 
ATOM      7  O   UNL     1       7.440  -7.804  -5.642  1.00  0.00    -0.550 OA
ATOM      8  O   UNL     1       5.204  -7.452  -5.998  1.00  0.00    -0.550 OA
ENDBRANCH   5   6
ENDBRANCH   4   5
ENDBRANCH   3   4
ENDBRANCH   2   3
ENDBRANCH   1   2
BRANCH   1   9
ATOM      9  C   UNL     1       4.753  -2.552  -8.376  1.00  0.00     0.000 C 
BRANCH   9  10
ATOM     10  C   UNL     1       4.326  -3.259  -7.084  1.00  0.00    -0.000 C 
BRANCH  10  11
ATOM     11  C   UNL     1       3.512  -4.525  -7.393  1.00  0.00    -0.000 C 
BRANCH  11  12
ATOM     12  C   UNL     1       3.260  -4.715  -8.896  1.00  0.00    -0.000 C 
BRANCH  12  13
ATOM     13  C   UNL     1       3.777  -6.064  -9.417  1.00  0.00    -0.003 C 
ATOM     14  C   UNL     1       5.292  -6.166  -9.267  1.00  0.00     0.004 C 
ENDBRANCH  12  13
ENDBRANCH  11  12
ENDBRANCH  10  11
ENDBRANCH   9  10
ENDBRANCH   1   9
TORSDOF 10
ENDMDL
MODEL 8
REMARK VINA RESULT:    -3.757      1.951      3.128
REMARK INTER + INTRA:          -6.654
REMARK INTER:                  -5.292
REMARK INTRA:                  -1.362
REMARK UNBOUND:                -0.701
REMARK SMILES CCCCCCCCCCCC(=O)[O-]
REMARK SMILES IDX 7 1 8 2 9 3 10 4 11 5 12 6 13 7 14 8 6 9 5 10 4 11 3 12 2 13
REMARK SMILES IDX 1 14
REMARK H PARENT
REMARK Flexibility Score: inf
ROOT
ATOM      1  C   UNL     1       5.995  -6.932  -6.371  1.00  0.00     0.000 C 
ENDROOT
BRANCH   1   2
ATOM      2  C   UNL     1       6.956  -5.856  -5.839  1.00  0.00     0.000 C 
BRANCH   2   3
ATOM      3  C   UNL     1       7.740  -5.156  -6.962  1.00  0.00     0.000 C 
BRANCH   3   4
ATOM      4  C   UNL     1       8.230  -3.758  -6.555  1.00  0.00     0.006 C 
BRANCH   4   5
ATOM      5  C   UNL     1       7.628  -2.646  -7.425  1.00  0.00     0.053 C 
BRANCH   5   6
ATOM      6  C   UNL     1       8.700  -1.954  -8.205  1.00  0.00     0.041 C 
ATOM      7  O   UNL     1       9.899  -2.326  -8.102  1.00  0.00    -0.550 OA
ATOM      8  O   UNL     1       8.383  -0.867  -9.010  1.00  0.00    -0.550 OA
ENDBRANCH   5   6
ENDBRANCH   4   5
ENDBRANCH   3   4
ENDBRANCH   2   3
ENDBRANCH   1   2
BRANCH   1   9
ATOM      9  C   UNL     1       5.970  -6.996  -7.905  1.00  0.00     0.000 C 
BRANCH   9  10
ATOM     10  C   UNL     1       4.530  -6.981  -8.432  1.00  0.00    -0.000 C 
BRANCH  10  11
ATOM     11  C   UNL     1       4.233  -5.676  -9.186  1.00  0.00    -0.000 C 
BRANCH  11  12
ATOM     12  C   UNL     1       3.389  -4.693  -8.360  1.00  0.00    -0.000 C 
BRANCH  12  13
ATOM     13  C   UNL     1       4.246  -3.670  -7.600  1.00  0.00    -0.003 C 
ATOM     14  C   UNL     1       3.913  -3.674  -6.111  1.00  0.00     0.004 C 
ENDBRANCH  12  13
ENDBRANCH  11  12
ENDBRANCH  10  11
ENDBRANCH   9  10
ENDBRANCH   1   9
TORSDOF 10
ENDMDL
MODEL 9
REMARK VINA RESULT:    -3.736      3.724      5.527
REMARK INTER + INTRA:          -6.621
REMARK INTER:                  -5.155
REMARK INTRA:                  -1.466
REMARK UNBOUND:                -0.701
REMARK SMILES CCCCCCCCCCCC(=O)[O-]
REMARK SMILES IDX 7 1 8 2 9 3 10 4 11 5 12 6 13 7 14 8 6 9 5 10 4 11 3 12 2 13
REMARK SMILES IDX 1 14
REMARK H PARENT
REMARK Flexibility Score: inf
ROOT
ATOM      1  C   UNL     1       7.760  -3.015  -6.701  1.00  0.00     0.000 C 
ENDROOT
BRANCH   1   2
ATOM      2  C   UNL     1       6.495  -2.999  -7.575  1.00  0.00     0.000 C 
BRANCH   2   3
ATOM      3  C   UNL     1       6.608  -3.926  -8.797  1.00  0.00     0.000 C 
BRANCH   3   4
ATOM      4  C   UNL     1       5.433  -4.911  -8.902  1.00  0.00     0.006 C 
BRANCH   4   5
ATOM      5  C   UNL     1       4.091  -4.270  -8.520  1.00  0.00     0.053 C 
BRANCH   5   6
ATOM      6  C   UNL     1       3.360  -5.132  -7.542  1.00  0.00     0.041 C 
ATOM      7  O   UNL     1       2.522  -4.623  -6.751  1.00  0.00    -0.550 OA
ATOM      8  O   UNL     1       3.638  -6.491  -7.467  1.00  0.00    -0.550 OA
ENDBRANCH   5   6
ENDBRANCH   4   5
ENDBRANCH   3   4
ENDBRANCH   2   3
ENDBRANCH   1   2
BRANCH   1   9
ATOM      9  C   UNL     1       9.037  -3.262  -7.517  1.00  0.00     0.000 C 
BRANCH   9  10
ATOM     10  C   UNL     1       9.877  -4.385  -6.896  1.00  0.00    -0.000 C 
BRANCH  10  11
ATOM     11  C   UNL     1       9.285  -5.763  -7.228  1.00  0.00    -0.000 C 
BRANCH  11  12
ATOM     12  C   UNL     1       8.740  -6.488  -5.989  1.00  0.00    -0.000 C 
BRANCH  12  13
ATOM     13  C   UNL     1       7.263  -6.883  -6.136  1.00  0.00    -0.003 C 
ATOM     14  C   UNL     1       6.370  -6.006  -5.263  1.00  0.00     0.004 C 
ENDBRANCH  12  13
ENDBRANCH  11  12
ENDBRANCH  10  11
ENDBRANCH   9  10
ENDBRANCH   1   9
TORSDOF 10
ENDMDL
