MODEL 1
REMARK VINA RESULT:    -3.931      0.000      0.000
REMARK INTER + INTRA:         -10.074
REMARK INTER:                  -7.149
REMARK INTRA:                  -2.925
REMARK UNBOUND:                -2.925
REMARK SMILES CCCCCC=CCC=CCCCCCCCC(=O)[O-]
REMARK SMILES IDX 11 1 12 2 13 3 14 4 15 5 16 6 17 7 18 8 19 9 20 10 10 11
REMARK SMILES IDX 9 12 8 13 7 14 6 15 5 16 4 17 3 18 2 19 1 20
REMARK H PARENT
REMARK Flexibility Score: inf
ROOT
ATOM      1  C   UNL     1      -9.584  10.120  14.656  1.00  0.00     0.027 C 
ENDROOT
BRANCH   1   2
ATOM      2  C   UNL     1      -8.052  10.110  14.516  1.00  0.00     0.004 C 
BRANCH   2   3
ATOM      3  C   UNL     1      -7.316   9.419  15.679  1.00  0.00     0.000 C 
BRANCH   3   4
ATOM      4  C   UNL     1      -6.185  10.280  16.263  1.00  0.00     0.000 C 
BRANCH   4   5
ATOM      5  C   UNL     1      -6.461  10.728  17.709  1.00  0.00     0.000 C 
BRANCH   5   6
ATOM      6  C   UNL     1      -7.205   9.693  18.579  1.00  0.00     0.006 C 
BRANCH   6   7
ATOM      7  C   UNL     1      -8.005  10.295  19.744  1.00  0.00     0.053 C 
BRANCH   7   8
ATOM      8  C   UNL     1      -7.401   9.958  21.073  1.00  0.00     0.041 C 
ATOM      9  O   UNL     1      -6.150   9.934  21.212  1.00  0.00    -0.550 OA
ATOM     10  O   UNL     1      -8.221   9.705  22.165  1.00  0.00    -0.550 OA
ENDBRANCH   7   8
ENDBRANCH   6   7
ENDBRANCH   5   6
ENDBRANCH   4   5
ENDBRANCH   3   4
ENDBRANCH   2   3
ENDBRANCH   1   2
BRANCH   1  11
ATOM     11  C   UNL     1     -10.044  10.705  15.970  1.00  0.00    -0.031 C 
ATOM     12  C   UNL     1     -10.704  10.020  16.920  1.00  0.00    -0.027 C 
BRANCH  12  13
ATOM     13  C   UNL     1     -11.039   8.552  16.817  1.00  0.00     0.054 C 
BRANCH  13  14
ATOM     14  C   UNL     1     -10.048   7.715  17.584  1.00  0.00    -0.027 C 
ATOM     15  C   UNL     1      -9.544   6.544  17.147  1.00  0.00    -0.031 C 
BRANCH  15  16
ATOM     16  C   UNL     1      -9.943   5.873  15.857  1.00  0.00     0.027 C 
BRANCH  16  17
ATOM     17  C   UNL     1      -8.741   5.755  14.913  1.00  0.00     0.004 C 
BRANCH  17  18
ATOM     18  C   UNL     1      -8.973   6.563  13.628  1.00  0.00     0.000 C 
BRANCH  18  19
ATOM     19  C   UNL     1     -10.460   6.662  13.252  1.00  0.00    -0.003 C 
ATOM     20  C   UNL     1     -10.692   6.630  11.742  1.00  0.00     0.004 C 
ENDBRANCH  18  19
ENDBRANCH  17  18
ENDBRANCH  16  17
ENDBRANCH  15  16
ENDBRANCH  13  14
ENDBRANCH  12  13
ENDBRANCH   1  11
TORSDOF 14
ENDMDL
MODEL 2
REMARK VINA RESULT:    -3.912      1.216      4.405
REMARK INTER + INTRA:         -10.039
REMARK INTER:                  -7.647
REMARK INTRA:                  -2.393
REMARK UNBOUND:                -2.925
REMARK SMILES CCCCCC=CCC=CCCCCCCCC(=O)[O-]
REMARK SMILES IDX 11 1 12 2 13 3 14 4 15 5 16 6 17 7 18 8 19 9 20 10 10 11
REMARK SMILES IDX 9 12 8 13 7 14 6 15 5 16 4 17 3 18 2 19 1 20
REMARK H PARENT
REMARK Flexibility Score: inf
ROOT
ATOM      1  C   UNL     1      -9.460   6.255  16.287  1.00  0.00     0.027 C 
ENDROOT
BRANCH   1   2
ATOM      2  C   UNL     1      -9.834   7.153  17.478  1.00  0.00     0.004 C 
BRANCH   2   3
ATOM      3  C   UNL     1     -11.004   8.115  17.199  1.00  0.00     0.000 C 
BRANCH   3   4
ATOM      4  C   UNL     1     -11.011   9.332  18.140  1.00  0.00     0.000 C 
BRANCH   4   5
ATOM      5  C   UNL     1      -9.992   9.206  19.287  1.00  0.00     0.000 C 
BRANCH   5   6
ATOM      6  C   UNL     1     -10.117  10.281  20.387  1.00  0.00     0.006 C 
BRANCH   6   7
ATOM      7  C   UNL     1      -8.797  10.977  20.753  1.00  0.00     0.053 C 
BRANCH   7   8
ATOM      8  C   UNL     1      -7.882  10.074  21.523  1.00  0.00     0.041 C 
ATOM      9  O   UNL     1      -6.643  10.095  21.308  1.00  0.00    -0.550 OA
ATOM     10  O   UNL     1      -8.397   9.236  22.503  1.00  0.00    -0.550 OA
ENDBRANCH   7   8
ENDBRANCH   6   7
ENDBRANCH   5   6
ENDBRANCH   4   5
ENDBRANCH   3   4
ENDBRANCH   2   3
ENDBRANCH   1   2
BRANCH   1  11
ATOM     11  C   UNL     1     -10.656   5.870  15.449  1.00  0.00    -0.031 C 
ATOM     12  C   UNL     1     -10.845   6.244  14.172  1.00  0.00    -0.027 C 
BRANCH  12  13
ATOM     13  C   UNL     1      -9.856   7.070  13.385  1.00  0.00     0.054 C 
BRANCH  13  14
ATOM     14  C   UNL     1     -10.041   8.540  13.657  1.00  0.00    -0.027 C 
ATOM     15  C   UNL     1      -9.036   9.394  13.934  1.00  0.00    -0.031 C 
BRANCH  15  16
ATOM     16  C   UNL     1      -7.589   8.991  14.070  1.00  0.00     0.027 C 
BRANCH  16  17
ATOM     17  C   UNL     1      -6.889   9.833  15.142  1.00  0.00     0.004 C 
BRANCH  17  18
ATOM     18  C   UNL     1      -7.692   9.832  16.451  1.00  0.00     0.000 C 
BRANCH  18  19
ATOM     19  C   UNL     1      -6.794   9.895  17.695  1.00  0.00    -0.003 C 
ATOM     20  C   UNL     1      -5.346  10.252  17.363  1.00  0.00     0.004 C 
ENDBRANCH  18  19
ENDBRANCH  17  18
ENDBRANCH  16  17
ENDBRANCH  15  16
ENDBRANCH  13  14
ENDBRANCH  12  13
ENDBRANCH   1  11
TORSDOF 14
ENDMDL
MODEL 3
REMARK VINA RESULT:    -3.889      3.456      6.866
REMARK INTER + INTRA:          -9.997
REMARK INTER:                  -7.802
REMARK INTRA:                  -2.195
REMARK UNBOUND:                -2.925
REMARK SMILES CCCCCC=CCC=CCCCCCCCC(=O)[O-]
REMARK SMILES IDX 11 1 12 2 13 3 14 4 15 5 16 6 17 7 18 8 19 9 20 10 10 11
REMARK SMILES IDX 9 12 8 13 7 14 6 15 5 16 4 17 3 18 2 19 1 20
REMARK H PARENT
REMARK Flexibility Score: inf
ROOT
ATOM      1  C   UNL     1      -9.286   8.374  18.141  1.00  0.00     0.027 C 
ENDROOT
BRANCH   1   2
ATOM      2  C   UNL     1     -10.671   8.055  17.553  1.00  0.00     0.004 C 
BRANCH   2   3
ATOM      3  C   UNL     1     -10.894   8.600  16.130  1.00  0.00     0.000 C 
BRANCH   3   4
ATOM      4  C   UNL     1     -11.040   7.484  15.082  1.00  0.00     0.000 C 
BRANCH   4   5
ATOM      5  C   UNL     1     -10.668   6.096  15.631  1.00  0.00     0.000 C 
BRANCH   5   6
ATOM      6  C   UNL     1      -9.199   5.679  15.403  1.00  0.00     0.006 C 
BRANCH   6   7
ATOM      7  C   UNL     1      -8.465   6.492  14.325  1.00  0.00     0.053 C 
BRANCH   7   8
ATOM      8  C   UNL     1      -7.803   5.609  13.312  1.00  0.00     0.041 C 
ATOM      9  O   UNL     1      -8.042   5.761  12.086  1.00  0.00    -0.550 OA
ATOM     10  O   UNL     1      -6.893   4.644  13.722  1.00  0.00    -0.550 OA
ENDBRANCH   7   8
ENDBRANCH   6   7
ENDBRANCH   5   6
ENDBRANCH   4   5
ENDBRANCH   3   4
ENDBRANCH   2   3
ENDBRANCH   1   2
BRANCH   1  11
ATOM     11  C   UNL     1      -8.320   8.895  17.103  1.00  0.00    -0.031 C 
ATOM     12  C   UNL     1      -7.454   9.903  17.306  1.00  0.00    -0.027 C 
BRANCH  12  13
ATOM     13  C   UNL     1      -7.301  10.626  18.622  1.00  0.00     0.054 C 
BRANCH  13  14
ATOM     14  C   UNL     1      -6.367   9.884  19.543  1.00  0.00    -0.027 C 
ATOM     15  C   UNL     1      -6.515   9.815  20.880  1.00  0.00    -0.031 C 
BRANCH  15  16
ATOM     16  C   UNL     1      -7.601  10.517  21.655  1.00  0.00     0.027 C 
BRANCH  16  17
ATOM     17  C   UNL     1      -8.792   9.581  21.892  1.00  0.00     0.004 C 
BRANCH  17  18
ATOM     18  C   UNL     1     -10.115  10.361  21.867  1.00  0.00     0.000 C 
BRANCH  18  19
ATOM     19  C   UNL     1     -10.388  11.018  20.505  1.00  0.00    -0.003 C 
ATOM     20  C   UNL     1     -11.793  10.726  19.978  1.00  0.00     0.004 C 
ENDBRANCH  18  19
ENDBRANCH  17  18
ENDBRANCH  16  17
ENDBRANCH  15  16
ENDBRANCH  13  14
ENDBRANCH  12  13
ENDBRANCH   1  11
TORSDOF 14
ENDMDL
MODEL 4
REMARK VINA RESULT:    -3.812      4.235      6.906
REMARK INTER + INTRA:          -9.857
REMARK INTER:                  -7.366
REMARK INTRA:                  -2.491
REMARK UNBOUND:                -2.925
REMARK SMILES CCCCCC=CCC=CCCCCCCCC(=O)[O-]
REMARK SMILES IDX 11 1 12 2 13 3 14 4 15 5 16 6 17 7 18 8 19 9 20 10 10 11
REMARK SMILES IDX 9 12 8 13 7 14 6 15 5 16 4 17 3 18 2 19 1 20
REMARK H PARENT
REMARK Flexibility Score: inf
ROOT
ATOM      1  C   UNL     1      -9.510   6.700  17.396  1.00  0.00     0.027 C 
ENDROOT
BRANCH   1   2
ATOM      2  C   UNL     1      -9.526   5.728  16.202  1.00  0.00     0.004 C 
BRANCH   2   3
ATOM      3  C   UNL     1     -10.735   5.902  15.264  1.00  0.00     0.000 C 
BRANCH   3   4
ATOM      4  C   UNL     1     -10.326   6.294  13.834  1.00  0.00     0.000 C 
BRANCH   4   5
ATOM      5  C   UNL     1      -8.807   6.212  13.603  1.00  0.00     0.000 C 
BRANCH   5   6
ATOM      6  C   UNL     1      -8.375   6.197  12.122  1.00  0.00     0.006 C 
BRANCH   6   7
ATOM      7  C   UNL     1      -9.309   6.968  11.176  1.00  0.00     0.053 C 
BRANCH   7   8
ATOM      8  C   UNL     1      -9.946   6.069  10.161  1.00  0.00     0.041 C 
ATOM      9  O   UNL     1      -9.243   5.516   9.276  1.00  0.00    -0.550 OA
ATOM     10  O   UNL     1     -11.310   5.816  10.217  1.00  0.00    -0.550 OA
ENDBRANCH   7   8
ENDBRANCH   6   7
ENDBRANCH   5   6
ENDBRANCH   4   5
ENDBRANCH   3   4
ENDBRANCH   2   3
ENDBRANCH   1   2
BRANCH   1  11
ATOM     11  C   UNL     1     -10.478   7.846  17.225  1.00  0.00    -0.031 C 
ATOM     12  C   UNL     1     -10.643   8.843  18.112  1.00  0.00    -0.027 C 
BRANCH  12  13
ATOM     13  C   UNL     1      -9.844   8.973  19.386  1.00  0.00     0.054 C 
BRANCH  13  14
ATOM     14  C   UNL     1      -9.240  10.348  19.509  1.00  0.00    -0.027 C 
ATOM     15  C   UNL     1      -7.966  10.650  19.192  1.00  0.00    -0.031 C 
BRANCH  15  16
ATOM     16  C   UNL     1      -6.944   9.644  18.725  1.00  0.00     0.027 C 
BRANCH  16  17
ATOM     17  C   UNL     1      -6.337  10.069  17.383  1.00  0.00     0.004 C 
BRANCH  17  18
ATOM     18  C   UNL     1      -7.433  10.518  16.404  1.00  0.00     0.000 C 
BRANCH  18  19
ATOM     19  C   UNL     1      -7.787   9.433  15.376  1.00  0.00    -0.003 C 
ATOM     20  C   UNL     1      -8.973   9.820  14.493  1.00  0.00     0.004 C 
ENDBRANCH  18  19
ENDBRANCH  17  18
ENDBRANCH  16  17
ENDBRANCH  15  16
ENDBRANCH  13  14
ENDBRANCH  12  13
ENDBRANCH   1  11
TORSDOF 14
ENDMDL
MODEL 5
REMARK VINA RESULT:    -3.788      3.444      6.714
REMARK INTER + INTRA:          -9.814
REMARK INTER:                  -8.360
REMARK INTRA:                  -1.454
REMARK UNBOUND:                -2.925
REMARK SMILES CCCCCC=CCC=CCCCCCCCC(=O)[O-]
REMARK SMILES IDX 11 1 12 2 13 3 14 4 15 5 16 6 17 7 18 8 19 9 20 10 10 11
REMARK SMILES IDX 9 12 8 13 7 14 6 15 5 16 4 17 3 18 2 19 1 20
REMARK H PARENT
REMARK Flexibility Score: inf
ROOT
ATOM      1  C   UNL     1     -10.058   9.158  18.988  1.00  0.00     0.027 C 
ENDROOT
BRANCH   1   2
ATOM      2  C   UNL     1      -9.305   7.835  18.764  1.00  0.00     0.004 C 
BRANCH   2   3
ATOM      3  C   UNL     1      -9.572   7.181  17.396  1.00  0.00     0.000 C 
BRANCH   3   4
ATOM      4  C   UNL     1     -10.827   7.739  16.704  1.00  0.00     0.000 C 
BRANCH   4   5
ATOM      5  C   UNL     1     -11.115   7.062  15.352  1.00  0.00     0.000 C 
BRANCH   5   6
ATOM      6  C   UNL     1      -9.989   6.143  14.833  1.00  0.00     0.006 C 
BRANCH   6   7
ATOM      7  C   UNL     1      -9.009   6.820  13.862  1.00  0.00     0.053 C 
BRANCH   7   8
ATOM      8  C   UNL     1      -8.072   5.835  13.234  1.00  0.00     0.041 C 
ATOM      9  O   UNL     1      -7.971   5.766  11.981  1.00  0.00    -0.550 OA
ATOM     10  O   UNL     1      -7.284   5.018  14.034  1.00  0.00    -0.550 OA
ENDBRANCH   7   8
ENDBRANCH   6   7
ENDBRANCH   5   6
ENDBRANCH   4   5
ENDBRANCH   3   4
ENDBRANCH   2   3
ENDBRANCH   1   2
BRANCH   1  11
ATOM     11  C   UNL     1     -10.360   9.417  20.445  1.00  0.00    -0.031 C 
ATOM     12  C   UNL     1      -9.635  10.221  21.242  1.00  0.00    -0.027 C 
BRANCH  12  13
ATOM     13  C   UNL     1      -8.439  11.013  20.771  1.00  0.00     0.054 C 
BRANCH  13  14
ATOM     14  C   UNL     1      -7.184  10.180  20.823  1.00  0.00    -0.027 C 
ATOM     15  C   UNL     1      -6.388   9.940  19.764  1.00  0.00    -0.031 C 
BRANCH  15  16
ATOM     16  C   UNL     1      -6.667  10.419  18.361  1.00  0.00     0.027 C 
BRANCH  16  17
ATOM     17  C   UNL     1      -5.500  10.079  17.428  1.00  0.00     0.004 C 
BRANCH  17  18
ATOM     18  C   UNL     1      -4.199  10.733  17.918  1.00  0.00     0.000 C 
BRANCH  18  19
ATOM     19  C   UNL     1      -3.167  10.909  16.794  1.00  0.00    -0.003 C 
ATOM     20  C   UNL     1      -3.321   9.873  15.681  1.00  0.00     0.004 C 
ENDBRANCH  18  19
ENDBRANCH  17  18
ENDBRANCH  16  17
ENDBRANCH  15  16
ENDBRANCH  13  14
ENDBRANCH  12  13
ENDBRANCH   1  11
TORSDOF 14
ENDMDL
MODEL 6
REMARK VINA RESULT:    -3.762      1.177      2.844
REMARK INTER + INTRA:          -9.766
REMARK INTER:                  -6.822
REMARK INTRA:                  -2.944
REMARK UNBOUND:                -2.925
REMARK SMILES CCCCCC=CCC=CCCCCCCCC(=O)[O-]
REMARK SMILES IDX 11 1 12 2 13 3 14 4 15 5 16 6 17 7 18 8 19 9 20 10 10 11
REMARK SMILES IDX 9 12 8 13 7 14 6 15 5 16 4 17 3 18 2 19 1 20
REMARK H PARENT
REMARK Flexibility Score: inf
ROOT
ATOM      1  C   UNL     1     -11.382   8.133  16.955  1.00  0.00     0.027 C 
ENDROOT
BRANCH   1   2
ATOM      2  C   UNL     1     -11.111   9.086  15.778  1.00  0.00     0.004 C 
BRANCH   2   3
ATOM      3  C   UNL     1      -9.953  10.073  16.019  1.00  0.00     0.000 C 
BRANCH   3   4
ATOM      4  C   UNL     1      -8.761   9.834  15.078  1.00  0.00     0.000 C 
BRANCH   4   5
ATOM      5  C   UNL     1      -7.448   9.564  15.833  1.00  0.00     0.000 C 
BRANCH   5   6
ATOM      6  C   UNL     1      -7.254  10.399  17.116  1.00  0.00     0.006 C 
BRANCH   6   7
ATOM      7  C   UNL     1      -6.942   9.573  18.374  1.00  0.00     0.053 C 
BRANCH   7   8
ATOM      8  C   UNL     1      -7.620  10.127  19.590  1.00  0.00     0.041 C 
ATOM      9  O   UNL     1      -7.006  10.184  20.687  1.00  0.00    -0.550 OA
ATOM     10  O   UNL     1      -8.918  10.613  19.501  1.00  0.00    -0.550 OA
ENDBRANCH   7   8
ENDBRANCH   6   7
ENDBRANCH   5   6
ENDBRANCH   4   5
ENDBRANCH   3   4
ENDBRANCH   2   3
ENDBRANCH   1   2
BRANCH   1  11
ATOM     11  C   UNL     1     -10.125   7.762  17.705  1.00  0.00    -0.031 C 
ATOM     12  C   UNL     1      -9.376   6.675  17.448  1.00  0.00    -0.027 C 
BRANCH  12  13
ATOM     13  C   UNL     1      -9.672   5.695  16.339  1.00  0.00     0.054 C 
BRANCH  13  14
ATOM     14  C   UNL     1      -8.805   5.960  15.136  1.00  0.00    -0.027 C 
ATOM     15  C   UNL     1      -9.278   6.227  13.903  1.00  0.00    -0.031 C 
BRANCH  15  16
ATOM     16  C   UNL     1     -10.740   6.240  13.535  1.00  0.00     0.027 C 
BRANCH  16  17
ATOM     17  C   UNL     1     -11.044   7.378  12.555  1.00  0.00     0.004 C 
BRANCH  17  18
ATOM     18  C   UNL     1      -9.846   7.639  11.631  1.00  0.00     0.000 C 
BRANCH  18  19
ATOM     19  C   UNL     1      -9.934   6.856  10.312  1.00  0.00    -0.003 C 
ATOM     20  C   UNL     1      -8.788   5.860  10.137  1.00  0.00     0.004 C 
ENDBRANCH  18  19
ENDBRANCH  17  18
ENDBRANCH  16  17
ENDBRANCH  15  16
ENDBRANCH  13  14
ENDBRANCH  12  13
ENDBRANCH   1  11
TORSDOF 14
ENDMDL
MODEL 7
REMARK VINA RESULT:    -3.727      3.105      6.534
REMARK INTER + INTRA:          -9.703
REMARK INTER:                  -7.524
REMARK INTRA:                  -2.178
REMARK UNBOUND:                -2.925
REMARK SMILES CCCCCC=CCC=CCCCCCCCC(=O)[O-]
REMARK SMILES IDX 11 1 12 2 13 3 14 4 15 5 16 6 17 7 18 8 19 9 20 10 10 11
REMARK SMILES IDX 9 12 8 13 7 14 6 15 5 16 4 17 3 18 2 19 1 20
REMARK H PARENT
REMARK Flexibility Score: inf
ROOT
ATOM      1  C   UNL     1      -9.829   7.777  18.010  1.00  0.00     0.027 C 
ENDROOT
BRANCH   1   2
ATOM      2  C   UNL     1      -9.317   7.286  16.645  1.00  0.00     0.004 C 
BRANCH   2   3
ATOM      3  C   UNL     1      -9.647   5.813  16.339  1.00  0.00     0.000 C 
BRANCH   3   4
ATOM      4  C   UNL     1     -10.753   5.658  15.282  1.00  0.00     0.000 C 
BRANCH   4   5
ATOM      5  C   UNL     1     -10.872   6.883  14.358  1.00  0.00     0.000 C 
BRANCH   5   6
ATOM      6  C   UNL     1     -10.258   6.701  12.954  1.00  0.00     0.006 C 
BRANCH   6   7
ATOM      7  C   UNL     1      -8.810   6.186  12.953  1.00  0.00     0.053 C 
BRANCH   7   8
ATOM      8  C   UNL     1      -7.821   7.296  12.772  1.00  0.00     0.041 C 
ATOM      9  O   UNL     1      -7.639   8.138  13.690  1.00  0.00    -0.550 OA
ATOM     10  O   UNL     1      -7.074   7.378  11.604  1.00  0.00    -0.550 OA
ENDBRANCH   7   8
ENDBRANCH   6   7
ENDBRANCH   5   6
ENDBRANCH   4   5
ENDBRANCH   3   4
ENDBRANCH   2   3
ENDBRANCH   1   2
BRANCH   1  11
ATOM     11  C   UNL     1     -10.599   9.072  17.912  1.00  0.00    -0.031 C 
ATOM     12  C   UNL     1     -10.868   9.881  18.951  1.00  0.00    -0.027 C 
BRANCH  12  13
ATOM     13  C   UNL     1     -10.396   9.619  20.361  1.00  0.00     0.054 C 
BRANCH  13  14
ATOM     14  C   UNL     1      -9.865  10.878  20.997  1.00  0.00    -0.027 C 
ATOM     15  C   UNL     1      -8.630  11.002  21.521  1.00  0.00    -0.031 C 
BRANCH  15  16
ATOM     16  C   UNL     1      -7.622   9.884  21.601  1.00  0.00     0.027 C 
BRANCH  16  17
ATOM     17  C   UNL     1      -6.483  10.106  20.600  1.00  0.00     0.004 C 
BRANCH  17  18
ATOM     18  C   UNL     1      -6.830   9.498  19.232  1.00  0.00     0.000 C 
BRANCH  18  19
ATOM     19  C   UNL     1      -7.141  10.566  18.173  1.00  0.00    -0.003 C 
ATOM     20  C   UNL     1      -6.757  10.128  16.760  1.00  0.00     0.004 C 
ENDBRANCH  18  19
ENDBRANCH  17  18
ENDBRANCH  16  17
ENDBRANCH  15  16
ENDBRANCH  13  14
ENDBRANCH  12  13
ENDBRANCH   1  11
TORSDOF 14
ENDMDL
MODEL 8
REMARK VINA RESULT:    -3.687      3.966      7.226
REMARK INTER + INTRA:          -9.629
REMARK INTER:                  -7.871
REMARK INTRA:                  -1.759
REMARK UNBOUND:                -2.925
REMARK SMILES CCCCCC=CCC=CCCCCCCCC(=O)[O-]
REMARK SMILES IDX 11 1 12 2 13 3 14 4 15 5 16 6 17 7 18 8 19 9 20 10 10 11
REMARK SMILES IDX 9 12 8 13 7 14 6 15 5 16 4 17 3 18 2 19 1 20
REMARK H PARENT
REMARK Flexibility Score: inf
ROOT
ATOM      1  C   UNL     1     -10.841   7.482  15.400  1.00  0.00     0.027 C 
ENDROOT
BRANCH   1   2
ATOM      2  C   UNL     1     -10.670   5.961  15.555  1.00  0.00     0.004 C 
BRANCH   2   3
ATOM      3  C   UNL     1      -9.228   5.463  15.345  1.00  0.00     0.000 C 
BRANCH   3   4
ATOM      4  C   UNL     1      -8.401   6.398  14.447  1.00  0.00     0.000 C 
BRANCH   4   5
ATOM      5  C   UNL     1      -7.539   5.637  13.425  1.00  0.00     0.000 C 
BRANCH   5   6
ATOM      6  C   UNL     1      -7.993   5.782  11.957  1.00  0.00     0.006 C 
BRANCH   6   7
ATOM      7  C   UNL     1      -8.833   7.036  11.669  1.00  0.00     0.053 C 
BRANCH   7   8
ATOM      8  C   UNL     1     -10.213   6.690  11.200  1.00  0.00     0.041 C 
ATOM      9  O   UNL     1     -11.198   6.833  11.970  1.00  0.00    -0.550 OA
ATOM     10  O   UNL     1     -10.414   6.244   9.900  1.00  0.00    -0.550 OA
ENDBRANCH   7   8
ENDBRANCH   6   7
ENDBRANCH   5   6
ENDBRANCH   4   5
ENDBRANCH   3   4
ENDBRANCH   2   3
ENDBRANCH   1   2
BRANCH   1  11
ATOM     11  C   UNL     1     -11.393   8.135  16.645  1.00  0.00    -0.031 C 
ATOM     12  C   UNL     1     -10.680   8.380  17.758  1.00  0.00    -0.027 C 
BRANCH  12  13
ATOM     13  C   UNL     1      -9.209   8.072  17.896  1.00  0.00     0.054 C 
BRANCH  13  14
ATOM     14  C   UNL     1      -8.372   9.075  17.145  1.00  0.00    -0.027 C 
ATOM     15  C   UNL     1      -7.340   9.756  17.680  1.00  0.00    -0.031 C 
BRANCH  15  16
ATOM     16  C   UNL     1      -6.911   9.659  19.123  1.00  0.00     0.027 C 
BRANCH  16  17
ATOM     17  C   UNL     1      -7.770  10.568  20.008  1.00  0.00     0.004 C 
BRANCH  17  18
ATOM     18  C   UNL     1      -7.728  10.107  21.472  1.00  0.00     0.000 C 
BRANCH  18  19
ATOM     19  C   UNL     1      -9.103   9.657  21.990  1.00  0.00    -0.003 C 
ATOM     20  C   UNL     1     -10.237   9.989  21.021  1.00  0.00     0.004 C 
ENDBRANCH  18  19
ENDBRANCH  17  18
ENDBRANCH  16  17
ENDBRANCH  15  16
ENDBRANCH  13  14
ENDBRANCH  12  13
ENDBRANCH   1  11
TORSDOF 14
ENDMDL
MODEL 9
REMARK VINA RESULT:    -3.680      1.808      4.478
REMARK INTER + INTRA:          -9.617
REMARK INTER:                  -6.720
REMARK INTRA:                  -2.897
REMARK UNBOUND:                -2.925
REMARK SMILES CCCCCC=CCC=CCCCCCCCC(=O)[O-]
REMARK SMILES IDX 11 1 12 2 13 3 14 4 15 5 16 6 17 7 18 8 19 9 20 10 10 11
REMARK SMILES IDX 9 12 8 13 7 14 6 15 5 16 4 17 3 18 2 19 1 20
REMARK H PARENT
REMARK Flexibility Score: inf
ROOT
ATOM      1  C   UNL     1     -10.659   6.130  13.976  1.00  0.00     0.027 C 
ENDROOT
BRANCH   1   2
ATOM      2  C   UNL     1     -10.852   5.891  15.483  1.00  0.00     0.004 C 
BRANCH   2   3
ATOM      3  C   UNL     1      -9.541   5.854  16.290  1.00  0.00     0.000 C 
BRANCH   3   4
ATOM      4  C   UNL     1      -9.515   6.884  17.431  1.00  0.00     0.000 C 
BRANCH   4   5
ATOM      5  C   UNL     1     -10.077   8.254  17.012  1.00  0.00     0.000 C 
BRANCH   5   6
ATOM      6  C   UNL     1      -9.254   9.468  17.492  1.00  0.00     0.006 C 
BRANCH   6   7
ATOM      7  C   UNL     1      -8.106   9.122  18.452  1.00  0.00     0.053 C 
BRANCH   7   8
ATOM      8  C   UNL     1      -6.841   9.841  18.096  1.00  0.00     0.041 C 
ATOM      9  O   UNL     1      -5.946  10.017  18.963  1.00  0.00    -0.550 OA
ATOM     10  O   UNL     1      -6.637  10.284  16.795  1.00  0.00    -0.550 OA
ENDBRANCH   7   8
ENDBRANCH   6   7
ENDBRANCH   5   6
ENDBRANCH   4   5
ENDBRANCH   3   4
ENDBRANCH   2   3
ENDBRANCH   1   2
BRANCH   1  11
ATOM     11  C   UNL     1     -11.374   7.367  13.487  1.00  0.00    -0.031 C 
ATOM     12  C   UNL     1     -11.452   7.744  12.199  1.00  0.00    -0.027 C 
BRANCH  12  13
ATOM     13  C   UNL     1     -10.865   6.952  11.056  1.00  0.00     0.054 C 
BRANCH  13  14
ATOM     14  C   UNL     1      -9.629   7.620  10.512  1.00  0.00    -0.027 C 
ATOM     15  C   UNL     1      -8.376   7.157  10.688  1.00  0.00    -0.031 C 
BRANCH  15  16
ATOM     16  C   UNL     1      -8.024   5.939  11.504  1.00  0.00     0.027 C 
BRANCH  16  17
ATOM     17  C   UNL     1      -7.338   6.342  12.814  1.00  0.00     0.004 C 
BRANCH  17  18
ATOM     18  C   UNL     1      -7.119   7.861  12.872  1.00  0.00     0.000 C 
BRANCH  18  19
ATOM     19  C   UNL     1      -7.812   8.512  14.079  1.00  0.00    -0.003 C 
ATOM     20  C   UNL     1      -8.595   9.770  13.705  1.00  0.00     0.004 C 
ENDBRANCH  18  19
ENDBRANCH  17  18
ENDBRANCH  16  17
ENDBRANCH  15  16
ENDBRANCH  13  14
ENDBRANCH  12  13
ENDBRANCH   1  11
TORSDOF 14
ENDMDL
