MODEL 1
REMARK VINA RESULT:    -7.380      0.000      0.000
REMARK INTER + INTRA:         -11.513
REMARK INTER:                 -10.400
REMARK INTRA:                  -1.114
REMARK UNBOUND:                -1.114
REMARK SMILES COc1c(O[C@@H]2O[C@H](C(=O)[O-])[C@@H](O)[C@@H](O)[C@@H]2O)cc(O)c2c(=O)cc(-c3ccccc3)oc12
REMARK SMILES IDX 5 1 6 2 8 3 12 4 7 5 14 6 16 7 9 8 10 9 11 10 13 11 15 13
REMARK SMILES IDX 17 15 4 17 3 18 18 19 33 20 19 21 21 22 32 23 22 24 25 25
REMARK SMILES IDX 24 26 23 27 2 28 1 29 20 30 26 32 27 33 31 34 28 35 30 36
REMARK SMILES IDX 29 37
REMARK H PARENT 13 12 15 14 17 16 20 31
REMARK Flexibility Score: inf
ROOT
ATOM      1  O   UNL     1       1.312  -7.303 -31.922  1.00  0.00    -0.458 OA
ENDROOT
BRANCH   1   2
ATOM      2  C   UNL     1       0.891  -7.623 -33.254  1.00  0.00     0.339 C 
ATOM      3  C   UNL     1       2.802  -8.970 -33.732  1.00  0.00     0.199 C 
ATOM      4  C   UNL     1       3.377  -7.926 -34.729  1.00  0.00     0.180 C 
ATOM      5  O   UNL     1       1.382  -8.906 -33.628  1.00  0.00    -0.328 OA
ATOM      6  C   UNL     1       2.845  -6.512 -34.431  1.00  0.00     0.181 C 
ATOM      7  C   UNL     1       1.315  -6.541 -34.273  1.00  0.00     0.214 C 
BRANCH   3   8
ATOM      8  C   UNL     1       3.463  -8.977 -32.372  1.00  0.00     0.073 C 
ATOM      9  O   UNL     1       4.432  -8.216 -32.109  1.00  0.00    -0.547 OA
ATOM     10  O   UNL     1       3.004  -9.852 -31.397  1.00  0.00    -0.547 OA
ENDBRANCH   3   8
BRANCH   4  11
ATOM     11  O   UNL     1       3.107  -8.296 -36.060  1.00  0.00    -0.387 OA
ATOM     12  H   UNL     1       2.132  -8.202 -36.220  1.00  0.00     0.211 HD
ENDBRANCH   4  11
BRANCH   6  13
ATOM     13  O   UNL     1       3.192  -5.629 -35.466  1.00  0.00    -0.387 OA
ATOM     14  H   UNL     1       3.035  -4.711 -35.122  1.00  0.00     0.211 HD
ENDBRANCH   6  13
BRANCH   7  15
ATOM     15  O   UNL     1       0.809  -5.275 -33.923  1.00  0.00    -0.384 OA
ATOM     16  H   UNL     1       1.006  -5.116 -32.965  1.00  0.00     0.211 HD
ENDBRANCH   7  15
ENDBRANCH   1   2
BRANCH   1  17
ATOM     17  C   UNL     1       0.502  -7.171 -30.779  1.00  0.00     0.172 A 
ATOM     18  C   UNL     1       1.145  -6.919 -29.559  1.00  0.00     0.205 A 
ATOM     19  C   UNL     1      -0.897  -7.283 -30.824  1.00  0.00     0.097 A 
ATOM     20  C   UNL     1       0.378  -6.787 -28.373  1.00  0.00     0.188 A 
ATOM     21  C   UNL     1      -1.666  -7.149 -29.664  1.00  0.00     0.134 A 
ATOM     22  C   UNL     1      -1.035  -6.904 -28.426  1.00  0.00     0.111 A 
ATOM     23  O   UNL     1       0.977  -6.562 -27.205  1.00  0.00    -0.452 OA
ATOM     24  C   UNL     1      -1.754  -6.770 -27.220  1.00  0.00     0.197 A 
ATOM     25  C   UNL     1       0.328  -6.447 -26.049  1.00  0.00     0.138 A 
ATOM     26  C   UNL     1      -1.069  -6.542 -26.030  1.00  0.00     0.100 A 
ATOM     27  O   UNL     1      -3.012  -6.849 -27.190  1.00  0.00    -0.289 OA
BRANCH  18  28
ATOM     28  O   UNL     1       2.549  -6.815 -29.597  1.00  0.00    -0.490 OA
ATOM     29  C   UNL     1       3.477  -7.588 -28.844  1.00  0.00     0.278 C 
ENDBRANCH  18  28
BRANCH  21  30
ATOM     30  O   UNL     1      -3.055  -7.263 -29.751  1.00  0.00    -0.507 OA
ATOM     31  H   UNL     1      -3.528  -8.150 -29.620  1.00  0.00     0.293 HD
ENDBRANCH  21  30
BRANCH  25  32
ATOM     32  C   UNL     1       1.105  -6.211 -24.809  1.00  0.00     0.017 A 
ATOM     33  C   UNL     1       0.811  -6.902 -23.616  1.00  0.00     0.012 A 
ATOM     34  C   UNL     1       2.178  -5.303 -24.819  1.00  0.00     0.012 A 
ATOM     35  C   UNL     1       1.565  -6.674 -22.461  1.00  0.00     0.001 A 
ATOM     36  C   UNL     1       2.928  -5.076 -23.661  1.00  0.00     0.001 A 
ATOM     37  C   UNL     1       2.622  -5.761 -22.483  1.00  0.00     0.000 A 
ENDBRANCH  25  32
ENDBRANCH   1  17
TORSDOF 9
ENDMDL
MODEL 2
REMARK VINA RESULT:    -7.275      2.021      8.223
REMARK INTER + INTRA:         -11.365
REMARK INTER:                 -10.123
REMARK INTRA:                  -1.242
REMARK UNBOUND:                -1.114
REMARK SMILES COc1c(O[C@@H]2O[C@H](C(=O)[O-])[C@@H](O)[C@@H](O)[C@@H]2O)cc(O)c2c(=O)cc(-c3ccccc3)oc12
REMARK SMILES IDX 5 1 6 2 8 3 12 4 7 5 14 6 16 7 9 8 10 9 11 10 13 11 15 13
REMARK SMILES IDX 17 15 4 17 3 18 18 19 33 20 19 21 21 22 32 23 22 24 25 25
REMARK SMILES IDX 24 26 23 27 2 28 1 29 20 30 26 32 27 33 31 34 28 35 30 36
REMARK SMILES IDX 29 37
REMARK H PARENT 13 12 15 14 17 16 20 31
REMARK Flexibility Score: inf
ROOT
ATOM      1  O   UNL     1       0.768  -6.563 -26.520  1.00  0.00    -0.458 OA
ENDROOT
BRANCH   1   2
ATOM      2  C   UNL     1       0.015  -6.140 -25.376  1.00  0.00     0.339 C 
ATOM      3  C   UNL     1       1.937  -5.511 -24.111  1.00  0.00     0.199 C 
ATOM      4  C   UNL     1       1.765  -6.701 -23.127  1.00  0.00     0.180 C 
ATOM      5  O   UNL     1       0.704  -5.098 -24.694  1.00  0.00    -0.328 OA
ATOM      6  C   UNL     1       0.972  -7.853 -23.770  1.00  0.00     0.181 C 
ATOM      7  C   UNL     1      -0.310  -7.316 -24.428  1.00  0.00     0.214 C 
BRANCH   3   8
ATOM      8  C   UNL     1       3.012  -5.706 -25.156  1.00  0.00     0.073 C 
ATOM      9  O   UNL     1       3.693  -6.764 -25.209  1.00  0.00    -0.547 OA
ATOM     10  O   UNL     1       3.266  -4.689 -26.068  1.00  0.00    -0.547 OA
ENDBRANCH   3   8
BRANCH   4  11
ATOM     11  O   UNL     1       1.160  -6.281 -21.926  1.00  0.00    -0.387 OA
ATOM     12  H   UNL     1       0.425  -6.911 -21.709  1.00  0.00     0.211 HD
ENDBRANCH   4  11
BRANCH   6  13
ATOM     13  O   UNL     1       0.635  -8.816 -22.805  1.00  0.00    -0.387 OA
ATOM     14  H   UNL     1       0.323  -8.318 -22.004  1.00  0.00     0.211 HD
ENDBRANCH   6  13
BRANCH   7  15
ATOM     15  O   UNL     1      -1.016  -8.336 -25.091  1.00  0.00    -0.384 OA
ATOM     16  H   UNL     1      -1.868  -7.956 -25.428  1.00  0.00     0.211 HD
ENDBRANCH   7  15
ENDBRANCH   1   2
BRANCH   1  17
ATOM     17  C   UNL     1       0.356  -6.554 -27.866  1.00  0.00     0.172 A 
ATOM     18  C   UNL     1       1.343  -6.743 -28.843  1.00  0.00     0.205 A 
ATOM     19  C   UNL     1      -0.981  -6.363 -28.248  1.00  0.00     0.097 A 
ATOM     20  C   UNL     1       0.985  -6.733 -30.215  1.00  0.00     0.188 A 
ATOM     21  C   UNL     1      -1.349  -6.356 -29.597  1.00  0.00     0.134 A 
ATOM     22  C   UNL     1      -0.368  -6.537 -30.594  1.00  0.00     0.111 A 
ATOM     23  O   UNL     1       1.915  -6.898 -31.155  1.00  0.00    -0.452 OA
ATOM     24  C   UNL     1      -0.674  -6.531 -31.971  1.00  0.00     0.197 A 
ATOM     25  C   UNL     1       1.660  -6.880 -32.461  1.00  0.00     0.138 A 
ATOM     26  C   UNL     1       0.344  -6.701 -32.905  1.00  0.00     0.100 A 
ATOM     27  O   UNL     1      -1.856  -6.375 -32.383  1.00  0.00    -0.289 OA
BRANCH  18  28
ATOM     28  O   UNL     1       2.660  -6.933 -28.380  1.00  0.00    -0.490 OA
ATOM     29  C   UNL     1       3.379  -8.160 -28.348  1.00  0.00     0.278 C 
ENDBRANCH  18  28
BRANCH  21  30
ATOM     30  O   UNL     1      -2.691  -6.168 -29.936  1.00  0.00    -0.507 OA
ATOM     31  H   UNL     1      -3.367  -5.815 -29.268  1.00  0.00     0.293 HD
ENDBRANCH  21  30
BRANCH  25  32
ATOM     32  C   UNL     1       2.781  -7.060 -33.415  1.00  0.00     0.017 A 
ATOM     33  C   UNL     1       2.617  -6.818 -34.794  1.00  0.00     0.012 A 
ATOM     34  C   UNL     1       4.045  -7.452 -32.941  1.00  0.00     0.012 A 
ATOM     35  C   UNL     1       3.692  -6.981 -35.674  1.00  0.00     0.001 A 
ATOM     36  C   UNL     1       5.116  -7.616 -33.824  1.00  0.00     0.001 A 
ATOM     37  C   UNL     1       4.939  -7.381 -35.190  1.00  0.00     0.000 A 
ENDBRANCH  25  32
ENDBRANCH   1  17
TORSDOF 9
ENDMDL
MODEL 3
REMARK VINA RESULT:    -6.688      1.766      2.694
REMARK INTER + INTRA:         -10.538
REMARK INTER:                  -9.443
REMARK INTRA:                  -1.095
REMARK UNBOUND:                -1.114
REMARK SMILES COc1c(O[C@@H]2O[C@H](C(=O)[O-])[C@@H](O)[C@@H](O)[C@@H]2O)cc(O)c2c(=O)cc(-c3ccccc3)oc12
REMARK SMILES IDX 5 1 6 2 8 3 12 4 7 5 14 6 16 7 9 8 10 9 11 10 13 11 15 13
REMARK SMILES IDX 17 15 4 17 3 18 18 19 33 20 19 21 21 22 32 23 22 24 25 25
REMARK SMILES IDX 24 26 23 27 2 28 1 29 20 30 26 32 27 33 31 34 28 35 30 36
REMARK SMILES IDX 29 37
REMARK H PARENT 13 12 15 14 17 16 20 31
REMARK Flexibility Score: inf
ROOT
ATOM      1  O   UNL     1       3.473  -7.485 -33.195  1.00  0.00    -0.458 OA
ENDROOT
BRANCH   1   2
ATOM      2  C   UNL     1       3.544  -7.700 -34.610  1.00  0.00     0.339 C 
ATOM      3  C   UNL     1       5.581  -8.937 -34.507  1.00  0.00     0.199 C 
ATOM      4  C   UNL     1       6.393  -7.790 -35.172  1.00  0.00     0.180 C 
ATOM      5  O   UNL     1       4.208  -8.928 -34.886  1.00  0.00    -0.328 OA
ATOM      6  C   UNL     1       5.707  -6.426 -34.971  1.00  0.00     0.181 C 
ATOM      7  C   UNL     1       4.218  -6.518 -35.343  1.00  0.00     0.214 C 
BRANCH   3   8
ATOM      8  C   UNL     1       5.748  -9.042 -33.008  1.00  0.00     0.073 C 
ATOM      9  O   UNL     1       6.488  -8.245 -32.372  1.00  0.00    -0.547 OA
ATOM     10  O   UNL     1       5.083 -10.048 -32.319  1.00  0.00    -0.547 OA
ENDBRANCH   3   8
BRANCH   4  11
ATOM     11  O   UNL     1       6.608  -8.050 -36.539  1.00  0.00    -0.387 OA
ATOM     12  H   UNL     1       6.991  -7.235 -36.956  1.00  0.00     0.211 HD
ENDBRANCH   4  11
BRANCH   6  13
ATOM     13  O   UNL     1       6.328  -5.445 -35.761  1.00  0.00    -0.387 OA
ATOM     14  H   UNL     1       7.282  -5.707 -35.844  1.00  0.00     0.211 HD
ENDBRANCH   6  13
BRANCH   7  15
ATOM     15  O   UNL     1       3.549  -5.306 -35.096  1.00  0.00    -0.384 OA
ATOM     16  H   UNL     1       4.026  -4.831 -34.368  1.00  0.00     0.211 HD
ENDBRANCH   7  15
ENDBRANCH   1   2
BRANCH   1  17
ATOM     17  C   UNL     1       2.326  -7.204 -32.429  1.00  0.00     0.172 A 
ATOM     18  C   UNL     1       2.477  -7.156 -31.036  1.00  0.00     0.205 A 
ATOM     19  C   UNL     1       1.066  -6.978 -33.006  1.00  0.00     0.097 A 
ATOM     20  C   UNL     1       1.352  -6.887 -30.216  1.00  0.00     0.188 A 
ATOM     21  C   UNL     1      -0.051  -6.706 -32.209  1.00  0.00     0.134 A 
ATOM     22  C   UNL     1       0.081  -6.662 -30.805  1.00  0.00     0.111 A 
ATOM     23  O   UNL     1       1.478  -6.852 -28.890  1.00  0.00    -0.452 OA
ATOM     24  C   UNL     1      -1.009  -6.403 -29.948  1.00  0.00     0.197 A 
ATOM     25  C   UNL     1       0.466  -6.627 -28.055  1.00  0.00     0.138 A 
ATOM     26  C   UNL     1      -0.813  -6.387 -28.570  1.00  0.00     0.100 A 
ATOM     27  O   UNL     1      -2.165  -6.181 -30.400  1.00  0.00    -0.289 OA
BRANCH  18  28
ATOM     28  O   UNL     1       3.772  -7.388 -30.534  1.00  0.00    -0.490 OA
ATOM     29  C   UNL     1       4.151  -8.386 -29.594  1.00  0.00     0.278 C 
ENDBRANCH  18  28
BRANCH  21  30
ATOM     30  O   UNL     1      -1.285  -6.483 -32.822  1.00  0.00    -0.507 OA
ATOM     31  H   UNL     1      -1.412  -5.763 -33.524  1.00  0.00     0.293 HD
ENDBRANCH  21  30
BRANCH  25  32
ATOM     32  C   UNL     1       0.725  -6.626 -26.595  1.00  0.00     0.017 A 
ATOM     33  C   UNL     1       2.038  -6.607 -26.083  1.00  0.00     0.012 A 
ATOM     34  C   UNL     1      -0.354  -6.616 -25.695  1.00  0.00     0.012 A 
ATOM     35  C   UNL     1       2.259  -6.593 -24.702  1.00  0.00     0.001 A 
ATOM     36  C   UNL     1      -0.128  -6.604 -24.315  1.00  0.00     0.001 A 
ATOM     37  C   UNL     1       1.178  -6.593 -23.819  1.00  0.00     0.000 A 
ENDBRANCH  25  32
ENDBRANCH   1  17
TORSDOF 9
ENDMDL
MODEL 4
REMARK VINA RESULT:    -6.607      1.015      1.347
REMARK INTER + INTRA:         -10.424
REMARK INTER:                  -9.312
REMARK INTRA:                  -1.112
REMARK UNBOUND:                -1.114
REMARK SMILES COc1c(O[C@@H]2O[C@H](C(=O)[O-])[C@@H](O)[C@@H](O)[C@@H]2O)cc(O)c2c(=O)cc(-c3ccccc3)oc12
REMARK SMILES IDX 5 1 6 2 8 3 12 4 7 5 14 6 16 7 9 8 10 9 11 10 13 11 15 13
REMARK SMILES IDX 17 15 4 17 3 18 18 19 33 20 19 21 21 22 32 23 22 24 25 25
REMARK SMILES IDX 24 26 23 27 2 28 1 29 20 30 26 32 27 33 31 34 28 35 30 36
REMARK SMILES IDX 29 37
REMARK H PARENT 13 12 15 14 17 16 20 31
REMARK Flexibility Score: inf
ROOT
ATOM      1  O   UNL     1       1.032  -7.840 -30.943  1.00  0.00    -0.458 OA
ENDROOT
BRANCH   1   2
ATOM      2  C   UNL     1       0.429  -8.226 -32.184  1.00  0.00     0.339 C 
ATOM      3  C   UNL     1       2.482  -8.927 -33.178  1.00  0.00     0.199 C 
ATOM      4  C   UNL     1       2.496  -7.726 -34.163  1.00  0.00     0.180 C 
ATOM      5  O   UNL     1       1.164  -9.291 -32.776  1.00  0.00    -0.328 OA
ATOM      6  C   UNL     1       1.668  -6.545 -33.624  1.00  0.00     0.181 C 
ATOM      7  C   UNL     1       0.286  -7.033 -33.157  1.00  0.00     0.214 C 
BRANCH   3   8
ATOM      8  C   UNL     1       3.408  -8.781 -31.991  1.00  0.00     0.073 C 
ATOM      9  O   UNL     1       3.528  -9.697 -31.135  1.00  0.00    -0.547 OA
ATOM     10  O   UNL     1       4.131  -7.606 -31.833  1.00  0.00    -0.547 OA
ENDBRANCH   3   8
BRANCH   4  11
ATOM     11  O   UNL     1       2.048  -8.115 -35.441  1.00  0.00    -0.387 OA
ATOM     12  H   UNL     1       2.185  -7.356 -36.065  1.00  0.00     0.211 HD
ENDBRANCH   4  11
BRANCH   6  13
ATOM     13  O   UNL     1       1.507  -5.565 -34.617  1.00  0.00    -0.387 OA
ATOM     14  H   UNL     1       0.547  -5.311 -34.613  1.00  0.00     0.211 HD
ENDBRANCH   6  13
BRANCH   7  15
ATOM     15  O   UNL     1      -0.464  -5.988 -32.587  1.00  0.00    -0.384 OA
ATOM     16  H   UNL     1      -1.424  -6.165 -32.759  1.00  0.00     0.211 HD
ENDBRANCH   7  15
ENDBRANCH   1   2
BRANCH   1  17
ATOM     17  C   UNL     1       0.384  -7.592 -29.718  1.00  0.00     0.172 A 
ATOM     18  C   UNL     1       1.162  -7.083 -28.669  1.00  0.00     0.205 A 
ATOM     19  C   UNL     1      -0.984  -7.836 -29.522  1.00  0.00     0.097 A 
ATOM     20  C   UNL     1       0.562  -6.824 -27.410  1.00  0.00     0.188 A 
ATOM     21  C   UNL     1      -1.590  -7.580 -28.288  1.00  0.00     0.134 A 
ATOM     22  C   UNL     1      -0.820  -7.076 -27.218  1.00  0.00     0.111 A 
ATOM     23  O   UNL     1       1.293  -6.354 -26.400  1.00  0.00    -0.452 OA
ATOM     24  C   UNL     1      -1.371  -6.807 -25.947  1.00  0.00     0.197 A 
ATOM     25  C   UNL     1       0.806  -6.107 -25.187  1.00  0.00     0.138 A 
ATOM     26  C   UNL     1      -0.553  -6.323 -24.930  1.00  0.00     0.100 A 
ATOM     27  O   UNL     1      -2.594  -6.994 -25.706  1.00  0.00    -0.289 OA
BRANCH  18  28
ATOM     28  O   UNL     1       2.525  -6.860 -28.946  1.00  0.00    -0.490 OA
ATOM     29  C   UNL     1       3.629  -7.561 -28.386  1.00  0.00     0.278 C 
ENDBRANCH  18  28
BRANCH  21  30
ATOM     30  O   UNL     1      -2.955  -7.832 -28.134  1.00  0.00    -0.507 OA
ATOM     31  H   UNL     1      -3.652  -7.110 -28.275  1.00  0.00     0.293 HD
ENDBRANCH  21  30
BRANCH  25  32
ATOM     32  C   UNL     1       1.720  -5.597 -24.136  1.00  0.00     0.017 A 
ATOM     33  C   UNL     1       1.812  -6.223 -22.876  1.00  0.00     0.012 A 
ATOM     34  C   UNL     1       2.539  -4.485 -24.402  1.00  0.00     0.012 A 
ATOM     35  C   UNL     1       2.691  -5.733 -21.905  1.00  0.00     0.001 A 
ATOM     36  C   UNL     1       3.415  -3.998 -23.427  1.00  0.00     0.001 A 
ATOM     37  C   UNL     1       3.490  -4.622 -22.179  1.00  0.00     0.000 A 
ENDBRANCH  25  32
ENDBRANCH   1  17
TORSDOF 9
ENDMDL
MODEL 5
REMARK VINA RESULT:    -6.516      2.659      8.600
REMARK INTER + INTRA:         -10.296
REMARK INTER:                  -9.018
REMARK INTRA:                  -1.278
REMARK UNBOUND:                -1.114
REMARK SMILES COc1c(O[C@@H]2O[C@H](C(=O)[O-])[C@@H](O)[C@@H](O)[C@@H]2O)cc(O)c2c(=O)cc(-c3ccccc3)oc12
REMARK SMILES IDX 5 1 6 2 8 3 12 4 7 5 14 6 16 7 9 8 10 9 11 10 13 11 15 13
REMARK SMILES IDX 17 15 4 17 3 18 18 19 33 20 19 21 21 22 32 23 22 24 25 25
REMARK SMILES IDX 24 26 23 27 2 28 1 29 20 30 26 32 27 33 31 34 28 35 30 36
REMARK SMILES IDX 29 37
REMARK H PARENT 13 12 15 14 17 16 20 31
REMARK Flexibility Score: inf
ROOT
ATOM      1  O   UNL     1       0.665  -7.614 -29.715  1.00  0.00    -0.458 OA
ENDROOT
BRANCH   1   2
ATOM      2  C   UNL     1       0.263  -6.545 -28.850  1.00  0.00     0.339 C 
ATOM      3  C   UNL     1      -0.622  -7.990 -27.170  1.00  0.00     0.199 C 
ATOM      4  C   UNL     1      -2.086  -7.580 -27.490  1.00  0.00     0.180 C 
ATOM      5  O   UNL     1       0.316  -6.967 -27.492  1.00  0.00    -0.328 OA
ATOM      6  C   UNL     1      -2.221  -7.051 -28.929  1.00  0.00     0.181 C 
ATOM      7  C   UNL     1      -1.137  -5.999 -29.214  1.00  0.00     0.214 C 
BRANCH   3   8
ATOM      8  C   UNL     1      -0.204  -9.330 -27.732  1.00  0.00     0.073 C 
ATOM      9  O   UNL     1      -0.930  -9.955 -28.549  1.00  0.00    -0.547 OA
ATOM     10  O   UNL     1       1.000  -9.891 -27.327  1.00  0.00    -0.547 OA
ENDBRANCH   3   8
BRANCH   4  11
ATOM     11  O   UNL     1      -2.562  -6.636 -26.559  1.00  0.00    -0.387 OA
ATOM     12  H   UNL     1      -3.107  -5.965 -27.045  1.00  0.00     0.211 HD
ENDBRANCH   4  11
BRANCH   6  13
ATOM     13  O   UNL     1      -3.490  -6.481 -29.126  1.00  0.00    -0.387 OA
ATOM     14  H   UNL     1      -3.378  -5.499 -29.029  1.00  0.00     0.211 HD
ENDBRANCH   6  13
BRANCH   7  15
ATOM     15  O   UNL     1      -1.188  -5.554 -30.548  1.00  0.00    -0.384 OA
ATOM     16  H   UNL     1      -1.992  -4.984 -30.655  1.00  0.00     0.211 HD
ENDBRANCH   7  15
ENDBRANCH   1   2
BRANCH   1  17
ATOM     17  C   UNL     1       1.935  -7.817 -30.289  1.00  0.00     0.172 A 
ATOM     18  C   UNL     1       2.137  -7.342 -31.592  1.00  0.00     0.205 A 
ATOM     19  C   UNL     1       2.977  -8.469 -29.611  1.00  0.00     0.097 A 
ATOM     20  C   UNL     1       3.394  -7.529 -32.222  1.00  0.00     0.188 A 
ATOM     21  C   UNL     1       4.223  -8.656 -30.217  1.00  0.00     0.134 A 
ATOM     22  C   UNL     1       4.442  -8.191 -31.532  1.00  0.00     0.111 A 
ATOM     23  O   UNL     1       3.595  -7.095 -33.465  1.00  0.00    -0.452 OA
ATOM     24  C   UNL     1       5.672  -8.357 -32.201  1.00  0.00     0.197 A 
ATOM     25  C   UNL     1       4.738  -7.252 -34.128  1.00  0.00     0.138 A 
ATOM     26  C   UNL     1       5.817  -7.887 -33.503  1.00  0.00     0.100 A 
ATOM     27  O   UNL     1       6.653  -8.924 -31.647  1.00  0.00    -0.289 OA
BRANCH  18  28
ATOM     28  O   UNL     1       1.045  -6.695 -32.203  1.00  0.00    -0.490 OA
ATOM     29  C   UNL     1       0.190  -7.237 -33.203  1.00  0.00     0.278 C 
ENDBRANCH  18  28
BRANCH  21  30
ATOM     30  O   UNL     1       5.236  -9.304 -29.508  1.00  0.00    -0.507 OA
ATOM     31  H   UNL     1       5.737  -8.849 -28.754  1.00  0.00     0.293 HD
ENDBRANCH  21  30
BRANCH  25  32
ATOM     32  C   UNL     1       4.840  -6.738 -35.516  1.00  0.00     0.017 A 
ATOM     33  C   UNL     1       5.106  -5.379 -35.778  1.00  0.00     0.012 A 
ATOM     34  C   UNL     1       4.699  -7.623 -36.599  1.00  0.00     0.012 A 
ATOM     35  C   UNL     1       5.211  -4.919 -37.095  1.00  0.00     0.001 A 
ATOM     36  C   UNL     1       4.803  -7.158 -37.914  1.00  0.00     0.001 A 
ATOM     37  C   UNL     1       5.059  -5.807 -38.161  1.00  0.00     0.000 A 
ENDBRANCH  25  32
ENDBRANCH   1  17
TORSDOF 9
ENDMDL
MODEL 6
REMARK VINA RESULT:    -6.359      3.348      7.043
REMARK INTER + INTRA:         -10.075
REMARK INTER:                  -8.895
REMARK INTRA:                  -1.180
REMARK UNBOUND:                -1.114
REMARK SMILES COc1c(O[C@@H]2O[C@H](C(=O)[O-])[C@@H](O)[C@@H](O)[C@@H]2O)cc(O)c2c(=O)cc(-c3ccccc3)oc12
REMARK SMILES IDX 5 1 6 2 8 3 12 4 7 5 14 6 16 7 9 8 10 9 11 10 13 11 15 13
REMARK SMILES IDX 17 15 4 17 3 18 18 19 33 20 19 21 21 22 32 23 22 24 25 25
REMARK SMILES IDX 24 26 23 27 2 28 1 29 20 30 26 32 27 33 31 34 28 35 30 36
REMARK SMILES IDX 29 37
REMARK H PARENT 13 12 15 14 17 16 20 31
REMARK Flexibility Score: inf
ROOT
ATOM      1  O   UNL     1       2.964  -6.762 -26.327  1.00  0.00    -0.458 OA
ENDROOT
BRANCH   1   2
ATOM      2  C   UNL     1       4.082  -5.892 -26.544  1.00  0.00     0.339 C 
ATOM      3  C   UNL     1       5.581  -7.183 -25.209  1.00  0.00     0.199 C 
ATOM      4  C   UNL     1       5.628  -6.103 -24.093  1.00  0.00     0.180 C 
ATOM      5  O   UNL     1       5.296  -6.633 -26.492  1.00  0.00    -0.328 OA
ATOM      6  C   UNL     1       4.371  -5.213 -24.117  1.00  0.00     0.181 C 
ATOM      7  C   UNL     1       4.101  -4.712 -25.546  1.00  0.00     0.214 C 
BRANCH   3   8
ATOM      8  C   UNL     1       4.698  -8.371 -24.901  1.00  0.00     0.073 C 
ATOM      9  O   UNL     1       4.057  -8.451 -23.819  1.00  0.00    -0.547 OA
ATOM     10  O   UNL     1       4.604  -9.406 -25.823  1.00  0.00    -0.547 OA
ENDBRANCH   3   8
BRANCH   4  11
ATOM     11  O   UNL     1       6.798  -5.325 -24.191  1.00  0.00    -0.387 OA
ATOM     12  H   UNL     1       7.514  -5.886 -24.588  1.00  0.00     0.211 HD
ENDBRANCH   4  11
BRANCH   6  13
ATOM     13  O   UNL     1       4.532  -4.113 -23.258  1.00  0.00    -0.387 OA
ATOM     14  H   UNL     1       3.632  -3.709 -23.142  1.00  0.00     0.211 HD
ENDBRANCH   6  13
BRANCH   7  15
ATOM     15  O   UNL     1       2.914  -3.959 -25.612  1.00  0.00    -0.384 OA
ATOM     16  H   UNL     1       2.934  -3.284 -24.886  1.00  0.00     0.211 HD
ENDBRANCH   7  15
ENDBRANCH   1   2
BRANCH   1  17
ATOM     17  C   UNL     1       1.749  -6.785 -27.037  1.00  0.00     0.172 A 
ATOM     18  C   UNL     1       0.566  -6.860 -26.288  1.00  0.00     0.205 A 
ATOM     19  C   UNL     1       1.689  -6.737 -28.439  1.00  0.00     0.097 A 
ATOM     20  C   UNL     1      -0.686  -6.896 -26.953  1.00  0.00     0.188 A 
ATOM     21  C   UNL     1       0.460  -6.766 -29.107  1.00  0.00     0.134 A 
ATOM     22  C   UNL     1      -0.739  -6.851 -28.370  1.00  0.00     0.111 A 
ATOM     23  O   UNL     1      -1.817  -6.982 -26.254  1.00  0.00    -0.452 OA
ATOM     24  C   UNL     1      -2.008  -6.893 -28.985  1.00  0.00     0.197 A 
ATOM     25  C   UNL     1      -3.026  -7.041 -26.806  1.00  0.00     0.138 A 
ATOM     26  C   UNL     1      -3.153  -6.990 -28.199  1.00  0.00     0.100 A 
ATOM     27  O   UNL     1      -2.134  -6.844 -30.239  1.00  0.00    -0.289 OA
BRANCH  18  28
ATOM     28  O   UNL     1       0.709  -6.899 -24.887  1.00  0.00    -0.490 OA
ATOM     29  C   UNL     1       0.479  -5.826 -23.982  1.00  0.00     0.278 C 
ENDBRANCH  18  28
BRANCH  21  30
ATOM     30  O   UNL     1       0.443  -6.713 -30.502  1.00  0.00    -0.507 OA
ATOM     31  H   UNL     1      -0.122  -6.038 -31.005  1.00  0.00     0.293 HD
ENDBRANCH  21  30
BRANCH  25  32
ATOM     32  C   UNL     1      -4.214  -7.150 -25.925  1.00  0.00     0.017 A 
ATOM     33  C   UNL     1      -4.181  -7.910 -24.738  1.00  0.00     0.012 A 
ATOM     34  C   UNL     1      -5.395  -6.462 -26.257  1.00  0.00     0.012 A 
ATOM     35  C   UNL     1      -5.309  -7.988 -23.915  1.00  0.00     0.001 A 
ATOM     36  C   UNL     1      -6.521  -6.545 -25.432  1.00  0.00     0.001 A 
ATOM     37  C   UNL     1      -6.478  -7.308 -24.262  1.00  0.00     0.000 A 
ENDBRANCH  25  32
ENDBRANCH   1  17
TORSDOF 9
ENDMDL
MODEL 7
REMARK VINA RESULT:    -6.322      1.984      8.124
REMARK INTER + INTRA:         -10.022
REMARK INTER:                  -9.818
REMARK INTRA:                  -0.204
REMARK UNBOUND:                -1.114
REMARK SMILES COc1c(O[C@@H]2O[C@H](C(=O)[O-])[C@@H](O)[C@@H](O)[C@@H]2O)cc(O)c2c(=O)cc(-c3ccccc3)oc12
REMARK SMILES IDX 5 1 6 2 8 3 12 4 7 5 14 6 16 7 9 8 10 9 11 10 13 11 15 13
REMARK SMILES IDX 17 15 4 17 3 18 18 19 33 20 19 21 21 22 32 23 22 24 25 25
REMARK SMILES IDX 24 26 23 27 2 28 1 29 20 30 26 32 27 33 31 34 28 35 30 36
REMARK SMILES IDX 29 37
REMARK H PARENT 13 12 15 14 17 16 20 31
REMARK Flexibility Score: inf
ROOT
ATOM      1  O   UNL     1       0.641  -6.489 -26.639  1.00  0.00    -0.458 OA
ENDROOT
BRANCH   1   2
ATOM      2  C   UNL     1       1.801  -7.064 -26.024  1.00  0.00     0.339 C 
ATOM      3  C   UNL     1       0.637  -7.778 -24.067  1.00  0.00     0.199 C 
ATOM      4  C   UNL     1       1.339  -6.716 -23.177  1.00  0.00     0.180 C 
ATOM      5  O   UNL     1       1.424  -8.157 -25.193  1.00  0.00    -0.328 OA
ATOM      6  C   UNL     1       1.834  -5.520 -24.011  1.00  0.00     0.181 C 
ATOM      7  C   UNL     1       2.620  -6.016 -25.237  1.00  0.00     0.214 C 
BRANCH   3   8
ATOM      8  C   UNL     1      -0.780  -7.432 -24.466  1.00  0.00     0.073 C 
ATOM      9  O   UNL     1      -1.330  -6.367 -24.079  1.00  0.00    -0.547 OA
ATOM     10  O   UNL     1      -1.498  -8.315 -25.262  1.00  0.00    -0.547 OA
ENDBRANCH   3   8
BRANCH   4  11
ATOM     11  O   UNL     1       2.394  -7.290 -22.442  1.00  0.00    -0.387 OA
ATOM     12  H   UNL     1       2.715  -8.092 -22.930  1.00  0.00     0.211 HD
ENDBRANCH   4  11
BRANCH   6  13
ATOM     13  O   UNL     1       2.655  -4.687 -23.235  1.00  0.00    -0.387 OA
ATOM     14  H   UNL     1       3.285  -5.281 -22.748  1.00  0.00     0.211 HD
ENDBRANCH   6  13
BRANCH   7  15
ATOM     15  O   UNL     1       3.019  -4.946 -26.060  1.00  0.00    -0.384 OA
ATOM     16  H   UNL     1       3.292  -5.316 -26.939  1.00  0.00     0.211 HD
ENDBRANCH   7  15
ENDBRANCH   1   2
BRANCH   1  17
ATOM     17  C   UNL     1       0.252  -6.588 -27.988  1.00  0.00     0.172 A 
ATOM     18  C   UNL     1       1.270  -6.686 -28.947  1.00  0.00     0.205 A 
ATOM     19  C   UNL     1      -1.093  -6.588 -28.391  1.00  0.00     0.097 A 
ATOM     20  C   UNL     1       0.934  -6.777 -30.322  1.00  0.00     0.188 A 
ATOM     21  C   UNL     1      -1.439  -6.683 -29.743  1.00  0.00     0.134 A 
ATOM     22  C   UNL     1      -0.427  -6.774 -30.722  1.00  0.00     0.111 A 
ATOM     23  O   UNL     1       1.891  -6.856 -31.245  1.00  0.00    -0.452 OA
ATOM     24  C   UNL     1      -0.711  -6.862 -32.101  1.00  0.00     0.197 A 
ATOM     25  C   UNL     1       1.656  -6.924 -32.553  1.00  0.00     0.138 A 
ATOM     26  C   UNL     1       0.335  -6.936 -33.017  1.00  0.00     0.100 A 
ATOM     27  O   UNL     1      -1.896  -6.878 -32.530  1.00  0.00    -0.289 OA
BRANCH  18  28
ATOM     28  O   UNL     1       2.593  -6.684 -28.464  1.00  0.00    -0.490 OA
ATOM     29  C   UNL     1       3.661  -7.509 -28.915  1.00  0.00     0.278 C 
ENDBRANCH  18  28
BRANCH  21  30
ATOM     30  O   UNL     1      -2.788  -6.684 -30.102  1.00  0.00    -0.507 OA
ATOM     31  H   UNL     1      -3.324  -5.827 -30.171  1.00  0.00     0.293 HD
ENDBRANCH  21  30
BRANCH  25  32
ATOM     32  C   UNL     1       2.805  -6.995 -33.487  1.00  0.00     0.017 A 
ATOM     33  C   UNL     1       4.082  -7.401 -33.051  1.00  0.00     0.012 A 
ATOM     34  C   UNL     1       2.621  -6.680 -34.845  1.00  0.00     0.012 A 
ATOM     35  C   UNL     1       5.149  -7.473 -33.954  1.00  0.00     0.001 A 
ATOM     36  C   UNL     1       3.690  -6.752 -35.743  1.00  0.00     0.001 A 
ATOM     37  C   UNL     1       4.953  -7.147 -35.297  1.00  0.00     0.000 A 
ENDBRANCH  25  32
ENDBRANCH   1  17
TORSDOF 9
ENDMDL
MODEL 8
REMARK VINA RESULT:    -6.257      2.294      8.161
REMARK INTER + INTRA:          -9.932
REMARK INTER:                  -9.033
REMARK INTRA:                  -0.899
REMARK UNBOUND:                -1.114
REMARK SMILES COc1c(O[C@@H]2O[C@H](C(=O)[O-])[C@@H](O)[C@@H](O)[C@@H]2O)cc(O)c2c(=O)cc(-c3ccccc3)oc12
REMARK SMILES IDX 5 1 6 2 8 3 12 4 7 5 14 6 16 7 9 8 10 9 11 10 13 11 15 13
REMARK SMILES IDX 17 15 4 17 3 18 18 19 33 20 19 21 21 22 32 23 22 24 25 25
REMARK SMILES IDX 24 26 23 27 2 28 1 29 20 30 26 32 27 33 31 34 28 35 30 36
REMARK SMILES IDX 29 37
REMARK H PARENT 13 12 15 14 17 16 20 31
REMARK Flexibility Score: inf
ROOT
ATOM      1  O   UNL     1       1.819  -7.123 -26.596  1.00  0.00    -0.458 OA
ENDROOT
BRANCH   1   2
ATOM      2  C   UNL     1       2.598  -6.171 -25.862  1.00  0.00     0.339 C 
ATOM      3  C   UNL     1       3.470  -7.784 -24.335  1.00  0.00     0.199 C 
ATOM      4  C   UNL     1       2.632  -7.221 -23.153  1.00  0.00     0.180 C 
ATOM      5  O   UNL     1       3.757  -6.797 -25.323  1.00  0.00    -0.328 OA
ATOM      6  C   UNL     1       1.385  -6.471 -23.655  1.00  0.00     0.181 C 
ATOM      7  C   UNL     1       1.772  -5.472 -24.759  1.00  0.00     0.214 C 
BRANCH   3   8
ATOM      8  C   UNL     1       2.921  -9.050 -24.952  1.00  0.00     0.073 C 
ATOM      9  O   UNL     1       1.826  -9.545 -24.572  1.00  0.00    -0.547 OA
ATOM     10  O   UNL     1       3.646  -9.692 -25.948  1.00  0.00    -0.547 OA
ENDBRANCH   3   8
BRANCH   4  11
ATOM     11  O   UNL     1       3.418  -6.397 -22.325  1.00  0.00    -0.387 OA
ATOM     12  H   UNL     1       3.864  -6.968 -21.647  1.00  0.00     0.211 HD
ENDBRANCH   4  11
BRANCH   6  13
ATOM     13  O   UNL     1       0.768  -5.783 -22.597  1.00  0.00    -0.387 OA
ATOM     14  H   UNL     1       0.661  -4.841 -22.894  1.00  0.00     0.211 HD
ENDBRANCH   6  13
BRANCH   7  15
ATOM     15  O   UNL     1       0.640  -4.827 -25.290  1.00  0.00    -0.384 OA
ATOM     16  H   UNL     1       0.294  -5.375 -26.040  1.00  0.00     0.211 HD
ENDBRANCH   7  15
ENDBRANCH   1   2
BRANCH   1  17
ATOM     17  C   UNL     1       1.299  -6.981 -27.897  1.00  0.00     0.172 A 
ATOM     18  C   UNL     1       2.196  -7.107 -28.967  1.00  0.00     0.205 A 
ATOM     19  C   UNL     1      -0.058  -6.721 -28.146  1.00  0.00     0.097 A 
ATOM     20  C   UNL     1       1.727  -6.963 -30.298  1.00  0.00     0.188 A 
ATOM     21  C   UNL     1      -0.535  -6.582 -29.454  1.00  0.00     0.134 A 
ATOM     22  C   UNL     1       0.356  -6.697 -30.542  1.00  0.00     0.111 A 
ATOM     23  O   UNL     1       2.571  -7.066 -31.323  1.00  0.00    -0.452 OA
ATOM     24  C   UNL     1      -0.062  -6.558 -31.883  1.00  0.00     0.197 A 
ATOM     25  C   UNL     1       2.211  -6.923 -32.596  1.00  0.00     0.138 A 
ATOM     26  C   UNL     1       0.871  -6.670 -32.910  1.00  0.00     0.100 A 
ATOM     27  O   UNL     1      -1.267  -6.334 -32.178  1.00  0.00    -0.289 OA
BRANCH  18  28
ATOM     28  O   UNL     1       3.539  -7.373 -28.635  1.00  0.00    -0.490 OA
ATOM     29  C   UNL     1       4.302  -8.505 -29.035  1.00  0.00     0.278 C 
ENDBRANCH  18  28
BRANCH  21  30
ATOM     30  O   UNL     1      -1.892  -6.328 -29.660  1.00  0.00    -0.507 OA
ATOM     31  H   UNL     1      -2.487  -6.975 -30.165  1.00  0.00     0.293 HD
ENDBRANCH  21  30
BRANCH  25  32
ATOM     32  C   UNL     1       3.243  -7.046 -33.654  1.00  0.00     0.017 A 
ATOM     33  C   UNL     1       4.555  -7.466 -33.354  1.00  0.00     0.012 A 
ATOM     34  C   UNL     1       2.910  -6.767 -34.991  1.00  0.00     0.012 A 
ATOM     35  C   UNL     1       5.509  -7.587 -34.370  1.00  0.00     0.001 A 
ATOM     36  C   UNL     1       3.868  -6.888 -36.002  1.00  0.00     0.001 A 
ATOM     37  C   UNL     1       5.166  -7.297 -35.691  1.00  0.00     0.000 A 
ENDBRANCH  25  32
ENDBRANCH   1  17
TORSDOF 9
ENDMDL
MODEL 9
REMARK VINA RESULT:    -6.111      2.859      8.361
REMARK INTER + INTRA:          -9.725
REMARK INTER:                  -9.218
REMARK INTRA:                  -0.507
REMARK UNBOUND:                -1.114
REMARK SMILES COc1c(O[C@@H]2O[C@H](C(=O)[O-])[C@@H](O)[C@@H](O)[C@@H]2O)cc(O)c2c(=O)cc(-c3ccccc3)oc12
REMARK SMILES IDX 5 1 6 2 8 3 12 4 7 5 14 6 16 7 9 8 10 9 11 10 13 11 15 13
REMARK SMILES IDX 17 15 4 17 3 18 18 19 33 20 19 21 21 22 32 23 22 24 25 25
REMARK SMILES IDX 24 26 23 27 2 28 1 29 20 30 26 32 27 33 31 34 28 35 30 36
REMARK SMILES IDX 29 37
REMARK H PARENT 13 12 15 14 17 16 20 31
REMARK Flexibility Score: inf
ROOT
ATOM      1  O   UNL     1       3.824  -7.038 -25.836  1.00  0.00    -0.458 OA
ENDROOT
BRANCH   1   2
ATOM      2  C   UNL     1       4.952  -6.188 -25.594  1.00  0.00     0.339 C 
ATOM      3  C   UNL     1       5.092  -6.724 -23.273  1.00  0.00     0.199 C 
ATOM      4  C   UNL     1       4.603  -5.312 -22.846  1.00  0.00     0.180 C 
ATOM      5  O   UNL     1       5.747  -6.718 -24.539  1.00  0.00    -0.328 OA
ATOM      6  C   UNL     1       3.781  -4.640 -23.961  1.00  0.00     0.181 C 
ATOM      7  C   UNL     1       4.529  -4.730 -25.302  1.00  0.00     0.214 C 
BRANCH   3   8
ATOM      8  C   UNL     1       4.041  -7.808 -23.192  1.00  0.00     0.073 C 
ATOM      9  O   UNL     1       2.865  -7.557 -22.818  1.00  0.00    -0.547 OA
ATOM     10  O   UNL     1       4.384  -9.113 -23.521  1.00  0.00    -0.547 OA
ENDBRANCH   3   8
BRANCH   4  11
ATOM     11  O   UNL     1       5.684  -4.499 -22.456  1.00  0.00    -0.387 OA
ATOM     12  H   UNL     1       6.073  -4.873 -21.622  1.00  0.00     0.211 HD
ENDBRANCH   4  11
BRANCH   6  13
ATOM     13  O   UNL     1       3.541  -3.292 -23.648  1.00  0.00    -0.387 OA
ATOM     14  H   UNL     1       4.087  -3.085 -22.845  1.00  0.00     0.211 HD
ENDBRANCH   6  13
BRANCH   7  15
ATOM     15  O   UNL     1       3.766  -4.192 -26.354  1.00  0.00    -0.384 OA
ATOM     16  H   UNL     1       3.286  -4.935 -26.801  1.00  0.00     0.211 HD
ENDBRANCH   7  15
ENDBRANCH   1   2
BRANCH   1  17
ATOM     17  C   UNL     1       2.927  -6.979 -26.919  1.00  0.00     0.172 A 
ATOM     18  C   UNL     1       3.463  -7.108 -28.208  1.00  0.00     0.205 A 
ATOM     19  C   UNL     1       1.545  -6.798 -26.750  1.00  0.00     0.097 A 
ATOM     20  C   UNL     1       2.606  -7.046 -29.336  1.00  0.00     0.188 A 
ATOM     21  C   UNL     1       0.687  -6.741 -27.853  1.00  0.00     0.134 A 
ATOM     22  C   UNL     1       1.211  -6.860 -29.158  1.00  0.00     0.111 A 
ATOM     23  O   UNL     1       3.104  -7.152 -30.567  1.00  0.00    -0.452 OA
ATOM     24  C   UNL     1       0.399  -6.800 -30.310  1.00  0.00     0.197 A 
ATOM     25  C   UNL     1       2.367  -7.083 -31.673  1.00  0.00     0.138 A 
ATOM     26  C   UNL     1       0.982  -6.911 -31.569  1.00  0.00     0.100 A 
ATOM     27  O   UNL     1      -0.850  -6.650 -30.229  1.00  0.00    -0.289 OA
BRANCH  18  28
ATOM     28  O   UNL     1       4.857  -7.291 -28.295  1.00  0.00    -0.490 OA
ATOM     29  C   UNL     1       5.542  -8.530 -28.439  1.00  0.00     0.278 C 
ENDBRANCH  18  28
BRANCH  21  30
ATOM     30  O   UNL     1      -0.682  -6.565 -27.642  1.00  0.00    -0.507 OA
ATOM     31  H   UNL     1      -1.233  -7.235 -27.119  1.00  0.00     0.293 HD
ENDBRANCH  21  30
BRANCH  25  32
ATOM     32  C   UNL     1       3.036  -7.200 -32.991  1.00  0.00     0.017 A 
ATOM     33  C   UNL     1       2.431  -6.713 -34.167  1.00  0.00     0.012 A 
ATOM     34  C   UNL     1       4.313  -7.782 -33.076  1.00  0.00     0.012 A 
ATOM     35  C   UNL     1       3.087  -6.822 -35.398  1.00  0.00     0.001 A 
ATOM     36  C   UNL     1       4.964  -7.890 -34.309  1.00  0.00     0.001 A 
ATOM     37  C   UNL     1       4.350  -7.411 -35.469  1.00  0.00     0.000 A 
ENDBRANCH  25  32
ENDBRANCH   1  17
TORSDOF 9
ENDMDL
