MODEL 1
REMARK VINA RESULT:    16.088      0.000      0.000
REMARK INTER + INTRA:          16.762
REMARK INTER:                  17.029
REMARK INTRA:                  -0.267
REMARK UNBOUND:                -0.267
REMARK SMILES CC1=CC[C@@H]2[C@H]3[C@H](C(C)C)CC[C@]2(C)[C@@H]13
REMARK SMILES IDX 1 1 2 2 3 3 4 4 5 5 6 6 15 7 13 8 12 9 11 10 7 11 14 12 8 13
REMARK SMILES IDX 9 14 10 15
REMARK H PARENT
REMARK Flexibility Score: inf
ROOT
ATOM      1  C   UNL     1      -4.125   7.813 -13.299  1.00  0.00     0.039 C 
ATOM      2  C   UNL     1      -3.413   6.530 -12.989  1.00  0.00    -0.073 C 
ATOM      3  C   UNL     1      -4.020   5.327 -13.168  1.00  0.00    -0.027 C 
ATOM      4  C   UNL     1      -3.235   4.048 -12.854  1.00  0.00     0.031 C 
ATOM      5  C   UNL     1      -1.807   4.403 -12.320  1.00  0.00     0.003 C 
ATOM      6  C   UNL     1      -1.971   5.516 -11.260  1.00  0.00     0.004 C 
ATOM      7  C   UNL     1      -1.983   6.515 -12.441  1.00  0.00     0.024 C 
ATOM      8  C   UNL     1      -1.126   5.472 -13.204  1.00  0.00    -0.022 C 
ATOM      9  C   UNL     1       0.371   5.573 -12.793  1.00  0.00     0.008 C 
ATOM     10  C   UNL     1       0.551   5.997 -11.314  1.00  0.00     0.005 C 
ATOM     11  C   UNL     1      -0.670   5.636 -10.402  1.00  0.00    -0.005 C 
ATOM     12  C   UNL     1      -1.269   5.368 -14.742  1.00  0.00     0.012 C 
ENDROOT
BRANCH  11  13
ATOM     13  C   UNL     1      -0.818   6.651  -9.222  1.00  0.00    -0.014 C 
ATOM     14  C   UNL     1      -2.167   6.510  -8.493  1.00  0.00     0.007 C 
ATOM     15  C   UNL     1       0.318   6.481  -8.195  1.00  0.00     0.007 C 
ENDBRANCH  11  13
TORSDOF 1
ENDMDL
MODEL 2
REMARK VINA RESULT:    18.259      1.612      4.912
REMARK INTER + INTRA:          19.059
REMARK INTER:                  19.317
REMARK INTRA:                  -0.258
REMARK UNBOUND:                -0.267
REMARK SMILES CC1=CC[C@@H]2[C@H]3[C@H](C(C)C)CC[C@]2(C)[C@@H]13
REMARK SMILES IDX 1 1 2 2 3 3 4 4 5 5 6 6 15 7 13 8 12 9 11 10 7 11 14 12 8 13
REMARK SMILES IDX 9 14 10 15
REMARK H PARENT
REMARK Flexibility Score: inf
ROOT
ATOM      1  C   UNL     1       1.296   2.598  -9.235  1.00  0.00     0.039 C 
ATOM      2  C   UNL     1       0.765   3.999  -9.297  1.00  0.00    -0.073 C 
ATOM      3  C   UNL     1       0.456   4.686  -8.166  1.00  0.00    -0.027 C 
ATOM      4  C   UNL     1      -0.063   6.124  -8.291  1.00  0.00     0.031 C 
ATOM      5  C   UNL     1      -0.174   6.533  -9.797  1.00  0.00     0.003 C 
ATOM      6  C   UNL     1      -0.867   5.370 -10.545  1.00  0.00     0.004 C 
ATOM      7  C   UNL     1       0.532   4.712 -10.632  1.00  0.00     0.024 C 
ATOM      8  C   UNL     1       1.104   6.152 -10.580  1.00  0.00    -0.022 C 
ATOM      9  C   UNL     1       1.046   6.826 -11.980  1.00  0.00     0.008 C 
ATOM     10  C   UNL     1      -0.175   6.358 -12.811  1.00  0.00     0.005 C 
ATOM     11  C   UNL     1      -1.375   5.855 -11.941  1.00  0.00    -0.005 C 
ATOM     12  C   UNL     1       2.481   6.385  -9.914  1.00  0.00     0.012 C 
ENDROOT
BRANCH  11  13
ATOM     13  C   UNL     1      -2.206   4.765 -12.692  1.00  0.00    -0.014 C 
ATOM     14  C   UNL     1      -3.669   5.190 -12.913  1.00  0.00     0.007 C 
ATOM     15  C   UNL     1      -1.578   4.429 -14.059  1.00  0.00     0.007 C 
ENDBRANCH  11  13
TORSDOF 1
ENDMDL
