MODEL 1
REMARK VINA RESULT:    -7.087      0.000      0.000
REMARK INTER + INTRA:          -8.672
REMARK INTER:                  -8.537
REMARK INTRA:                  -0.135
REMARK UNBOUND:                -0.135
REMARK SMILES Oc1cc(O)c2cc(O)c(-c3ccc(O)c(O)c3)[o+]c2c1
REMARK SMILES IDX 10 1 19 2 20 3 21 4 2 5 3 6 4 7 6 8 7 9 8 10 11 11 12 12
REMARK SMILES IDX 13 13 14 14 18 15 16 16 15 17 17 19 9 21 1 23 5 25
REMARK H PARENT 15 18 17 20 9 22 1 24 5 26
REMARK Flexibility Score: inf
ROOT
ATOM      1  C   UNL     1      82.221   2.040  -0.069  1.00  0.00     0.402 A 
ATOM      2  O   UNL     1      82.944   1.272   0.744  1.00  0.00    -0.202 OA
ATOM      3  C   UNL     1      84.272   1.297   0.780  1.00  0.00     0.368 A 
ATOM      4  C   UNL     1      84.958   0.455   1.660  1.00  0.00     0.162 A 
ATOM      5  C   UNL     1      86.355   0.469   1.705  1.00  0.00     0.128 A 
ATOM      6  C   UNL     1      87.073   1.331   0.865  1.00  0.00     0.093 A 
ATOM      7  C   UNL     1      86.399   2.184  -0.022  1.00  0.00     0.136 A 
ATOM      8  C   UNL     1      84.992   2.168  -0.066  1.00  0.00     0.125 A 
ATOM      9  C   UNL     1      84.268   3.002  -0.926  1.00  0.00     0.078 A 
ATOM     10  C   UNL     1      82.870   2.953  -0.926  1.00  0.00     0.223 A 
ENDROOT
BRANCH   1  11
ATOM     11  C   UNL     1      80.747   1.915  -0.023  1.00  0.00     0.087 A 
ATOM     12  C   UNL     1      79.928   3.014   0.293  1.00  0.00     0.022 A 
ATOM     13  C   UNL     1      78.537   2.878   0.307  1.00  0.00     0.051 A 
ATOM     14  C   UNL     1      77.945   1.647  -0.005  1.00  0.00     0.157 A 
ATOM     15  C   UNL     1      80.146   0.690  -0.355  1.00  0.00     0.068 A 
ATOM     16  C   UNL     1      78.750   0.553  -0.340  1.00  0.00     0.158 A 
BRANCH  14  17
ATOM     17  O   UNL     1      76.558   1.507   0.010  1.00  0.00    -0.504 OA
ATOM     18  H   UNL     1      76.032   1.347  -0.841  1.00  0.00     0.293 HD
ENDBRANCH  14  17
BRANCH  16  19
ATOM     19  O   UNL     1      78.158  -0.669  -0.657  1.00  0.00    -0.504 OA
ATOM     20  H   UNL     1      77.230  -0.720  -1.060  1.00  0.00     0.293 HD
ENDBRANCH  16  19
ENDBRANCH   1  11
BRANCH  10  21
ATOM     21  O   UNL     1      82.140   3.815  -1.743  1.00  0.00    -0.500 OA
ATOM     22  H   UNL     1      81.692   4.645  -1.373  1.00  0.00     0.294 HD
ENDBRANCH  10  21
BRANCH   5  23
ATOM     23  O   UNL     1      87.022  -0.379   2.588  1.00  0.00    -0.507 OA
ATOM     24  H   UNL     1      87.881  -0.848   2.326  1.00  0.00     0.293 HD
ENDBRANCH   5  23
BRANCH   7  25
ATOM     25  O   UNL     1      87.124   3.039  -0.852  1.00  0.00    -0.507 OA
ATOM     26  H   UNL     1      87.672   2.687  -1.629  1.00  0.00     0.293 HD
ENDBRANCH   7  25
TORSDOF 6
ENDMDL
MODEL 2
REMARK VINA RESULT:    -6.967      1.180      2.816
REMARK INTER + INTRA:          -8.528
REMARK INTER:                  -8.425
REMARK INTRA:                  -0.103
REMARK UNBOUND:                -0.135
REMARK SMILES Oc1cc(O)c2cc(O)c(-c3ccc(O)c(O)c3)[o+]c2c1
REMARK SMILES IDX 10 1 19 2 20 3 21 4 2 5 3 6 4 7 6 8 7 9 8 10 11 11 12 12
REMARK SMILES IDX 13 13 14 14 18 15 16 16 15 17 17 19 9 21 1 23 5 25
REMARK H PARENT 15 18 17 20 9 22 1 24 5 26
REMARK Flexibility Score: inf
ROOT
ATOM      1  C   UNL     1      82.107   1.812  -0.043  1.00  0.00     0.402 A 
ATOM      2  O   UNL     1      82.695   2.707  -0.836  1.00  0.00    -0.202 OA
ATOM      3  C   UNL     1      84.014   2.840  -0.928  1.00  0.00     0.368 A 
ATOM      4  C   UNL     1      84.554   3.808  -1.782  1.00  0.00     0.162 A 
ATOM      5  C   UNL     1      85.939   3.962  -1.886  1.00  0.00     0.128 A 
ATOM      6  C   UNL     1      86.792   3.144  -1.133  1.00  0.00     0.093 A 
ATOM      7  C   UNL     1      86.266   2.167  -0.274  1.00  0.00     0.136 A 
ATOM      8  C   UNL     1      84.871   2.014  -0.169  1.00  0.00     0.125 A 
ATOM      9  C   UNL     1      84.290   1.052   0.665  1.00  0.00     0.078 A 
ATOM     10  C   UNL     1      82.898   0.935   0.727  1.00  0.00     0.223 A 
ENDROOT
BRANCH   1  11
ATOM     11  C   UNL     1      80.628   1.764  -0.020  1.00  0.00     0.087 A 
ATOM     12  C   UNL     1      79.863   2.898   0.306  1.00  0.00     0.022 A 
ATOM     13  C   UNL     1      78.467   2.835   0.299  1.00  0.00     0.051 A 
ATOM     14  C   UNL     1      77.815   1.644  -0.046  1.00  0.00     0.157 A 
ATOM     15  C   UNL     1      79.968   0.578  -0.385  1.00  0.00     0.068 A 
ATOM     16  C   UNL     1      78.567   0.515  -0.392  1.00  0.00     0.158 A 
BRANCH  14  17
ATOM     17  O   UNL     1      76.423   1.577  -0.053  1.00  0.00    -0.504 OA
ATOM     18  H   UNL     1      75.910   1.129   0.698  1.00  0.00     0.293 HD
ENDBRANCH  14  17
BRANCH  16  19
ATOM     19  O   UNL     1      77.916  -0.667  -0.742  1.00  0.00    -0.504 OA
ATOM     20  H   UNL     1      76.905  -0.727  -0.774  1.00  0.00     0.293 HD
ENDBRANCH  16  19
ENDBRANCH   1  11
BRANCH  10  21
ATOM     21  O   UNL     1      82.313  -0.054   1.518  1.00  0.00    -0.500 OA
ATOM     22  H   UNL     1      81.313  -0.215   1.512  1.00  0.00     0.294 HD
ENDBRANCH  10  21
BRANCH   5  23
ATOM     23  O   UNL     1      86.460   4.932  -2.740  1.00  0.00    -0.507 OA
ATOM     24  H   UNL     1      86.335   5.921  -2.559  1.00  0.00     0.293 HD
ENDBRANCH   5  23
BRANCH   7  25
ATOM     25  O   UNL     1      87.125   1.358   0.470  1.00  0.00    -0.507 OA
ATOM     26  H   UNL     1      86.885   1.046   1.404  1.00  0.00     0.293 HD
ENDBRANCH   7  25
TORSDOF 6
ENDMDL
MODEL 3
REMARK VINA RESULT:    -6.192      6.896      8.266
REMARK INTER + INTRA:          -7.594
REMARK INTER:                  -7.291
REMARK INTRA:                  -0.303
REMARK UNBOUND:                -0.135
REMARK SMILES Oc1cc(O)c2cc(O)c(-c3ccc(O)c(O)c3)[o+]c2c1
REMARK SMILES IDX 10 1 19 2 20 3 21 4 2 5 3 6 4 7 6 8 7 9 8 10 11 11 12 12
REMARK SMILES IDX 13 13 14 14 18 15 16 16 15 17 17 19 9 21 1 23 5 25
REMARK H PARENT 15 18 17 20 9 22 1 24 5 26
REMARK Flexibility Score: inf
ROOT
ATOM      1  C   UNL     1      85.325   1.037  -7.018  1.00  0.00     0.402 A 
ATOM      2  O   UNL     1      85.620   1.459  -5.789  1.00  0.00    -0.202 OA
ATOM      3  C   UNL     1      86.071   2.682  -5.529  1.00  0.00     0.368 A 
ATOM      4  C   UNL     1      86.361   3.047  -4.210  1.00  0.00     0.162 A 
ATOM      5  C   UNL     1      86.840   4.328  -3.923  1.00  0.00     0.128 A 
ATOM      6  C   UNL     1      87.030   5.252  -4.959  1.00  0.00     0.093 A 
ATOM      7  C   UNL     1      86.742   4.902  -6.287  1.00  0.00     0.136 A 
ATOM      8  C   UNL     1      86.260   3.611  -6.575  1.00  0.00     0.125 A 
ATOM      9  C   UNL     1      85.949   3.209  -7.879  1.00  0.00     0.078 A 
ATOM     10  C   UNL     1      85.466   1.917  -8.111  1.00  0.00     0.223 A 
ENDROOT
BRANCH   1  11
ATOM     11  C   UNL     1      84.838  -0.351  -7.182  1.00  0.00     0.087 A 
ATOM     12  C   UNL     1      85.716  -1.448  -7.121  1.00  0.00     0.022 A 
ATOM     13  C   UNL     1      85.230  -2.751  -7.256  1.00  0.00     0.051 A 
ATOM     14  C   UNL     1      83.860  -2.978  -7.441  1.00  0.00     0.157 A 
ATOM     15  C   UNL     1      83.463  -0.587  -7.348  1.00  0.00     0.068 A 
ATOM     16  C   UNL     1      82.975  -1.895  -7.483  1.00  0.00     0.158 A 
BRANCH  14  17
ATOM     17  O   UNL     1      83.372  -4.276  -7.577  1.00  0.00    -0.504 OA
ATOM     18  H   UNL     1      82.406  -4.504  -7.371  1.00  0.00     0.293 HD
ENDBRANCH  14  17
BRANCH  16  19
ATOM     19  O   UNL     1      81.611  -2.123  -7.661  1.00  0.00    -0.504 OA
ATOM     20  H   UNL     1      81.166  -2.003  -8.563  1.00  0.00     0.293 HD
ENDBRANCH  16  19
ENDBRANCH   1  11
BRANCH  10  21
ATOM     21  O   UNL     1      85.106   1.525  -9.400  1.00  0.00    -0.500 OA
ATOM     22  H   UNL     1      85.274   2.121 -10.202  1.00  0.00     0.294 HD
ENDBRANCH  10  21
BRANCH   5  23
ATOM     23  O   UNL     1      87.125   4.674  -2.603  1.00  0.00    -0.507 OA
ATOM     24  H   UNL     1      86.648   4.234  -1.825  1.00  0.00     0.293 HD
ENDBRANCH   5  23
BRANCH   7  25
ATOM     25  O   UNL     1      86.934   5.830  -7.310  1.00  0.00    -0.507 OA
ATOM     26  H   UNL     1      87.081   6.814  -7.115  1.00  0.00     0.293 HD
ENDBRANCH   7  25
TORSDOF 6
ENDMDL
MODEL 4
REMARK VINA RESULT:    -6.050      8.264      9.764
REMARK INTER + INTRA:          -7.423
REMARK INTER:                  -7.156
REMARK INTRA:                  -0.266
REMARK UNBOUND:                -0.135
REMARK SMILES Oc1cc(O)c2cc(O)c(-c3ccc(O)c(O)c3)[o+]c2c1
REMARK SMILES IDX 10 1 19 2 20 3 21 4 2 5 3 6 4 7 6 8 7 9 8 10 11 11 12 12
REMARK SMILES IDX 13 13 14 14 18 15 16 16 15 17 17 19 9 21 1 23 5 25
REMARK H PARENT 15 18 17 20 9 22 1 24 5 26
REMARK Flexibility Score: inf
ROOT
ATOM      1  C   UNL     1      84.122  -2.427  -6.905  1.00  0.00     0.402 A 
ATOM      2  O   UNL     1      84.660  -1.293  -6.457  1.00  0.00    -0.202 OA
ATOM      3  C   UNL     1      84.511  -0.125  -7.073  1.00  0.00     0.368 A 
ATOM      4  C   UNL     1      85.113   1.020  -6.540  1.00  0.00     0.162 A 
ATOM      5  C   UNL     1      84.968   2.255  -7.178  1.00  0.00     0.128 A 
ATOM      6  C   UNL     1      84.216   2.348  -8.358  1.00  0.00     0.093 A 
ATOM      7  C   UNL     1      83.605   1.209  -8.903  1.00  0.00     0.136 A 
ATOM      8  C   UNL     1      83.752  -0.034  -8.259  1.00  0.00     0.125 A 
ATOM      9  C   UNL     1      83.159  -1.201  -8.754  1.00  0.00     0.078 A 
ATOM     10  C   UNL     1      83.330  -2.410  -8.072  1.00  0.00     0.223 A 
ENDROOT
BRANCH   1  11
ATOM     11  C   UNL     1      84.366  -3.668  -6.137  1.00  0.00     0.087 A 
ATOM     12  C   UNL     1      83.347  -4.272  -5.378  1.00  0.00     0.022 A 
ATOM     13  C   UNL     1      83.594  -5.457  -4.679  1.00  0.00     0.051 A 
ATOM     14  C   UNL     1      84.857  -6.061  -4.738  1.00  0.00     0.157 A 
ATOM     15  C   UNL     1      85.623  -4.290  -6.208  1.00  0.00     0.068 A 
ATOM     16  C   UNL     1      85.871  -5.479  -5.506  1.00  0.00     0.158 A 
BRANCH  14  17
ATOM     17  O   UNL     1      85.107  -7.242  -4.041  1.00  0.00    -0.504 OA
ATOM     18  H   UNL     1      84.973  -8.150  -4.471  1.00  0.00     0.293 HD
ENDBRANCH  14  17
BRANCH  16  19
ATOM     19  O   UNL     1      87.125  -6.086  -5.569  1.00  0.00    -0.504 OA
ATOM     20  H   UNL     1      87.874  -5.821  -4.942  1.00  0.00     0.293 HD
ENDBRANCH  16  19
ENDBRANCH   1  11
BRANCH  10  21
ATOM     21  O   UNL     1      82.702  -3.567  -8.531  1.00  0.00    -0.500 OA
ATOM     22  H   UNL     1      82.965  -4.485  -8.191  1.00  0.00     0.294 HD
ENDBRANCH  10  21
BRANCH   5  23
ATOM     23  O   UNL     1      85.575   3.384  -6.634  1.00  0.00    -0.507 OA
ATOM     24  H   UNL     1      85.449   4.303  -7.043  1.00  0.00     0.293 HD
ENDBRANCH   5  23
BRANCH   7  25
ATOM     25  O   UNL     1      82.858   1.314 -10.077  1.00  0.00    -0.507 OA
ATOM     26  H   UNL     1      82.581   2.213 -10.453  1.00  0.00     0.293 HD
ENDBRANCH   7  25
TORSDOF 6
ENDMDL
MODEL 5
REMARK VINA RESULT:    -5.841      8.725     10.180
REMARK INTER + INTRA:          -7.171
REMARK INTER:                  -7.487
REMARK INTRA:                   0.317
REMARK UNBOUND:                -0.135
REMARK SMILES Oc1cc(O)c2cc(O)c(-c3ccc(O)c(O)c3)[o+]c2c1
REMARK SMILES IDX 10 1 19 2 20 3 21 4 2 5 3 6 4 7 6 8 7 9 8 10 11 11 12 12
REMARK SMILES IDX 13 13 14 14 18 15 16 16 15 17 17 19 9 21 1 23 5 25
REMARK H PARENT 15 18 17 20 9 22 1 24 5 26
REMARK Flexibility Score: inf
ROOT
ATOM      1  C   UNL     1      84.816   0.137  -8.077  1.00  0.00     0.402 A 
ATOM      2  O   UNL     1      85.124  -0.872  -7.264  1.00  0.00    -0.202 OA
ATOM      3  C   UNL     1      84.703  -2.118  -7.459  1.00  0.00     0.368 A 
ATOM      4  C   UNL     1      85.068  -3.121  -6.556  1.00  0.00     0.162 A 
ATOM      5  C   UNL     1      84.629  -4.435  -6.746  1.00  0.00     0.128 A 
ATOM      6  C   UNL     1      83.821  -4.749  -7.847  1.00  0.00     0.093 A 
ATOM      7  C   UNL     1      83.448  -3.753  -8.763  1.00  0.00     0.136 A 
ATOM      8  C   UNL     1      83.890  -2.431  -8.569  1.00  0.00     0.125 A 
ATOM      9  C   UNL     1      83.555  -1.400  -9.454  1.00  0.00     0.078 A 
ATOM     10  C   UNL     1      84.027  -0.104  -9.221  1.00  0.00     0.223 A 
ENDROOT
BRANCH   1  11
ATOM     11  C   UNL     1      85.338   1.483  -7.750  1.00  0.00     0.087 A 
ATOM     12  C   UNL     1      86.527   1.649  -7.018  1.00  0.00     0.022 A 
ATOM     13  C   UNL     1      87.013   2.930  -6.742  1.00  0.00     0.051 A 
ATOM     14  C   UNL     1      86.327   4.061  -7.202  1.00  0.00     0.157 A 
ATOM     15  C   UNL     1      84.665   2.621  -8.227  1.00  0.00     0.068 A 
ATOM     16  C   UNL     1      85.153   3.906  -7.949  1.00  0.00     0.158 A 
BRANCH  14  17
ATOM     17  O   UNL     1      86.808   5.340  -6.927  1.00  0.00    -0.504 OA
ATOM     18  H   UNL     1      86.204   6.066  -6.559  1.00  0.00     0.293 HD
ENDBRANCH  14  17
BRANCH  16  19
ATOM     19  O   UNL     1      84.475   5.032  -8.413  1.00  0.00    -0.504 OA
ATOM     20  H   UNL     1      84.327   5.192  -9.402  1.00  0.00     0.293 HD
ENDBRANCH  16  19
ENDBRANCH   1  11
BRANCH  10  21
ATOM     21  O   UNL     1      83.740   0.918 -10.125  1.00  0.00    -0.500 OA
ATOM     22  H   UNL     1      82.793   1.247 -10.271  1.00  0.00     0.294 HD
ENDBRANCH  10  21
BRANCH   5  23
ATOM     23  O   UNL     1      85.001  -5.421  -5.835  1.00  0.00    -0.507 OA
ATOM     24  H   UNL     1      85.910  -5.413  -5.385  1.00  0.00     0.293 HD
ENDBRANCH   5  23
BRANCH   7  25
ATOM     25  O   UNL     1      82.644  -4.078  -9.855  1.00  0.00    -0.507 OA
ATOM     26  H   UNL     1      82.891  -4.824 -10.495  1.00  0.00     0.293 HD
ENDBRANCH   7  25
TORSDOF 6
ENDMDL
MODEL 6
REMARK VINA RESULT:    -5.824      8.802     10.427
REMARK INTER + INTRA:          -7.150
REMARK INTER:                  -7.242
REMARK INTRA:                   0.092
REMARK UNBOUND:                -0.135
REMARK SMILES Oc1cc(O)c2cc(O)c(-c3ccc(O)c(O)c3)[o+]c2c1
REMARK SMILES IDX 10 1 19 2 20 3 21 4 2 5 3 6 4 7 6 8 7 9 8 10 11 11 12 12
REMARK SMILES IDX 13 13 14 14 18 15 16 16 15 17 17 19 9 21 1 23 5 25
REMARK H PARENT 15 18 17 20 9 22 1 24 5 26
REMARK Flexibility Score: inf
ROOT
ATOM      1  C   UNL     1      84.604  -3.308  -7.075  1.00  0.00     0.402 A 
ATOM      2  O   UNL     1      84.887  -2.070  -6.673  1.00  0.00    -0.202 OA
ATOM      3  C   UNL     1      84.408  -0.984  -7.271  1.00  0.00     0.368 A 
ATOM      4  C   UNL     1      84.756   0.282  -6.790  1.00  0.00     0.162 A 
ATOM      5  C   UNL     1      84.263   1.433  -7.412  1.00  0.00     0.128 A 
ATOM      6  C   UNL     1      83.416   1.319  -8.523  1.00  0.00     0.093 A 
ATOM      7  C   UNL     1      83.057   0.055  -9.016  1.00  0.00     0.136 A 
ATOM      8  C   UNL     1      83.554  -1.102  -8.389  1.00  0.00     0.125 A 
ATOM      9  C   UNL     1      83.223  -2.387  -8.833  1.00  0.00     0.078 A 
ATOM     10  C   UNL     1      83.738  -3.506  -8.170  1.00  0.00     0.223 A 
ENDROOT
BRANCH   1  11
ATOM     11  C   UNL     1      85.205  -4.439  -6.332  1.00  0.00     0.087 A 
ATOM     12  C   UNL     1      86.550  -4.413  -5.921  1.00  0.00     0.022 A 
ATOM     13  C   UNL     1      87.089  -5.482  -5.200  1.00  0.00     0.051 A 
ATOM     14  C   UNL     1      86.290  -6.585  -4.869  1.00  0.00     0.157 A 
ATOM     15  C   UNL     1      84.405  -5.538  -5.979  1.00  0.00     0.068 A 
ATOM     16  C   UNL     1      84.946  -6.611  -5.256  1.00  0.00     0.158 A 
BRANCH  14  17
ATOM     17  O   UNL     1      86.825  -7.654  -4.152  1.00  0.00    -0.504 OA
ATOM     18  H   UNL     1      86.395  -8.571  -4.168  1.00  0.00     0.293 HD
ENDBRANCH  14  17
BRANCH  16  19
ATOM     19  O   UNL     1      84.151  -7.706  -4.919  1.00  0.00    -0.504 OA
ATOM     20  H   UNL     1      83.453  -8.071  -5.557  1.00  0.00     0.293 HD
ENDBRANCH  16  19
ENDBRANCH   1  11
BRANCH  10  21
ATOM     21  O   UNL     1      83.374  -4.789  -8.575  1.00  0.00    -0.500 OA
ATOM     22  H   UNL     1      82.484  -4.972  -9.024  1.00  0.00     0.294 HD
ENDBRANCH  10  21
BRANCH   5  23
ATOM     23  O   UNL     1      84.621   2.686  -6.920  1.00  0.00    -0.507 OA
ATOM     24  H   UNL     1      84.867   2.824  -5.946  1.00  0.00     0.293 HD
ENDBRANCH   5  23
BRANCH   7  25
ATOM     25  O   UNL     1      82.212  -0.046 -10.122  1.00  0.00    -0.507 OA
ATOM     26  H   UNL     1      82.181  -0.883 -10.692  1.00  0.00     0.293 HD
ENDBRANCH   7  25
TORSDOF 6
ENDMDL
MODEL 7
REMARK VINA RESULT:    -5.515      8.650      9.896
REMARK INTER + INTRA:          -6.778
REMARK INTER:                  -6.649
REMARK INTRA:                  -0.129
REMARK UNBOUND:                -0.135
REMARK SMILES Oc1cc(O)c2cc(O)c(-c3ccc(O)c(O)c3)[o+]c2c1
REMARK SMILES IDX 10 1 19 2 20 3 21 4 2 5 3 6 4 7 6 8 7 9 8 10 11 11 12 12
REMARK SMILES IDX 13 13 14 14 18 15 16 16 15 17 17 19 9 21 1 23 5 25
REMARK H PARENT 15 18 17 20 9 22 1 24 5 26
REMARK Flexibility Score: inf
ROOT
ATOM      1  C   UNL     1      84.109  -2.287  -7.484  1.00  0.00     0.402 A 
ATOM      2  O   UNL     1      84.310  -2.749  -6.250  1.00  0.00    -0.202 OA
ATOM      3  C   UNL     1      84.170  -4.029  -5.922  1.00  0.00     0.368 A 
ATOM      4  C   UNL     1      84.396  -4.434  -4.602  1.00  0.00     0.162 A 
ATOM      5  C   UNL     1      84.249  -5.776  -4.242  1.00  0.00     0.128 A 
ATOM      6  C   UNL     1      83.875  -6.722  -5.207  1.00  0.00     0.093 A 
ATOM      7  C   UNL     1      83.648  -6.332  -6.535  1.00  0.00     0.136 A 
ATOM      8  C   UNL     1      83.795  -4.979  -6.896  1.00  0.00     0.125 A 
ATOM      9  C   UNL     1      83.588  -4.534  -8.207  1.00  0.00     0.078 A 
ATOM     10  C   UNL     1      83.755  -3.181  -8.515  1.00  0.00     0.223 A 
ENDROOT
BRANCH   1  11
ATOM     11  C   UNL     1      84.287  -0.837  -7.725  1.00  0.00     0.087 A 
ATOM     12  C   UNL     1      85.521  -0.202  -7.495  1.00  0.00     0.022 A 
ATOM     13  C   UNL     1      85.672   1.163  -7.752  1.00  0.00     0.051 A 
ATOM     14  C   UNL     1      84.598   1.911  -8.253  1.00  0.00     0.157 A 
ATOM     15  C   UNL     1      83.220  -0.086  -8.246  1.00  0.00     0.068 A 
ATOM     16  C   UNL     1      83.372   1.284  -8.504  1.00  0.00     0.158 A 
BRANCH  14  17
ATOM     17  O   UNL     1      84.745   3.273  -8.509  1.00  0.00    -0.504 OA
ATOM     18  H   UNL     1      84.895   3.940  -7.761  1.00  0.00     0.293 HD
ENDBRANCH  14  17
BRANCH  16  19
ATOM     19  O   UNL     1      82.307   2.029  -9.009  1.00  0.00    -0.504 OA
ATOM     20  H   UNL     1      82.399   2.581  -9.853  1.00  0.00     0.293 HD
ENDBRANCH  16  19
ENDBRANCH   1  11
BRANCH  10  21
ATOM     21  O   UNL     1      83.600  -2.738  -9.828  1.00  0.00    -0.500 OA
ATOM     22  H   UNL     1      82.698  -2.446 -10.187  1.00  0.00     0.294 HD
ENDBRANCH  10  21
BRANCH   5  23
ATOM     23  O   UNL     1      84.476  -6.162  -2.923  1.00  0.00    -0.507 OA
ATOM     24  H   UNL     1      84.941  -7.033  -2.697  1.00  0.00     0.293 HD
ENDBRANCH   5  23
BRANCH   7  25
ATOM     25  O   UNL     1      83.277  -7.282  -7.486  1.00  0.00    -0.507 OA
ATOM     26  H   UNL     1      82.324  -7.619  -7.558  1.00  0.00     0.293 HD
ENDBRANCH   7  25
TORSDOF 6
ENDMDL
MODEL 8
REMARK VINA RESULT:    -5.068      8.638     10.546
REMARK INTER + INTRA:          -6.240
REMARK INTER:                  -5.890
REMARK INTRA:                  -0.350
REMARK UNBOUND:                -0.135
REMARK SMILES Oc1cc(O)c2cc(O)c(-c3ccc(O)c(O)c3)[o+]c2c1
REMARK SMILES IDX 10 1 19 2 20 3 21 4 2 5 3 6 4 7 6 8 7 9 8 10 11 11 12 12
REMARK SMILES IDX 13 13 14 14 18 15 16 16 15 17 17 19 9 21 1 23 5 25
REMARK H PARENT 15 18 17 20 9 22 1 24 5 26
REMARK Flexibility Score: inf
ROOT
ATOM      1  C   UNL     1      84.911  -5.515  -4.645  1.00  0.00     0.402 A 
ATOM      2  O   UNL     1      85.152  -4.284  -5.094  1.00  0.00    -0.202 OA
ATOM      3  C   UNL     1      84.752  -3.853  -6.286  1.00  0.00     0.368 A 
ATOM      4  C   UNL     1      85.050  -2.546  -6.684  1.00  0.00     0.162 A 
ATOM      5  C   UNL     1      84.639  -2.080  -7.937  1.00  0.00     0.128 A 
ATOM      6  C   UNL     1      83.924  -2.925  -8.797  1.00  0.00     0.093 A 
ATOM      7  C   UNL     1      83.616  -4.238  -8.410  1.00  0.00     0.136 A 
ATOM      8  C   UNL     1      84.032  -4.706  -7.149  1.00  0.00     0.125 A 
ATOM      9  C   UNL     1      83.746  -6.003  -6.708  1.00  0.00     0.078 A 
ATOM     10  C   UNL     1      84.175  -6.417  -5.442  1.00  0.00     0.223 A 
ENDROOT
BRANCH   1  11
ATOM     11  C   UNL     1      85.415  -5.882  -3.303  1.00  0.00     0.087 A 
ATOM     12  C   UNL     1      86.629  -6.574  -3.140  1.00  0.00     0.022 A 
ATOM     13  C   UNL     1      87.097  -6.888  -1.862  1.00  0.00     0.051 A 
ATOM     14  C   UNL     1      86.367  -6.507  -0.728  1.00  0.00     0.157 A 
ATOM     15  C   UNL     1      84.698  -5.484  -2.162  1.00  0.00     0.068 A 
ATOM     16  C   UNL     1      85.168  -5.801  -0.879  1.00  0.00     0.158 A 
BRANCH  14  17
ATOM     17  O   UNL     1      86.830  -6.821   0.548  1.00  0.00    -0.504 OA
ATOM     18  H   UNL     1      87.756  -6.551   0.857  1.00  0.00     0.293 HD
ENDBRANCH  14  17
BRANCH  16  19
ATOM     19  O   UNL     1      84.447  -5.416   0.250  1.00  0.00    -0.504 OA
ATOM     20  H   UNL     1      83.994  -4.511   0.308  1.00  0.00     0.293 HD
ENDBRANCH  16  19
ENDBRANCH   1  11
BRANCH  10  21
ATOM     21  O   UNL     1      83.852  -7.690  -4.975  1.00  0.00    -0.500 OA
ATOM     22  H   UNL     1      83.301  -7.823  -4.135  1.00  0.00     0.294 HD
ENDBRANCH  10  21
BRANCH   5  23
ATOM     23  O   UNL     1      84.945  -0.776  -8.318  1.00  0.00    -0.507 OA
ATOM     24  H   UNL     1      85.464  -0.153  -7.710  1.00  0.00     0.293 HD
ENDBRANCH   5  23
BRANCH   7  25
ATOM     25  O   UNL     1      82.903  -5.070  -9.274  1.00  0.00    -0.507 OA
ATOM     26  H   UNL     1      82.161  -5.673  -8.939  1.00  0.00     0.293 HD
ENDBRANCH   7  25
TORSDOF 6
ENDMDL
MODEL 9
REMARK VINA RESULT:    -4.875      8.566      9.876
REMARK INTER + INTRA:          -6.008
REMARK INTER:                  -5.949
REMARK INTRA:                  -0.059
REMARK UNBOUND:                -0.135
REMARK SMILES Oc1cc(O)c2cc(O)c(-c3ccc(O)c(O)c3)[o+]c2c1
REMARK SMILES IDX 10 1 19 2 20 3 21 4 2 5 3 6 4 7 6 8 7 9 8 10 11 11 12 12
REMARK SMILES IDX 13 13 14 14 18 15 16 16 15 17 17 19 9 21 1 23 5 25
REMARK H PARENT 15 18 17 20 9 22 1 24 5 26
REMARK Flexibility Score: inf
ROOT
ATOM      1  C   UNL     1      84.814  -2.786  -6.716  1.00  0.00     0.402 A 
ATOM      2  O   UNL     1      83.880  -2.015  -7.270  1.00  0.00    -0.202 OA
ATOM      3  C   UNL     1      84.093  -0.750  -7.618  1.00  0.00     0.368 A 
ATOM      4  C   UNL     1      83.058  -0.006  -8.191  1.00  0.00     0.162 A 
ATOM      5  C   UNL     1      83.267   1.327  -8.558  1.00  0.00     0.128 A 
ATOM      6  C   UNL     1      84.520   1.920  -8.352  1.00  0.00     0.093 A 
ATOM      7  C   UNL     1      85.570   1.185  -7.780  1.00  0.00     0.136 A 
ATOM      8  C   UNL     1      85.357  -0.156  -7.410  1.00  0.00     0.125 A 
ATOM      9  C   UNL     1      86.369  -0.939  -6.843  1.00  0.00     0.078 A 
ATOM     10  C   UNL     1      86.108  -2.270  -6.500  1.00  0.00     0.223 A 
ENDROOT
BRANCH   1  11
ATOM     11  C   UNL     1      84.453  -4.178  -6.363  1.00  0.00     0.087 A 
ATOM     12  C   UNL     1      84.742  -4.711  -5.094  1.00  0.00     0.022 A 
ATOM     13  C   UNL     1      84.371  -6.020  -4.777  1.00  0.00     0.051 A 
ATOM     14  C   UNL     1      83.696  -6.811  -5.716  1.00  0.00     0.157 A 
ATOM     15  C   UNL     1      83.758  -4.969  -7.293  1.00  0.00     0.068 A 
ATOM     16  C   UNL     1      83.386  -6.283  -6.975  1.00  0.00     0.158 A 
BRANCH  14  17
ATOM     17  O   UNL     1      83.326  -8.118  -5.403  1.00  0.00    -0.504 OA
ATOM     18  H   UNL     1      83.406  -8.868  -6.079  1.00  0.00     0.293 HD
ENDBRANCH  14  17
BRANCH  16  19
ATOM     19  O   UNL     1      82.708  -7.069  -7.905  1.00  0.00    -0.504 OA
ATOM     20  H   UNL     1      81.712  -6.966  -8.061  1.00  0.00     0.293 HD
ENDBRANCH  16  19
ENDBRANCH   1  11
BRANCH  10  21
ATOM     21  O   UNL     1      87.125  -3.070  -5.980  1.00  0.00    -0.500 OA
ATOM     22  H   UNL     1      86.997  -4.065  -5.839  1.00  0.00     0.294 HD
ENDBRANCH  10  21
BRANCH   5  23
ATOM     23  O   UNL     1      82.224   2.054  -9.127  1.00  0.00    -0.507 OA
ATOM     24  H   UNL     1      81.801   1.778 -10.006  1.00  0.00     0.293 HD
ENDBRANCH   5  23
BRANCH   7  25
ATOM     25  O   UNL     1      86.813   1.785  -7.582  1.00  0.00    -0.507 OA
ATOM     26  H   UNL     1      87.200   2.440  -8.251  1.00  0.00     0.293 HD
ENDBRANCH   7  25
TORSDOF 6
ENDMDL
