MODEL 1
REMARK VINA RESULT:    -2.729      0.000      0.000
REMARK INTER + INTRA:          -6.169
REMARK INTER:                  -4.963
REMARK INTRA:                  -1.206
REMARK UNBOUND:                -1.206
REMARK SMILES CCCCCCCCCCCCCCCC(=O)[O-]
REMARK SMILES IDX 9 1 10 2 11 3 12 4 13 5 14 6 15 7 16 8 17 9 18 10 8 11 7 12
REMARK SMILES IDX 6 13 5 14 4 15 3 16 2 17 1 18
REMARK H PARENT
REMARK Flexibility Score: inf
ROOT
ATOM      1  C   UNL     1       0.644 -16.009 -18.352  1.00  0.00     0.000 C 
ENDROOT
BRANCH   1   2
ATOM      2  C   UNL     1       1.614 -14.895 -17.922  1.00  0.00     0.000 C 
BRANCH   2   3
ATOM      3  C   UNL     1       1.715 -13.761 -18.953  1.00  0.00     0.000 C 
BRANCH   3   4
ATOM      4  C   UNL     1       2.942 -12.882 -18.685  1.00  0.00     0.000 C 
BRANCH   4   5
ATOM      5  C   UNL     1       2.613 -11.397 -18.900  1.00  0.00     0.000 C 
BRANCH   5   6
ATOM      6  C   UNL     1       3.862 -10.502 -18.858  1.00  0.00     0.006 C 
BRANCH   6   7
ATOM      7  C   UNL     1       4.778 -10.707 -20.070  1.00  0.00     0.053 C 
BRANCH   7   8
ATOM      8  C   UNL     1       6.142 -11.131 -19.627  1.00  0.00     0.041 C 
ATOM      9  O   UNL     1       7.152 -10.848 -20.325  1.00  0.00    -0.550 OA
ATOM     10  O   UNL     1       6.295 -11.884 -18.470  1.00  0.00    -0.550 OA
ENDBRANCH   7   8
ENDBRANCH   6   7
ENDBRANCH   5   6
ENDBRANCH   4   5
ENDBRANCH   3   4
ENDBRANCH   2   3
ENDBRANCH   1   2
BRANCH   1  11
ATOM     11  C   UNL     1      -0.847 -15.617 -18.335  1.00  0.00     0.000 C 
BRANCH  11  12
ATOM     12  C   UNL     1      -1.827 -16.746 -18.713  1.00  0.00    -0.000 C 
BRANCH  12  13
ATOM     13  C   UNL     1      -1.968 -17.003 -20.224  1.00  0.00    -0.000 C 
BRANCH  13  14
ATOM     14  C   UNL     1      -2.040 -18.498 -20.570  1.00  0.00    -0.000 C 
BRANCH  14  15
ATOM     15  C   UNL     1      -1.468 -19.353 -19.434  1.00  0.00    -0.000 C 
BRANCH  15  16
ATOM     16  C   UNL     1       0.013 -19.676 -19.681  1.00  0.00    -0.000 C 
BRANCH  16  17
ATOM     17  C   UNL     1       0.835 -19.705 -18.383  1.00  0.00    -0.003 C 
ATOM     18  C   UNL     1      -0.039 -19.766 -17.131  1.00  0.00     0.004 C 
ENDBRANCH  16  17
ENDBRANCH  15  16
ENDBRANCH  14  15
ENDBRANCH  13  14
ENDBRANCH  12  13
ENDBRANCH  11  12
ENDBRANCH   1  11
TORSDOF 14
ENDMDL
MODEL 2
REMARK VINA RESULT:    -2.725      3.206      8.468
REMARK INTER + INTRA:          -6.161
REMARK INTER:                  -5.331
REMARK INTRA:                  -0.830
REMARK UNBOUND:                -1.206
REMARK SMILES CCCCCCCCCCCCCCCC(=O)[O-]
REMARK SMILES IDX 9 1 10 2 11 3 12 4 13 5 14 6 15 7 16 8 17 9 18 10 8 11 7 12
REMARK SMILES IDX 6 13 5 14 4 15 3 16 2 17 1 18
REMARK H PARENT
REMARK Flexibility Score: inf
ROOT
ATOM      1  C   UNL     1       0.003 -15.962 -18.555  1.00  0.00     0.000 C 
ENDROOT
BRANCH   1   2
ATOM      2  C   UNL     1      -1.409 -15.559 -19.018  1.00  0.00     0.000 C 
BRANCH   2   3
ATOM      3  C   UNL     1      -2.079 -16.632 -19.890  1.00  0.00     0.000 C 
BRANCH   3   4
ATOM      4  C   UNL     1      -1.949 -18.019 -19.251  1.00  0.00     0.000 C 
BRANCH   4   5
ATOM      5  C   UNL     1      -1.345 -19.027 -20.241  1.00  0.00     0.000 C 
BRANCH   5   6
ATOM      6  C   UNL     1      -0.503 -20.108 -19.545  1.00  0.00     0.006 C 
BRANCH   6   7
ATOM      7  C   UNL     1      -0.654 -20.085 -18.020  1.00  0.00     0.053 C 
BRANCH   7   8
ATOM      8  C   UNL     1       0.640 -19.709 -17.372  1.00  0.00     0.041 C 
ATOM      9  O   UNL     1       0.867 -20.030 -16.175  1.00  0.00    -0.550 OA
ATOM     10  O   UNL     1       1.576 -18.960 -18.073  1.00  0.00    -0.550 OA
ENDBRANCH   7   8
ENDBRANCH   6   7
ENDBRANCH   5   6
ENDBRANCH   4   5
ENDBRANCH   3   4
ENDBRANCH   2   3
ENDBRANCH   1   2
BRANCH   1  11
ATOM     11  C   UNL     1       0.791 -14.855 -17.828  1.00  0.00     0.000 C 
BRANCH  11  12
ATOM     12  C   UNL     1       2.109 -14.432 -18.509  1.00  0.00    -0.000 C 
BRANCH  12  13
ATOM     13  C   UNL     1       2.173 -12.955 -18.938  1.00  0.00    -0.000 C 
BRANCH  13  14
ATOM     14  C   UNL     1       3.500 -12.281 -18.560  1.00  0.00    -0.000 C 
BRANCH  14  15
ATOM     15  C   UNL     1       3.483 -10.792 -18.921  1.00  0.00    -0.000 C 
BRANCH  15  16
ATOM     16  C   UNL     1       4.611 -10.451 -19.905  1.00  0.00    -0.000 C 
BRANCH  16  17
ATOM     17  C   UNL     1       5.791 -11.432 -19.814  1.00  0.00    -0.003 C 
ATOM     18  C   UNL     1       7.119 -10.797 -20.222  1.00  0.00     0.004 C 
ENDBRANCH  16  17
ENDBRANCH  15  16
ENDBRANCH  14  15
ENDBRANCH  13  14
ENDBRANCH  12  13
ENDBRANCH  11  12
ENDBRANCH   1  11
TORSDOF 14
ENDMDL
MODEL 3
REMARK VINA RESULT:    -2.377      3.404      8.471
REMARK INTER + INTRA:          -5.528
REMARK INTER:                  -4.837
REMARK INTRA:                  -0.691
REMARK UNBOUND:                -1.206
REMARK SMILES CCCCCCCCCCCCCCCC(=O)[O-]
REMARK SMILES IDX 9 1 10 2 11 3 12 4 13 5 14 6 15 7 16 8 17 9 18 10 8 11 7 12
REMARK SMILES IDX 6 13 5 14 4 15 3 16 2 17 1 18
REMARK H PARENT
REMARK Flexibility Score: inf
ROOT
ATOM      1  C   UNL     1      -0.059 -15.994 -18.582  1.00  0.00     0.000 C 
ENDROOT
BRANCH   1   2
ATOM      2  C   UNL     1      -1.558 -15.754 -18.836  1.00  0.00     0.000 C 
BRANCH   2   3
ATOM      3  C   UNL     1      -2.093 -16.546 -20.039  1.00  0.00     0.000 C 
BRANCH   3   4
ATOM      4  C   UNL     1      -1.590 -17.994 -20.011  1.00  0.00     0.000 C 
BRANCH   4   5
ATOM      5  C   UNL     1      -2.125 -18.738 -18.778  1.00  0.00     0.000 C 
BRANCH   5   6
ATOM      6  C   UNL     1      -1.383 -20.059 -18.517  1.00  0.00     0.006 C 
BRANCH   6   7
ATOM      7  C   UNL     1      -0.770 -20.125 -17.113  1.00  0.00     0.053 C 
BRANCH   7   8
ATOM      8  C   UNL     1       0.696 -19.834 -17.169  1.00  0.00     0.041 C 
ATOM      9  O   UNL     1       1.437 -20.121 -16.192  1.00  0.00    -0.550 OA
ATOM     10  O   UNL     1       1.236 -19.198 -18.279  1.00  0.00    -0.550 OA
ENDBRANCH   7   8
ENDBRANCH   6   7
ENDBRANCH   5   6
ENDBRANCH   4   5
ENDBRANCH   3   4
ENDBRANCH   2   3
ENDBRANCH   1   2
BRANCH   1  11
ATOM     11  C   UNL     1       0.663 -14.860 -17.828  1.00  0.00     0.000 C 
BRANCH  11  12
ATOM     12  C   UNL     1       2.105 -14.575 -18.296  1.00  0.00    -0.000 C 
BRANCH  12  13
ATOM     13  C   UNL     1       2.306 -13.213 -18.984  1.00  0.00    -0.000 C 
BRANCH  13  14
ATOM     14  C   UNL     1       3.604 -12.513 -18.553  1.00  0.00    -0.000 C 
BRANCH  14  15
ATOM     15  C   UNL     1       4.012 -11.440 -19.569  1.00  0.00    -0.000 C 
BRANCH  15  16
ATOM     16  C   UNL     1       4.014 -10.046 -18.926  1.00  0.00    -0.000 C 
BRANCH  16  17
ATOM     17  C   UNL     1       2.688  -9.717 -18.223  1.00  0.00    -0.003 C 
ATOM     18  C   UNL     1       2.890  -9.066 -16.856  1.00  0.00     0.004 C 
ENDBRANCH  16  17
ENDBRANCH  15  16
ENDBRANCH  14  15
ENDBRANCH  13  14
ENDBRANCH  12  13
ENDBRANCH  11  12
ENDBRANCH   1  11
TORSDOF 14
ENDMDL
MODEL 4
REMARK VINA RESULT:    -2.178      1.980      2.335
REMARK INTER + INTRA:          -5.166
REMARK INTER:                  -4.083
REMARK INTRA:                  -1.083
REMARK UNBOUND:                -1.206
REMARK SMILES CCCCCCCCCCCCCCCC(=O)[O-]
REMARK SMILES IDX 9 1 10 2 11 3 12 4 13 5 14 6 15 7 16 8 17 9 18 10 8 11 7 12
REMARK SMILES IDX 6 13 5 14 4 15 3 16 2 17 1 18
REMARK H PARENT
REMARK Flexibility Score: inf
ROOT
ATOM      1  C   UNL     1       0.307 -16.218 -18.381  1.00  0.00     0.000 C 
ENDROOT
BRANCH   1   2
ATOM      2  C   UNL     1       1.214 -15.114 -17.809  1.00  0.00     0.000 C 
BRANCH   2   3
ATOM      3  C   UNL     1       2.005 -14.369 -18.895  1.00  0.00     0.000 C 
BRANCH   3   4
ATOM      4  C   UNL     1       2.456 -12.991 -18.399  1.00  0.00     0.000 C 
BRANCH   4   5
ATOM      5  C   UNL     1       3.628 -12.460 -19.239  1.00  0.00     0.000 C 
BRANCH   5   6
ATOM      6  C   UNL     1       4.351 -11.282 -18.568  1.00  0.00     0.006 C 
BRANCH   6   7
ATOM      7  C   UNL     1       3.758  -9.923 -18.960  1.00  0.00     0.053 C 
BRANCH   7   8
ATOM      8  C   UNL     1       2.767  -9.471 -17.936  1.00  0.00     0.041 C 
ATOM      9  O   UNL     1       1.533  -9.630 -18.134  1.00  0.00    -0.550 OA
ATOM     10  O   UNL     1       3.201  -8.826 -16.785  1.00  0.00    -0.550 OA
ENDBRANCH   7   8
ENDBRANCH   6   7
ENDBRANCH   5   6
ENDBRANCH   4   5
ENDBRANCH   3   4
ENDBRANCH   2   3
ENDBRANCH   1   2
BRANCH   1  11
ATOM     11  C   UNL     1      -1.156 -15.798 -18.625  1.00  0.00     0.000 C 
BRANCH  11  12
ATOM     12  C   UNL     1      -2.125 -16.953 -18.950  1.00  0.00    -0.000 C 
BRANCH  12  13
ATOM     13  C   UNL     1      -1.689 -17.856 -20.118  1.00  0.00    -0.000 C 
BRANCH  13  14
ATOM     14  C   UNL     1      -1.480 -19.318 -19.696  1.00  0.00    -0.000 C 
BRANCH  14  15
ATOM     15  C   UNL     1      -2.058 -19.575 -18.300  1.00  0.00    -0.000 C 
BRANCH  15  16
ATOM     16  C   UNL     1      -0.965 -20.047 -17.330  1.00  0.00    -0.000 C 
BRANCH  16  17
ATOM     17  C   UNL     1       0.447 -19.915 -17.922  1.00  0.00    -0.003 C 
ATOM     18  C   UNL     1       1.529 -19.800 -16.849  1.00  0.00     0.004 C 
ENDBRANCH  16  17
ENDBRANCH  15  16
ENDBRANCH  14  15
ENDBRANCH  13  14
ENDBRANCH  12  13
ENDBRANCH  11  12
ENDBRANCH   1  11
TORSDOF 14
ENDMDL
MODEL 5
REMARK VINA RESULT:    -2.098      3.459      8.660
REMARK INTER + INTRA:          -5.021
REMARK INTER:                  -4.908
REMARK INTRA:                  -0.113
REMARK UNBOUND:                -1.206
REMARK SMILES CCCCCCCCCCCCCCCC(=O)[O-]
REMARK SMILES IDX 9 1 10 2 11 3 12 4 13 5 14 6 15 7 16 8 17 9 18 10 8 11 7 12
REMARK SMILES IDX 6 13 5 14 4 15 3 16 2 17 1 18
REMARK H PARENT
REMARK Flexibility Score: inf
ROOT
ATOM      1  C   UNL     1       1.495 -14.851 -17.841  1.00  0.00     0.000 C 
ENDROOT
BRANCH   1   2
ATOM      2  C   UNL     1       0.600 -16.032 -18.258  1.00  0.00     0.000 C 
BRANCH   2   3
ATOM      3  C   UNL     1      -0.866 -15.623 -18.468  1.00  0.00     0.000 C 
BRANCH   3   4
ATOM      4  C   UNL     1      -1.508 -16.438 -19.596  1.00  0.00     0.000 C 
BRANCH   4   5
ATOM      5  C   UNL     1      -0.973 -17.878 -19.607  1.00  0.00     0.000 C 
BRANCH   5   6
ATOM      6  C   UNL     1      -1.863 -18.846 -18.812  1.00  0.00     0.006 C 
BRANCH   6   7
ATOM      7  C   UNL     1      -1.081 -19.637 -17.756  1.00  0.00     0.053 C 
BRANCH   7   8
ATOM      8  C   UNL     1       0.348 -19.790 -18.170  1.00  0.00     0.041 C 
ATOM      9  O   UNL     1       0.634 -20.123 -19.351  1.00  0.00    -0.550 OA
ATOM     10  O   UNL     1       1.364 -19.615 -17.239  1.00  0.00    -0.550 OA
ENDBRANCH   7   8
ENDBRANCH   6   7
ENDBRANCH   5   6
ENDBRANCH   4   5
ENDBRANCH   3   4
ENDBRANCH   2   3
ENDBRANCH   1   2
BRANCH   1  11
ATOM     11  C   UNL     1       1.892 -13.898 -18.987  1.00  0.00     0.000 C 
BRANCH  11  12
ATOM     12  C   UNL     1       2.911 -12.805 -18.608  1.00  0.00    -0.000 C 
BRANCH  12  13
ATOM     13  C   UNL     1       2.413 -11.361 -18.800  1.00  0.00    -0.000 C 
BRANCH  13  14
ATOM     14  C   UNL     1       3.542 -10.323 -18.701  1.00  0.00    -0.000 C 
BRANCH  14  15
ATOM     15  C   UNL     1       4.467 -10.400 -19.921  1.00  0.00    -0.000 C 
BRANCH  15  16
ATOM     16  C   UNL     1       5.709 -11.250 -19.616  1.00  0.00    -0.000 C 
BRANCH  16  17
ATOM     17  C   UNL     1       6.772 -11.162 -20.723  1.00  0.00    -0.003 C 
ATOM     18  C   UNL     1       8.030 -10.420 -20.276  1.00  0.00     0.004 C 
ENDBRANCH  16  17
ENDBRANCH  15  16
ENDBRANCH  14  15
ENDBRANCH  13  14
ENDBRANCH  12  13
ENDBRANCH  11  12
ENDBRANCH   1  11
TORSDOF 14
ENDMDL
MODEL 6
REMARK VINA RESULT:    -1.843      3.103      4.293
REMARK INTER + INTRA:          -4.557
REMARK INTER:                  -3.771
REMARK INTRA:                  -0.786
REMARK UNBOUND:                -1.206
REMARK SMILES CCCCCCCCCCCCCCCC(=O)[O-]
REMARK SMILES IDX 9 1 10 2 11 3 12 4 13 5 14 6 15 7 16 8 17 9 18 10 8 11 7 12
REMARK SMILES IDX 6 13 5 14 4 15 3 16 2 17 1 18
REMARK H PARENT
REMARK Flexibility Score: inf
ROOT
ATOM      1  C   UNL     1       2.449 -12.636 -18.880  1.00  0.00     0.000 C 
ENDROOT
BRANCH   1   2
ATOM      2  C   UNL     1       3.862 -12.037 -18.752  1.00  0.00     0.000 C 
BRANCH   2   3
ATOM      3  C   UNL     1       3.846 -10.527 -18.471  1.00  0.00     0.000 C 
BRANCH   3   4
ATOM      4  C   UNL     1       2.408 -10.000 -18.385  1.00  0.00     0.000 C 
BRANCH   4   5
ATOM      5  C   UNL     1       2.302  -8.858 -17.363  1.00  0.00     0.000 C 
BRANCH   5   6
ATOM      6  C   UNL     1       3.206  -9.072 -16.140  1.00  0.00     0.006 C 
BRANCH   6   7
ATOM      7  C   UNL     1       3.555  -7.761 -15.425  1.00  0.00     0.053 C 
BRANCH   7   8
ATOM      8  C   UNL     1       3.772  -8.004 -13.966  1.00  0.00     0.041 C 
ATOM      9  O   UNL     1       4.413  -9.017 -13.579  1.00  0.00    -0.550 OA
ATOM     10  O   UNL     1       3.222  -7.139 -13.028  1.00  0.00    -0.550 OA
ENDBRANCH   7   8
ENDBRANCH   6   7
ENDBRANCH   5   6
ENDBRANCH   4   5
ENDBRANCH   3   4
ENDBRANCH   2   3
ENDBRANCH   1   2
BRANCH   1  11
ATOM     11  C   UNL     1       2.378 -14.171 -18.749  1.00  0.00     0.000 C 
BRANCH  11  12
ATOM     12  C   UNL     1       1.297 -14.697 -17.785  1.00  0.00    -0.000 C 
BRANCH  12  13
ATOM     13  C   UNL     1       0.595 -15.989 -18.241  1.00  0.00    -0.000 C 
BRANCH  13  14
ATOM     14  C   UNL     1      -0.888 -15.774 -18.582  1.00  0.00    -0.000 C 
BRANCH  14  15
ATOM     15  C   UNL     1      -1.595 -17.112 -18.826  1.00  0.00    -0.000 C 
BRANCH  15  16
ATOM     16  C   UNL     1      -0.639 -18.132 -19.461  1.00  0.00    -0.000 C 
BRANCH  16  17
ATOM     17  C   UNL     1      -0.628 -19.475 -18.715  1.00  0.00    -0.003 C 
ATOM     18  C   UNL     1       0.596 -19.640 -17.815  1.00  0.00     0.004 C 
ENDBRANCH  16  17
ENDBRANCH  15  16
ENDBRANCH  14  15
ENDBRANCH  13  14
ENDBRANCH  12  13
ENDBRANCH  11  12
ENDBRANCH   1  11
TORSDOF 14
ENDMDL
MODEL 7
REMARK VINA RESULT:    -1.829      3.942      9.154
REMARK INTER + INTRA:          -4.532
REMARK INTER:                  -3.901
REMARK INTRA:                  -0.631
REMARK UNBOUND:                -1.206
REMARK SMILES CCCCCCCCCCCCCCCC(=O)[O-]
REMARK SMILES IDX 9 1 10 2 11 3 12 4 13 5 14 6 15 7 16 8 17 9 18 10 8 11 7 12
REMARK SMILES IDX 6 13 5 14 4 15 3 16 2 17 1 18
REMARK H PARENT
REMARK Flexibility Score: inf
ROOT
ATOM      1  C   UNL     1       2.420 -14.086 -18.761  1.00  0.00     0.000 C 
ENDROOT
BRANCH   1   2
ATOM      2  C   UNL     1       1.420 -14.726 -17.781  1.00  0.00     0.000 C 
BRANCH   2   3
ATOM      3  C   UNL     1       0.830 -16.044 -18.308  1.00  0.00     0.000 C 
BRANCH   3   4
ATOM      4  C   UNL     1      -0.668 -15.898 -18.596  1.00  0.00     0.000 C 
BRANCH   4   5
ATOM      5  C   UNL     1      -1.224 -17.161 -19.270  1.00  0.00     0.000 C 
BRANCH   5   6
ATOM      6  C   UNL     1      -1.988 -18.067 -18.292  1.00  0.00     0.006 C 
BRANCH   6   7
ATOM      7  C   UNL     1      -1.626 -19.548 -18.452  1.00  0.00     0.053 C 
BRANCH   7   8
ATOM      8  C   UNL     1      -0.144 -19.718 -18.546  1.00  0.00     0.041 C 
ATOM      9  O   UNL     1       0.589 -19.447 -17.558  1.00  0.00    -0.550 OA
ATOM     10  O   UNL     1       0.435 -20.125 -19.741  1.00  0.00    -0.550 OA
ENDBRANCH   7   8
ENDBRANCH   6   7
ENDBRANCH   5   6
ENDBRANCH   4   5
ENDBRANCH   3   4
ENDBRANCH   2   3
ENDBRANCH   1   2
BRANCH   1  11
ATOM     11  C   UNL     1       2.404 -12.544 -18.791  1.00  0.00     0.000 C 
BRANCH  11  12
ATOM     12  C   UNL     1       3.750 -11.882 -19.149  1.00  0.00    -0.000 C 
BRANCH  12  13
ATOM     13  C   UNL     1       4.180 -10.740 -18.210  1.00  0.00    -0.000 C 
BRANCH  13  14
ATOM     14  C   UNL     1       3.230  -9.533 -18.264  1.00  0.00    -0.000 C 
BRANCH  14  15
ATOM     15  C   UNL     1       2.570  -9.293 -16.902  1.00  0.00    -0.000 C 
BRANCH  15  16
ATOM     16  C   UNL     1       3.266  -8.151 -16.147  1.00  0.00    -0.000 C 
BRANCH  16  17
ATOM     17  C   UNL     1       3.890  -8.613 -14.821  1.00  0.00    -0.003 C 
ATOM     18  C   UNL     1       3.682  -7.609 -13.689  1.00  0.00     0.004 C 
ENDBRANCH  16  17
ENDBRANCH  15  16
ENDBRANCH  14  15
ENDBRANCH  13  14
ENDBRANCH  12  13
ENDBRANCH  11  12
ENDBRANCH   1  11
TORSDOF 14
ENDMDL
MODEL 8
REMARK VINA RESULT:    -1.426      4.391      9.331
REMARK INTER + INTRA:          -3.799
REMARK INTER:                  -3.407
REMARK INTRA:                  -0.391
REMARK UNBOUND:                -1.206
REMARK SMILES CCCCCCCCCCCCCCCC(=O)[O-]
REMARK SMILES IDX 9 1 10 2 11 3 12 4 13 5 14 6 15 7 16 8 17 9 18 10 8 11 7 12
REMARK SMILES IDX 6 13 5 14 4 15 3 16 2 17 1 18
REMARK H PARENT
REMARK Flexibility Score: inf
ROOT
ATOM      1  C   UNL     1       4.208 -12.345 -19.094  1.00  0.00     0.000 C 
ENDROOT
BRANCH   1   2
ATOM      2  C   UNL     1       2.754 -12.654 -18.695  1.00  0.00     0.000 C 
BRANCH   2   3
ATOM      3  C   UNL     1       2.343 -14.100 -19.012  1.00  0.00     0.000 C 
BRANCH   3   4
ATOM      4  C   UNL     1       1.635 -14.745 -17.815  1.00  0.00     0.000 C 
BRANCH   4   5
ATOM      5  C   UNL     1       0.353 -15.467 -18.257  1.00  0.00     0.000 C 
BRANCH   5   6
ATOM      6  C   UNL     1       0.527 -16.992 -18.326  1.00  0.00     0.006 C 
BRANCH   6   7
ATOM      7  C   UNL     1      -0.543 -17.671 -19.189  1.00  0.00     0.053 C 
BRANCH   7   8
ATOM      8  C   UNL     1      -0.312 -19.148 -19.243  1.00  0.00     0.041 C 
ATOM      9  O   UNL     1      -0.450 -19.772 -20.328  1.00  0.00    -0.550 OA
ATOM     10  O   UNL     1       0.007 -19.844 -18.084  1.00  0.00    -0.550 OA
ENDBRANCH   7   8
ENDBRANCH   6   7
ENDBRANCH   5   6
ENDBRANCH   4   5
ENDBRANCH   3   4
ENDBRANCH   2   3
ENDBRANCH   1   2
BRANCH   1  11
ATOM     11  C   UNL     1       4.457 -10.903 -19.580  1.00  0.00     0.000 C 
BRANCH  11  12
ATOM     12  C   UNL     1       3.460  -9.851 -19.053  1.00  0.00    -0.000 C 
BRANCH  12  13
ATOM     13  C   UNL     1       3.473  -9.654 -17.526  1.00  0.00    -0.000 C 
BRANCH  13  14
ATOM     14  C   UNL     1       2.579  -8.491 -17.068  1.00  0.00    -0.000 C 
BRANCH  14  15
ATOM     15  C   UNL     1       3.153  -7.818 -15.816  1.00  0.00    -0.000 C 
BRANCH  15  16
ATOM     16  C   UNL     1       3.884  -8.837 -14.930  1.00  0.00    -0.000 C 
BRANCH  16  17
ATOM     17  C   UNL     1       3.916  -8.419 -13.451  1.00  0.00    -0.003 C 
ATOM     18  C   UNL     1       3.492  -6.966 -13.240  1.00  0.00     0.004 C 
ENDBRANCH  16  17
ENDBRANCH  15  16
ENDBRANCH  14  15
ENDBRANCH  13  14
ENDBRANCH  12  13
ENDBRANCH  11  12
ENDBRANCH   1  11
TORSDOF 14
ENDMDL
MODEL 9
REMARK VINA RESULT:    -1.185      3.732      8.713
REMARK INTER + INTRA:          -3.361
REMARK INTER:                  -2.610
REMARK INTRA:                  -0.751
REMARK UNBOUND:                -1.206
REMARK SMILES CCCCCCCCCCCCCCCC(=O)[O-]
REMARK SMILES IDX 9 1 10 2 11 3 12 4 13 5 14 6 15 7 16 8 17 9 18 10 8 11 7 12
REMARK SMILES IDX 6 13 5 14 4 15 3 16 2 17 1 18
REMARK H PARENT
REMARK Flexibility Score: inf
ROOT
ATOM      1  C   UNL     1       2.087 -13.895 -19.104  1.00  0.00     0.000 C 
ENDROOT
BRANCH   1   2
ATOM      2  C   UNL     1       1.598 -14.727 -17.905  1.00  0.00     0.000 C 
BRANCH   2   3
ATOM      3  C   UNL     1       0.807 -15.974 -18.327  1.00  0.00     0.000 C 
BRANCH   3   4
ATOM      4  C   UNL     1      -0.697 -15.677 -18.385  1.00  0.00     0.000 C 
BRANCH   4   5
ATOM      5  C   UNL     1      -1.375 -16.484 -19.502  1.00  0.00     0.000 C 
BRANCH   5   6
ATOM      6  C   UNL     1      -1.993 -17.795 -18.993  1.00  0.00     0.006 C 
BRANCH   6   7
ATOM      7  C   UNL     1      -1.220 -19.035 -19.460  1.00  0.00     0.053 C 
BRANCH   7   8
ATOM      8  C   UNL     1      -0.334 -19.540 -18.367  1.00  0.00     0.041 C 
ATOM      9  O   UNL     1       0.919 -19.487 -18.490  1.00  0.00    -0.550 OA
ATOM     10  O   UNL     1      -0.890 -20.118 -17.233  1.00  0.00    -0.550 OA
ENDBRANCH   7   8
ENDBRANCH   6   7
ENDBRANCH   5   6
ENDBRANCH   4   5
ENDBRANCH   3   4
ENDBRANCH   2   3
ENDBRANCH   1   2
BRANCH   1  11
ATOM     11  C   UNL     1       2.682 -12.519 -18.743  1.00  0.00     0.000 C 
BRANCH  11  12
ATOM     12  C   UNL     1       4.163 -12.324 -19.125  1.00  0.00    -0.000 C 
BRANCH  12  13
ATOM     13  C   UNL     1       4.563 -10.873 -19.448  1.00  0.00    -0.000 C 
BRANCH  13  14
ATOM     14  C   UNL     1       3.459  -9.860 -19.110  1.00  0.00    -0.000 C 
BRANCH  14  15
ATOM     15  C   UNL     1       3.441  -9.547 -17.609  1.00  0.00    -0.000 C 
BRANCH  15  16
ATOM     16  C   UNL     1       2.021  -9.205 -17.136  1.00  0.00    -0.000 C 
BRANCH  16  17
ATOM     17  C   UNL     1       0.986  -9.278 -18.269  1.00  0.00    -0.003 C 
ATOM     18  C   UNL     1      -0.314  -8.551 -17.930  1.00  0.00     0.004 C 
ENDBRANCH  16  17
ENDBRANCH  15  16
ENDBRANCH  14  15
ENDBRANCH  13  14
ENDBRANCH  12  13
ENDBRANCH  11  12
ENDBRANCH   1  11
TORSDOF 14
ENDMDL
