MODEL 1
REMARK VINA RESULT:    -4.485      0.000      0.000
REMARK INTER + INTRA:          -6.175
REMARK INTER:                  -5.796
REMARK INTRA:                  -0.378
REMARK UNBOUND:                -0.378
REMARK SMILES CCO[C@@H]1O[C@@H](CO)[C@@H](O)[C@@H](O)[C@H]1O
REMARK SMILES IDX 4 1 13 2 11 3 9 4 6 5 5 6 3 7 2 8 1 9 14 10 12 12 7 14 8 15
REMARK SMILES IDX 10 17
REMARK H PARENT 14 11 12 13 8 16 10 18
REMARK Flexibility Score: inf
ROOT
ATOM      1  C   UNL     1      18.237   1.847 -18.065  1.00  0.00     0.281 C 
ATOM      2  C   UNL     1      17.102   0.806 -18.222  1.00  0.00     0.202 C 
ATOM      3  C   UNL     1      16.526   0.425 -16.847  1.00  0.00     0.179 C 
ATOM      4  C   UNL     1      16.171   1.687 -16.036  1.00  0.00     0.177 C 
ATOM      5  C   UNL     1      17.396   2.628 -16.011  1.00  0.00     0.178 C 
ATOM      6  O   UNL     1      17.797   2.979 -17.328  1.00  0.00    -0.341 OA
ENDROOT
BRANCH   1   7
ATOM      7  O   UNL     1      19.376   1.267 -17.440  1.00  0.00    -0.350 OA
BRANCH   7   8
ATOM      8  C   UNL     1      20.581   1.883 -17.857  1.00  0.00     0.160 C 
ATOM      9  C   UNL     1      20.561   2.118 -19.364  1.00  0.00     0.035 C 
ENDBRANCH   7   8
ENDBRANCH   1   7
BRANCH   2  10
ATOM     10  O   UNL     1      16.084   1.333 -19.036  1.00  0.00    -0.385 OA
ATOM     11  H   UNL     1      16.277   2.300 -19.149  1.00  0.00     0.211 HD
ENDBRANCH   2  10
BRANCH   3  12
ATOM     12  O   UNL     1      15.398  -0.394 -17.015  1.00  0.00    -0.387 OA
ATOM     13  H   UNL     1      15.030  -0.191 -17.915  1.00  0.00     0.211 HD
ENDBRANCH   3  12
BRANCH   5  14
ATOM     14  C   UNL     1      17.119   3.908 -15.210  1.00  0.00     0.191 C 
BRANCH  14  15
ATOM     15  O   UNL     1      16.183   4.714 -15.872  1.00  0.00    -0.394 OA
ATOM     16  H   UNL     1      16.337   5.639 -15.544  1.00  0.00     0.210 HD
ENDBRANCH  14  15
ENDBRANCH   5  14
BRANCH   4  17
ATOM     17  O   UNL     1      15.068   2.342 -16.612  1.00  0.00    -0.387 OA
ATOM     18  H   UNL     1      14.255   1.992 -16.162  1.00  0.00     0.211 HD
ENDBRANCH   4  17
TORSDOF 7
ENDMDL
MODEL 2
REMARK VINA RESULT:    -4.454      6.849      8.586
REMARK INTER + INTRA:          -6.134
REMARK INTER:                  -5.724
REMARK INTRA:                  -0.410
REMARK UNBOUND:                -0.378
REMARK SMILES CCO[C@@H]1O[C@@H](CO)[C@@H](O)[C@@H](O)[C@H]1O
REMARK SMILES IDX 4 1 13 2 11 3 9 4 6 5 5 6 3 7 2 8 1 9 14 10 12 12 7 14 8 15
REMARK SMILES IDX 10 17
REMARK H PARENT 14 11 12 13 8 16 10 18
REMARK Flexibility Score: inf
ROOT
ATOM      1  C   UNL     1      15.183   0.273 -10.067  1.00  0.00     0.281 C 
ATOM      2  C   UNL     1      16.114   1.308 -10.745  1.00  0.00     0.202 C 
ATOM      3  C   UNL     1      15.662   2.740 -10.409  1.00  0.00     0.179 C 
ATOM      4  C   UNL     1      15.468   2.908  -8.889  1.00  0.00     0.177 C 
ATOM      5  C   UNL     1      14.547   1.779  -8.374  1.00  0.00     0.178 C 
ATOM      6  O   UNL     1      15.095   0.501  -8.667  1.00  0.00    -0.341 OA
ENDROOT
BRANCH   1   7
ATOM      7  O   UNL     1      13.885   0.298 -10.651  1.00  0.00    -0.350 OA
BRANCH   7   8
ATOM      8  C   UNL     1      13.918  -0.024 -12.029  1.00  0.00     0.160 C 
ATOM      9  C   UNL     1      13.027   0.929 -12.818  1.00  0.00     0.035 C 
ENDBRANCH   7   8
ENDBRANCH   1   7
BRANCH   2  10
ATOM     10  O   UNL     1      17.437   1.112 -10.312  1.00  0.00    -0.385 OA
ATOM     11  H   UNL     1      17.424   1.154  -9.321  1.00  0.00     0.211 HD
ENDBRANCH   2  10
BRANCH   3  12
ATOM     12  O   UNL     1      16.603   3.661 -10.896  1.00  0.00    -0.387 OA
ATOM     13  H   UNL     1      16.254   3.996 -11.763  1.00  0.00     0.211 HD
ENDBRANCH   3  12
BRANCH   5  14
ATOM     14  C   UNL     1      14.299   1.887  -6.863  1.00  0.00     0.191 C 
BRANCH  14  15
ATOM     15  O   UNL     1      14.343   3.225  -6.448  1.00  0.00    -0.394 OA
ATOM     16  H   UNL     1      15.110   3.292  -5.819  1.00  0.00     0.210 HD
ENDBRANCH  14  15
ENDBRANCH   5  14
BRANCH   4  17
ATOM     17  O   UNL     1      16.709   2.861  -8.231  1.00  0.00    -0.387 OA
ATOM     18  H   UNL     1      16.841   1.925  -7.928  1.00  0.00     0.211 HD
ENDBRANCH   4  17
TORSDOF 7
ENDMDL
MODEL 3
REMARK VINA RESULT:    -4.386      2.939      4.902
REMARK INTER + INTRA:          -6.046
REMARK INTER:                  -5.647
REMARK INTRA:                  -0.399
REMARK UNBOUND:                -0.378
REMARK SMILES CCO[C@@H]1O[C@@H](CO)[C@@H](O)[C@@H](O)[C@H]1O
REMARK SMILES IDX 4 1 13 2 11 3 9 4 6 5 5 6 3 7 2 8 1 9 14 10 12 12 7 14 8 15
REMARK SMILES IDX 10 17
REMARK H PARENT 14 11 12 13 8 16 10 18
REMARK Flexibility Score: inf
ROOT
ATOM      1  C   UNL     1      20.438  -0.361 -16.810  1.00  0.00     0.281 C 
ATOM      2  C   UNL     1      19.697   0.785 -16.076  1.00  0.00     0.202 C 
ATOM      3  C   UNL     1      20.330   2.144 -16.424  1.00  0.00     0.179 C 
ATOM      4  C   UNL     1      20.469   2.305 -17.950  1.00  0.00     0.177 C 
ATOM      5  C   UNL     1      21.194   1.066 -18.522  1.00  0.00     0.178 C 
ATOM      6  O   UNL     1      20.486  -0.127 -18.210  1.00  0.00    -0.341 OA
ENDROOT
BRANCH   1   7
ATOM      7  O   UNL     1      21.753  -0.528 -16.294  1.00  0.00    -0.350 OA
BRANCH   7   8
ATOM      8  C   UNL     1      21.744  -0.860 -14.918  1.00  0.00     0.160 C 
ATOM      9  C   UNL     1      23.017  -0.361 -14.243  1.00  0.00     0.035 C 
ENDBRANCH   7   8
ENDBRANCH   1   7
BRANCH   2  10
ATOM     10  O   UNL     1      18.340   0.783 -16.441  1.00  0.00    -0.385 OA
ATOM     11  H   UNL     1      17.907   0.048 -15.934  1.00  0.00     0.211 HD
ENDBRANCH   2  10
BRANCH   3  12
ATOM     12  O   UNL     1      19.554   3.180 -15.882  1.00  0.00    -0.387 OA
ATOM     13  H   UNL     1      18.605   2.894 -15.952  1.00  0.00     0.211 HD
ENDBRANCH   3  12
BRANCH   5  14
ATOM     14  C   UNL     1      21.378   1.160 -20.043  1.00  0.00     0.191 C 
BRANCH  14  15
ATOM     15  O   UNL     1      21.427   2.499 -20.454  1.00  0.00    -0.394 OA
ATOM     16  H   UNL     1      21.999   2.517 -21.265  1.00  0.00     0.210 HD
ENDBRANCH  14  15
ENDBRANCH   5  14
BRANCH   4  17
ATOM     17  O   UNL     1      19.203   2.443 -18.544  1.00  0.00    -0.387 OA
ATOM     18  H   UNL     1      18.953   1.553 -18.906  1.00  0.00     0.211 HD
ENDBRANCH   4  17
TORSDOF 7
ENDMDL
MODEL 4
REMARK VINA RESULT:    -4.364      6.035      7.525
REMARK INTER + INTRA:          -6.018
REMARK INTER:                  -5.743
REMARK INTRA:                  -0.275
REMARK UNBOUND:                -0.378
REMARK SMILES CCO[C@@H]1O[C@@H](CO)[C@@H](O)[C@@H](O)[C@H]1O
REMARK SMILES IDX 4 1 13 2 11 3 9 4 6 5 5 6 3 7 2 8 1 9 14 10 12 12 7 14 8 15
REMARK SMILES IDX 10 17
REMARK H PARENT 14 11 12 13 8 16 10 18
REMARK Flexibility Score: inf
ROOT
ATOM      1  C   UNL     1      17.510   3.763 -10.721  1.00  0.00     0.281 C 
ATOM      2  C   UNL     1      16.755   2.820  -9.753  1.00  0.00     0.202 C 
ATOM      3  C   UNL     1      17.275   1.379  -9.890  1.00  0.00     0.179 C 
ATOM      4  C   UNL     1      18.812   1.342  -9.797  1.00  0.00     0.177 C 
ATOM      5  C   UNL     1      19.399   2.362 -10.798  1.00  0.00     0.178 C 
ATOM      6  O   UNL     1      18.916   3.672 -10.534  1.00  0.00    -0.341 OA
ENDROOT
BRANCH   1   7
ATOM      7  O   UNL     1      17.176   3.477 -12.074  1.00  0.00    -0.350 OA
BRANCH   7   8
ATOM      8  C   UNL     1      17.632   4.485 -12.957  1.00  0.00     0.160 C 
ATOM      9  C   UNL     1      17.801   3.922 -14.364  1.00  0.00     0.035 C 
ENDBRANCH   7   8
ENDBRANCH   1   7
BRANCH   2  10
ATOM     10  O   UNL     1      16.924   3.264  -8.430  1.00  0.00    -0.385 OA
ATOM     11  H   UNL     1      17.870   3.552  -8.341  1.00  0.00     0.211 HD
ENDBRANCH   2  10
BRANCH   3  12
ATOM     12  O   UNL     1      16.696   0.569  -8.900  1.00  0.00    -0.387 OA
ATOM     13  H   UNL     1      15.730   0.799  -8.871  1.00  0.00     0.211 HD
ENDBRANCH   3  12
BRANCH   5  14
ATOM     14  C   UNL     1      20.934   2.376 -10.769  1.00  0.00     0.191 C 
BRANCH  14  15
ATOM     15  O   UNL     1      21.405   3.408  -9.947  1.00  0.00    -0.394 OA
ATOM     16  H   UNL     1      22.017   3.951 -10.510  1.00  0.00     0.210 HD
ENDBRANCH  14  15
ENDBRANCH   5  14
BRANCH   4  17
ATOM     17  O   UNL     1      19.229   1.650  -8.491  1.00  0.00    -0.387 OA
ATOM     18  H   UNL     1      19.356   0.786  -8.016  1.00  0.00     0.211 HD
ENDBRANCH   4  17
TORSDOF 7
ENDMDL
MODEL 5
REMARK VINA RESULT:    -4.354      7.320      8.299
REMARK INTER + INTRA:          -6.005
REMARK INTER:                  -5.655
REMARK INTRA:                  -0.351
REMARK UNBOUND:                -0.378
REMARK SMILES CCO[C@@H]1O[C@@H](CO)[C@@H](O)[C@@H](O)[C@H]1O
REMARK SMILES IDX 4 1 13 2 11 3 9 4 6 5 5 6 3 7 2 8 1 9 14 10 12 12 7 14 8 15
REMARK SMILES IDX 10 17
REMARK H PARENT 14 11 12 13 8 16 10 18
REMARK Flexibility Score: inf
ROOT
ATOM      1  C   UNL     1      17.346   1.861  -9.782  1.00  0.00     0.281 C 
ATOM      2  C   UNL     1      16.563   0.595 -10.207  1.00  0.00     0.202 C 
ATOM      3  C   UNL     1      15.787   0.015  -9.012  1.00  0.00     0.179 C 
ATOM      4  C   UNL     1      14.959   1.111  -8.315  1.00  0.00     0.177 C 
ATOM      5  C   UNL     1      15.882   2.309  -7.995  1.00  0.00     0.178 C 
ATOM      6  O   UNL     1      16.487   2.817  -9.176  1.00  0.00    -0.341 OA
ENDROOT
BRANCH   1   7
ATOM      7  O   UNL     1      18.410   1.528  -8.897  1.00  0.00    -0.350 OA
BRANCH   7   8
ATOM      8  C   UNL     1      19.420   0.775  -9.544  1.00  0.00     0.160 C 
ATOM      9  C   UNL     1      20.434   1.704 -10.202  1.00  0.00     0.035 C 
ENDBRANCH   7   8
ENDBRANCH   1   7
BRANCH   2  10
ATOM     10  O   UNL     1      15.671   0.915 -11.245  1.00  0.00    -0.385 OA
ATOM     11  H   UNL     1      15.979   0.424 -12.051  1.00  0.00     0.211 HD
ENDBRANCH   2  10
BRANCH   3  12
ATOM     12  O   UNL     1      14.961  -1.034  -9.447  1.00  0.00    -0.387 OA
ATOM     13  H   UNL     1      15.547  -1.682  -9.919  1.00  0.00     0.211 HD
ENDBRANCH   3  12
BRANCH   5  14
ATOM     14  C   UNL     1      15.125   3.442  -7.288  1.00  0.00     0.191 C 
BRANCH  14  15
ATOM     15  O   UNL     1      14.267   2.928  -6.306  1.00  0.00    -0.394 OA
ATOM     16  H   UNL     1      13.492   3.548  -6.267  1.00  0.00     0.210 HD
ENDBRANCH  14  15
ENDBRANCH   5  14
BRANCH   4  17
ATOM     17  O   UNL     1      13.900   1.523  -9.143  1.00  0.00    -0.387 OA
ATOM     18  H   UNL     1      13.059   1.221  -8.710  1.00  0.00     0.211 HD
ENDBRANCH   4  17
TORSDOF 7
ENDMDL
MODEL 6
REMARK VINA RESULT:    -4.321      5.757      7.255
REMARK INTER + INTRA:          -5.962
REMARK INTER:                  -5.539
REMARK INTRA:                  -0.423
REMARK UNBOUND:                -0.378
REMARK SMILES CCO[C@@H]1O[C@@H](CO)[C@@H](O)[C@@H](O)[C@H]1O
REMARK SMILES IDX 4 1 13 2 11 3 9 4 6 5 5 6 3 7 2 8 1 9 14 10 12 12 7 14 8 15
REMARK SMILES IDX 10 17
REMARK H PARENT 14 11 12 13 8 16 10 18
REMARK Flexibility Score: inf
ROOT
ATOM      1  C   UNL     1      19.282   2.700 -12.366  1.00  0.00     0.281 C 
ATOM      2  C   UNL     1      18.676   3.243 -11.049  1.00  0.00     0.202 C 
ATOM      3  C   UNL     1      18.531   2.111 -10.016  1.00  0.00     0.179 C 
ATOM      4  C   UNL     1      19.851   1.331  -9.873  1.00  0.00     0.177 C 
ATOM      5  C   UNL     1      20.331   0.897 -11.277  1.00  0.00     0.178 C 
ATOM      6  O   UNL     1      20.508   2.022 -12.126  1.00  0.00    -0.341 OA
ENDROOT
BRANCH   1   7
ATOM      7  O   UNL     1      18.366   1.836 -13.029  1.00  0.00    -0.350 OA
BRANCH   7   8
ATOM      8  C   UNL     1      17.516   2.544 -13.913  1.00  0.00     0.160 C 
ATOM      9  C   UNL     1      18.327   3.518 -14.760  1.00  0.00     0.035 C 
ENDBRANCH   7   8
ENDBRANCH   1   7
BRANCH   2  10
ATOM     10  O   UNL     1      19.498   4.258 -10.531  1.00  0.00    -0.385 OA
ATOM     11  H   UNL     1      20.430   3.918 -10.562  1.00  0.00     0.211 HD
ENDBRANCH   2  10
BRANCH   3  12
ATOM     12  O   UNL     1      18.132   2.646  -8.780  1.00  0.00    -0.387 OA
ATOM     13  H   UNL     1      18.635   3.493  -8.659  1.00  0.00     0.211 HD
ENDBRANCH   3  12
BRANCH   5  14
ATOM     14  C   UNL     1      21.643   0.102 -11.213  1.00  0.00     0.191 C 
BRANCH  14  15
ATOM     15  O   UNL     1      22.747   0.964 -11.264  1.00  0.00    -0.394 OA
ATOM     16  H   UNL     1      22.377   1.878 -11.384  1.00  0.00     0.210 HD
ENDBRANCH  14  15
ENDBRANCH   5  14
BRANCH   4  17
ATOM     17  O   UNL     1      20.827   2.131  -9.253  1.00  0.00    -0.387 OA
ATOM     18  H   UNL     1      21.444   1.518  -8.774  1.00  0.00     0.211 HD
ENDBRANCH   4  17
TORSDOF 7
ENDMDL
MODEL 7
REMARK VINA RESULT:    -4.319      6.856      8.888
REMARK INTER + INTRA:          -5.960
REMARK INTER:                  -5.613
REMARK INTRA:                  -0.347
REMARK UNBOUND:                -0.378
REMARK SMILES CCO[C@@H]1O[C@@H](CO)[C@@H](O)[C@@H](O)[C@H]1O
REMARK SMILES IDX 4 1 13 2 11 3 9 4 6 5 5 6 3 7 2 8 1 9 14 10 12 12 7 14 8 15
REMARK SMILES IDX 10 17
REMARK H PARENT 14 11 12 13 8 16 10 18
REMARK Flexibility Score: inf
ROOT
ATOM      1  C   UNL     1      15.861   1.986  -8.850  1.00  0.00     0.281 C 
ATOM      2  C   UNL     1      15.698   2.732 -10.196  1.00  0.00     0.202 C 
ATOM      3  C   UNL     1      16.969   3.536 -10.524  1.00  0.00     0.179 C 
ATOM      4  C   UNL     1      18.222   2.649 -10.399  1.00  0.00     0.177 C 
ATOM      5  C   UNL     1      18.208   1.954  -9.018  1.00  0.00     0.178 C 
ATOM      6  O   UNL     1      17.030   1.178  -8.849  1.00  0.00    -0.341 OA
ENDROOT
BRANCH   1   7
ATOM      7  O   UNL     1      15.898   2.902  -7.762  1.00  0.00    -0.350 OA
BRANCH   7   8
ATOM      8  C   UNL     1      14.718   2.844  -6.981  1.00  0.00     0.160 C 
ATOM      9  C   UNL     1      14.215   1.408  -6.886  1.00  0.00     0.035 C 
ENDBRANCH   7   8
ENDBRANCH   1   7
BRANCH   2  10
ATOM     10  O   UNL     1      15.440   1.808 -11.223  1.00  0.00    -0.385 OA
ATOM     11  H   UNL     1      16.289   1.688 -11.723  1.00  0.00     0.211 HD
ENDBRANCH   2  10
BRANCH   3  12
ATOM     12  O   UNL     1      16.868   4.076 -11.816  1.00  0.00    -0.387 OA
ATOM     13  H   UNL     1      17.502   4.839 -11.857  1.00  0.00     0.211 HD
ENDBRANCH   3  12
BRANCH   5  14
ATOM     14  C   UNL     1      19.437   1.057  -8.816  1.00  0.00     0.191 C 
BRANCH  14  15
ATOM     15  O   UNL     1      20.592   1.678  -9.312  1.00  0.00    -0.394 OA
ATOM     16  H   UNL     1      20.778   1.252 -10.189  1.00  0.00     0.210 HD
ENDBRANCH  14  15
ENDBRANCH   5  14
BRANCH   4  17
ATOM     17  O   UNL     1      18.245   1.688 -11.425  1.00  0.00    -0.387 OA
ATOM     18  H   UNL     1      18.782   0.921 -11.093  1.00  0.00     0.211 HD
ENDBRANCH   4  17
TORSDOF 7
ENDMDL
MODEL 8
REMARK VINA RESULT:    -4.307      7.416      9.261
REMARK INTER + INTRA:          -5.944
REMARK INTER:                  -5.580
REMARK INTRA:                  -0.364
REMARK UNBOUND:                -0.378
REMARK SMILES CCO[C@@H]1O[C@@H](CO)[C@@H](O)[C@@H](O)[C@H]1O
REMARK SMILES IDX 4 1 13 2 11 3 9 4 6 5 5 6 3 7 2 8 1 9 14 10 12 12 7 14 8 15
REMARK SMILES IDX 10 17
REMARK H PARENT 14 11 12 13 8 16 10 18
REMARK Flexibility Score: inf
ROOT
ATOM      1  C   UNL     1      16.892   1.973  -9.715  1.00  0.00     0.281 C 
ATOM      2  C   UNL     1      18.358   2.385  -9.994  1.00  0.00     0.202 C 
ATOM      3  C   UNL     1      19.317   1.634  -9.053  1.00  0.00     0.179 C 
ATOM      4  C   UNL     1      19.030   0.121  -9.077  1.00  0.00     0.177 C 
ATOM      5  C   UNL     1      17.524  -0.109  -8.819  1.00  0.00     0.178 C 
ATOM      6  O   UNL     1      16.732   0.563  -9.789  1.00  0.00    -0.341 OA
ENDROOT
BRANCH   1   7
ATOM      7  O   UNL     1      16.462   2.450  -8.445  1.00  0.00    -0.350 OA
BRANCH   7   8
ATOM      8  C   UNL     1      15.066   2.685  -8.412  1.00  0.00     0.160 C 
ATOM      9  C   UNL     1      14.558   2.658  -6.975  1.00  0.00     0.035 C 
ENDBRANCH   7   8
ENDBRANCH   1   7
BRANCH   2  10
ATOM     10  O   UNL     1      18.685   2.103 -11.331  1.00  0.00    -0.385 OA
ATOM     11  H   UNL     1      19.249   1.286 -11.323  1.00  0.00     0.211 HD
ENDBRANCH   2  10
BRANCH   3  12
ATOM     12  O   UNL     1      20.646   1.897  -9.422  1.00  0.00    -0.387 OA
ATOM     13  H   UNL     1      20.935   1.145 -10.002  1.00  0.00     0.211 HD
ENDBRANCH   3  12
BRANCH   5  14
ATOM     14  C   UNL     1      17.163  -1.601  -8.820  1.00  0.00     0.191 C 
BRANCH  14  15
ATOM     15  O   UNL     1      18.258  -2.376  -8.412  1.00  0.00    -0.394 OA
ATOM     16  H   UNL     1      18.823  -1.779  -7.853  1.00  0.00     0.210 HD
ENDBRANCH  14  15
ENDBRANCH   5  14
BRANCH   4  17
ATOM     17  O   UNL     1      19.398  -0.425 -10.320  1.00  0.00    -0.387 OA
ATOM     18  H   UNL     1      20.232  -0.944 -10.173  1.00  0.00     0.211 HD
ENDBRANCH   4  17
TORSDOF 7
ENDMDL
MODEL 9
REMARK VINA RESULT:    -4.241      6.245      7.407
REMARK INTER + INTRA:          -5.859
REMARK INTER:                  -5.448
REMARK INTRA:                  -0.411
REMARK UNBOUND:                -0.378
REMARK SMILES CCO[C@@H]1O[C@@H](CO)[C@@H](O)[C@@H](O)[C@H]1O
REMARK SMILES IDX 4 1 13 2 11 3 9 4 6 5 5 6 3 7 2 8 1 9 14 10 12 12 7 14 8 15
REMARK SMILES IDX 10 17
REMARK H PARENT 14 11 12 13 8 16 10 18
REMARK Flexibility Score: inf
ROOT
ATOM      1  C   UNL     1      21.012   1.341 -11.426  1.00  0.00     0.281 C 
ATOM      2  C   UNL     1      20.765   2.827 -11.066  1.00  0.00     0.202 C 
ATOM      3  C   UNL     1      19.257   3.134 -11.051  1.00  0.00     0.179 C 
ATOM      4  C   UNL     1      18.499   2.102 -10.193  1.00  0.00     0.177 C 
ATOM      5  C   UNL     1      18.887   0.681 -10.660  1.00  0.00     0.178 C 
ATOM      6  O   UNL     1      20.290   0.476 -10.560  1.00  0.00    -0.341 OA
ENDROOT
BRANCH   1   7
ATOM      7  O   UNL     1      20.663   1.082 -12.781  1.00  0.00    -0.350 OA
BRANCH   7   8
ATOM      8  C   UNL     1      21.629   1.591 -13.683  1.00  0.00     0.160 C 
ATOM      9  C   UNL     1      20.956   2.068 -14.965  1.00  0.00     0.035 C 
ENDBRANCH   7   8
ENDBRANCH   1   7
BRANCH   2  10
ATOM     10  O   UNL     1      21.321   3.109  -9.807  1.00  0.00    -0.385 OA
ATOM     11  H   UNL     1      21.020   4.022  -9.557  1.00  0.00     0.211 HD
ENDBRANCH   2  10
BRANCH   3  12
ATOM     12  O   UNL     1      19.043   4.435 -10.570  1.00  0.00    -0.387 OA
ATOM     13  H   UNL     1      18.216   4.769 -11.008  1.00  0.00     0.211 HD
ENDBRANCH   3  12
BRANCH   5  14
ATOM     14  C   UNL     1      18.161  -0.405  -9.853  1.00  0.00     0.191 C 
BRANCH  14  15
ATOM     15  O   UNL     1      18.822  -0.648  -8.642  1.00  0.00    -0.394 OA
ATOM     16  H   UNL     1      18.223  -0.304  -7.928  1.00  0.00     0.210 HD
ENDBRANCH  14  15
ENDBRANCH   5  14
BRANCH   4  17
ATOM     17  O   UNL     1      18.817   2.270  -8.834  1.00  0.00    -0.387 OA
ATOM     18  H   UNL     1      19.506   2.983  -8.783  1.00  0.00     0.211 HD
ENDBRANCH   4  17
TORSDOF 7
ENDMDL
